MODEL 1
REMARK VINA RESULT:     -11.4      0.000      0.000
REMARK SMILES COc1ccc(C(=O)OCCOC(=O)c2ccc(-c3c4nc(c(-c5c(F)c(F)c(F)c(F)c5F)c5ccc([nH]5)c(-c5c(F)c(F)c(F)c(F)c5F)c5nc(c(-c6c(F)c(F)c(F)c(F)c6F)c6ccc3[nH]6)C=C5)C=C4)cc2)cc1NCc1cc(C#N)cs1
REMARK SMILES IDX 10 1 9 2 7 3 8 4 6 5 3 6 4 7 79 8 5 9 78 10 2 11 1 12 80 13
REMARK SMILES IDX 81 15 82 16 83 17 88 18 84 19 87 20 85 21 86 22 11 23 12 24
REMARK SMILES IDX 13 25 14 26 15 27 16 28 77 29 17 30 76 31 18 32 19 33 20 34
REMARK SMILES IDX 70 35 21 36 75 37 69 38 71 39 22 40 74 41 68 42 67 43 23 45
REMARK SMILES IDX 55 46 35 47 54 48 36 49 39 50 53 51 72 52 37 53 38 54 52 56
REMARK SMILES IDX 73 57 40 58 24 59 25 60 33 61 26 62 27 63 31 64 34 65 28 66
REMARK SMILES IDX 29 67 32 68 30 69 56 70 57 71 65 72 58 73 59 74 63 75 66 76
REMARK SMILES IDX 60 77 61 78 64 79 62 80 41 81 42 82 50 83 43 84 44 85 48 86
REMARK SMILES IDX 51 87 45 88 46 89 49 90 47 91
REMARK H PARENT 80 14 71 44 39 55
REMARK Flexibility Score: inf
ROOT
ATOM      1  C   UNL A   1      31.742  29.432  24.745  1.00  0.00     0.275 C 
ENDROOT
BRANCH   1   2
ATOM      2  O   UNL A   1      30.439  29.003  24.297  1.00  0.00    -0.458 OA
BRANCH   2   3
ATOM      3  C   UNL A   1      30.366  28.474  23.048  1.00  0.00     0.338 C 
ATOM      4  O   UNL A   1      30.007  29.053  22.036  1.00  0.00    -0.246 OA
BRANCH   3   5
ATOM      5  C   UNL A   1      30.854  27.070  23.045  1.00  0.00     0.062 A 
ATOM      6  C   UNL A   1      31.694  24.423  22.987  1.00  0.00     0.142 A 
ATOM      7  C   UNL A   1      32.125  25.294  21.992  1.00  0.00     0.049 A 
ATOM      8  C   UNL A   1      30.886  24.855  24.060  1.00  0.00     0.078 A 
ATOM      9  C   UNL A   1      31.672  26.608  22.006  1.00  0.00     0.019 A 
ATOM     10  C   UNL A   1      30.465  26.189  24.060  1.00  0.00     0.045 A 
BRANCH   6  11
ATOM     11  O   UNL A   1      32.092  23.110  22.886  1.00  0.00    -0.495 OA
ATOM     12  C   UNL A   1      33.479  23.052  22.533  1.00  0.00     0.278 C 
ENDBRANCH   6  11
BRANCH   8  13
ATOM     13  N   UNL A   1      30.543  23.962  25.054  1.00  0.00    -0.377 N 
ATOM     14  H   UNL A   1      29.782  23.365  24.869  1.00  0.00     0.161 HD
BRANCH  13  15
ATOM     15  C   UNL A   1      31.186  23.814  26.339  1.00  0.00     0.160 C 
BRANCH  15  16
ATOM     16  C   UNL A   1      32.595  23.301  26.254  1.00  0.00     0.025 A 
ATOM     17  C   UNL A   1      33.783  24.009  26.287  1.00  0.00     0.036 A 
ATOM     18  S   UNL A   1      32.875  21.615  26.099  1.00  0.00    -0.146 S 
ATOM     19  C   UNL A   1      34.922  23.163  26.136  1.00  0.00     0.063 A 
ATOM     20  C   UNL A   1      34.568  21.836  26.030  1.00  0.00     0.084 A 
BRANCH  19  21
ATOM     21  C   UNL A   1      36.284  23.606  26.085  1.00  0.00     0.100 C 
ATOM     22  N   UNL A   1      37.387  23.953  26.037  1.00  0.00    -0.192 NA
ENDBRANCH  19  21
ENDBRANCH  15  16
ENDBRANCH  13  15
ENDBRANCH   8  13
ENDBRANCH   3   5
ENDBRANCH   2   3
ENDBRANCH   1   2
BRANCH   1  23
ATOM     23  C   UNL A   1      31.648  30.567  25.768  1.00  0.00     0.275 C 
BRANCH  23  24
ATOM     24  O   UNL A   1      32.608  30.395  26.828  1.00  0.00    -0.458 OA
BRANCH  24  25
ATOM     25  C   UNL A   1      33.228  31.534  27.204  1.00  0.00     0.338 C 
ATOM     26  O   UNL A   1      32.740  32.647  27.314  1.00  0.00    -0.246 OA
BRANCH  25  27
ATOM     27  C   UNL A   1      34.606  31.258  27.619  1.00  0.00     0.060 A 
ATOM     28  C   UNL A   1      34.904  29.948  27.964  1.00  0.00     0.016 A 
ATOM     29  C   UNL A   1      35.513  32.274  27.897  1.00  0.00     0.016 A 
ATOM     30  C   UNL A   1      36.019  29.654  28.730  1.00  0.00     0.010 A 
ATOM     31  C   UNL A   1      36.719  31.952  28.534  1.00  0.00     0.010 A 
ATOM     32  C   UNL A   1      36.968  30.645  28.998  1.00  0.00    -0.014 A 
BRANCH  32  33
ATOM     33  C   UNL A   1      38.198  30.299  29.766  1.00  0.00     0.031 A 
ATOM     34  C   UNL A   1      39.232  29.380  29.169  1.00  0.00     0.074 A 
ATOM     35  C   UNL A   1      38.398  30.827  30.992  1.00  0.00     0.049 A 
ATOM     36  N   UNL A   1      40.263  28.811  29.742  1.00  0.00    -0.248 NA
ATOM     37  C   UNL A   1      39.082  29.042  27.744  1.00  0.00     0.031 C 
ATOM     38  C   UNL A   1      37.509  31.776  31.667  1.00  0.00     0.029 A 
ATOM     39  N   UNL A   1      39.417  30.642  31.896  1.00  0.00    -0.354 N 
ATOM     40  C   UNL A   1      40.856  28.023  28.763  1.00  0.00     0.074 A 
ATOM     41  C   UNL A   1      40.056  28.162  27.566  1.00  0.00     0.031 C 
ATOM     42  C   UNL A   1      38.031  32.113  32.854  1.00  0.00     0.029 A 
ATOM     43  C   UNL A   1      39.227  31.316  33.080  1.00  0.00     0.049 A 
ATOM     44  H   UNL A   1      40.205  30.080  31.715  1.00  0.00     0.167 HD
ATOM     45  C   UNL A   1      41.972  27.261  28.858  1.00  0.00     0.037 A 
ATOM     46  C   UNL A   1      39.897  31.252  34.246  1.00  0.00     0.037 A 
ATOM     47  C   UNL A   1      42.778  27.155  30.048  1.00  0.00     0.049 A 
ATOM     48  C   UNL A   1      41.074  30.321  34.349  1.00  0.00     0.074 A 
ATOM     49  C   UNL A   1      43.922  26.403  30.251  1.00  0.00     0.029 A 
ATOM     50  N   UNL A   1      42.527  27.829  31.235  1.00  0.00    -0.354 N 
ATOM     51  N   UNL A   1      41.605  29.552  33.431  1.00  0.00    -0.248 NA
ATOM     52  C   UNL A   1      41.741  30.244  35.654  1.00  0.00     0.031 C 
ATOM     53  C   UNL A   1      44.331  26.577  31.577  1.00  0.00     0.029 A 
ATOM     54  C   UNL A   1      43.486  27.495  32.179  1.00  0.00     0.049 A 
ATOM     55  H   UNL A   1      41.780  28.452  31.384  1.00  0.00     0.167 HD
ATOM     56  C   UNL A   1      42.687  28.931  34.035  1.00  0.00     0.074 A 
ATOM     57  C   UNL A   1      42.752  29.431  35.391  1.00  0.00     0.031 C 
ATOM     58  C   UNL A   1      43.550  28.024  33.517  1.00  0.00     0.037 A 
BRANCH  45  59
ATOM     59  C   UNL A   1      42.390  26.465  27.655  1.00  0.00     0.064 A 
ATOM     60  C   UNL A   1      43.368  26.928  26.762  1.00  0.00     0.173 A 
ATOM     61  C   UNL A   1      41.857  25.184  27.432  1.00  0.00     0.173 A 
ATOM     62  F   UNL A   1      43.904  28.148  26.922  1.00  0.00    -0.203 F 
ATOM     63  C   UNL A   1      43.784  26.149  25.685  1.00  0.00     0.198 A 
ATOM     64  C   UNL A   1      42.300  24.394  26.374  1.00  0.00     0.198 A 
ATOM     65  F   UNL A   1      40.924  24.687  28.258  1.00  0.00    -0.203 F 
ATOM     66  F   UNL A   1      44.693  26.629  24.825  1.00  0.00    -0.200 F 
ATOM     67  C   UNL A   1      43.259  24.879  25.499  1.00  0.00     0.200 A 
ATOM     68  F   UNL A   1      41.805  23.160  26.208  1.00  0.00    -0.200 F 
ATOM     69  F   UNL A   1      43.677  24.123  24.474  1.00  0.00    -0.200 F 
ENDBRANCH  45  59
BRANCH  46  70
ATOM     70  C   UNL A   1      39.435  32.029  35.430  1.00  0.00     0.064 A 
ATOM     71  C   UNL A   1      38.580  31.460  36.383  1.00  0.00     0.173 A 
ATOM     72  C   UNL A   1      39.791  33.378  35.603  1.00  0.00     0.173 A 
ATOM     73  F   UNL A   1      38.195  30.181  36.258  1.00  0.00    -0.203 F 
ATOM     74  C   UNL A   1      38.059  32.218  37.430  1.00  0.00     0.198 A 
ATOM     75  C   UNL A   1      39.309  34.121  36.677  1.00  0.00     0.198 A 
ATOM     76  F   UNL A   1      40.611  33.977  34.727  1.00  0.00    -0.203 F 
ATOM     77  F   UNL A   1      37.175  31.670  38.274  1.00  0.00    -0.200 F 
ATOM     78  C   UNL A   1      38.427  33.547  37.578  1.00  0.00     0.200 A 
ATOM     79  F   UNL A   1      39.686  35.398  36.828  1.00  0.00    -0.200 F 
ATOM     80  F   UNL A   1      37.917  34.277  38.580  1.00  0.00    -0.200 F 
ENDBRANCH  46  70
BRANCH  58  81
ATOM     81  C   UNL A   1      44.679  27.569  34.396  1.00  0.00     0.064 A 
ATOM     82  C   UNL A   1      44.581  26.426  35.202  1.00  0.00     0.173 A 
ATOM     83  C   UNL A   1      45.889  28.281  34.412  1.00  0.00     0.173 A 
ATOM     84  F   UNL A   1      43.441  25.719  35.237  1.00  0.00    -0.203 F 
ATOM     85  C   UNL A   1      45.638  26.033  36.018  1.00  0.00     0.198 A 
ATOM     86  C   UNL A   1      46.960  27.861  35.195  1.00  0.00     0.198 A 
ATOM     87  F   UNL A   1      46.040  29.378  33.654  1.00  0.00    -0.203 F 
ATOM     88  F   UNL A   1      45.499  24.975  36.829  1.00  0.00    -0.200 F 
ATOM     89  C   UNL A   1      46.829  26.744  36.007  1.00  0.00     0.200 A 
ATOM     90  F   UNL A   1      48.115  28.538  35.167  1.00  0.00    -0.200 F 
ATOM     91  F   UNL A   1      47.849  26.359  36.785  1.00  0.00    -0.200 F 
ENDBRANCH  58  81
ENDBRANCH  32  33
ENDBRANCH  25  27
ENDBRANCH  24  25
ENDBRANCH  23  24
ENDBRANCH   1  23
TORSDOF 16
ENDMDL
MODEL 2
REMARK VINA RESULT:     -11.4      1.232      2.655
REMARK SMILES COc1ccc(C(=O)OCCOC(=O)c2ccc(-c3c4nc(c(-c5c(F)c(F)c(F)c(F)c5F)c5ccc([nH]5)c(-c5c(F)c(F)c(F)c(F)c5F)c5nc(c(-c6c(F)c(F)c(F)c(F)c6F)c6ccc3[nH]6)C=C5)C=C4)cc2)cc1NCc1cc(C#N)cs1
REMARK SMILES IDX 10 1 9 2 7 3 8 4 6 5 3 6 4 7 79 8 5 9 78 10 2 11 1 12 80 13
REMARK SMILES IDX 81 15 82 16 83 17 88 18 84 19 87 20 85 21 86 22 11 23 12 24
REMARK SMILES IDX 13 25 14 26 15 27 16 28 77 29 17 30 76 31 18 32 19 33 20 34
REMARK SMILES IDX 70 35 21 36 75 37 69 38 71 39 22 40 74 41 68 42 67 43 23 45
REMARK SMILES IDX 55 46 35 47 54 48 36 49 39 50 53 51 72 52 37 53 38 54 52 56
REMARK SMILES IDX 73 57 40 58 24 59 25 60 33 61 26 62 27 63 31 64 34 65 28 66
REMARK SMILES IDX 29 67 32 68 30 69 56 70 57 71 65 72 58 73 59 74 63 75 66 76
REMARK SMILES IDX 60 77 61 78 64 79 62 80 41 81 42 82 50 83 43 84 44 85 48 86
REMARK SMILES IDX 51 87 45 88 46 89 49 90 47 91
REMARK H PARENT 80 14 71 44 39 55
REMARK Flexibility Score: inf
ROOT
ATOM      1  C   UNL A   1      32.095  29.560  24.860  1.00  0.00     0.275 C 
ENDROOT
BRANCH   1   2
ATOM      2  O   UNL A   1      30.978  28.996  24.142  1.00  0.00    -0.458 OA
BRANCH   2   3
ATOM      3  C   UNL A   1      31.198  27.825  23.490  1.00  0.00     0.338 C 
ATOM      4  O   UNL A   1      31.422  27.692  22.298  1.00  0.00    -0.246 OA
BRANCH   3   5
ATOM      5  C   UNL A   1      31.196  26.685  24.444  1.00  0.00     0.062 A 
ATOM      6  C   UNL A   1      31.193  24.616  26.296  1.00  0.00     0.142 A 
ATOM      7  C   UNL A   1      29.981  25.163  25.887  1.00  0.00     0.049 A 
ATOM      8  C   UNL A   1      32.425  25.042  25.757  1.00  0.00     0.078 A 
ATOM      9  C   UNL A   1      29.991  26.223  24.988  1.00  0.00     0.019 A 
ATOM     10  C   UNL A   1      32.401  26.094  24.835  1.00  0.00     0.045 A 
BRANCH   6  11
ATOM     11  O   UNL A   1      31.145  23.630  27.255  1.00  0.00    -0.495 OA
ATOM     12  C   UNL A   1      29.892  22.940  27.174  1.00  0.00     0.278 C 
ENDBRANCH   6  11
BRANCH   8  13
ATOM     13  N   UNL A   1      33.590  24.418  26.151  1.00  0.00    -0.377 N 
ATOM     14  H   UNL A   1      33.743  24.337  27.120  1.00  0.00     0.161 HD
BRANCH  13  15
ATOM     15  C   UNL A   1      34.610  23.870  25.286  1.00  0.00     0.160 C 
BRANCH  15  16
ATOM     16  C   UNL A   1      34.560  22.374  25.165  1.00  0.00     0.025 A 
ATOM     17  C   UNL A   1      33.457  21.541  25.113  1.00  0.00     0.036 A 
ATOM     18  S   UNL A   1      36.024  21.483  25.064  1.00  0.00    -0.146 S 
ATOM     19  C   UNL A   1      33.823  20.163  25.038  1.00  0.00     0.063 A 
ATOM     20  C   UNL A   1      35.189  19.994  24.999  1.00  0.00     0.084 A 
BRANCH  19  21
ATOM     21  C   UNL A   1      32.906  19.062  25.017  1.00  0.00     0.100 C 
ATOM     22  N   UNL A   1      32.155  18.181  25.001  1.00  0.00    -0.192 NA
ENDBRANCH  19  21
ENDBRANCH  15  16
ENDBRANCH  13  15
ENDBRANCH   8  13
ENDBRANCH   3   5
ENDBRANCH   2   3
ENDBRANCH   1   2
BRANCH   1  23
ATOM     23  C   UNL A   1      31.639  30.497  25.981  1.00  0.00     0.275 C 
BRANCH  23  24
ATOM     24  O   UNL A   1      32.544  30.453  27.099  1.00  0.00    -0.458 OA
BRANCH  24  25
ATOM     25  C   UNL A   1      33.235  31.596  27.298  1.00  0.00     0.338 C 
ATOM     26  O   UNL A   1      32.814  32.740  27.244  1.00  0.00    -0.246 OA
BRANCH  25  27
ATOM     27  C   UNL A   1      34.601  31.302  27.741  1.00  0.00     0.060 A 
ATOM     28  C   UNL A   1      34.864  29.998  28.131  1.00  0.00     0.016 A 
ATOM     29  C   UNL A   1      35.526  32.306  28.002  1.00  0.00     0.016 A 
ATOM     30  C   UNL A   1      35.961  29.702  28.922  1.00  0.00     0.010 A 
ATOM     31  C   UNL A   1      36.716  31.977  28.666  1.00  0.00     0.010 A 
ATOM     32  C   UNL A   1      36.928  30.680  29.173  1.00  0.00    -0.014 A 
BRANCH  32  33
ATOM     33  C   UNL A   1      38.139  30.330  29.970  1.00  0.00     0.031 A 
ATOM     34  C   UNL A   1      39.177  29.396  29.403  1.00  0.00     0.074 A 
ATOM     35  C   UNL A   1      38.319  30.868  31.195  1.00  0.00     0.049 A 
ATOM     36  N   UNL A   1      40.191  28.824  30.003  1.00  0.00    -0.248 NA
ATOM     37  C   UNL A   1      39.053  29.046  27.979  1.00  0.00     0.031 C 
ATOM     38  C   UNL A   1      37.425  31.832  31.842  1.00  0.00     0.029 A 
ATOM     39  N   UNL A   1      39.318  30.683  32.121  1.00  0.00    -0.354 N 
ATOM     40  C   UNL A   1      40.796  28.021  29.044  1.00  0.00     0.074 A 
ATOM     41  C   UNL A   1      40.022  28.155  27.830  1.00  0.00     0.031 C 
ATOM     42  C   UNL A   1      37.926  32.176  33.037  1.00  0.00     0.029 A 
ATOM     43  C   UNL A   1      39.110  31.371  33.294  1.00  0.00     0.049 A 
ATOM     44  H   UNL A   1      40.104  30.113  31.961  1.00  0.00     0.167 HD
ATOM     45  C   UNL A   1      41.904  27.250  29.169  1.00  0.00     0.037 A 
ATOM     46  C   UNL A   1      39.755  31.312  34.474  1.00  0.00     0.037 A 
ATOM     47  C   UNL A   1      42.684  27.148  30.376  1.00  0.00     0.049 A 
ATOM     48  C   UNL A   1      40.921  30.372  34.610  1.00  0.00     0.074 A 
ATOM     49  C   UNL A   1      43.817  26.388  30.610  1.00  0.00     0.029 A 
ATOM     50  N   UNL A   1      42.415  27.836  31.551  1.00  0.00    -0.354 N 
ATOM     51  N   UNL A   1      41.464  29.589  33.711  1.00  0.00    -0.248 NA
ATOM     52  C   UNL A   1      41.561  30.302  35.930  1.00  0.00     0.031 C 
ATOM     53  C   UNL A   1      44.200  26.572  31.942  1.00  0.00     0.029 A 
ATOM     54  C   UNL A   1      43.351  27.503  32.517  1.00  0.00     0.049 A 
ATOM     55  H   UNL A   1      41.671  28.467  31.679  1.00  0.00     0.167 HD
ATOM     56  C   UNL A   1      42.528  28.965  34.343  1.00  0.00     0.074 A 
ATOM     57  C   UNL A   1      42.569  29.477  35.695  1.00  0.00     0.031 C 
ATOM     58  C   UNL A   1      43.393  28.044  33.851  1.00  0.00     0.037 A 
BRANCH  45  59
ATOM     59  C   UNL A   1      42.339  26.438  27.982  1.00  0.00     0.064 A 
ATOM     60  C   UNL A   1      41.813  25.164  27.722  1.00  0.00     0.173 A 
ATOM     61  C   UNL A   1      43.241  26.976  27.049  1.00  0.00     0.173 A 
ATOM     62  F   UNL A   1      40.955  24.599  28.585  1.00  0.00    -0.203 F 
ATOM     63  C   UNL A   1      42.185  24.452  26.584  1.00  0.00     0.198 A 
ATOM     64  C   UNL A   1      43.585  26.275  25.895  1.00  0.00     0.198 A 
ATOM     65  F   UNL A   1      43.770  28.193  27.243  1.00  0.00    -0.203 F 
ATOM     66  F   UNL A   1      41.698  23.221  26.377  1.00  0.00    -0.200 F 
ATOM     67  C   UNL A   1      43.061  25.013  25.666  1.00  0.00     0.200 A 
ATOM     68  F   UNL A   1      44.416  26.828  25.000  1.00  0.00    -0.200 F 
ATOM     69  F   UNL A   1      43.401  24.335  24.561  1.00  0.00    -0.200 F 
ENDBRANCH  45  59
BRANCH  46  70
ATOM     70  C   UNL A   1      39.277  32.105  35.642  1.00  0.00     0.064 A 
ATOM     71  C   UNL A   1      39.790  33.382  35.909  1.00  0.00     0.173 A 
ATOM     72  C   UNL A   1      38.341  31.580  36.549  1.00  0.00     0.173 A 
ATOM     73  F   UNL A   1      40.699  33.925  35.085  1.00  0.00    -0.203 F 
ATOM     74  C   UNL A   1      39.426  34.079  37.060  1.00  0.00     0.198 A 
ATOM     75  C   UNL A   1      37.942  32.298  37.673  1.00  0.00     0.198 A 
ATOM     76  F   UNL A   1      37.811  30.366  36.344  1.00  0.00    -0.203 F 
ATOM     77  F   UNL A   1      39.999  35.258  37.334  1.00  0.00    -0.200 F 
ATOM     78  C   UNL A   1      38.500  33.538  37.939  1.00  0.00     0.200 A 
ATOM     79  F   UNL A   1      37.029  31.780  38.507  1.00  0.00    -0.200 F 
ATOM     80  F   UNL A   1      38.159  34.205  39.050  1.00  0.00    -0.200 F 
ENDBRANCH  46  70
BRANCH  58  81
ATOM     81  C   UNL A   1      44.499  27.589  34.758  1.00  0.00     0.064 A 
ATOM     82  C   UNL A   1      45.731  28.255  34.825  1.00  0.00     0.173 A 
ATOM     83  C   UNL A   1      44.310  26.477  35.596  1.00  0.00     0.173 A 
ATOM     84  F   UNL A   1      45.969  29.313  34.034  1.00  0.00    -0.203 F 
ATOM     85  C   UNL A   1      46.744  27.806  35.666  1.00  0.00     0.198 A 
ATOM     86  C   UNL A   1      45.308  26.056  36.468  1.00  0.00     0.198 A 
ATOM     87  F   UNL A   1      43.147  25.807  35.579  1.00  0.00    -0.203 F 
ATOM     88  F   UNL A   1      47.935  28.419  35.664  1.00  0.00    -0.200 F 
ATOM     89  C   UNL A   1      46.529  26.713  36.494  1.00  0.00     0.200 A 
ATOM     90  F   UNL A   1      45.091  25.013  37.279  1.00  0.00    -0.200 F 
ATOM     91  F   UNL A   1      47.502  26.287  37.310  1.00  0.00    -0.200 F 
ENDBRANCH  58  81
ENDBRANCH  32  33
ENDBRANCH  25  27
ENDBRANCH  24  25
ENDBRANCH  23  24
ENDBRANCH   1  23
TORSDOF 16
ENDMDL
MODEL 3
REMARK VINA RESULT:     -11.3      1.878      2.569
REMARK SMILES COc1ccc(C(=O)OCCOC(=O)c2ccc(-c3c4nc(c(-c5c(F)c(F)c(F)c(F)c5F)c5ccc([nH]5)c(-c5c(F)c(F)c(F)c(F)c5F)c5nc(c(-c6c(F)c(F)c(F)c(F)c6F)c6ccc3[nH]6)C=C5)C=C4)cc2)cc1NCc1cc(C#N)cs1
REMARK SMILES IDX 10 1 9 2 7 3 8 4 6 5 3 6 4 7 79 8 5 9 78 10 2 11 1 12 80 13
REMARK SMILES IDX 81 15 82 16 83 17 88 18 84 19 87 20 85 21 86 22 11 23 12 24
REMARK SMILES IDX 13 25 14 26 15 27 16 28 77 29 17 30 76 31 18 32 19 33 20 34
REMARK SMILES IDX 70 35 21 36 75 37 69 38 71 39 22 40 74 41 68 42 67 43 23 45
REMARK SMILES IDX 55 46 35 47 54 48 36 49 39 50 53 51 72 52 37 53 38 54 52 56
REMARK SMILES IDX 73 57 40 58 24 59 25 60 33 61 26 62 27 63 31 64 34 65 28 66
REMARK SMILES IDX 29 67 32 68 30 69 56 70 57 71 65 72 58 73 59 74 63 75 66 76
REMARK SMILES IDX 60 77 61 78 64 79 62 80 41 81 42 82 50 83 43 84 44 85 48 86
REMARK SMILES IDX 51 87 45 88 46 89 49 90 47 91
REMARK H PARENT 80 14 71 44 39 55
REMARK Flexibility Score: inf
ROOT
ATOM      1  C   UNL A   1      32.360  28.865  25.103  1.00  0.00     0.275 C 
ENDROOT
BRANCH   1   2
ATOM      2  O   UNL A   1      32.326  27.669  25.910  1.00  0.00    -0.458 OA
BRANCH   2   3
ATOM      3  C   UNL A   1      31.713  26.585  25.370  1.00  0.00     0.338 C 
ATOM      4  O   UNL A   1      30.554  26.520  24.995  1.00  0.00    -0.246 OA
BRANCH   3   5
ATOM      5  C   UNL A   1      32.673  25.458  25.227  1.00  0.00     0.062 A 
ATOM      6  C   UNL A   1      34.480  23.380  24.873  1.00  0.00     0.142 A 
ATOM      7  C   UNL A   1      34.949  24.625  25.279  1.00  0.00     0.049 A 
ATOM      8  C   UNL A   1      33.106  23.122  24.689  1.00  0.00     0.078 A 
ATOM      9  C   UNL A   1      34.044  25.671  25.418  1.00  0.00     0.019 A 
ATOM     10  C   UNL A   1      32.216  24.188  24.861  1.00  0.00     0.045 A 
BRANCH   6  11
ATOM     11  O   UNL A   1      35.418  22.396  24.659  1.00  0.00    -0.495 OA
ATOM     12  C   UNL A   1      36.310  22.800  23.613  1.00  0.00     0.278 C 
ENDBRANCH   6  11
BRANCH   8  13
ATOM     13  N   UNL A   1      32.693  21.850  24.351  1.00  0.00    -0.377 N 
ATOM     14  H   UNL A   1      32.676  21.631  23.392  1.00  0.00     0.161 HD
BRANCH  13  15
ATOM     15  C   UNL A   1      32.282  20.806  25.262  1.00  0.00     0.160 C 
BRANCH  15  16
ATOM     16  C   UNL A   1      32.537  19.419  24.746  1.00  0.00     0.025 A 
ATOM     17  C   UNL A   1      32.792  18.259  25.455  1.00  0.00     0.036 A 
ATOM     18  S   UNL A   1      32.524  19.130  23.054  1.00  0.00    -0.146 S 
ATOM     19  C   UNL A   1      33.025  17.141  24.598  1.00  0.00     0.063 A 
ATOM     20  C   UNL A   1      32.903  17.477  23.268  1.00  0.00     0.084 A 
BRANCH  19  21
ATOM     21  C   UNL A   1      33.358  15.818  25.035  1.00  0.00     0.100 C 
ATOM     22  N   UNL A   1      33.641  14.752  25.389  1.00  0.00    -0.192 NA
ENDBRANCH  19  21
ENDBRANCH  15  16
ENDBRANCH  13  15
ENDBRANCH   8  13
ENDBRANCH   3   5
ENDBRANCH   2   3
ENDBRANCH   1   2
BRANCH   1  23
ATOM     23  C   UNL A   1      31.780  30.071  25.846  1.00  0.00     0.275 C 
BRANCH  23  24
ATOM     24  O   UNL A   1      32.408  30.245  27.129  1.00  0.00    -0.458 OA
BRANCH  24  25
ATOM     25  C   UNL A   1      33.082  31.408  27.264  1.00  0.00     0.338 C 
ATOM     26  O   UNL A   1      32.639  32.541  27.173  1.00  0.00    -0.246 OA
BRANCH  25  27
ATOM     27  C   UNL A   1      34.464  31.156  27.684  1.00  0.00     0.060 A 
ATOM     28  C   UNL A   1      34.799  29.843  27.976  1.00  0.00     0.016 A 
ATOM     29  C   UNL A   1      35.334  32.187  28.018  1.00  0.00     0.016 A 
ATOM     30  C   UNL A   1      35.914  29.550  28.743  1.00  0.00     0.010 A 
ATOM     31  C   UNL A   1      36.543  31.875  28.656  1.00  0.00     0.010 A 
ATOM     32  C   UNL A   1      36.827  30.557  29.066  1.00  0.00    -0.014 A 
BRANCH  32  33
ATOM     33  C   UNL A   1      38.058  30.217  29.835  1.00  0.00     0.031 A 
ATOM     34  C   UNL A   1      39.095  29.299  29.239  1.00  0.00     0.074 A 
ATOM     35  C   UNL A   1      38.258  30.747  31.060  1.00  0.00     0.049 A 
ATOM     36  N   UNL A   1      40.128  28.734  29.813  1.00  0.00    -0.248 NA
ATOM     37  C   UNL A   1      38.946  28.959  27.815  1.00  0.00     0.031 C 
ATOM     38  C   UNL A   1      37.365  31.695  31.733  1.00  0.00     0.029 A 
ATOM     39  N   UNL A   1      39.277  30.567  31.964  1.00  0.00    -0.354 N 
ATOM     40  C   UNL A   1      40.723  27.946  28.836  1.00  0.00     0.074 A 
ATOM     41  C   UNL A   1      39.922  28.080  27.639  1.00  0.00     0.031 C 
ATOM     42  C   UNL A   1      37.887  32.036  32.920  1.00  0.00     0.029 A 
ATOM     43  C   UNL A   1      39.085  31.243  33.146  1.00  0.00     0.049 A 
ATOM     44  H   UNL A   1      40.067  30.008  31.783  1.00  0.00     0.167 HD
ATOM     45  C   UNL A   1      41.842  27.188  28.932  1.00  0.00     0.037 A 
ATOM     46  C   UNL A   1      39.755  31.183  34.312  1.00  0.00     0.037 A 
ATOM     47  C   UNL A   1      42.648  27.086  30.122  1.00  0.00     0.049 A 
ATOM     48  C   UNL A   1      40.935  30.256  34.417  1.00  0.00     0.074 A 
ATOM     49  C   UNL A   1      43.794  26.338  30.326  1.00  0.00     0.029 A 
ATOM     50  N   UNL A   1      42.395  27.762  31.307  1.00  0.00    -0.354 N 
ATOM     51  N   UNL A   1      41.468  29.487  33.500  1.00  0.00    -0.248 NA
ATOM     52  C   UNL A   1      41.603  30.184  35.722  1.00  0.00     0.031 C 
ATOM     53  C   UNL A   1      44.203  26.516  31.651  1.00  0.00     0.029 A 
ATOM     54  C   UNL A   1      43.355  27.433  32.252  1.00  0.00     0.049 A 
ATOM     55  H   UNL A   1      41.646  28.383  31.456  1.00  0.00     0.167 HD
ATOM     56  C   UNL A   1      42.553  28.870  34.105  1.00  0.00     0.074 A 
ATOM     57  C   UNL A   1      42.616  29.373  35.460  1.00  0.00     0.031 C 
ATOM     58  C   UNL A   1      43.418  27.964  33.588  1.00  0.00     0.037 A 
BRANCH  45  59
ATOM     59  C   UNL A   1      42.262  26.390  27.730  1.00  0.00     0.064 A 
ATOM     60  C   UNL A   1      43.238  26.855  26.836  1.00  0.00     0.173 A 
ATOM     61  C   UNL A   1      41.732  25.107  27.510  1.00  0.00     0.173 A 
ATOM     62  F   UNL A   1      43.770  28.077  26.993  1.00  0.00    -0.203 F 
ATOM     63  C   UNL A   1      43.656  26.075  25.760  1.00  0.00     0.198 A 
ATOM     64  C   UNL A   1      42.178  24.317  26.453  1.00  0.00     0.198 A 
ATOM     65  F   UNL A   1      40.801  24.609  28.337  1.00  0.00    -0.203 F 
ATOM     66  F   UNL A   1      44.563  26.557  24.899  1.00  0.00    -0.200 F 
ATOM     67  C   UNL A   1      43.135  24.803  25.577  1.00  0.00     0.200 A 
ATOM     68  F   UNL A   1      41.686  23.081  26.290  1.00  0.00    -0.200 F 
ATOM     69  F   UNL A   1      43.554  24.046  24.554  1.00  0.00    -0.200 F 
ENDBRANCH  45  59
BRANCH  46  70
ATOM     70  C   UNL A   1      39.292  31.962  35.495  1.00  0.00     0.064 A 
ATOM     71  C   UNL A   1      38.451  31.387  36.458  1.00  0.00     0.173 A 
ATOM     72  C   UNL A   1      39.631  33.316  35.657  1.00  0.00     0.173 A 
ATOM     73  F   UNL A   1      38.082  30.102  36.342  1.00  0.00    -0.203 F 
ATOM     74  C   UNL A   1      37.928  32.144  37.504  1.00  0.00     0.198 A 
ATOM     75  C   UNL A   1      39.146  34.059  36.731  1.00  0.00     0.198 A 
ATOM     76  F   UNL A   1      40.436  33.921  34.772  1.00  0.00    -0.203 F 
ATOM     77  F   UNL A   1      37.057  31.590  38.357  1.00  0.00    -0.200 F 
ATOM     78  C   UNL A   1      38.278  33.479  37.641  1.00  0.00     0.200 A 
ATOM     79  F   UNL A   1      39.507  35.342  36.871  1.00  0.00    -0.200 F 
ATOM     80  F   UNL A   1      37.766  34.209  38.642  1.00  0.00    -0.200 F 
ENDBRANCH  46  70
BRANCH  58  81
ATOM     81  C   UNL A   1      44.548  27.515  34.469  1.00  0.00     0.064 A 
ATOM     82  C   UNL A   1      45.767  28.205  34.527  1.00  0.00     0.173 A 
ATOM     83  C   UNL A   1      44.395  26.386  35.289  1.00  0.00     0.173 A 
ATOM     84  F   UNL A   1      45.972  29.282  33.752  1.00  0.00    -0.203 F 
ATOM     85  C   UNL A   1      46.803  27.761  35.344  1.00  0.00     0.198 A 
ATOM     86  C   UNL A   1      45.417  25.969  36.137  1.00  0.00     0.198 A 
ATOM     87  F   UNL A   1      43.246  25.692  35.279  1.00  0.00    -0.203 F 
ATOM     88  F   UNL A   1      47.982  28.398  35.333  1.00  0.00    -0.200 F 
ATOM     89  C   UNL A   1      46.624  26.650  36.155  1.00  0.00     0.200 A 
ATOM     90  F   UNL A   1      45.233  24.908  36.933  1.00  0.00    -0.200 F 
ATOM     91  F   UNL A   1      47.619  26.230  36.947  1.00  0.00    -0.200 F 
ENDBRANCH  58  81
ENDBRANCH  32  33
ENDBRANCH  25  27
ENDBRANCH  24  25
ENDBRANCH  23  24
ENDBRANCH   1  23
TORSDOF 16
ENDMDL
