MODEL 1
REMARK VINA RESULT:     -12.6      0.000      0.000
REMARK SMILES CC(C)CN(C)c1cc2c(cc1Cl)C=C(C(=O)OCCOC(=O)c1ccc(-c3c4nc(c(-c5c(F)c(F)c(F)c(F)c5F)c5ccc([nH]5)c(-c5c(F)c(F)c(F)c(F)c5F)c5nc(c(-c6c(F)c(F)c(F)c(F)c6F)c6ccc3[nH]6)C=C5)C=C4)cc1)[C@@H](C(F)(F)F)O2
REMARK SMILES IDX 19 1 18 2 16 3 17 4 15 5 7 6 8 7 12 8 9 9 11 10 13 11 10 12
REMARK SMILES IDX 92 13 14 14 87 15 5 16 6 17 4 18 2 19 1 20 3 21 88 22 89 23
REMARK SMILES IDX 90 24 91 25 20 26 21 27 22 28 23 29 24 30 25 31 86 32 26 33
REMARK SMILES IDX 85 34 27 35 28 36 29 37 79 38 30 39 84 40 78 41 80 42 31 43
REMARK SMILES IDX 83 44 77 45 76 46 32 48 64 49 44 50 63 51 45 52 48 53 62 54
REMARK SMILES IDX 81 55 46 56 47 57 61 59 82 60 49 61 33 62 34 63 42 64 35 65
REMARK SMILES IDX 36 66 40 67 43 68 37 69 38 70 41 71 39 72 65 73 66 74 74 75
REMARK SMILES IDX 67 76 68 77 72 78 75 79 69 80 70 81 73 82 71 83 50 84 51 85
REMARK SMILES IDX 59 86 52 87 53 88 57 89 60 90 54 91 55 92 58 93 56 94
REMARK H PARENT 80 47 48 58
REMARK Flexibility Score: inf
ROOT
ATOM      1  C   UNL A   1      31.343  29.692  24.806  1.00  0.00     0.275 C 
ENDROOT
BRANCH   1   2
ATOM      2  O   UNL A   1      31.152  28.292  25.115  1.00  0.00    -0.459 OA
BRANCH   2   3
ATOM      3  C   UNL A   1      30.483  27.602  24.167  1.00  0.00     0.338 C 
ATOM      4  O   UNL A   1      29.587  28.039  23.456  1.00  0.00    -0.246 OA
BRANCH   3   5
ATOM      5  C   UNL A   1      30.978  26.224  24.023  1.00  0.00     0.087 C 
ATOM      6  C   UNL A   1      33.141  21.898  25.402  1.00  0.00     0.059 A 
ATOM      7  C   UNL A   1      32.889  22.503  24.145  1.00  0.00     0.074 A 
ATOM      8  C   UNL A   1      32.740  22.605  26.555  1.00  0.00     0.065 A 
ATOM      9  C   UNL A   1      32.212  23.723  24.053  1.00  0.00     0.130 A 
ATOM     10  C   UNL A   1      31.947  23.738  26.455  1.00  0.00     0.034 A 
ATOM     11  Cl  UNL A   1      33.274  22.200  28.152  1.00  0.00    -0.082 Cl
ATOM     12  C   UNL A   1      31.672  24.278  25.204  1.00  0.00     0.019 A 
ATOM     13  O   UNL A   1      32.080  24.334  22.830  1.00  0.00    -0.475 OA
ATOM     14  C   UNL A   1      30.885  25.479  25.126  1.00  0.00     0.027 C 
ATOM     15  C   UNL A   1      31.797  25.781  22.844  1.00  0.00     0.316 C 
BRANCH   6  16
ATOM     16  N   UNL A   1      33.761  20.645  25.496  1.00  0.00    -0.373 N 
ATOM     17  C   UNL A   1      35.129  20.559  24.999  1.00  0.00     0.143 C 
BRANCH  16  18
ATOM     18  C   UNL A   1      32.903  19.451  25.313  1.00  0.00     0.119 C 
BRANCH  18  19
ATOM     19  C   UNL A   1      33.440  18.470  24.247  1.00  0.00     0.002 C 
ATOM     20  C   UNL A   1      33.601  17.049  24.802  1.00  0.00     0.009 C 
ATOM     21  C   UNL A   1      32.528  18.412  23.018  1.00  0.00     0.009 C 
ENDBRANCH  18  19
ENDBRANCH  16  18
ENDBRANCH   6  16
BRANCH  15  22
ATOM     22  C   UNL A   1      33.100  26.593  22.755  1.00  0.00     0.430 C 
ATOM     23  F   UNL A   1      33.655  26.782  23.975  1.00  0.00    -0.167 F 
ATOM     24  F   UNL A   1      34.027  25.945  22.004  1.00  0.00    -0.167 F 
ATOM     25  F   UNL A   1      32.913  27.810  22.198  1.00  0.00    -0.167 F 
ENDBRANCH  15  22
ENDBRANCH   3   5
ENDBRANCH   2   3
ENDBRANCH   1   2
BRANCH   1  26
ATOM     26  C   UNL A   1      31.681  30.518  26.050  1.00  0.00     0.275 C 
BRANCH  26  27
ATOM     27  O   UNL A   1      33.062  30.360  26.428  1.00  0.00    -0.458 OA
BRANCH  27  28
ATOM     28  C   UNL A   1      33.569  31.355  27.191  1.00  0.00     0.338 C 
ATOM     29  O   UNL A   1      33.026  32.399  27.506  1.00  0.00    -0.246 OA
BRANCH  28  30
ATOM     30  C   UNL A   1      34.909  30.994  27.679  1.00  0.00     0.060 A 
ATOM     31  C   UNL A   1      35.842  31.973  28.002  1.00  0.00     0.016 A 
ATOM     32  C   UNL A   1      35.163  29.667  28.000  1.00  0.00     0.016 A 
ATOM     33  C   UNL A   1      37.030  31.601  28.644  1.00  0.00     0.010 A 
ATOM     34  C   UNL A   1      36.253  29.328  28.796  1.00  0.00     0.010 A 
ATOM     35  C   UNL A   1      37.233  30.281  29.095  1.00  0.00    -0.014 A 
BRANCH  35  36
ATOM     36  C   UNL A   1      38.464  29.894  29.849  1.00  0.00     0.031 A 
ATOM     37  C   UNL A   1      38.683  30.349  31.275  1.00  0.00     0.074 A 
ATOM     38  C   UNL A   1      39.421  29.159  29.245  1.00  0.00     0.049 A 
ATOM     39  N   UNL A   1      39.678  30.079  32.088  1.00  0.00    -0.248 NA
ATOM     40  C   UNL A   1      37.687  31.263  31.854  1.00  0.00     0.031 C 
ATOM     41  C   UNL A   1      39.413  28.751  27.839  1.00  0.00     0.029 A 
ATOM     42  N   UNL A   1      40.577  28.605  29.741  1.00  0.00    -0.354 N 
ATOM     43  C   UNL A   1      39.441  30.821  33.239  1.00  0.00     0.074 A 
ATOM     44  C   UNL A   1      38.257  31.609  32.996  1.00  0.00     0.031 C 
ATOM     45  C   UNL A   1      40.461  27.946  27.607  1.00  0.00     0.029 A 
ATOM     46  C   UNL A   1      41.235  27.805  28.837  1.00  0.00     0.049 A 
ATOM     47  H   UNL A   1      40.904  28.766  30.656  1.00  0.00     0.167 HD
ATOM     48  C   UNL A   1      40.116  30.813  34.414  1.00  0.00     0.037 A 
ATOM     49  C   UNL A   1      42.320  27.020  28.987  1.00  0.00     0.037 A 
ATOM     50  C   UNL A   1      41.243  29.965  34.691  1.00  0.00     0.049 A 
ATOM     51  C   UNL A   1      42.998  26.942  30.326  1.00  0.00     0.074 A 
ATOM     52  C   UNL A   1      41.917  29.790  35.886  1.00  0.00     0.029 A 
ATOM     53  N   UNL A   1      41.852  29.139  33.760  1.00  0.00    -0.354 N 
ATOM     54  N   UNL A   1      42.699  27.567  31.438  1.00  0.00    -0.248 NA
ATOM     55  C   UNL A   1      44.157  26.046  30.433  1.00  0.00     0.031 C 
ATOM     56  C   UNL A   1      42.957  28.879  35.669  1.00  0.00     0.029 A 
ATOM     57  C   UNL A   1      42.905  28.460  34.349  1.00  0.00     0.049 A 
ATOM     58  H   UNL A   1      41.577  29.047  32.818  1.00  0.00     0.167 HD
ATOM     59  C   UNL A   1      43.625  27.139  32.378  1.00  0.00     0.074 A 
ATOM     60  C   UNL A   1      44.484  26.181  31.712  1.00  0.00     0.031 C 
ATOM     61  C   UNL A   1      43.755  27.513  33.673  1.00  0.00     0.037 A 
BRANCH  48  62
ATOM     62  C   UNL A   1      39.624  31.720  35.507  1.00  0.00     0.064 A 
ATOM     63  C   UNL A   1      40.136  33.018  35.671  1.00  0.00     0.173 A 
ATOM     64  C   UNL A   1      38.611  31.302  36.383  1.00  0.00     0.173 A 
ATOM     65  F   UNL A   1      41.110  33.466  34.864  1.00  0.00    -0.203 F 
ATOM     66  C   UNL A   1      39.682  33.845  36.695  1.00  0.00     0.198 A 
ATOM     67  C   UNL A   1      38.135  32.145  37.385  1.00  0.00     0.198 A 
ATOM     68  F   UNL A   1      38.076  30.078  36.263  1.00  0.00    -0.203 F 
ATOM     69  F   UNL A   1      40.230  35.057  36.865  1.00  0.00    -0.200 F 
ATOM     70  C   UNL A   1      38.679  33.411  37.547  1.00  0.00     0.200 A 
ATOM     71  F   UNL A   1      37.154  31.732  38.198  1.00  0.00    -0.200 F 
ATOM     72  F   UNL A   1      38.239  34.212  38.528  1.00  0.00    -0.200 F 
ENDBRANCH  48  62
BRANCH  49  73
ATOM     73  C   UNL A   1      42.767  26.178  27.847  1.00  0.00     0.064 A 
ATOM     74  C   UNL A   1      42.153  24.944  27.590  1.00  0.00     0.173 A 
ATOM     75  C   UNL A   1      43.761  26.611  26.959  1.00  0.00     0.173 A 
ATOM     76  F   UNL A   1      41.208  24.482  28.422  1.00  0.00    -0.203 F 
ATOM     77  C   UNL A   1      42.513  24.177  26.485  1.00  0.00     0.198 A 
ATOM     78  C   UNL A   1      44.106  25.852  25.842  1.00  0.00     0.198 A 
ATOM     79  F   UNL A   1      44.373  27.788  27.158  1.00  0.00    -0.203 F 
ATOM     80  F   UNL A   1      41.918  22.995  26.271  1.00  0.00    -0.200 F 
ATOM     81  C   UNL A   1      43.481  24.637  25.606  1.00  0.00     0.200 A 
ATOM     82  F   UNL A   1      45.032  26.305  24.986  1.00  0.00    -0.200 F 
ATOM     83  F   UNL A   1      43.812  23.908  24.530  1.00  0.00    -0.200 F 
ENDBRANCH  49  73
BRANCH  61  84
ATOM     84  C   UNL A   1      44.866  26.897  34.468  1.00  0.00     0.064 A 
ATOM     85  C   UNL A   1      44.693  25.671  35.127  1.00  0.00     0.173 A 
ATOM     86  C   UNL A   1      46.136  27.489  34.498  1.00  0.00     0.173 A 
ATOM     87  F   UNL A   1      43.493  25.072  35.134  1.00  0.00    -0.203 F 
ATOM     88  C   UNL A   1      45.753  25.066  35.796  1.00  0.00     0.198 A 
ATOM     89  C   UNL A   1      47.199  26.870  35.148  1.00  0.00     0.198 A 
ATOM     90  F   UNL A   1      46.352  28.658  33.875  1.00  0.00    -0.203 F 
ATOM     91  F   UNL A   1      45.561  23.907  36.440  1.00  0.00    -0.200 F 
ATOM     92  C   UNL A   1      47.007  25.659  35.797  1.00  0.00     0.200 A 
ATOM     93  F   UNL A   1      48.413  27.438  35.138  1.00  0.00    -0.200 F 
ATOM     94  F   UNL A   1      48.030  25.066  36.427  1.00  0.00    -0.200 F 
ENDBRANCH  61  84
ENDBRANCH  35  36
ENDBRANCH  28  30
ENDBRANCH  27  28
ENDBRANCH  26  27
ENDBRANCH   1  26
TORSDOF 15
ENDMDL
MODEL 2
REMARK VINA RESULT:     -12.5      4.460      9.859
REMARK SMILES CC(C)CN(C)c1cc2c(cc1Cl)C=C(C(=O)OCCOC(=O)c1ccc(-c3c4nc(c(-c5c(F)c(F)c(F)c(F)c5F)c5ccc([nH]5)c(-c5c(F)c(F)c(F)c(F)c5F)c5nc(c(-c6c(F)c(F)c(F)c(F)c6F)c6ccc3[nH]6)C=C5)C=C4)cc1)[C@@H](C(F)(F)F)O2
REMARK SMILES IDX 19 1 18 2 16 3 17 4 15 5 7 6 8 7 12 8 9 9 11 10 13 11 10 12
REMARK SMILES IDX 92 13 14 14 87 15 5 16 6 17 4 18 2 19 1 20 3 21 88 22 89 23
REMARK SMILES IDX 90 24 91 25 20 26 21 27 22 28 23 29 24 30 25 31 86 32 26 33
REMARK SMILES IDX 85 34 27 35 28 36 29 37 79 38 30 39 84 40 78 41 80 42 31 43
REMARK SMILES IDX 83 44 77 45 76 46 32 48 64 49 44 50 63 51 45 52 48 53 62 54
REMARK SMILES IDX 81 55 46 56 47 57 61 59 82 60 49 61 33 62 34 63 42 64 35 65
REMARK SMILES IDX 36 66 40 67 43 68 37 69 38 70 41 71 39 72 65 73 66 74 74 75
REMARK SMILES IDX 67 76 68 77 72 78 75 79 69 80 70 81 73 82 71 83 50 84 51 85
REMARK SMILES IDX 59 86 52 87 53 88 57 89 60 90 54 91 55 92 58 93 56 94
REMARK H PARENT 80 47 48 58
REMARK Flexibility Score: inf
ROOT
ATOM      1  C   UNL A   1      35.379  21.267  25.357  1.00  0.00     0.275 C 
ENDROOT
BRANCH   1   2
ATOM      2  O   UNL A   1      34.716  21.815  24.194  1.00  0.00    -0.459 OA
BRANCH   2   3
ATOM      3  C   UNL A   1      33.394  21.548  24.134  1.00  0.00     0.338 C 
ATOM      4  O   UNL A   1      32.881  20.437  24.189  1.00  0.00    -0.246 OA
BRANCH   3   5
ATOM      5  C   UNL A   1      32.579  22.769  24.036  1.00  0.00     0.087 C 
ATOM      6  C   UNL A   1      31.601  27.659  23.386  1.00  0.00     0.059 A 
ATOM      7  C   UNL A   1      30.889  26.597  23.997  1.00  0.00     0.074 A 
ATOM      8  C   UNL A   1      32.863  27.361  22.832  1.00  0.00     0.065 A 
ATOM      9  C   UNL A   1      31.392  25.293  23.993  1.00  0.00     0.130 A 
ATOM     10  C   UNL A   1      33.292  26.048  22.705  1.00  0.00     0.034 A 
ATOM     11  Cl  UNL A   1      34.011  28.574  22.373  1.00  0.00    -0.082 Cl
ATOM     12  C   UNL A   1      32.544  25.022  23.269  1.00  0.00     0.019 A 
ATOM     13  O   UNL A   1      30.732  24.309  24.688  1.00  0.00    -0.475 OA
ATOM     14  C   UNL A   1      33.030  23.672  23.163  1.00  0.00     0.027 C 
ATOM     15  C   UNL A   1      31.516  23.112  25.041  1.00  0.00     0.316 C 
BRANCH   6  16
ATOM     16  N   UNL A   1      31.070  28.955  23.331  1.00  0.00    -0.373 N 
ATOM     17  C   UNL A   1      31.028  29.693  24.587  1.00  0.00     0.143 C 
BRANCH  16  18
ATOM     18  C   UNL A   1      29.964  29.192  22.375  1.00  0.00     0.119 C 
BRANCH  18  19
ATOM     19  C   UNL A   1      28.680  29.727  23.047  1.00  0.00     0.002 C 
ATOM     20  C   UNL A   1      28.110  30.945  22.309  1.00  0.00     0.009 C 
ATOM     21  C   UNL A   1      27.590  28.653  23.127  1.00  0.00     0.009 C 
ENDBRANCH  18  19
ENDBRANCH  16  18
ENDBRANCH   6  16
BRANCH  15  22
ATOM     22  C   UNL A   1      32.125  23.254  26.446  1.00  0.00     0.430 C 
ATOM     23  F   UNL A   1      33.336  23.857  26.407  1.00  0.00    -0.167 F 
ATOM     24  F   UNL A   1      31.337  24.018  27.244  1.00  0.00    -0.167 F 
ATOM     25  F   UNL A   1      32.283  22.061  27.063  1.00  0.00    -0.167 F 
ENDBRANCH  15  22
ENDBRANCH   3   5
ENDBRANCH   2   3
ENDBRANCH   1   2
BRANCH   1  26
ATOM     26  C   UNL A   1      36.706  20.593  25.001  1.00  0.00     0.275 C 
BRANCH  26  27
ATOM     27  O   UNL A   1      37.797  21.534  25.018  1.00  0.00    -0.458 OA
BRANCH  27  28
ATOM     28  C   UNL A   1      38.822  21.215  25.840  1.00  0.00     0.338 C 
ATOM     29  O   UNL A   1      39.317  20.116  26.017  1.00  0.00    -0.246 OA
BRANCH  28  30
ATOM     30  C   UNL A   1      39.347  22.422  26.497  1.00  0.00     0.060 A 
ATOM     31  C   UNL A   1      40.488  22.368  27.290  1.00  0.00     0.016 A 
ATOM     32  C   UNL A   1      38.802  23.652  26.157  1.00  0.00     0.016 A 
ATOM     33  C   UNL A   1      41.068  23.563  27.737  1.00  0.00     0.010 A 
ATOM     34  C   UNL A   1      39.481  24.832  26.448  1.00  0.00     0.010 A 
ATOM     35  C   UNL A   1      40.602  24.814  27.284  1.00  0.00    -0.014 A 
BRANCH  35  36
ATOM     36  C   UNL A   1      41.264  26.089  27.696  1.00  0.00     0.031 A 
ATOM     37  C   UNL A   1      42.667  26.425  27.240  1.00  0.00     0.074 A 
ATOM     38  C   UNL A   1      40.624  26.944  28.520  1.00  0.00     0.049 A 
ATOM     39  N   UNL A   1      43.380  27.501  27.477  1.00  0.00    -0.248 NA
ATOM     40  C   UNL A   1      43.386  25.407  26.460  1.00  0.00     0.031 C 
ATOM     41  C   UNL A   1      39.322  26.704  29.143  1.00  0.00     0.029 A 
ATOM     42  N   UNL A   1      40.971  28.200  28.959  1.00  0.00    -0.354 N 
ATOM     43  C   UNL A   1      44.629  27.262  26.914  1.00  0.00     0.074 A 
ATOM     44  C   UNL A   1      44.605  25.917  26.393  1.00  0.00     0.031 C 
ATOM     45  C   UNL A   1      38.942  27.803  29.811  1.00  0.00     0.029 A 
ATOM     46  C   UNL A   1      39.986  28.817  29.694  1.00  0.00     0.049 A 
ATOM     47  H   UNL A   1      41.842  28.617  28.767  1.00  0.00     0.167 HD
ATOM     48  C   UNL A   1      45.685  28.101  26.793  1.00  0.00     0.037 A 
ATOM     49  C   UNL A   1      39.916  30.068  30.190  1.00  0.00     0.037 A 
ATOM     50  C   UNL A   1      45.683  29.470  27.231  1.00  0.00     0.049 A 
ATOM     51  C   UNL A   1      41.054  31.021  29.959  1.00  0.00     0.074 A 
ATOM     52  C   UNL A   1      46.653  30.437  27.045  1.00  0.00     0.029 A 
ATOM     53  N   UNL A   1      44.649  30.068  27.935  1.00  0.00    -0.354 N 
ATOM     54  N   UNL A   1      42.186  30.816  29.331  1.00  0.00    -0.248 NA
ATOM     55  C   UNL A   1      40.903  32.379  30.499  1.00  0.00     0.031 C 
ATOM     56  C   UNL A   1      46.220  31.614  27.664  1.00  0.00     0.029 A 
ATOM     57  C   UNL A   1      44.963  31.389  28.203  1.00  0.00     0.049 A 
ATOM     58  H   UNL A   1      43.814  29.619  28.204  1.00  0.00     0.167 HD
ATOM     59  C   UNL A   1      42.880  32.016  29.393  1.00  0.00     0.074 A 
ATOM     60  C   UNL A   1      42.032  32.953  30.101  1.00  0.00     0.031 C 
ATOM     61  C   UNL A   1      44.112  32.309  28.913  1.00  0.00     0.037 A 
BRANCH  48  62
ATOM     62  C   UNL A   1      46.921  27.573  26.119  1.00  0.00     0.064 A 
ATOM     63  C   UNL A   1      47.964  26.985  26.853  1.00  0.00     0.173 A 
ATOM     64  C   UNL A   1      47.055  27.630  24.724  1.00  0.00     0.173 A 
ATOM     65  F   UNL A   1      47.890  26.911  28.191  1.00  0.00    -0.203 F 
ATOM     66  C   UNL A   1      49.110  26.511  26.221  1.00  0.00     0.198 A 
ATOM     67  C   UNL A   1      48.189  27.123  24.091  1.00  0.00     0.198 A 
ATOM     68  F   UNL A   1      46.084  28.168  23.972  1.00  0.00    -0.203 F 
ATOM     69  F   UNL A   1      50.115  26.008  26.950  1.00  0.00    -0.200 F 
ATOM     70  C   UNL A   1      49.220  26.575  24.840  1.00  0.00     0.200 A 
ATOM     71  F   UNL A   1      48.286  27.170  22.755  1.00  0.00    -0.200 F 
ATOM     72  F   UNL A   1      50.321  26.112  24.232  1.00  0.00    -0.200 F 
ENDBRANCH  48  62
BRANCH  49  73
ATOM     73  C   UNL A   1      38.672  30.505  30.876  1.00  0.00     0.064 A 
ATOM     74  C   UNL A   1      38.592  30.500  32.276  1.00  0.00     0.173 A 
ATOM     75  C   UNL A   1      37.571  30.995  30.160  1.00  0.00     0.173 A 
ATOM     76  F   UNL A   1      39.615  30.025  33.002  1.00  0.00    -0.203 F 
ATOM     77  C   UNL A   1      37.459  30.973  32.933  1.00  0.00     0.198 A 
ATOM     78  C   UNL A   1      36.447  31.487  30.820  1.00  0.00     0.198 A 
ATOM     79  F   UNL A   1      37.603  31.026  28.819  1.00  0.00    -0.203 F 
ATOM     80  F   UNL A   1      37.404  30.944  34.272  1.00  0.00    -0.200 F 
ATOM     81  C   UNL A   1      36.392  31.475  32.205  1.00  0.00     0.200 A 
ATOM     82  F   UNL A   1      35.423  31.985  30.114  1.00  0.00    -0.200 F 
ATOM     83  F   UNL A   1      35.311  31.951  32.839  1.00  0.00    -0.200 F 
ENDBRANCH  49  73
BRANCH  61  84
ATOM     84  C   UNL A   1      44.633  33.697  29.134  1.00  0.00     0.064 A 
ATOM     85  C   UNL A   1      45.442  34.001  30.238  1.00  0.00     0.173 A 
ATOM     86  C   UNL A   1      44.395  34.708  28.192  1.00  0.00     0.173 A 
ATOM     87  F   UNL A   1      45.688  33.069  31.171  1.00  0.00    -0.203 F 
ATOM     88  C   UNL A   1      45.987  35.272  30.395  1.00  0.00     0.198 A 
ATOM     89  C   UNL A   1      44.961  35.970  28.339  1.00  0.00     0.198 A 
ATOM     90  F   UNL A   1      43.634  34.462  27.115  1.00  0.00    -0.203 F 
ATOM     91  F   UNL A   1      46.738  35.548  31.470  1.00  0.00    -0.200 F 
ATOM     92  C   UNL A   1      45.756  36.252  29.441  1.00  0.00     0.200 A 
ATOM     93  F   UNL A   1      44.747  36.913  27.410  1.00  0.00    -0.200 F 
ATOM     94  F   UNL A   1      46.296  37.469  29.584  1.00  0.00    -0.200 F 
ENDBRANCH  61  84
ENDBRANCH  35  36
ENDBRANCH  28  30
ENDBRANCH  27  28
ENDBRANCH  26  27
ENDBRANCH   1  26
TORSDOF 15
ENDMDL
MODEL 3
REMARK VINA RESULT:     -12.5      4.535      9.891
REMARK SMILES CC(C)CN(C)c1cc2c(cc1Cl)C=C(C(=O)OCCOC(=O)c1ccc(-c3c4nc(c(-c5c(F)c(F)c(F)c(F)c5F)c5ccc([nH]5)c(-c5c(F)c(F)c(F)c(F)c5F)c5nc(c(-c6c(F)c(F)c(F)c(F)c6F)c6ccc3[nH]6)C=C5)C=C4)cc1)[C@@H](C(F)(F)F)O2
REMARK SMILES IDX 19 1 18 2 16 3 17 4 15 5 7 6 8 7 12 8 9 9 11 10 13 11 10 12
REMARK SMILES IDX 92 13 14 14 87 15 5 16 6 17 4 18 2 19 1 20 3 21 88 22 89 23
REMARK SMILES IDX 90 24 91 25 20 26 21 27 22 28 23 29 24 30 25 31 86 32 26 33
REMARK SMILES IDX 85 34 27 35 28 36 29 37 79 38 30 39 84 40 78 41 80 42 31 43
REMARK SMILES IDX 83 44 77 45 76 46 32 48 64 49 44 50 63 51 45 52 48 53 62 54
REMARK SMILES IDX 81 55 46 56 47 57 61 59 82 60 49 61 33 62 34 63 42 64 35 65
REMARK SMILES IDX 36 66 40 67 43 68 37 69 38 70 41 71 39 72 65 73 66 74 74 75
REMARK SMILES IDX 67 76 68 77 72 78 75 79 69 80 70 81 73 82 71 83 50 84 51 85
REMARK SMILES IDX 59 86 52 87 53 88 57 89 60 90 54 91 55 92 58 93 56 94
REMARK H PARENT 80 47 48 58
REMARK Flexibility Score: inf
ROOT
ATOM      1  C   UNL A   1      35.644  20.610  25.003  1.00  0.00     0.275 C 
ENDROOT
BRANCH   1   2
ATOM      2  O   UNL A   1      34.904  21.672  24.358  1.00  0.00    -0.459 OA
BRANCH   2   3
ATOM      3  C   UNL A   1      33.595  21.400  24.171  1.00  0.00     0.338 C 
ATOM      4  O   UNL A   1      33.093  20.284  24.110  1.00  0.00    -0.246 OA
BRANCH   3   5
ATOM      5  C   UNL A   1      32.775  22.619  24.089  1.00  0.00     0.087 C 
ATOM      6  C   UNL A   1      31.754  27.487  23.349  1.00  0.00     0.059 A 
ATOM      7  C   UNL A   1      31.085  26.447  24.041  1.00  0.00     0.074 A 
ATOM      8  C   UNL A   1      32.977  27.169  22.722  1.00  0.00     0.065 A 
ATOM      9  C   UNL A   1      31.588  25.142  24.045  1.00  0.00     0.130 A 
ATOM     10  C   UNL A   1      33.396  25.852  22.608  1.00  0.00     0.034 A 
ATOM     11  Cl  UNL A   1      34.091  28.364  22.148  1.00  0.00    -0.082 Cl
ATOM     12  C   UNL A   1      32.688  24.846  23.254  1.00  0.00     0.019 A 
ATOM     13  O   UNL A   1      30.975  24.182  24.813  1.00  0.00    -0.475 OA
ATOM     14  C   UNL A   1      33.166  23.492  23.159  1.00  0.00     0.027 C 
ATOM     15  C   UNL A   1      31.782  22.996  25.151  1.00  0.00     0.316 C 
BRANCH   6  16
ATOM     16  N   UNL A   1      31.221  28.782  23.288  1.00  0.00    -0.373 N 
ATOM     17  C   UNL A   1      31.131  29.507  24.549  1.00  0.00     0.143 C 
BRANCH  16  18
ATOM     18  C   UNL A   1      30.148  29.024  22.296  1.00  0.00     0.119 C 
BRANCH  18  19
ATOM     19  C   UNL A   1      28.830  29.523  22.930  1.00  0.00     0.002 C 
ATOM     20  C   UNL A   1      28.184  30.643  22.105  1.00  0.00     0.009 C 
ATOM     21  C   UNL A   1      27.813  28.390  23.093  1.00  0.00     0.009 C 
ENDBRANCH  18  19
ENDBRANCH  16  18
ENDBRANCH   6  16
BRANCH  15  22
ATOM     22  C   UNL A   1      32.484  23.181  26.507  1.00  0.00     0.430 C 
ATOM     23  F   UNL A   1      32.752  21.992  27.096  1.00  0.00    -0.167 F 
ATOM     24  F   UNL A   1      33.673  23.817  26.358  1.00  0.00    -0.167 F 
ATOM     25  F   UNL A   1      31.745  23.909  27.375  1.00  0.00    -0.167 F 
ENDBRANCH  15  22
ENDBRANCH   3   5
ENDBRANCH   2   3
ENDBRANCH   1   2
BRANCH   1  26
ATOM     26  C   UNL A   1      37.157  20.772  24.829  1.00  0.00     0.275 C 
BRANCH  26  27
ATOM     27  O   UNL A   1      37.687  21.763  25.730  1.00  0.00    -0.458 OA
BRANCH  27  28
ATOM     28  C   UNL A   1      38.965  21.560  26.125  1.00  0.00     0.338 C 
ATOM     29  O   UNL A   1      39.638  20.556  25.972  1.00  0.00    -0.246 OA
BRANCH  28  30
ATOM     30  C   UNL A   1      39.508  22.778  26.748  1.00  0.00     0.060 A 
ATOM     31  C   UNL A   1      40.618  22.721  27.582  1.00  0.00     0.016 A 
ATOM     32  C   UNL A   1      39.018  24.009  26.334  1.00  0.00     0.016 A 
ATOM     33  C   UNL A   1      41.223  23.915  27.998  1.00  0.00     0.010 A 
ATOM     34  C   UNL A   1      39.727  25.177  26.599  1.00  0.00     0.010 A 
ATOM     35  C   UNL A   1      40.818  25.159  27.475  1.00  0.00    -0.014 A 
BRANCH  35  36
ATOM     36  C   UNL A   1      41.509  26.428  27.854  1.00  0.00     0.031 A 
ATOM     37  C   UNL A   1      42.901  26.741  27.353  1.00  0.00     0.074 A 
ATOM     38  C   UNL A   1      40.905  27.300  28.689  1.00  0.00     0.049 A 
ATOM     39  N   UNL A   1      43.636  27.810  27.558  1.00  0.00    -0.248 NA
ATOM     40  C   UNL A   1      43.583  25.706  26.561  1.00  0.00     0.031 C 
ATOM     41  C   UNL A   1      39.620  27.083  29.354  1.00  0.00     0.029 A 
ATOM     42  N   UNL A   1      41.283  28.554  29.106  1.00  0.00    -0.354 N 
ATOM     43  C   UNL A   1      44.863  27.549  26.960  1.00  0.00     0.074 A 
ATOM     44  C   UNL A   1      44.806  26.199  26.452  1.00  0.00     0.031 C 
ATOM     45  C   UNL A   1      39.275  28.193  30.023  1.00  0.00     0.029 A 
ATOM     46  C   UNL A   1      40.329  29.191  29.864  1.00  0.00     0.049 A 
ATOM     47  H   UNL A   1      42.152  28.958  28.884  1.00  0.00     0.167 HD
ATOM     48  C   UNL A   1      45.927  28.372  26.799  1.00  0.00     0.037 A 
ATOM     49  C   UNL A   1      40.290  30.447  30.351  1.00  0.00     0.037 A 
ATOM     50  C   UNL A   1      45.956  29.745  27.224  1.00  0.00     0.049 A 
ATOM     51  C   UNL A   1      41.434  31.383  30.077  1.00  0.00     0.074 A 
ATOM     52  C   UNL A   1      46.933  30.697  27.000  1.00  0.00     0.029 A 
ATOM     53  N   UNL A   1      44.952  30.363  27.953  1.00  0.00    -0.354 N 
ATOM     54  N   UNL A   1      42.543  31.157  29.416  1.00  0.00    -0.248 NA
ATOM     55  C   UNL A   1      41.318  32.748  30.609  1.00  0.00     0.031 C 
ATOM     56  C   UNL A   1      46.535  31.885  27.620  1.00  0.00     0.029 A 
ATOM     57  C   UNL A   1      45.292  31.682  28.200  1.00  0.00     0.049 A 
ATOM     58  H   UNL A   1      44.120  29.928  28.252  1.00  0.00     0.167 HD
ATOM     59  C   UNL A   1      43.255  32.348  29.447  1.00  0.00     0.074 A 
ATOM     60  C   UNL A   1      42.442  33.303  30.171  1.00  0.00     0.031 C 
ATOM     61  C   UNL A   1      44.475  32.620  28.926  1.00  0.00     0.037 A 
BRANCH  48  62
ATOM     62  C   UNL A   1      47.135  27.821  26.093  1.00  0.00     0.064 A 
ATOM     63  C   UNL A   1      47.217  27.794  24.691  1.00  0.00     0.173 A 
ATOM     64  C   UNL A   1      48.233  27.343  26.822  1.00  0.00     0.173 A 
ATOM     65  F   UNL A   1      46.191  28.233  23.945  1.00  0.00    -0.203 F 
ATOM     66  C   UNL A   1      48.334  27.269  24.047  1.00  0.00     0.198 A 
ATOM     67  C   UNL A   1      49.365  26.850  26.174  1.00  0.00     0.198 A 
ATOM     68  F   UNL A   1      48.215  27.359  28.162  1.00  0.00    -0.203 F 
ATOM     69  F   UNL A   1      48.362  27.200  22.709  1.00  0.00    -0.200 F 
ATOM     70  C   UNL A   1      49.409  26.803  24.788  1.00  0.00     0.200 A 
ATOM     71  F   UNL A   1      50.410  26.416  26.890  1.00  0.00    -0.200 F 
ATOM     72  F   UNL A   1      50.487  26.305  24.166  1.00  0.00    -0.200 F 
ENDBRANCH  48  62
BRANCH  49  73
ATOM     73  C   UNL A   1      39.074  30.907  31.070  1.00  0.00     0.064 A 
ATOM     74  C   UNL A   1      37.996  31.460  30.364  1.00  0.00     0.173 A 
ATOM     75  C   UNL A   1      38.934  30.746  32.456  1.00  0.00     0.173 A 
ATOM     76  F   UNL A   1      38.091  31.648  29.040  1.00  0.00    -0.203 F 
ATOM     77  C   UNL A   1      36.823  31.830  31.017  1.00  0.00     0.198 A 
ATOM     78  C   UNL A   1      37.751  31.098  33.104  1.00  0.00     0.198 A 
ATOM     79  F   UNL A   1      39.935  30.215  33.173  1.00  0.00    -0.203 F 
ATOM     80  F   UNL A   1      35.813  32.368  30.319  1.00  0.00    -0.200 F 
ATOM     81  C   UNL A   1      36.697  31.639  32.384  1.00  0.00     0.200 A 
ATOM     82  F   UNL A   1      37.628  30.898  34.423  1.00  0.00    -0.200 F 
ATOM     83  F   UNL A   1      35.560  31.975  33.008  1.00  0.00    -0.200 F 
ENDBRANCH  49  73
BRANCH  61  84
ATOM     84  C   UNL A   1      45.021  34.002  29.119  1.00  0.00     0.064 A 
ATOM     85  C   UNL A   1      45.851  34.310  30.207  1.00  0.00     0.173 A 
ATOM     86  C   UNL A   1      44.786  35.002  28.165  1.00  0.00     0.173 A 
ATOM     87  F   UNL A   1      46.096  33.388  31.150  1.00  0.00    -0.203 F 
ATOM     88  C   UNL A   1      46.419  35.574  30.336  1.00  0.00     0.198 A 
ATOM     89  C   UNL A   1      45.374  36.257  28.284  1.00  0.00     0.198 A 
ATOM     90  F   UNL A   1      44.005  34.752  27.102  1.00  0.00    -0.203 F 
ATOM     91  F   UNL A   1      47.189  35.854  31.396  1.00  0.00    -0.200 F 
ATOM     92  C   UNL A   1      46.189  36.543  29.370  1.00  0.00     0.200 A 
ATOM     93  F   UNL A   1      45.162  37.189  27.344  1.00  0.00    -0.200 F 
ATOM     94  F   UNL A   1      46.751  37.754  29.487  1.00  0.00    -0.200 F 
ENDBRANCH  61  84
ENDBRANCH  35  36
ENDBRANCH  28  30
ENDBRANCH  27  28
ENDBRANCH  26  27
ENDBRANCH   1  26
TORSDOF 15
ENDMDL
