MODEL 1
REMARK VINA RESULT:     -12.8      0.000      0.000
REMARK SMILES O=C(OCCOC(=O)c1ccccc1Nc1cccc(S(F)(F)(F)(F)F)c1)c1ccc(-c2c3nc(c(-c4c(F)c(F)c(F)c(F)c4F)c4ccc([nH]4)c(-c4c(F)c(F)c(F)c(F)c4F)c4nc(c(-c5c(F)c(F)c(F)c(F)c5F)c5ccc2[nH]5)C=C4)C=C3)cc1
REMARK SMILES IDX 5 1 4 2 3 3 2 4 1 5 28 6 29 7 90 8 30 9 89 10 31 11 32 12
REMARK SMILES IDX 33 13 83 14 34 15 88 16 82 17 84 18 35 19 87 20 81 21 80 22
REMARK SMILES IDX 36 24 68 25 48 26 67 27 49 28 52 29 66 30 85 31 50 32 51 33
REMARK SMILES IDX 65 35 86 36 53 37 37 38 38 39 46 40 39 41 40 42 44 43 47 44
REMARK SMILES IDX 41 45 42 46 45 47 43 48 69 49 70 50 78 51 71 52 72 53 76 54
REMARK SMILES IDX 79 55 73 56 74 57 77 58 75 59 54 60 55 61 63 62 56 63 57 64
REMARK SMILES IDX 61 65 64 66 58 67 59 68 62 69 60 70 6 71 7 72 8 73 9 74
REMARK SMILES IDX 10 75 14 76 11 77 13 78 12 79 15 80 16 82 17 83 27 84 18 85
REMARK SMILES IDX 20 86 19 87 21 88 22 89 23 90 24 91 25 92 26 93
REMARK H PARENT 84 23 52 34 15 81
REMARK Flexibility Score: inf
ROOT
ATOM      1  C   UNL A   1      32.207  28.180  25.692  1.00  0.00     0.275 C 
ENDROOT
BRANCH   1   2
ATOM      2  C   UNL A   1      31.769  29.628  25.839  1.00  0.00     0.275 C 
BRANCH   2   3
ATOM      3  O   UNL A   1      32.905  30.476  25.761  1.00  0.00    -0.458 OA
BRANCH   3   4
ATOM      4  C   UNL A   1      33.289  31.253  26.884  1.00  0.00     0.338 C 
ATOM      5  O   UNL A   1      32.555  32.215  27.273  1.00  0.00    -0.246 OA
BRANCH   4   6
ATOM      6  C   UNL A   1      34.579  30.935  27.624  1.00  0.00     0.060 A 
ATOM      7  C   UNL A   1      35.486  31.940  27.913  1.00  0.00     0.016 A 
ATOM      8  C   UNL A   1      34.776  29.688  28.038  1.00  0.00     0.016 A 
ATOM      9  C   UNL A   1      36.726  31.469  28.406  1.00  0.00     0.010 A 
ATOM     10  C   UNL A   1      35.960  29.328  28.634  1.00  0.00     0.010 A 
ATOM     11  C   UNL A   1      36.926  30.260  28.897  1.00  0.00    -0.014 A 
BRANCH  11  12
ATOM     12  C   UNL A   1      38.163  29.922  29.713  1.00  0.00     0.031 A 
ATOM     13  C   UNL A   1      39.059  29.008  29.155  1.00  0.00     0.074 A 
ATOM     14  C   UNL A   1      38.304  30.470  30.976  1.00  0.00     0.049 A 
ATOM     15  N   UNL A   1      40.185  28.539  29.695  1.00  0.00    -0.248 NA
ATOM     16  C   UNL A   1      38.894  28.399  27.828  1.00  0.00     0.031 C 
ATOM     17  C   UNL A   1      37.408  31.399  31.543  1.00  0.00     0.029 A 
ATOM     18  N   UNL A   1      39.300  30.230  31.896  1.00  0.00    -0.354 N 
ATOM     19  C   UNL A   1      40.785  27.696  28.851  1.00  0.00     0.074 A 
ATOM     20  C   UNL A   1      39.960  27.590  27.640  1.00  0.00     0.031 C 
ATOM     21  C   UNL A   1      37.853  31.705  32.790  1.00  0.00     0.029 A 
ATOM     22  C   UNL A   1      39.033  30.974  33.023  1.00  0.00     0.049 A 
ATOM     23  H   UNL A   1      40.070  29.630  31.769  1.00  0.00     0.167 HD
ATOM     24  C   UNL A   1      41.988  27.016  29.044  1.00  0.00     0.037 A 
ATOM     25  C   UNL A   1      39.763  31.024  34.200  1.00  0.00     0.037 A 
ATOM     26  C   UNL A   1      42.742  27.100  30.204  1.00  0.00     0.049 A 
ATOM     27  C   UNL A   1      40.937  30.297  34.415  1.00  0.00     0.074 A 
ATOM     28  C   UNL A   1      43.960  26.425  30.410  1.00  0.00     0.029 A 
ATOM     29  N   UNL A   1      42.462  27.824  31.341  1.00  0.00    -0.354 N 
ATOM     30  N   UNL A   1      41.557  29.486  33.557  1.00  0.00    -0.248 NA
ATOM     31  C   UNL A   1      41.702  30.318  35.670  1.00  0.00     0.031 C 
ATOM     32  C   UNL A   1      44.405  26.733  31.659  1.00  0.00     0.029 A 
ATOM     33  C   UNL A   1      43.470  27.602  32.252  1.00  0.00     0.049 A 
ATOM     34  H   UNL A   1      41.676  28.402  31.478  1.00  0.00     0.167 HD
ATOM     35  C   UNL A   1      42.662  28.986  34.114  1.00  0.00     0.074 A 
ATOM     36  C   UNL A   1      42.767  29.507  35.483  1.00  0.00     0.031 C 
ATOM     37  C   UNL A   1      43.588  28.117  33.534  1.00  0.00     0.037 A 
BRANCH  24  38
ATOM     38  C   UNL A   1      42.501  26.133  27.918  1.00  0.00     0.064 A 
ATOM     39  C   UNL A   1      42.171  24.788  27.873  1.00  0.00     0.173 A 
ATOM     40  C   UNL A   1      43.372  26.657  27.063  1.00  0.00     0.173 A 
ATOM     41  F   UNL A   1      41.134  24.275  28.528  1.00  0.00    -0.203 F 
ATOM     42  C   UNL A   1      43.036  24.012  27.068  1.00  0.00     0.198 A 
ATOM     43  C   UNL A   1      44.086  25.851  26.210  1.00  0.00     0.198 A 
ATOM     44  F   UNL A   1      43.555  27.974  27.033  1.00  0.00    -0.203 F 
ATOM     45  F   UNL A   1      43.028  22.693  27.243  1.00  0.00    -0.200 F 
ATOM     46  C   UNL A   1      43.853  24.505  26.154  1.00  0.00     0.200 A 
ATOM     47  F   UNL A   1      45.016  26.388  25.425  1.00  0.00    -0.200 F 
ATOM     48  F   UNL A   1      44.417  23.733  25.229  1.00  0.00    -0.200 F 
ENDBRANCH  24  38
BRANCH  25  49
ATOM     49  C   UNL A   1      39.259  31.920  35.320  1.00  0.00     0.064 A 
ATOM     50  C   UNL A   1      38.463  31.474  36.361  1.00  0.00     0.173 A 
ATOM     51  C   UNL A   1      39.712  33.168  35.285  1.00  0.00     0.173 A 
ATOM     52  F   UNL A   1      38.198  30.188  36.573  1.00  0.00    -0.203 F 
ATOM     53  C   UNL A   1      37.956  32.511  37.180  1.00  0.00     0.198 A 
ATOM     54  C   UNL A   1      39.277  34.096  36.200  1.00  0.00     0.198 A 
ATOM     55  F   UNL A   1      40.594  33.523  34.354  1.00  0.00    -0.203 F 
ATOM     56  F   UNL A   1      36.917  32.230  37.963  1.00  0.00    -0.200 F 
ATOM     57  C   UNL A   1      38.443  33.738  37.222  1.00  0.00     0.200 A 
ATOM     58  F   UNL A   1      39.675  35.360  36.091  1.00  0.00    -0.200 F 
ATOM     59  F   UNL A   1      38.136  34.581  38.204  1.00  0.00    -0.200 F 
ENDBRANCH  25  49
BRANCH  37  60
ATOM     60  C   UNL A   1      44.799  27.711  34.358  1.00  0.00     0.064 A 
ATOM     61  C   UNL A   1      44.789  26.543  35.101  1.00  0.00     0.173 A 
ATOM     62  C   UNL A   1      45.891  28.464  34.271  1.00  0.00     0.173 A 
ATOM     63  F   UNL A   1      43.819  25.638  35.016  1.00  0.00    -0.203 F 
ATOM     64  C   UNL A   1      45.903  26.400  35.960  1.00  0.00     0.198 A 
ATOM     65  C   UNL A   1      46.995  28.185  35.041  1.00  0.00     0.198 A 
ATOM     66  F   UNL A   1      45.916  29.495  33.432  1.00  0.00    -0.203 F 
ATOM     67  F   UNL A   1      45.811  25.520  36.953  1.00  0.00    -0.200 F 
ATOM     68  C   UNL A   1      47.031  27.080  35.844  1.00  0.00     0.200 A 
ATOM     69  F   UNL A   1      48.043  29.004  35.005  1.00  0.00    -0.200 F 
ATOM     70  F   UNL A   1      48.141  26.707  36.475  1.00  0.00    -0.200 F 
ENDBRANCH  37  60
ENDBRANCH  11  12
ENDBRANCH   4   6
ENDBRANCH   3   4
ENDBRANCH   2   3
ENDBRANCH   1   2
BRANCH   1  71
ATOM     71  O   UNL A   1      33.552  28.136  25.238  1.00  0.00    -0.458 OA
BRANCH  71  72
ATOM     72  C   UNL A   1      33.835  27.780  23.893  1.00  0.00     0.340 C 
ATOM     73  O   UNL A   1      34.284  28.652  23.086  1.00  0.00    -0.246 OA
BRANCH  72  74
ATOM     74  C   UNL A   1      33.603  26.355  23.419  1.00  0.00     0.083 A 
ATOM     75  C   UNL A   1      34.224  25.336  24.122  1.00  0.00     0.018 A 
ATOM     76  C   UNL A   1      32.757  26.093  22.429  1.00  0.00     0.053 A 
ATOM     77  C   UNL A   1      34.108  24.064  23.512  1.00  0.00     0.001 A 
ATOM     78  C   UNL A   1      32.592  24.807  21.973  1.00  0.00     0.027 A 
ATOM     79  C   UNL A   1      33.220  23.757  22.583  1.00  0.00     0.002 A 
BRANCH  76  80
ATOM     80  N   UNL A   1      31.992  27.187  21.816  1.00  0.00    -0.355 N 
ATOM     81  H   UNL A   1      32.328  27.627  21.002  1.00  0.00     0.167 HD
BRANCH  80  82
ATOM     82  C   UNL A   1      30.724  27.625  22.418  1.00  0.00     0.040 A 
ATOM     83  C   UNL A   1      29.990  26.682  23.118  1.00  0.00     0.026 A 
ATOM     84  C   UNL A   1      30.348  28.897  22.375  1.00  0.00     0.050 A 
ATOM     85  C   UNL A   1      28.704  27.127  23.505  1.00  0.00     0.004 A 
ATOM     86  C   UNL A   1      29.136  29.286  22.893  1.00  0.00     0.109 A 
ATOM     87  C   UNL A   1      28.332  28.393  23.547  1.00  0.00     0.024 A 
BRANCH  86  88
ATOM     88  S   UNL A   1      28.597  31.004  22.711  1.00  0.00     0.310 S 
ATOM     89  F   UNL A   1      27.267  30.922  23.573  1.00  0.00    -0.094 F 
ATOM     90  F   UNL A   1      27.752  30.491  21.485  1.00  0.00    -0.094 F 
ATOM     91  F   UNL A   1      28.223  32.479  22.390  1.00  0.00    -0.094 F 
ATOM     92  F   UNL A   1      29.330  31.486  24.024  1.00  0.00    -0.094 F 
ATOM     93  F   UNL A   1      28.890  29.504  23.116  1.00  0.00    -0.094 F 
ENDBRANCH  86  88
ENDBRANCH  80  82
ENDBRANCH  76  80
ENDBRANCH  72  74
ENDBRANCH  71  72
ENDBRANCH   1  71
TORSDOF 14
ENDMDL
MODEL 2
REMARK VINA RESULT:     -12.6      2.780      4.902
REMARK SMILES O=C(OCCOC(=O)c1ccccc1Nc1cccc(S(F)(F)(F)(F)F)c1)c1ccc(-c2c3nc(c(-c4c(F)c(F)c(F)c(F)c4F)c4ccc([nH]4)c(-c4c(F)c(F)c(F)c(F)c4F)c4nc(c(-c5c(F)c(F)c(F)c(F)c5F)c5ccc2[nH]5)C=C4)C=C3)cc1
REMARK SMILES IDX 5 1 4 2 3 3 2 4 1 5 28 6 29 7 90 8 30 9 89 10 31 11 32 12
REMARK SMILES IDX 33 13 83 14 34 15 88 16 82 17 84 18 35 19 87 20 81 21 80 22
REMARK SMILES IDX 36 24 68 25 48 26 67 27 49 28 52 29 66 30 85 31 50 32 51 33
REMARK SMILES IDX 65 35 86 36 53 37 37 38 38 39 46 40 39 41 40 42 44 43 47 44
REMARK SMILES IDX 41 45 42 46 45 47 43 48 69 49 70 50 78 51 71 52 72 53 76 54
REMARK SMILES IDX 79 55 73 56 74 57 77 58 75 59 54 60 55 61 63 62 56 63 57 64
REMARK SMILES IDX 61 65 64 66 58 67 59 68 62 69 60 70 6 71 7 72 8 73 9 74
REMARK SMILES IDX 10 75 14 76 11 77 13 78 12 79 15 80 16 82 17 83 27 84 18 85
REMARK SMILES IDX 20 86 19 87 21 88 22 89 23 90 24 91 25 92 26 93
REMARK H PARENT 84 23 52 34 15 81
REMARK Flexibility Score: inf
ROOT
ATOM      1  C   UNL A   1      33.631  35.445  28.850  1.00  0.00     0.275 C 
ENDROOT
BRANCH   1   2
ATOM      2  C   UNL A   1      32.797  36.400  29.687  1.00  0.00     0.275 C 
BRANCH   2   3
ATOM      3  O   UNL A   1      32.188  35.686  30.753  1.00  0.00    -0.458 OA
BRANCH   3   4
ATOM      4  C   UNL A   1      32.703  35.801  32.071  1.00  0.00     0.338 C 
ATOM      5  O   UNL A   1      32.112  36.536  32.922  1.00  0.00    -0.246 OA
BRANCH   4   6
ATOM      6  C   UNL A   1      33.961  35.044  32.463  1.00  0.00     0.060 A 
ATOM      7  C   UNL A   1      33.886  33.720  32.860  1.00  0.00     0.016 A 
ATOM      8  C   UNL A   1      35.131  35.664  32.350  1.00  0.00     0.016 A 
ATOM      9  C   UNL A   1      35.093  33.213  33.399  1.00  0.00     0.010 A 
ATOM     10  C   UNL A   1      36.289  35.057  32.772  1.00  0.00     0.010 A 
ATOM     11  C   UNL A   1      36.279  33.770  33.232  1.00  0.00    -0.014 A 
BRANCH  11  12
ATOM     12  C   UNL A   1      37.565  33.018  33.534  1.00  0.00     0.031 A 
ATOM     13  C   UNL A   1      37.938  32.016  32.636  1.00  0.00     0.074 A 
ATOM     14  C   UNL A   1      38.254  33.307  34.699  1.00  0.00     0.049 A 
ATOM     15  N   UNL A   1      38.997  31.209  32.711  1.00  0.00    -0.248 NA
ATOM     16  C   UNL A   1      37.189  31.684  31.415  1.00  0.00     0.031 C 
ATOM     17  C   UNL A   1      37.889  34.322  35.606  1.00  0.00     0.029 A 
ATOM     18  N   UNL A   1      39.383  32.689  35.189  1.00  0.00    -0.354 N 
ATOM     19  C   UNL A   1      39.030  30.392  31.656  1.00  0.00     0.074 A 
ATOM     20  C   UNL A   1      37.864  30.682  30.810  1.00  0.00     0.031 C 
ATOM     21  C   UNL A   1      38.779  34.308  36.633  1.00  0.00     0.029 A 
ATOM     22  C   UNL A   1      39.715  33.286  36.385  1.00  0.00     0.049 A 
ATOM     23  H   UNL A   1      39.869  31.950  34.759  1.00  0.00     0.167 HD
ATOM     24  C   UNL A   1      39.988  29.419  31.365  1.00  0.00     0.037 A 
ATOM     25  C   UNL A   1      40.768  32.970  37.229  1.00  0.00     0.037 A 
ATOM     26  C   UNL A   1      41.067  29.132  32.187  1.00  0.00     0.049 A 
ATOM     27  C   UNL A   1      41.693  31.957  36.967  1.00  0.00     0.074 A 
ATOM     28  C   UNL A   1      42.044  28.160  31.904  1.00  0.00     0.029 A 
ATOM     29  N   UNL A   1      41.384  29.712  33.395  1.00  0.00    -0.354 N 
ATOM     30  N   UNL A   1      41.748  31.167  35.893  1.00  0.00    -0.248 NA
ATOM     31  C   UNL A   1      42.795  31.591  37.868  1.00  0.00     0.031 C 
ATOM     32  C   UNL A   1      42.935  28.147  32.932  1.00  0.00     0.029 A 
ATOM     33  C   UNL A   1      42.526  29.110  33.874  1.00  0.00     0.049 A 
ATOM     34  H   UNL A   1      40.881  30.433  33.839  1.00  0.00     0.167 HD
ATOM     35  C   UNL A   1      42.785  30.333  35.988  1.00  0.00     0.074 A 
ATOM     36  C   UNL A   1      43.468  30.588  37.264  1.00  0.00     0.031 C 
ATOM     37  C   UNL A   1      43.191  29.371  35.063  1.00  0.00     0.037 A 
BRANCH  24  38
ATOM     38  C   UNL A   1      39.840  28.630  30.074  1.00  0.00     0.064 A 
ATOM     39  C   UNL A   1      39.236  27.384  30.078  1.00  0.00     0.173 A 
ATOM     40  C   UNL A   1      40.420  29.111  28.981  1.00  0.00     0.173 A 
ATOM     41  F   UNL A   1      38.434  26.970  31.055  1.00  0.00    -0.203 F 
ATOM     42  C   UNL A   1      39.548  26.591  28.949  1.00  0.00     0.198 A 
ATOM     43  C   UNL A   1      40.571  28.322  27.865  1.00  0.00     0.198 A 
ATOM     44  F   UNL A   1      40.857  30.367  28.964  1.00  0.00    -0.203 F 
ATOM     45  F   UNL A   1      39.323  25.282  29.030  1.00  0.00    -0.200 F 
ATOM     46  C   UNL A   1      40.050  27.059  27.821  1.00  0.00     0.200 A 
ATOM     47  F   UNL A   1      41.233  28.796  26.813  1.00  0.00    -0.200 F 
ATOM     48  F   UNL A   1      40.048  26.341  26.701  1.00  0.00    -0.200 F 
ENDBRANCH  24  38
BRANCH  25  49
ATOM     49  C   UNL A   1      40.926  33.771  38.511  1.00  0.00     0.064 A 
ATOM     50  C   UNL A   1      40.311  33.436  39.706  1.00  0.00     0.173 A 
ATOM     51  C   UNL A   1      41.778  34.786  38.436  1.00  0.00     0.173 A 
ATOM     52  F   UNL A   1      39.657  32.293  39.891  1.00  0.00    -0.203 F 
ATOM     53  C   UNL A   1      40.441  34.422  40.714  1.00  0.00     0.198 A 
ATOM     54  C   UNL A   1      41.958  35.629  39.506  1.00  0.00     0.198 A 
ATOM     55  F   UNL A   1      42.464  34.988  37.314  1.00  0.00    -0.203 F 
ATOM     56  F   UNL A   1      39.606  34.365  41.747  1.00  0.00    -0.200 F 
ATOM     57  C   UNL A   1      41.337  35.392  40.700  1.00  0.00     0.200 A 
ATOM     58  F   UNL A   1      42.749  36.691  39.377  1.00  0.00    -0.200 F 
ATOM     59  F   UNL A   1      41.617  36.103  41.789  1.00  0.00    -0.200 F 
ENDBRANCH  25  49
BRANCH  37  60
ATOM     60  C   UNL A   1      44.437  28.558  35.376  1.00  0.00     0.064 A 
ATOM     61  C   UNL A   1      45.693  29.032  35.036  1.00  0.00     0.173 A 
ATOM     62  C   UNL A   1      44.287  27.429  36.061  1.00  0.00     0.173 A 
ATOM     63  F   UNL A   1      45.905  30.263  34.582  1.00  0.00    -0.203 F 
ATOM     64  C   UNL A   1      46.729  28.086  35.215  1.00  0.00     0.198 A 
ATOM     65  C   UNL A   1      45.367  26.620  36.318  1.00  0.00     0.198 A 
ATOM     66  F   UNL A   1      43.082  27.081  36.502  1.00  0.00    -0.203 F 
ATOM     67  F   UNL A   1      47.884  28.308  34.594  1.00  0.00    -0.200 F 
ATOM     68  C   UNL A   1      46.631  26.997  35.957  1.00  0.00     0.200 A 
ATOM     69  F   UNL A   1      45.181  25.451  36.927  1.00  0.00    -0.200 F 
ATOM     70  F   UNL A   1      47.703  26.306  36.333  1.00  0.00    -0.200 F 
ENDBRANCH  37  60
ENDBRANCH  11  12
ENDBRANCH   4   6
ENDBRANCH   3   4
ENDBRANCH   2   3
ENDBRANCH   1   2
BRANCH   1  71
ATOM     71  O   UNL A   1      33.222  34.110  29.105  1.00  0.00    -0.458 OA
BRANCH  71  72
ATOM     72  C   UNL A   1      33.121  33.182  28.035  1.00  0.00     0.340 C 
ATOM     73  O   UNL A   1      32.159  33.267  27.208  1.00  0.00    -0.246 OA
BRANCH  72  74
ATOM     74  C   UNL A   1      34.164  32.089  27.876  1.00  0.00     0.083 A 
ATOM     75  C   UNL A   1      35.489  32.430  28.090  1.00  0.00     0.018 A 
ATOM     76  C   UNL A   1      33.806  30.832  27.637  1.00  0.00     0.053 A 
ATOM     77  C   UNL A   1      36.407  31.410  27.745  1.00  0.00     0.001 A 
ATOM     78  C   UNL A   1      34.757  29.859  27.444  1.00  0.00     0.027 A 
ATOM     79  C   UNL A   1      36.088  30.139  27.583  1.00  0.00     0.002 A 
BRANCH  76  80
ATOM     80  N   UNL A   1      32.381  30.478  27.579  1.00  0.00    -0.355 N 
ATOM     81  H   UNL A   1      31.737  30.928  28.174  1.00  0.00     0.167 HD
BRANCH  80  82
ATOM     82  C   UNL A   1      31.915  29.452  26.635  1.00  0.00     0.040 A 
ATOM     83  C   UNL A   1      31.881  28.143  27.082  1.00  0.00     0.026 A 
ATOM     84  C   UNL A   1      31.456  29.783  25.434  1.00  0.00     0.050 A 
ATOM     85  C   UNL A   1      31.603  27.196  26.067  1.00  0.00     0.004 A 
ATOM     86  C   UNL A   1      31.075  28.812  24.539  1.00  0.00     0.109 A 
ATOM     87  C   UNL A   1      31.071  27.491  24.895  1.00  0.00     0.024 A 
BRANCH  86  88
ATOM     88  S   UNL A   1      30.569  29.287  22.868  1.00  0.00     0.310 S 
ATOM     89  F   UNL A   1      29.929  27.906  22.419  1.00  0.00    -0.094 F 
ATOM     90  F   UNL A   1      31.961  28.714  22.404  1.00  0.00    -0.094 F 
ATOM     91  F   UNL A   1      30.277  29.817  21.436  1.00  0.00    -0.094 F 
ATOM     92  F   UNL A   1      29.120  29.728  23.317  1.00  0.00    -0.094 F 
ATOM     93  F   UNL A   1      30.803  28.654  24.298  1.00  0.00    -0.094 F 
ENDBRANCH  86  88
ENDBRANCH  80  82
ENDBRANCH  76  80
ENDBRANCH  72  74
ENDBRANCH  71  72
ENDBRANCH   1  71
TORSDOF 14
ENDMDL
MODEL 3
REMARK VINA RESULT:     -12.6      2.782      8.470
REMARK SMILES O=C(OCCOC(=O)c1ccccc1Nc1cccc(S(F)(F)(F)(F)F)c1)c1ccc(-c2c3nc(c(-c4c(F)c(F)c(F)c(F)c4F)c4ccc([nH]4)c(-c4c(F)c(F)c(F)c(F)c4F)c4nc(c(-c5c(F)c(F)c(F)c(F)c5F)c5ccc2[nH]5)C=C4)C=C3)cc1
REMARK SMILES IDX 5 1 4 2 3 3 2 4 1 5 28 6 29 7 90 8 30 9 89 10 31 11 32 12
REMARK SMILES IDX 33 13 83 14 34 15 88 16 82 17 84 18 35 19 87 20 81 21 80 22
REMARK SMILES IDX 36 24 68 25 48 26 67 27 49 28 52 29 66 30 85 31 50 32 51 33
REMARK SMILES IDX 65 35 86 36 53 37 37 38 38 39 46 40 39 41 40 42 44 43 47 44
REMARK SMILES IDX 41 45 42 46 45 47 43 48 69 49 70 50 78 51 71 52 72 53 76 54
REMARK SMILES IDX 79 55 73 56 74 57 77 58 75 59 54 60 55 61 63 62 56 63 57 64
REMARK SMILES IDX 61 65 64 66 58 67 59 68 62 69 60 70 6 71 7 72 8 73 9 74
REMARK SMILES IDX 10 75 14 76 11 77 13 78 12 79 15 80 16 82 17 83 27 84 18 85
REMARK SMILES IDX 20 86 19 87 21 88 22 89 23 90 24 91 25 92 26 93
REMARK H PARENT 84 23 52 34 15 81
REMARK Flexibility Score: inf
ROOT
ATOM      1  C   UNL A   1      32.661  35.567  29.043  1.00  0.00     0.275 C 
ENDROOT
BRANCH   1   2
ATOM      2  C   UNL A   1      33.278  36.630  29.937  1.00  0.00     0.275 C 
BRANCH   2   3
ATOM      3  O   UNL A   1      32.492  36.775  31.111  1.00  0.00    -0.458 OA
BRANCH   3   4
ATOM      4  C   UNL A   1      32.478  35.745  32.087  1.00  0.00     0.338 C 
ATOM      5  O   UNL A   1      31.392  35.439  32.674  1.00  0.00    -0.246 OA
BRANCH   4   6
ATOM      6  C   UNL A   1      33.761  35.006  32.431  1.00  0.00     0.060 A 
ATOM      7  C   UNL A   1      34.966  35.685  32.485  1.00  0.00     0.016 A 
ATOM      8  C   UNL A   1      33.682  33.717  32.742  1.00  0.00     0.016 A 
ATOM      9  C   UNL A   1      36.096  34.840  32.601  1.00  0.00     0.010 A 
ATOM     10  C   UNL A   1      34.819  32.983  32.977  1.00  0.00     0.010 A 
ATOM     11  C   UNL A   1      36.050  33.578  32.986  1.00  0.00    -0.014 A 
BRANCH  11  12
ATOM     12  C   UNL A   1      37.299  32.828  33.418  1.00  0.00     0.031 A 
ATOM     13  C   UNL A   1      37.860  33.186  34.646  1.00  0.00     0.074 A 
ATOM     14  C   UNL A   1      37.852  31.894  32.559  1.00  0.00     0.049 A 
ATOM     15  N   UNL A   1      38.964  32.695  35.210  1.00  0.00    -0.248 NA
ATOM     16  C   UNL A   1      37.294  34.202  35.544  1.00  0.00     0.031 C 
ATOM     17  C   UNL A   1      37.287  31.520  31.323  1.00  0.00     0.029 A 
ATOM     18  N   UNL A   1      39.013  31.173  32.727  1.00  0.00    -0.354 N 
ATOM     19  C   UNL A   1      39.172  33.272  36.396  1.00  0.00     0.074 A 
ATOM     20  C   UNL A   1      38.103  34.254  36.625  1.00  0.00     0.031 C 
ATOM     21  C   UNL A   1      38.103  30.596  30.750  1.00  0.00     0.029 A 
ATOM     22  C   UNL A   1      39.189  30.376  31.617  1.00  0.00     0.049 A 
ATOM     23  H   UNL A   1      39.613  31.219  33.506  1.00  0.00     0.167 HD
ATOM     24  C   UNL A   1      40.208  33.016  37.295  1.00  0.00     0.037 A 
ATOM     25  C   UNL A   1      40.233  29.502  31.357  1.00  0.00     0.037 A 
ATOM     26  C   UNL A   1      41.229  32.110  37.053  1.00  0.00     0.049 A 
ATOM     27  C   UNL A   1      41.302  29.289  32.231  1.00  0.00     0.074 A 
ATOM     28  C   UNL A   1      42.277  31.835  37.952  1.00  0.00     0.029 A 
ATOM     29  N   UNL A   1      41.418  31.332  35.933  1.00  0.00    -0.354 N 
ATOM     30  N   UNL A   1      41.488  29.837  33.433  1.00  0.00    -0.248 NA
ATOM     31  C   UNL A   1      42.430  28.390  31.951  1.00  0.00     0.031 C 
ATOM     32  C   UNL A   1      43.092  30.910  37.378  1.00  0.00     0.029 A 
ATOM     33  C   UNL A   1      42.568  30.594  36.111  1.00  0.00     0.049 A 
ATOM     34  H   UNL A   1      40.833  31.307  35.142  1.00  0.00     0.167 HD
ATOM     35  C   UNL A   1      42.614  29.375  33.979  1.00  0.00     0.074 A 
ATOM     36  C   UNL A   1      43.240  28.444  33.031  1.00  0.00     0.031 C 
ATOM     37  C   UNL A   1      43.144  29.691  35.231  1.00  0.00     0.037 A 
BRANCH  24  38
ATOM     38  C   UNL A   1      40.218  33.773  38.613  1.00  0.00     0.064 A 
ATOM     39  C   UNL A   1      39.403  33.374  39.659  1.00  0.00     0.173 A 
ATOM     40  C   UNL A   1      40.927  34.894  38.680  1.00  0.00     0.173 A 
ATOM     41  F   UNL A   1      38.880  32.155  39.745  1.00  0.00    -0.203 F 
ATOM     42  C   UNL A   1      39.179  34.381  40.627  1.00  0.00     0.198 A 
ATOM     43  C   UNL A   1      40.754  35.768  39.727  1.00  0.00     0.198 A 
ATOM     44  F   UNL A   1      41.812  35.174  37.728  1.00  0.00    -0.203 F 
ATOM     45  F   UNL A   1      38.149  34.224  41.455  1.00  0.00    -0.200 F 
ATOM     46  C   UNL A   1      39.920  35.465  40.766  1.00  0.00     0.200 A 
ATOM     47  F   UNL A   1      41.409  36.926  39.728  1.00  0.00    -0.200 F 
ATOM     48  F   UNL A   1      39.858  36.220  41.859  1.00  0.00    -0.200 F 
ENDBRANCH  24  38
BRANCH  25  49
ATOM     49  C   UNL A   1      40.214  28.732  30.046  1.00  0.00     0.064 A 
ATOM     50  C   UNL A   1      40.823  29.178  28.885  1.00  0.00     0.173 A 
ATOM     51  C   UNL A   1      39.637  27.538  30.107  1.00  0.00     0.173 A 
ATOM     52  F   UNL A   1      41.623  30.239  28.846  1.00  0.00    -0.203 F 
ATOM     53  C   UNL A   1      40.518  28.399  27.742  1.00  0.00     0.198 A 
ATOM     54  C   UNL A   1      39.494  26.772  28.976  1.00  0.00     0.198 A 
ATOM     55  F   UNL A   1      39.194  27.080  31.275  1.00  0.00    -0.203 F 
ATOM     56  F   UNL A   1      40.749  28.936  26.548  1.00  0.00    -0.200 F 
ATOM     57  C   UNL A   1      40.020  27.177  27.781  1.00  0.00     0.200 A 
ATOM     58  F   UNL A   1      38.833  25.619  29.045  1.00  0.00    -0.200 F 
ATOM     59  F   UNL A   1      40.029  26.382  26.714  1.00  0.00    -0.200 F 
ENDBRANCH  25  49
BRANCH  37  60
ATOM     60  C   UNL A   1      44.431  29.003  35.656  1.00  0.00     0.064 A 
ATOM     61  C   UNL A   1      45.661  29.577  35.385  1.00  0.00     0.173 A 
ATOM     62  C   UNL A   1      44.334  27.885  36.368  1.00  0.00     0.173 A 
ATOM     63  F   UNL A   1      45.797  30.809  34.904  1.00  0.00    -0.203 F 
ATOM     64  C   UNL A   1      46.762  28.734  35.665  1.00  0.00     0.198 A 
ATOM     65  C   UNL A   1      45.460  27.183  36.724  1.00  0.00     0.198 A 
ATOM     66  F   UNL A   1      43.136  27.443  36.738  1.00  0.00    -0.203 F 
ATOM     67  F   UNL A   1      47.934  29.041  35.116  1.00  0.00    -0.200 F 
ATOM     68  C   UNL A   1      46.708  27.662  36.436  1.00  0.00     0.200 A 
ATOM     69  F   UNL A   1      45.335  26.021  37.359  1.00  0.00    -0.200 F 
ATOM     70  F   UNL A   1      47.808  27.081  36.908  1.00  0.00    -0.200 F 
ENDBRANCH  37  60
ENDBRANCH  11  12
ENDBRANCH   4   6
ENDBRANCH   3   4
ENDBRANCH   2   3
ENDBRANCH   1   2
BRANCH   1  71
ATOM     71  O   UNL A   1      33.534  34.449  28.964  1.00  0.00    -0.458 OA
BRANCH  71  72
ATOM     72  C   UNL A   1      33.283  33.418  28.021  1.00  0.00     0.340 C 
ATOM     73  O   UNL A   1      32.243  33.463  27.292  1.00  0.00    -0.246 OA
BRANCH  72  74
ATOM     74  C   UNL A   1      34.259  32.262  27.881  1.00  0.00     0.083 A 
ATOM     75  C   UNL A   1      35.597  32.518  28.130  1.00  0.00     0.018 A 
ATOM     76  C   UNL A   1      33.828  31.031  27.627  1.00  0.00     0.053 A 
ATOM     77  C   UNL A   1      36.457  31.444  27.802  1.00  0.00     0.001 A 
ATOM     78  C   UNL A   1      34.721  30.001  27.452  1.00  0.00     0.027 A 
ATOM     79  C   UNL A   1      36.063  30.196  27.625  1.00  0.00     0.002 A 
BRANCH  76  80
ATOM     80  N   UNL A   1      32.386  30.768  27.532  1.00  0.00    -0.355 N 
ATOM     81  H   UNL A   1      31.751  31.308  28.057  1.00  0.00     0.167 HD
BRANCH  80  82
ATOM     82  C   UNL A   1      31.889  29.698  26.655  1.00  0.00     0.040 A 
ATOM     83  C   UNL A   1      31.803  28.424  27.189  1.00  0.00     0.026 A 
ATOM     84  C   UNL A   1      31.451  29.963  25.430  1.00  0.00     0.050 A 
ATOM     85  C   UNL A   1      31.498  27.422  26.238  1.00  0.00     0.004 A 
ATOM     86  C   UNL A   1      31.040  28.948  24.599  1.00  0.00     0.109 A 
ATOM     87  C   UNL A   1      30.986  27.656  25.043  1.00  0.00     0.024 A 
BRANCH  86  88
ATOM     88  S   UNL A   1      30.563  29.327  22.896  1.00  0.00     0.310 S 
ATOM     89  F   UNL A   1      30.152  27.864  22.440  1.00  0.00    -0.094 F 
ATOM     90  F   UNL A   1      32.046  28.954  22.516  1.00  0.00    -0.094 F 
ATOM     91  F   UNL A   1      30.277  29.794  21.440  1.00  0.00    -0.094 F 
ATOM     92  F   UNL A   1      29.044  29.561  23.259  1.00  0.00    -0.094 F 
ATOM     93  F   UNL A   1      30.807  28.750  24.347  1.00  0.00    -0.094 F 
ENDBRANCH  86  88
ENDBRANCH  80  82
ENDBRANCH  76  80
ENDBRANCH  72  74
ENDBRANCH  71  72
ENDBRANCH   1  71
TORSDOF 14
ENDMDL
