MODEL 1
REMARK VINA RESULT:     -10.8      0.000      0.000
REMARK SMILES C[C@H](C(=O)OCCOC(=O)c1ccc(-c2c3nc(c(-c4c(F)c(F)c(F)c(F)c4F)c4ccc([nH]4)c(-c4c(F)c(F)c(F)c(F)c4F)c4nc(c(-c5c(F)c(F)c(F)c(F)c5F)c5ccc2[nH]5)C=C4)C=C3)cc1)[C@H](C)[S@@](=O)c1cccs1
REMARK SMILES IDX 6 1 5 2 3 3 4 4 2 5 1 6 74 7 75 8 76 9 77 10 78 11 79 12
REMARK SMILES IDX 82 13 80 14 81 15 7 16 8 17 9 18 10 19 11 20 12 21 73 22
REMARK SMILES IDX 13 23 72 24 14 25 15 26 16 27 66 28 17 29 71 30 65 31 67 32
REMARK SMILES IDX 18 33 70 34 64 35 63 36 19 38 51 39 31 40 50 41 32 42 35 43
REMARK SMILES IDX 49 44 68 45 33 46 34 47 48 49 69 50 36 51 20 52 21 53 29 54
REMARK SMILES IDX 22 55 23 56 27 57 30 58 24 59 25 60 28 61 26 62 52 63 53 64
REMARK SMILES IDX 61 65 54 66 55 67 59 68 62 69 56 70 57 71 60 72 58 73 37 74
REMARK SMILES IDX 38 75 46 76 39 77 40 78 44 79 47 80 41 81 42 82 45 83 43 84
REMARK H PARENT 67 37 35 48
REMARK Flexibility Score: inf
ROOT
ATOM      1  C   UNL A   1      31.649  28.630  26.622  1.00  0.00     0.274 C 
ENDROOT
BRANCH   1   2
ATOM      2  O   UNL A   1      32.756  27.823  26.170  1.00  0.00    -0.462 OA
BRANCH   2   3
ATOM      3  C   UNL A   1      32.564  26.484  26.212  1.00  0.00     0.309 C 
ATOM      4  O   UNL A   1      31.638  25.918  26.782  1.00  0.00    -0.252 OA
BRANCH   3   5
ATOM      5  C   UNL A   1      33.577  25.720  25.384  1.00  0.00     0.112 C 
ATOM      6  C   UNL A   1      33.900  24.408  26.123  1.00  0.00     0.021 C 
BRANCH   5   7
ATOM      7  C   UNL A   1      33.236  25.446  23.913  1.00  0.00     0.096 C 
ATOM      8  C   UNL A   1      34.099  24.297  23.364  1.00  0.00     0.023 C 
BRANCH   7   9
ATOM      9  S   UNL A   1      33.281  26.801  22.703  1.00  0.00     0.067 S 
ATOM     10  O   UNL A   1      33.488  26.269  21.317  1.00  0.00    -0.253 OA
BRANCH   9  11
ATOM     11  C   UNL A   1      31.742  27.595  22.751  1.00  0.00     0.091 A 
ATOM     12  C   UNL A   1      31.618  28.954  22.554  1.00  0.00     0.029 A 
ATOM     13  S   UNL A   1      30.265  26.872  23.175  1.00  0.00    -0.135 S 
ATOM     14  C   UNL A   1      30.275  29.398  22.716  1.00  0.00     0.013 A 
ATOM     15  C   UNL A   1      29.425  28.358  23.022  1.00  0.00     0.066 A 
ENDBRANCH   9  11
ENDBRANCH   7   9
ENDBRANCH   5   7
ENDBRANCH   3   5
ENDBRANCH   2   3
ENDBRANCH   1   2
BRANCH   1  16
ATOM     16  C   UNL A   1      31.778  30.051  26.086  1.00  0.00     0.275 C 
BRANCH  16  17
ATOM     17  O   UNL A   1      33.161  30.444  26.120  1.00  0.00    -0.458 OA
BRANCH  17  18
ATOM     18  C   UNL A   1      33.495  31.322  27.088  1.00  0.00     0.338 C 
ATOM     19  O   UNL A   1      32.852  32.286  27.477  1.00  0.00    -0.246 OA
BRANCH  18  20
ATOM     20  C   UNL A   1      34.805  30.965  27.655  1.00  0.00     0.060 A 
ATOM     21  C   UNL A   1      35.109  29.637  27.956  1.00  0.00     0.016 A 
ATOM     22  C   UNL A   1      35.695  31.983  27.999  1.00  0.00     0.016 A 
ATOM     23  C   UNL A   1      36.252  29.334  28.694  1.00  0.00     0.010 A 
ATOM     24  C   UNL A   1      36.888  31.666  28.651  1.00  0.00     0.010 A 
ATOM     25  C   UNL A   1      37.160  30.345  29.045  1.00  0.00    -0.014 A 
BRANCH  25  26
ATOM     26  C   UNL A   1      38.375  30.042  29.850  1.00  0.00     0.031 A 
ATOM     27  C   UNL A   1      39.450  29.152  29.284  1.00  0.00     0.074 A 
ATOM     28  C   UNL A   1      38.518  30.550  31.089  1.00  0.00     0.049 A 
ATOM     29  N   UNL A   1      40.475  28.601  29.886  1.00  0.00    -0.248 NA
ATOM     30  C   UNL A   1      39.350  28.825  27.853  1.00  0.00     0.031 C 
ATOM     31  C   UNL A   1      37.580  31.460  31.746  1.00  0.00     0.029 A 
ATOM     32  N   UNL A   1      39.511  30.367  32.020  1.00  0.00    -0.354 N 
ATOM     33  C   UNL A   1      41.104  27.819  28.926  1.00  0.00     0.074 A 
ATOM     34  C   UNL A   1      40.352  27.970  27.698  1.00  0.00     0.031 C 
ATOM     35  C   UNL A   1      38.054  31.780  32.960  1.00  0.00     0.029 A 
ATOM     36  C   UNL A   1      39.286  31.035  33.198  1.00  0.00     0.049 A 
ATOM     37  H   UNL A   1      40.306  29.810  31.858  1.00  0.00     0.167 HD
ATOM     38  C   UNL A   1      42.204  27.041  29.060  1.00  0.00     0.037 A 
ATOM     39  C   UNL A   1      39.972  31.020  34.357  1.00  0.00     0.037 A 
ATOM     40  C   UNL A   1      42.986  26.939  30.265  1.00  0.00     0.049 A 
ATOM     41  C   UNL A   1      41.182  30.140  34.486  1.00  0.00     0.074 A 
ATOM     42  C   UNL A   1      44.129  26.192  30.493  1.00  0.00     0.029 A 
ATOM     43  N   UNL A   1      42.713  27.622  31.440  1.00  0.00    -0.354 N 
ATOM     44  N   UNL A   1      41.732  29.355  33.592  1.00  0.00    -0.248 NA
ATOM     45  C   UNL A   1      41.852  30.124  35.795  1.00  0.00     0.031 C 
ATOM     46  C   UNL A   1      44.535  26.406  31.816  1.00  0.00     0.029 A 
ATOM     47  C   UNL A   1      43.662  27.310  32.399  1.00  0.00     0.049 A 
ATOM     48  H   UNL A   1      41.957  28.239  31.573  1.00  0.00     0.167 HD
ATOM     49  C   UNL A   1      42.813  28.758  34.224  1.00  0.00     0.074 A 
ATOM     50  C   UNL A   1      42.854  29.285  35.573  1.00  0.00     0.031 C 
ATOM     51  C   UNL A   1      43.687  27.846  33.734  1.00  0.00     0.037 A 
BRANCH  38  52
ATOM     52  C   UNL A   1      42.615  26.209  27.882  1.00  0.00     0.064 A 
ATOM     53  C   UNL A   1      42.040  24.957  27.623  1.00  0.00     0.173 A 
ATOM     54  C   UNL A   1      43.571  26.695  26.977  1.00  0.00     0.173 A 
ATOM     55  F   UNL A   1      41.133  24.443  28.466  1.00  0.00    -0.203 F 
ATOM     56  C   UNL A   1      42.423  24.212  26.509  1.00  0.00     0.198 A 
ATOM     57  C   UNL A   1      43.934  25.959  25.853  1.00  0.00     0.198 A 
ATOM     58  F   UNL A   1      44.147  27.891  27.180  1.00  0.00    -0.203 F 
ATOM     59  F   UNL A   1      41.887  23.002  26.298  1.00  0.00    -0.200 F 
ATOM     60  C   UNL A   1      43.364  24.716  25.622  1.00  0.00     0.200 A 
ATOM     61  F   UNL A   1      44.836  26.451  24.994  1.00  0.00    -0.200 F 
ATOM     62  F   UNL A   1      43.725  24.001  24.548  1.00  0.00    -0.200 F 
ENDBRANCH  38  52
BRANCH  39  63
ATOM     63  C   UNL A   1      39.503  31.843  35.501  1.00  0.00     0.064 A 
ATOM     64  C   UNL A   1      39.966  33.153  35.679  1.00  0.00     0.173 A 
ATOM     65  C   UNL A   1      38.575  31.344  36.426  1.00  0.00     0.173 A 
ATOM     66  F   UNL A   1      40.874  33.662  34.835  1.00  0.00    -0.203 F 
ATOM     67  C   UNL A   1      39.521  33.933  36.744  1.00  0.00     0.198 A 
ATOM     68  C   UNL A   1      38.111  32.133  37.476  1.00  0.00     0.198 A 
ATOM     69  F   UNL A   1      38.104  30.094  36.299  1.00  0.00    -0.203 F 
ATOM     70  F   UNL A   1      40.004  35.171  36.913  1.00  0.00    -0.200 F 
ATOM     71  C   UNL A   1      38.588  33.425  37.637  1.00  0.00     0.200 A 
ATOM     72  F   UNL A   1      37.201  31.643  38.329  1.00  0.00    -0.200 F 
ATOM     73  F   UNL A   1      38.153  34.179  38.655  1.00  0.00    -0.200 F 
ENDBRANCH  39  63
BRANCH  51  74
ATOM     74  C   UNL A   1      44.771  27.380  34.656  1.00  0.00     0.064 A 
ATOM     75  C   UNL A   1      44.608  26.239  35.455  1.00  0.00     0.173 A 
ATOM     76  C   UNL A   1      45.995  28.062  34.718  1.00  0.00     0.173 A 
ATOM     77  F   UNL A   1      43.449  25.565  35.439  1.00  0.00    -0.203 F 
ATOM     78  C   UNL A   1      45.628  25.808  36.298  1.00  0.00     0.198 A 
ATOM     79  C   UNL A   1      47.019  27.617  35.548  1.00  0.00     0.198 A 
ATOM     80  F   UNL A   1      46.196  29.158  33.970  1.00  0.00    -0.203 F 
ATOM     81  F   UNL A   1      45.439  24.737  37.081  1.00  0.00    -0.200 F 
ATOM     82  C   UNL A   1      46.833  26.494  36.341  1.00  0.00     0.200 A 
ATOM     83  F   UNL A   1      48.184  28.277  35.585  1.00  0.00    -0.200 F 
ATOM     84  F   UNL A   1      47.814  26.077  37.153  1.00  0.00    -0.200 F 
ENDBRANCH  51  74
ENDBRANCH  25  26
ENDBRANCH  18  20
ENDBRANCH  17  18
ENDBRANCH  16  17
ENDBRANCH   1  16
TORSDOF 14
ENDMDL
MODEL 2
REMARK VINA RESULT:     -10.6      0.805      2.180
REMARK SMILES C[C@H](C(=O)OCCOC(=O)c1ccc(-c2c3nc(c(-c4c(F)c(F)c(F)c(F)c4F)c4ccc([nH]4)c(-c4c(F)c(F)c(F)c(F)c4F)c4nc(c(-c5c(F)c(F)c(F)c(F)c5F)c5ccc2[nH]5)C=C4)C=C3)cc1)[C@H](C)[S@@](=O)c1cccs1
REMARK SMILES IDX 6 1 5 2 3 3 4 4 2 5 1 6 74 7 75 8 76 9 77 10 78 11 79 12
REMARK SMILES IDX 82 13 80 14 81 15 7 16 8 17 9 18 10 19 11 20 12 21 73 22
REMARK SMILES IDX 13 23 72 24 14 25 15 26 16 27 66 28 17 29 71 30 65 31 67 32
REMARK SMILES IDX 18 33 70 34 64 35 63 36 19 38 51 39 31 40 50 41 32 42 35 43
REMARK SMILES IDX 49 44 68 45 33 46 34 47 48 49 69 50 36 51 20 52 21 53 29 54
REMARK SMILES IDX 22 55 23 56 27 57 30 58 24 59 25 60 28 61 26 62 52 63 53 64
REMARK SMILES IDX 61 65 54 66 55 67 59 68 62 69 56 70 57 71 60 72 58 73 37 74
REMARK SMILES IDX 38 75 46 76 39 77 40 78 44 79 47 80 41 81 42 82 45 83 43 84
REMARK H PARENT 67 37 35 48
REMARK Flexibility Score: inf
ROOT
ATOM      1  C   UNL A   1      31.910  28.400  26.595  1.00  0.00     0.274 C 
ENDROOT
BRANCH   1   2
ATOM      2  O   UNL A   1      30.810  27.733  25.944  1.00  0.00    -0.462 OA
BRANCH   2   3
ATOM      3  C   UNL A   1      30.914  26.387  25.842  1.00  0.00     0.309 C 
ATOM      4  O   UNL A   1      31.061  25.614  26.782  1.00  0.00    -0.252 OA
BRANCH   3   5
ATOM      5  C   UNL A   1      30.732  25.890  24.422  1.00  0.00     0.112 C 
ATOM      6  C   UNL A   1      29.324  26.301  23.953  1.00  0.00     0.021 C 
BRANCH   5   7
ATOM      7  C   UNL A   1      31.790  26.292  23.384  1.00  0.00     0.096 C 
ATOM      8  C   UNL A   1      31.187  27.252  22.344  1.00  0.00     0.023 C 
BRANCH   7   9
ATOM      9  S   UNL A   1      32.712  25.009  22.486  1.00  0.00     0.067 S 
ATOM     10  O   UNL A   1      33.379  25.585  21.274  1.00  0.00    -0.253 OA
BRANCH   9  11
ATOM     11  C   UNL A   1      33.946  24.414  23.548  1.00  0.00     0.091 A 
ATOM     12  C   UNL A   1      34.294  25.080  24.704  1.00  0.00     0.029 A 
ATOM     13  S   UNL A   1      34.951  23.077  23.251  1.00  0.00    -0.135 S 
ATOM     14  C   UNL A   1      35.382  24.453  25.376  1.00  0.00     0.013 A 
ATOM     15  C   UNL A   1      35.815  23.327  24.710  1.00  0.00     0.066 A 
ENDBRANCH   9  11
ENDBRANCH   7   9
ENDBRANCH   5   7
ENDBRANCH   3   5
ENDBRANCH   2   3
ENDBRANCH   1   2
BRANCH   1  16
ATOM     16  C   UNL A   1      31.809  29.907  26.392  1.00  0.00     0.275 C 
BRANCH  16  17
ATOM     17  O   UNL A   1      33.129  30.448  26.213  1.00  0.00    -0.458 OA
BRANCH  17  18
ATOM     18  C   UNL A   1      33.510  31.372  27.119  1.00  0.00     0.338 C 
ATOM     19  O   UNL A   1      32.907  32.381  27.456  1.00  0.00    -0.246 OA
BRANCH  18  20
ATOM     20  C   UNL A   1      34.816  31.004  27.689  1.00  0.00     0.060 A 
ATOM     21  C   UNL A   1      35.094  29.679  28.027  1.00  0.00     0.016 A 
ATOM     22  C   UNL A   1      35.729  32.012  27.998  1.00  0.00     0.016 A 
ATOM     23  C   UNL A   1      36.235  29.374  28.767  1.00  0.00     0.010 A 
ATOM     24  C   UNL A   1      36.920  31.690  28.652  1.00  0.00     0.010 A 
ATOM     25  C   UNL A   1      37.166  30.374  29.082  1.00  0.00    -0.014 A 
BRANCH  25  26
ATOM     26  C   UNL A   1      38.380  30.070  29.889  1.00  0.00     0.031 A 
ATOM     27  C   UNL A   1      39.454  29.178  29.324  1.00  0.00     0.074 A 
ATOM     28  C   UNL A   1      38.522  30.577  31.129  1.00  0.00     0.049 A 
ATOM     29  N   UNL A   1      40.478  28.626  29.927  1.00  0.00    -0.248 NA
ATOM     30  C   UNL A   1      39.356  28.852  27.893  1.00  0.00     0.031 C 
ATOM     31  C   UNL A   1      37.584  31.489  31.785  1.00  0.00     0.029 A 
ATOM     32  N   UNL A   1      39.513  30.392  32.061  1.00  0.00    -0.354 N 
ATOM     33  C   UNL A   1      41.106  27.843  28.968  1.00  0.00     0.074 A 
ATOM     34  C   UNL A   1      40.356  27.996  27.739  1.00  0.00     0.031 C 
ATOM     35  C   UNL A   1      38.058  31.808  32.999  1.00  0.00     0.029 A 
ATOM     36  C   UNL A   1      39.288  31.061  33.239  1.00  0.00     0.049 A 
ATOM     37  H   UNL A   1      40.308  29.834  31.900  1.00  0.00     0.167 HD
ATOM     38  C   UNL A   1      42.205  27.063  29.104  1.00  0.00     0.037 A 
ATOM     39  C   UNL A   1      39.972  31.044  34.399  1.00  0.00     0.037 A 
ATOM     40  C   UNL A   1      42.985  26.960  30.309  1.00  0.00     0.049 A 
ATOM     41  C   UNL A   1      41.181  30.162  34.529  1.00  0.00     0.074 A 
ATOM     42  C   UNL A   1      44.127  26.211  30.538  1.00  0.00     0.029 A 
ATOM     43  N   UNL A   1      42.712  27.642  31.484  1.00  0.00    -0.354 N 
ATOM     44  N   UNL A   1      41.731  29.377  33.636  1.00  0.00    -0.248 NA
ATOM     45  C   UNL A   1      41.849  30.145  35.839  1.00  0.00     0.031 C 
ATOM     46  C   UNL A   1      44.532  26.424  31.862  1.00  0.00     0.029 A 
ATOM     47  C   UNL A   1      43.660  27.329  32.444  1.00  0.00     0.049 A 
ATOM     48  H   UNL A   1      41.957  28.260  31.616  1.00  0.00     0.167 HD
ATOM     49  C   UNL A   1      42.810  28.777  34.268  1.00  0.00     0.074 A 
ATOM     50  C   UNL A   1      42.851  29.304  35.617  1.00  0.00     0.031 C 
ATOM     51  C   UNL A   1      43.684  27.865  33.779  1.00  0.00     0.037 A 
BRANCH  38  52
ATOM     52  C   UNL A   1      42.616  26.231  27.926  1.00  0.00     0.064 A 
ATOM     53  C   UNL A   1      42.065  24.965  27.685  1.00  0.00     0.173 A 
ATOM     54  C   UNL A   1      43.548  26.730  27.003  1.00  0.00     0.173 A 
ATOM     55  F   UNL A   1      41.182  24.438  28.546  1.00  0.00    -0.203 F 
ATOM     56  C   UNL A   1      42.447  24.220  26.571  1.00  0.00     0.198 A 
ATOM     57  C   UNL A   1      43.909  25.993  25.879  1.00  0.00     0.198 A 
ATOM     58  F   UNL A   1      44.100  27.940  27.187  1.00  0.00    -0.203 F 
ATOM     59  F   UNL A   1      41.934  22.997  26.377  1.00  0.00    -0.200 F 
ATOM     60  C   UNL A   1      43.363  24.736  25.666  1.00  0.00     0.200 A 
ATOM     61  F   UNL A   1      44.788  26.498  25.002  1.00  0.00    -0.200 F 
ATOM     62  F   UNL A   1      43.723  24.021  24.592  1.00  0.00    -0.200 F 
ENDBRANCH  38  52
BRANCH  39  63
ATOM     63  C   UNL A   1      39.503  31.867  35.542  1.00  0.00     0.064 A 
ATOM     64  C   UNL A   1      39.976  33.172  35.728  1.00  0.00     0.173 A 
ATOM     65  C   UNL A   1      38.564  31.374  36.460  1.00  0.00     0.173 A 
ATOM     66  F   UNL A   1      40.895  33.676  34.891  1.00  0.00    -0.203 F 
ATOM     67  C   UNL A   1      39.532  33.953  36.793  1.00  0.00     0.198 A 
ATOM     68  C   UNL A   1      38.101  32.164  37.508  1.00  0.00     0.198 A 
ATOM     69  F   UNL A   1      38.082  30.129  36.324  1.00  0.00    -0.203 F 
ATOM     70  F   UNL A   1      40.025  35.186  36.969  1.00  0.00    -0.200 F 
ATOM     71  C   UNL A   1      38.588  33.451  37.678  1.00  0.00     0.200 A 
ATOM     72  F   UNL A   1      37.180  31.679  38.354  1.00  0.00    -0.200 F 
ATOM     73  F   UNL A   1      38.153  34.205  38.695  1.00  0.00    -0.200 F 
ENDBRANCH  39  63
BRANCH  51  74
ATOM     74  C   UNL A   1      44.766  27.397  34.702  1.00  0.00     0.064 A 
ATOM     75  C   UNL A   1      45.983  28.085  34.806  1.00  0.00     0.173 A 
ATOM     76  C   UNL A   1      44.572  26.270  35.513  1.00  0.00     0.173 A 
ATOM     77  F   UNL A   1      46.218  29.160  34.039  1.00  0.00    -0.203 F 
ATOM     78  C   UNL A   1      46.977  27.648  35.678  1.00  0.00     0.198 A 
ATOM     79  C   UNL A   1      45.559  25.847  36.397  1.00  0.00     0.198 A 
ATOM     80  F   UNL A   1      43.421  25.582  35.449  1.00  0.00    -0.203 F 
ATOM     81  F   UNL A   1      48.148  28.298  35.735  1.00  0.00    -0.200 F 
ATOM     82  C   UNL A   1      46.763  26.533  36.475  1.00  0.00     0.200 A 
ATOM     83  F   UNL A   1      45.350  24.773  37.170  1.00  0.00    -0.200 F 
ATOM     84  F   UNL A   1      47.720  26.115  37.314  1.00  0.00    -0.200 F 
ENDBRANCH  51  74
ENDBRANCH  25  26
ENDBRANCH  18  20
ENDBRANCH  17  18
ENDBRANCH  16  17
ENDBRANCH   1  16
TORSDOF 14
ENDMDL
MODEL 3
REMARK VINA RESULT:     -10.6      0.803      2.176
REMARK SMILES C[C@H](C(=O)OCCOC(=O)c1ccc(-c2c3nc(c(-c4c(F)c(F)c(F)c(F)c4F)c4ccc([nH]4)c(-c4c(F)c(F)c(F)c(F)c4F)c4nc(c(-c5c(F)c(F)c(F)c(F)c5F)c5ccc2[nH]5)C=C4)C=C3)cc1)[C@H](C)[S@@](=O)c1cccs1
REMARK SMILES IDX 6 1 5 2 3 3 4 4 2 5 1 6 74 7 75 8 76 9 77 10 78 11 79 12
REMARK SMILES IDX 82 13 80 14 81 15 7 16 8 17 9 18 10 19 11 20 12 21 73 22
REMARK SMILES IDX 13 23 72 24 14 25 15 26 16 27 66 28 17 29 71 30 65 31 67 32
REMARK SMILES IDX 18 33 70 34 64 35 63 36 19 38 51 39 31 40 50 41 32 42 35 43
REMARK SMILES IDX 49 44 68 45 33 46 34 47 48 49 69 50 36 51 20 52 21 53 29 54
REMARK SMILES IDX 22 55 23 56 27 57 30 58 24 59 25 60 28 61 26 62 52 63 53 64
REMARK SMILES IDX 61 65 54 66 55 67 59 68 62 69 56 70 57 71 60 72 58 73 37 74
REMARK SMILES IDX 38 75 46 76 39 77 40 78 44 79 47 80 41 81 42 82 45 83 43 84
REMARK H PARENT 67 37 35 48
REMARK Flexibility Score: inf
ROOT
ATOM      1  C   UNL A   1      31.890  28.390  26.610  1.00  0.00     0.274 C 
ENDROOT
BRANCH   1   2
ATOM      2  O   UNL A   1      30.783  27.721  25.971  1.00  0.00    -0.462 OA
BRANCH   2   3
ATOM      3  C   UNL A   1      30.899  26.378  25.847  1.00  0.00     0.309 C 
ATOM      4  O   UNL A   1      31.068  25.592  26.773  1.00  0.00    -0.252 OA
BRANCH   3   5
ATOM      5  C   UNL A   1      30.701  25.901  24.422  1.00  0.00     0.112 C 
ATOM      6  C   UNL A   1      29.291  26.327  23.972  1.00  0.00     0.021 C 
BRANCH   5   7
ATOM      7  C   UNL A   1      31.752  26.310  23.380  1.00  0.00     0.096 C 
ATOM      8  C   UNL A   1      31.137  27.263  22.341  1.00  0.00     0.023 C 
BRANCH   7   9
ATOM      9  S   UNL A   1      32.682  25.034  22.481  1.00  0.00     0.067 S 
ATOM     10  O   UNL A   1      33.367  25.621  21.285  1.00  0.00    -0.253 OA
BRANCH   9  11
ATOM     11  C   UNL A   1      33.898  24.422  23.552  1.00  0.00     0.091 A 
ATOM     12  C   UNL A   1      34.271  25.102  24.693  1.00  0.00     0.029 A 
ATOM     13  S   UNL A   1      34.859  23.048  23.282  1.00  0.00    -0.135 S 
ATOM     14  C   UNL A   1      35.340  24.454  25.376  1.00  0.00     0.013 A 
ATOM     15  C   UNL A   1      35.734  23.301  24.734  1.00  0.00     0.066 A 
ENDBRANCH   9  11
ENDBRANCH   7   9
ENDBRANCH   5   7
ENDBRANCH   3   5
ENDBRANCH   2   3
ENDBRANCH   1   2
BRANCH   1  16
ATOM     16  C   UNL A   1      31.779  29.897  26.415  1.00  0.00     0.275 C 
BRANCH  16  17
ATOM     17  O   UNL A   1      33.095  30.445  26.219  1.00  0.00    -0.458 OA
BRANCH  17  18
ATOM     18  C   UNL A   1      33.480  31.377  27.114  1.00  0.00     0.338 C 
ATOM     19  O   UNL A   1      32.877  32.386  27.450  1.00  0.00    -0.246 OA
BRANCH  18  20
ATOM     20  C   UNL A   1      34.792  31.017  27.675  1.00  0.00     0.060 A 
ATOM     21  C   UNL A   1      35.090  29.691  27.989  1.00  0.00     0.016 A 
ATOM     22  C   UNL A   1      35.692  32.033  28.000  1.00  0.00     0.016 A 
ATOM     23  C   UNL A   1      36.237  29.389  28.722  1.00  0.00     0.010 A 
ATOM     24  C   UNL A   1      36.888  31.716  28.646  1.00  0.00     0.010 A 
ATOM     25  C   UNL A   1      37.155  30.397  29.053  1.00  0.00    -0.014 A 
BRANCH  25  26
ATOM     26  C   UNL A   1      38.374  30.096  29.852  1.00  0.00     0.031 A 
ATOM     27  C   UNL A   1      39.453  29.219  29.275  1.00  0.00     0.074 A 
ATOM     28  C   UNL A   1      38.518  30.594  31.095  1.00  0.00     0.049 A 
ATOM     29  N   UNL A   1      40.484  28.670  29.869  1.00  0.00    -0.248 NA
ATOM     30  C   UNL A   1      39.351  28.903  27.841  1.00  0.00     0.031 C 
ATOM     31  C   UNL A   1      37.575  31.493  31.763  1.00  0.00     0.029 A 
ATOM     32  N   UNL A   1      39.514  30.410  32.021  1.00  0.00    -0.354 N 
ATOM     33  C   UNL A   1      41.115  27.900  28.900  1.00  0.00     0.074 A 
ATOM     34  C   UNL A   1      40.358  28.057  27.676  1.00  0.00     0.031 C 
ATOM     35  C   UNL A   1      38.052  31.805  32.978  1.00  0.00     0.029 A 
ATOM     36  C   UNL A   1      39.289  31.067  33.206  1.00  0.00     0.049 A 
ATOM     37  H   UNL A   1      40.313  29.860  31.852  1.00  0.00     0.167 HD
ATOM     38  C   UNL A   1      42.221  27.128  29.024  1.00  0.00     0.037 A 
ATOM     39  C   UNL A   1      39.978  31.046  34.362  1.00  0.00     0.037 A 
ATOM     40  C   UNL A   1      43.007  27.021  30.225  1.00  0.00     0.049 A 
ATOM     41  C   UNL A   1      41.195  30.173  34.480  1.00  0.00     0.074 A 
ATOM     42  C   UNL A   1      44.156  26.280  30.443  1.00  0.00     0.029 A 
ATOM     43  N   UNL A   1      42.733  27.692  31.407  1.00  0.00    -0.354 N 
ATOM     44  N   UNL A   1      41.748  29.400  33.578  1.00  0.00    -0.248 NA
ATOM     45  C   UNL A   1      41.869  30.151  35.786  1.00  0.00     0.031 C 
ATOM     46  C   UNL A   1      44.565  26.486  31.767  1.00  0.00     0.029 A 
ATOM     47  C   UNL A   1      43.688  27.378  32.360  1.00  0.00     0.049 A 
ATOM     48  H   UNL A   1      41.974  28.302  31.548  1.00  0.00     0.167 HD
ATOM     49  C   UNL A   1      42.834  28.805  34.201  1.00  0.00     0.074 A 
ATOM     50  C   UNL A   1      42.877  29.320  35.554  1.00  0.00     0.031 C 
ATOM     51  C   UNL A   1      43.714  27.903  33.700  1.00  0.00     0.037 A 
BRANCH  38  52
ATOM     52  C   UNL A   1      42.633  26.309  27.838  1.00  0.00     0.064 A 
ATOM     53  C   UNL A   1      43.607  26.753  26.933  1.00  0.00     0.173 A 
ATOM     54  C   UNL A   1      42.071  25.040  27.630  1.00  0.00     0.173 A 
ATOM     55  F   UNL A   1      44.164  27.965  27.081  1.00  0.00    -0.203 F 
ATOM     56  C   UNL A   1      43.990  25.964  25.851  1.00  0.00     0.198 A 
ATOM     57  C   UNL A   1      42.472  24.245  26.561  1.00  0.00     0.198 A 
ATOM     58  F   UNL A   1      41.138  24.568  28.472  1.00  0.00    -0.203 F 
ATOM     59  F   UNL A   1      44.898  26.422  24.977  1.00  0.00    -0.200 F 
ATOM     60  C   UNL A   1      43.427  24.709  25.669  1.00  0.00     0.200 A 
ATOM     61  F   UNL A   1      41.934  23.029  26.392  1.00  0.00    -0.200 F 
ATOM     62  F   UNL A   1      43.802  23.949  24.631  1.00  0.00    -0.200 F 
ENDBRANCH  38  52
BRANCH  39  63
ATOM     63  C   UNL A   1      39.508  31.856  35.515  1.00  0.00     0.064 A 
ATOM     64  C   UNL A   1      39.953  33.172  35.696  1.00  0.00     0.173 A 
ATOM     65  C   UNL A   1      38.595  31.339  36.445  1.00  0.00     0.173 A 
ATOM     66  F   UNL A   1      40.846  33.699  34.846  1.00  0.00    -0.203 F 
ATOM     67  C   UNL A   1      39.506  33.939  36.769  1.00  0.00     0.198 A 
ATOM     68  C   UNL A   1      38.129  32.116  37.503  1.00  0.00     0.198 A 
ATOM     69  F   UNL A   1      38.141  30.083  36.315  1.00  0.00    -0.203 F 
ATOM     70  F   UNL A   1      39.972  35.184  36.940  1.00  0.00    -0.200 F 
ATOM     71  C   UNL A   1      38.589  33.413  37.667  1.00  0.00     0.200 A 
ATOM     72  F   UNL A   1      37.234  31.607  38.362  1.00  0.00    -0.200 F 
ATOM     73  F   UNL A   1      38.152  34.156  38.693  1.00  0.00    -0.200 F 
ENDBRANCH  39  63
BRANCH  51  74
ATOM     74  C   UNL A   1      44.804  27.437  34.615  1.00  0.00     0.064 A 
ATOM     75  C   UNL A   1      44.649  26.291  35.408  1.00  0.00     0.173 A 
ATOM     76  C   UNL A   1      46.025  28.123  34.675  1.00  0.00     0.173 A 
ATOM     77  F   UNL A   1      43.492  25.612  35.394  1.00  0.00    -0.203 F 
ATOM     78  C   UNL A   1      45.674  25.860  36.245  1.00  0.00     0.198 A 
ATOM     79  C   UNL A   1      47.054  27.678  35.498  1.00  0.00     0.198 A 
ATOM     80  F   UNL A   1      46.218  29.224  33.931  1.00  0.00    -0.203 F 
ATOM     81  F   UNL A   1      45.493  24.783  37.023  1.00  0.00    -0.200 F 
ATOM     82  C   UNL A   1      46.876  26.550  36.286  1.00  0.00     0.200 A 
ATOM     83  F   UNL A   1      48.217  28.343  35.533  1.00  0.00    -0.200 F 
ATOM     84  F   UNL A   1      47.863  26.133  37.091  1.00  0.00    -0.200 F 
ENDBRANCH  51  74
ENDBRANCH  25  26
ENDBRANCH  18  20
ENDBRANCH  17  18
ENDBRANCH  16  17
ENDBRANCH   1  16
TORSDOF 14
ENDMDL
