MODEL 1
REMARK VINA RESULT:     -13.6      0.000      0.000
REMARK SMILES C/C(=N\Nc1nc(-c2ccc(Cl)cc2)cs1)c1nnn(-c2ccc(C(=O)OCCOC(=O)c3ccc(-c4c5nc(c(-c6c(F)c(F)c(F)c(F)c6F)c6ccc([nH]6)c(-c6c(F)c(F)c(F)c(F)c6F)c6nc(c(-c7c(F)c(F)c(F)c(F)c7F)c7ccc4[nH]7)C=C6)C=C5)cc3)cc2)c1C
REMARK SMILES IDX 27 1 25 2 26 3 24 4 21 5 22 6 97 7 23 8 96 9 20 10 17 11
REMARK SMILES IDX 18 12 98 13 19 14 99 15 2 16 1 17 3 18 4 19 5 21 6 22 16 23
REMARK SMILES IDX 7 24 15 25 8 26 9 27 14 28 10 29 13 30 11 31 12 32 28 33
REMARK SMILES IDX 29 34 30 35 31 36 32 37 33 38 34 39 95 40 35 41 94 42 36 43
REMARK SMILES IDX 37 44 38 45 88 46 39 47 93 48 87 49 89 50 40 51 92 52 86 53
REMARK SMILES IDX 85 54 41 56 73 57 53 58 72 59 54 60 57 61 71 62 90 63 55 64
REMARK SMILES IDX 56 65 70 67 91 68 58 69 42 70 43 71 51 72 44 73 45 74 49 75
REMARK SMILES IDX 52 76 46 77 47 78 50 79 48 80 74 81 75 82 83 83 76 84 77 85
REMARK SMILES IDX 81 86 84 87 78 88 79 89 82 90 80 91 59 92 60 93 68 94 61 95
REMARK SMILES IDX 62 96 66 97 69 98 63 99 64 100 67 101 65 102
REMARK H PARENT 4 20 89 55 57 66
REMARK Flexibility Score: inf
ROOT
ATOM      1  O   UNL A   1      41.984  19.752  25.349  1.00  0.00    -0.458 OA
ENDROOT
BRANCH   1   2
ATOM      2  C   UNL A   1      41.173  19.810  26.436  1.00  0.00     0.338 C 
ATOM      3  O   UNL A   1      41.484  19.551  27.590  1.00  0.00    -0.246 OA
BRANCH   2   4
ATOM      4  C   UNL A   1      39.836  20.332  26.046  1.00  0.00     0.060 A 
ATOM      5  C   UNL A   1      37.453  21.335  25.041  1.00  0.00     0.067 A 
ATOM      6  C   UNL A   1      37.703  19.966  24.933  1.00  0.00     0.029 A 
ATOM      7  C   UNL A   1      38.300  22.168  25.779  1.00  0.00     0.029 A 
ATOM      8  C   UNL A   1      38.914  19.469  25.425  1.00  0.00     0.018 A 
ATOM      9  C   UNL A   1      39.493  21.666  26.280  1.00  0.00     0.018 A 
BRANCH   5  10
ATOM     10  N   UNL A   1      36.496  21.935  24.198  1.00  0.00    -0.217 N 
ATOM     11  C   UNL A   1      34.644  22.830  23.480  1.00  0.00     0.132 A 
ATOM     12  N   UNL A   1      35.678  23.291  22.714  1.00  0.00    -0.128 NA
ATOM     13  C   UNL A   1      35.133  21.960  24.441  1.00  0.00     0.071 A 
ATOM     14  N   UNL A   1      36.811  22.810  23.219  1.00  0.00    -0.061 NA
ATOM     15  C   UNL A   1      34.467  21.362  25.631  1.00  0.00     0.069 C 
BRANCH  11  16
ATOM     16  C   UNL A   1      33.288  23.355  23.456  1.00  0.00     0.087 C 
ATOM     17  C   UNL A   1      32.266  22.388  22.909  1.00  0.00     0.071 C 
ATOM     18  N   UNL A   1      33.142  24.602  23.806  1.00  0.00    -0.176 NA
BRANCH  18  19
ATOM     19  N   UNL A   1      31.971  25.317  23.661  1.00  0.00    -0.252 N 
ATOM     20  H   UNL A   1      31.278  24.867  23.126  1.00  0.00     0.193 HD
BRANCH  19  21
ATOM     21  C   UNL A   1      31.619  26.537  24.137  1.00  0.00     0.203 A 
ATOM     22  N   UNL A   1      30.584  27.243  23.749  1.00  0.00    -0.219 NA
ATOM     23  S   UNL A   1      32.627  27.361  25.277  1.00  0.00    -0.103 S 
ATOM     24  C   UNL A   1      30.764  28.573  24.063  1.00  0.00     0.084 A 
ATOM     25  C   UNL A   1      31.829  28.839  24.894  1.00  0.00     0.097 A 
BRANCH  24  26
ATOM     26  C   UNL A   1      29.938  29.567  23.404  1.00  0.00     0.001 A 
ATOM     27  C   UNL A   1      29.638  29.422  22.045  1.00  0.00     0.012 A 
ATOM     28  C   UNL A   1      29.588  30.754  24.065  1.00  0.00     0.012 A 
ATOM     29  C   UNL A   1      28.976  30.441  21.355  1.00  0.00     0.021 A 
ATOM     30  C   UNL A   1      28.936  31.779  23.371  1.00  0.00     0.021 A 
ATOM     31  C   UNL A   1      28.632  31.616  22.020  1.00  0.00     0.041 A 
ATOM     32  Cl  UNL A   1      27.850  32.886  21.163  1.00  0.00    -0.084 Cl
ENDBRANCH  24  26
ENDBRANCH  19  21
ENDBRANCH  18  19
ENDBRANCH  11  16
ENDBRANCH   5  10
ENDBRANCH   2   4
ENDBRANCH   1   2
BRANCH   1  33
ATOM     33  C   UNL A   1      43.342  20.186  25.533  1.00  0.00     0.275 C 
BRANCH  33  34
ATOM     34  C   UNL A   1      43.387  21.626  26.026  1.00  0.00     0.275 C 
BRANCH  34  35
ATOM     35  O   UNL A   1      42.746  22.495  25.096  1.00  0.00    -0.458 OA
BRANCH  35  36
ATOM     36  C   UNL A   1      43.189  23.771  25.102  1.00  0.00     0.338 C 
ATOM     37  O   UNL A   1      44.161  24.222  24.517  1.00  0.00    -0.246 OA
BRANCH  36  38
ATOM     38  C   UNL A   1      42.443  24.531  26.102  1.00  0.00     0.060 A 
ATOM     39  C   UNL A   1      41.604  25.548  25.633  1.00  0.00     0.016 A 
ATOM     40  C   UNL A   1      42.858  24.459  27.437  1.00  0.00     0.016 A 
ATOM     41  C   UNL A   1      41.360  26.623  26.458  1.00  0.00     0.010 A 
ATOM     42  C   UNL A   1      42.637  25.539  28.249  1.00  0.00     0.010 A 
ATOM     43  C   UNL A   1      41.969  26.640  27.715  1.00  0.00    -0.014 A 
BRANCH  43  44
ATOM     44  C   UNL A   1      41.873  27.842  28.510  1.00  0.00     0.031 A 
ATOM     45  C   UNL A   1      42.973  28.803  28.266  1.00  0.00     0.074 A 
ATOM     46  C   UNL A   1      40.773  28.088  29.246  1.00  0.00     0.049 A 
ATOM     47  N   UNL A   1      43.794  29.316  29.121  1.00  0.00    -0.248 NA
ATOM     48  C   UNL A   1      43.278  29.136  26.864  1.00  0.00     0.031 C 
ATOM     49  C   UNL A   1      39.522  27.319  29.283  1.00  0.00     0.029 A 
ATOM     50  N   UNL A   1      40.488  29.163  30.022  1.00  0.00    -0.354 N 
ATOM     51  C   UNL A   1      44.610  30.171  28.386  1.00  0.00     0.074 A 
ATOM     52  C   UNL A   1      44.366  29.891  26.997  1.00  0.00     0.031 C 
ATOM     53  C   UNL A   1      38.551  28.078  29.838  1.00  0.00     0.029 A 
ATOM     54  C   UNL A   1      39.137  29.327  30.292  1.00  0.00     0.049 A 
ATOM     55  H   UNL A   1      41.180  29.775  30.364  1.00  0.00     0.167 HD
ATOM     56  C   UNL A   1      45.237  31.223  28.974  1.00  0.00     0.037 A 
ATOM     57  C   UNL A   1      38.553  30.462  30.749  1.00  0.00     0.037 A 
ATOM     58  C   UNL A   1      45.350  31.037  30.396  1.00  0.00     0.049 A 
ATOM     59  C   UNL A   1      39.629  31.328  31.301  1.00  0.00     0.074 A 
ATOM     60  C   UNL A   1      45.961  30.093  31.198  1.00  0.00     0.029 A 
ATOM     61  N   UNL A   1      44.469  31.704  31.212  1.00  0.00    -0.354 N 
ATOM     62  N   UNL A   1      40.309  31.048  32.379  1.00  0.00    -0.248 NA
ATOM     63  C   UNL A   1      40.267  32.272  30.392  1.00  0.00     0.031 C 
ATOM     64  C   UNL A   1      45.083  29.923  32.307  1.00  0.00     0.029 A 
ATOM     65  C   UNL A   1      44.015  30.804  32.140  1.00  0.00     0.049 A 
ATOM     66  H   UNL A   1      44.212  32.651  31.142  1.00  0.00     0.167 HD
ATOM     67  C   UNL A   1      41.610  31.438  32.092  1.00  0.00     0.074 A 
ATOM     68  C   UNL A   1      41.507  32.259  30.889  1.00  0.00     0.031 C 
ATOM     69  C   UNL A   1      42.676  30.820  32.680  1.00  0.00     0.037 A 
BRANCH  56  70
ATOM     70  C   UNL A   1      45.394  32.570  28.313  1.00  0.00     0.064 A 
ATOM     71  C   UNL A   1      46.685  33.115  28.180  1.00  0.00     0.173 A 
ATOM     72  C   UNL A   1      44.326  33.468  28.090  1.00  0.00     0.173 A 
ATOM     73  F   UNL A   1      47.771  32.354  28.384  1.00  0.00    -0.203 F 
ATOM     74  C   UNL A   1      46.887  34.474  27.933  1.00  0.00     0.198 A 
ATOM     75  C   UNL A   1      44.533  34.812  27.787  1.00  0.00     0.198 A 
ATOM     76  F   UNL A   1      43.046  33.122  28.267  1.00  0.00    -0.203 F 
ATOM     77  F   UNL A   1      48.129  34.974  27.952  1.00  0.00    -0.200 F 
ATOM     78  C   UNL A   1      45.811  35.323  27.746  1.00  0.00     0.200 A 
ATOM     79  F   UNL A   1      43.476  35.619  27.624  1.00  0.00    -0.200 F 
ATOM     80  F   UNL A   1      46.000  36.637  27.577  1.00  0.00    -0.200 F 
ENDBRANCH  56  70
BRANCH  57  81
ATOM     81  C   UNL A   1      37.205  30.980  30.408  1.00  0.00     0.064 A 
ATOM     82  C   UNL A   1      36.334  31.448  31.403  1.00  0.00     0.173 A 
ATOM     83  C   UNL A   1      36.838  31.259  29.075  1.00  0.00     0.173 A 
ATOM     84  F   UNL A   1      36.633  31.271  32.698  1.00  0.00    -0.203 F 
ATOM     85  C   UNL A   1      35.172  32.163  31.085  1.00  0.00     0.198 A 
ATOM     86  C   UNL A   1      35.675  31.960  28.758  1.00  0.00     0.198 A 
ATOM     87  F   UNL A   1      37.647  30.940  28.055  1.00  0.00    -0.203 F 
ATOM     88  F   UNL A   1      34.393  32.644  32.063  1.00  0.00    -0.200 F 
ATOM     89  C   UNL A   1      34.848  32.423  29.763  1.00  0.00     0.200 A 
ATOM     90  F   UNL A   1      35.394  32.235  27.476  1.00  0.00    -0.200 F 
ATOM     91  F   UNL A   1      33.764  33.151  29.459  1.00  0.00    -0.200 F 
ENDBRANCH  57  81
BRANCH  69  92
ATOM     92  C   UNL A   1      42.399  29.885  33.823  1.00  0.00     0.064 A 
ATOM     93  C   UNL A   1      42.052  28.532  33.658  1.00  0.00     0.173 A 
ATOM     94  C   UNL A   1      42.642  30.332  35.127  1.00  0.00     0.173 A 
ATOM     95  F   UNL A   1      41.908  28.002  32.437  1.00  0.00    -0.203 F 
ATOM     96  C   UNL A   1      41.909  27.682  34.752  1.00  0.00     0.198 A 
ATOM     97  C   UNL A   1      42.537  29.472  36.216  1.00  0.00     0.198 A 
ATOM     98  F   UNL A   1      43.037  31.597  35.341  1.00  0.00    -0.203 F 
ATOM     99  F   UNL A   1      41.564  26.399  34.566  1.00  0.00    -0.200 F 
ATOM    100  C   UNL A   1      42.160  28.152  36.030  1.00  0.00     0.200 A 
ATOM    101  F   UNL A   1      42.830  29.917  37.446  1.00  0.00    -0.200 F 
ATOM    102  F   UNL A   1      42.064  27.324  37.081  1.00  0.00    -0.200 F 
ENDBRANCH  69  92
ENDBRANCH  43  44
ENDBRANCH  36  38
ENDBRANCH  35  36
ENDBRANCH  34  35
ENDBRANCH  33  34
ENDBRANCH   1  33
TORSDOF 16
ENDMDL
MODEL 2
REMARK VINA RESULT:     -13.6      4.586      9.894
REMARK SMILES C/C(=N\Nc1nc(-c2ccc(Cl)cc2)cs1)c1nnn(-c2ccc(C(=O)OCCOC(=O)c3ccc(-c4c5nc(c(-c6c(F)c(F)c(F)c(F)c6F)c6ccc([nH]6)c(-c6c(F)c(F)c(F)c(F)c6F)c6nc(c(-c7c(F)c(F)c(F)c(F)c7F)c7ccc4[nH]7)C=C6)C=C5)cc3)cc2)c1C
REMARK SMILES IDX 27 1 25 2 26 3 24 4 21 5 22 6 97 7 23 8 96 9 20 10 17 11
REMARK SMILES IDX 18 12 98 13 19 14 99 15 2 16 1 17 3 18 4 19 5 21 6 22 16 23
REMARK SMILES IDX 7 24 15 25 8 26 9 27 14 28 10 29 13 30 11 31 12 32 28 33
REMARK SMILES IDX 29 34 30 35 31 36 32 37 33 38 34 39 95 40 35 41 94 42 36 43
REMARK SMILES IDX 37 44 38 45 88 46 39 47 93 48 87 49 89 50 40 51 92 52 86 53
REMARK SMILES IDX 85 54 41 56 73 57 53 58 72 59 54 60 57 61 71 62 90 63 55 64
REMARK SMILES IDX 56 65 70 67 91 68 58 69 42 70 43 71 51 72 44 73 45 74 49 75
REMARK SMILES IDX 52 76 46 77 47 78 50 79 48 80 74 81 75 82 83 83 76 84 77 85
REMARK SMILES IDX 81 86 84 87 78 88 79 89 82 90 80 91 59 92 60 93 68 94 61 95
REMARK SMILES IDX 62 96 66 97 69 98 63 99 64 100 67 101 65 102
REMARK H PARENT 4 20 89 55 57 66
REMARK Flexibility Score: inf
ROOT
ATOM      1  O   UNL A   1      33.337  34.189  28.171  1.00  0.00    -0.458 OA
ENDROOT
BRANCH   1   2
ATOM      2  C   UNL A   1      34.230  33.252  27.761  1.00  0.00     0.338 C 
ATOM      3  O   UNL A   1      35.427  33.421  27.575  1.00  0.00    -0.246 OA
BRANCH   2   4
ATOM      4  C   UNL A   1      33.562  31.928  27.650  1.00  0.00     0.060 A 
ATOM      5  C   UNL A   1      32.454  29.429  27.177  1.00  0.00     0.067 A 
ATOM      6  C   UNL A   1      33.720  29.502  27.764  1.00  0.00     0.029 A 
ATOM      7  C   UNL A   1      31.684  30.579  26.975  1.00  0.00     0.029 A 
ATOM      8  C   UNL A   1      34.280  30.764  27.983  1.00  0.00     0.018 A 
ATOM      9  C   UNL A   1      32.240  31.829  27.210  1.00  0.00     0.018 A 
BRANCH   5  10
ATOM     10  N   UNL A   1      32.049  28.235  26.546  1.00  0.00    -0.217 N 
ATOM     11  C   UNL A   1      32.031  26.485  25.250  1.00  0.00     0.132 A 
ATOM     12  N   UNL A   1      31.251  26.227  26.343  1.00  0.00    -0.128 NA
ATOM     13  C   UNL A   1      32.557  27.762  25.348  1.00  0.00     0.071 A 
ATOM     14  N   UNL A   1      31.344  27.266  27.169  1.00  0.00    -0.061 NA
ATOM     15  C   UNL A   1      33.615  28.437  24.544  1.00  0.00     0.069 C 
BRANCH  11  16
ATOM     16  C   UNL A   1      32.444  25.496  24.267  1.00  0.00     0.087 C 
ATOM     17  C   UNL A   1      31.395  25.191  23.225  1.00  0.00     0.071 C 
ATOM     18  N   UNL A   1      33.603  24.933  24.462  1.00  0.00    -0.176 NA
BRANCH  18  19
ATOM     19  N   UNL A   1      34.069  23.848  23.749  1.00  0.00    -0.252 N 
ATOM     20  H   UNL A   1      33.950  23.915  22.773  1.00  0.00     0.193 HD
BRANCH  19  21
ATOM     21  C   UNL A   1      34.665  22.705  24.171  1.00  0.00     0.203 A 
ATOM     22  N   UNL A   1      34.311  21.487  23.839  1.00  0.00    -0.219 NA
ATOM     23  S   UNL A   1      35.942  22.759  25.338  1.00  0.00    -0.103 S 
ATOM     24  C   UNL A   1      34.786  20.580  24.762  1.00  0.00     0.084 A 
ATOM     25  C   UNL A   1      35.695  21.086  25.666  1.00  0.00     0.097 A 
BRANCH  24  26
ATOM     26  C   UNL A   1      34.207  19.250  24.801  1.00  0.00     0.001 A 
ATOM     27  C   UNL A   1      32.982  19.052  25.449  1.00  0.00     0.012 A 
ATOM     28  C   UNL A   1      34.940  18.141  24.355  1.00  0.00     0.012 A 
ATOM     29  C   UNL A   1      32.482  17.760  25.632  1.00  0.00     0.021 A 
ATOM     30  C   UNL A   1      34.445  16.847  24.550  1.00  0.00     0.021 A 
ATOM     31  C   UNL A   1      33.217  16.664  25.185  1.00  0.00     0.041 A 
ATOM     32  Cl  UNL A   1      32.621  15.071  25.443  1.00  0.00    -0.084 Cl
ENDBRANCH  24  26
ENDBRANCH  19  21
ENDBRANCH  18  19
ENDBRANCH  11  16
ENDBRANCH   5  10
ENDBRANCH   2   4
ENDBRANCH   1   2
BRANCH   1  33
ATOM     33  C   UNL A   1      33.879  35.386  28.754  1.00  0.00     0.275 C 
BRANCH  33  34
ATOM     34  C   UNL A   1      32.952  35.930  29.832  1.00  0.00     0.275 C 
BRANCH  34  35
ATOM     35  O   UNL A   1      33.626  35.998  31.086  1.00  0.00    -0.458 OA
BRANCH  35  36
ATOM     36  C   UNL A   1      33.218  35.099  32.008  1.00  0.00     0.338 C 
ATOM     37  O   UNL A   1      32.101  34.976  32.482  1.00  0.00    -0.246 OA
BRANCH  36  38
ATOM     38  C   UNL A   1      34.385  34.395  32.537  1.00  0.00     0.060 A 
ATOM     39  C   UNL A   1      35.487  35.175  32.904  1.00  0.00     0.016 A 
ATOM     40  C   UNL A   1      34.484  33.015  32.317  1.00  0.00     0.016 A 
ATOM     41  C   UNL A   1      36.739  34.607  32.835  1.00  0.00     0.010 A 
ATOM     42  C   UNL A   1      35.731  32.458  32.224  1.00  0.00     0.010 A 
ATOM     43  C   UNL A   1      36.839  33.285  32.396  1.00  0.00    -0.014 A 
BRANCH  43  44
ATOM     44  C   UNL A   1      38.153  32.742  32.140  1.00  0.00     0.031 A 
ATOM     45  C   UNL A   1      39.006  32.661  33.348  1.00  0.00     0.074 A 
ATOM     46  C   UNL A   1      38.449  32.208  30.940  1.00  0.00     0.049 A 
ATOM     47  N   UNL A   1      40.179  33.168  33.536  1.00  0.00    -0.248 NA
ATOM     48  C   UNL A   1      38.417  32.044  34.549  1.00  0.00     0.031 C 
ATOM     49  C   UNL A   1      37.545  31.981  29.806  1.00  0.00     0.029 A 
ATOM     50  N   UNL A   1      39.603  31.627  30.526  1.00  0.00    -0.354 N 
ATOM     51  C   UNL A   1      40.548  32.783  34.822  1.00  0.00     0.074 A 
ATOM     52  C   UNL A   1      39.371  32.251  35.453  1.00  0.00     0.031 C 
ATOM     53  C   UNL A   1      38.117  31.105  28.951  1.00  0.00     0.029 A 
ATOM     54  C   UNL A   1      39.459  30.804  29.419  1.00  0.00     0.049 A 
ATOM     55  H   UNL A   1      40.468  31.776  30.973  1.00  0.00     0.167 HD
ATOM     56  C   UNL A   1      41.855  32.696  35.182  1.00  0.00     0.037 A 
ATOM     57  C   UNL A   1      40.350  29.869  29.006  1.00  0.00     0.037 A 
ATOM     58  C   UNL A   1      42.691  33.478  34.312  1.00  0.00     0.049 A 
ATOM     59  C   UNL A   1      41.649  30.168  29.666  1.00  0.00     0.074 A 
ATOM     60  C   UNL A   1      42.762  34.821  33.994  1.00  0.00     0.029 A 
ATOM     61  N   UNL A   1      43.399  32.827  33.331  1.00  0.00    -0.354 N 
ATOM     62  N   UNL A   1      42.378  31.216  29.399  1.00  0.00    -0.248 NA
ATOM     63  C   UNL A   1      41.909  29.542  30.956  1.00  0.00     0.031 C 
ATOM     64  C   UNL A   1      43.087  34.859  32.608  1.00  0.00     0.029 A 
ATOM     65  C   UNL A   1      43.242  33.542  32.173  1.00  0.00     0.049 A 
ATOM     66  H   UNL A   1      43.922  32.000  33.441  1.00  0.00     0.167 HD
ATOM     67  C   UNL A   1      42.875  31.627  30.628  1.00  0.00     0.074 A 
ATOM     68  C   UNL A   1      42.621  30.512  31.537  1.00  0.00     0.031 C 
ATOM     69  C   UNL A   1      43.176  32.938  30.864  1.00  0.00     0.037 A 
BRANCH  56  70
ATOM     70  C   UNL A   1      42.398  31.609  36.075  1.00  0.00     0.064 A 
ATOM     71  C   UNL A   1      43.218  31.967  37.161  1.00  0.00     0.173 A 
ATOM     72  C   UNL A   1      42.404  30.237  35.731  1.00  0.00     0.173 A 
ATOM     73  F   UNL A   1      43.300  33.244  37.562  1.00  0.00    -0.203 F 
ATOM     74  C   UNL A   1      44.047  31.039  37.793  1.00  0.00     0.198 A 
ATOM     75  C   UNL A   1      43.189  29.304  36.404  1.00  0.00     0.198 A 
ATOM     76  F   UNL A   1      41.747  29.759  34.668  1.00  0.00    -0.203 F 
ATOM     77  F   UNL A   1      44.911  31.450  38.730  1.00  0.00    -0.200 F 
ATOM     78  C   UNL A   1      44.039  29.710  37.409  1.00  0.00     0.200 A 
ATOM     79  F   UNL A   1      43.176  28.025  36.004  1.00  0.00    -0.200 F 
ATOM     80  F   UNL A   1      44.881  28.833  37.967  1.00  0.00    -0.200 F 
ENDBRANCH  56  70
BRANCH  57  81
ATOM     81  C   UNL A   1      40.052  28.556  28.383  1.00  0.00     0.064 A 
ATOM     82  C   UNL A   1      40.585  28.207  27.134  1.00  0.00     0.173 A 
ATOM     83  C   UNL A   1      39.439  27.516  29.113  1.00  0.00     0.173 A 
ATOM     84  F   UNL A   1      41.230  29.124  26.397  1.00  0.00    -0.203 F 
ATOM     85  C   UNL A   1      40.521  26.895  26.648  1.00  0.00     0.198 A 
ATOM     86  C   UNL A   1      39.365  26.212  28.624  1.00  0.00     0.198 A 
ATOM     87  F   UNL A   1      38.983  27.721  30.357  1.00  0.00    -0.203 F 
ATOM     88  F   UNL A   1      41.091  26.586  25.476  1.00  0.00    -0.200 F 
ATOM     89  C   UNL A   1      39.916  25.898  27.397  1.00  0.00     0.200 A 
ATOM     90  F   UNL A   1      38.809  25.251  29.377  1.00  0.00    -0.200 F 
ATOM     91  F   UNL A   1      39.900  24.632  26.957  1.00  0.00    -0.200 F 
ENDBRANCH  57  81
BRANCH  69  92
ATOM     92  C   UNL A   1      43.191  33.874  29.689  1.00  0.00     0.064 A 
ATOM     93  C   UNL A   1      42.066  34.596  29.252  1.00  0.00     0.173 A 
ATOM     94  C   UNL A   1      44.418  34.165  29.080  1.00  0.00     0.173 A 
ATOM     95  F   UNL A   1      40.879  34.453  29.854  1.00  0.00    -0.203 F 
ATOM     96  C   UNL A   1      42.159  35.530  28.222  1.00  0.00     0.198 A 
ATOM     97  C   UNL A   1      44.517  35.126  28.079  1.00  0.00     0.198 A 
ATOM     98  F   UNL A   1      45.537  33.552  29.498  1.00  0.00    -0.203 F 
ATOM     99  F   UNL A   1      41.068  36.196  27.817  1.00  0.00    -0.200 F 
ATOM    100  C   UNL A   1      43.387  35.800  27.642  1.00  0.00     0.200 A 
ATOM    101  F   UNL A   1      45.715  35.421  27.556  1.00  0.00    -0.200 F 
ATOM    102  F   UNL A   1      43.486  36.729  26.681  1.00  0.00    -0.200 F 
ENDBRANCH  69  92
ENDBRANCH  43  44
ENDBRANCH  36  38
ENDBRANCH  35  36
ENDBRANCH  34  35
ENDBRANCH  33  34
ENDBRANCH   1  33
TORSDOF 16
ENDMDL
MODEL 3
REMARK VINA RESULT:     -13.5      2.485      3.459
REMARK SMILES C/C(=N\Nc1nc(-c2ccc(Cl)cc2)cs1)c1nnn(-c2ccc(C(=O)OCCOC(=O)c3ccc(-c4c5nc(c(-c6c(F)c(F)c(F)c(F)c6F)c6ccc([nH]6)c(-c6c(F)c(F)c(F)c(F)c6F)c6nc(c(-c7c(F)c(F)c(F)c(F)c7F)c7ccc4[nH]7)C=C6)C=C5)cc3)cc2)c1C
REMARK SMILES IDX 27 1 25 2 26 3 24 4 21 5 22 6 97 7 23 8 96 9 20 10 17 11
REMARK SMILES IDX 18 12 98 13 19 14 99 15 2 16 1 17 3 18 4 19 5 21 6 22 16 23
REMARK SMILES IDX 7 24 15 25 8 26 9 27 14 28 10 29 13 30 11 31 12 32 28 33
REMARK SMILES IDX 29 34 30 35 31 36 32 37 33 38 34 39 95 40 35 41 94 42 36 43
REMARK SMILES IDX 37 44 38 45 88 46 39 47 93 48 87 49 89 50 40 51 92 52 86 53
REMARK SMILES IDX 85 54 41 56 73 57 53 58 72 59 54 60 57 61 71 62 90 63 55 64
REMARK SMILES IDX 56 65 70 67 91 68 58 69 42 70 43 71 51 72 44 73 45 74 49 75
REMARK SMILES IDX 52 76 46 77 47 78 50 79 48 80 74 81 75 82 83 83 76 84 77 85
REMARK SMILES IDX 81 86 84 87 78 88 79 89 82 90 80 91 59 92 60 93 68 94 61 95
REMARK SMILES IDX 62 96 66 97 69 98 63 99 64 100 67 101 65 102
REMARK H PARENT 4 20 89 55 57 66
REMARK Flexibility Score: inf
ROOT
ATOM      1  O   UNL A   1      40.609  19.876  26.729  1.00  0.00    -0.458 OA
ENDROOT
BRANCH   1   2
ATOM      2  C   UNL A   1      40.172  21.108  27.094  1.00  0.00     0.338 C 
ATOM      3  O   UNL A   1      40.579  21.775  28.035  1.00  0.00    -0.246 OA
BRANCH   2   4
ATOM      4  C   UNL A   1      39.162  21.599  26.119  1.00  0.00     0.060 A 
ATOM      5  C   UNL A   1      37.080  22.505  24.525  1.00  0.00     0.067 A 
ATOM      6  C   UNL A   1      37.799  23.433  25.280  1.00  0.00     0.029 A 
ATOM      7  C   UNL A   1      37.489  21.170  24.439  1.00  0.00     0.029 A 
ATOM      8  C   UNL A   1      38.836  22.968  26.096  1.00  0.00     0.018 A 
ATOM      9  C   UNL A   1      38.530  20.717  25.238  1.00  0.00     0.018 A 
BRANCH   5  10
ATOM     10  N   UNL A   1      35.794  22.839  24.055  1.00  0.00    -0.217 N 
ATOM     11  C   UNL A   1      33.725  23.518  23.998  1.00  0.00     0.132 A 
ATOM     12  N   UNL A   1      34.273  23.684  22.757  1.00  0.00    -0.128 NA
ATOM     13  C   UNL A   1      34.672  22.979  24.854  1.00  0.00     0.071 A 
ATOM     14  N   UNL A   1      35.559  23.352  22.828  1.00  0.00    -0.061 NA
ATOM     15  C   UNL A   1      34.650  22.805  26.333  1.00  0.00     0.069 C 
BRANCH  11  16
ATOM     16  C   UNL A   1      32.438  24.049  24.421  1.00  0.00     0.087 C 
ATOM     17  C   UNL A   1      31.261  23.189  24.028  1.00  0.00     0.071 C 
ATOM     18  N   UNL A   1      32.452  25.224  24.984  1.00  0.00    -0.176 NA
BRANCH  18  19
ATOM     19  N   UNL A   1      31.322  25.961  25.271  1.00  0.00    -0.252 N 
ATOM     20  H   UNL A   1      30.521  25.424  25.471  1.00  0.00     0.193 HD
BRANCH  19  21
ATOM     21  C   UNL A   1      31.133  27.303  25.324  1.00  0.00     0.203 A 
ATOM     22  N   UNL A   1      30.257  27.984  24.626  1.00  0.00    -0.219 NA
ATOM     23  S   UNL A   1      32.170  28.298  26.288  1.00  0.00    -0.103 S 
ATOM     24  C   UNL A   1      30.622  29.311  24.558  1.00  0.00     0.084 A 
ATOM     25  C   UNL A   1      31.650  29.679  25.399  1.00  0.00     0.097 A 
BRANCH  24  26
ATOM     26  C   UNL A   1      30.018  30.154  23.544  1.00  0.00     0.001 A 
ATOM     27  C   UNL A   1      29.338  31.315  23.928  1.00  0.00     0.012 A 
ATOM     28  C   UNL A   1      29.958  29.728  22.208  1.00  0.00     0.012 A 
ATOM     29  C   UNL A   1      28.620  32.057  22.987  1.00  0.00     0.021 A 
ATOM     30  C   UNL A   1      29.228  30.465  21.269  1.00  0.00     0.021 A 
ATOM     31  C   UNL A   1      28.566  31.627  21.663  1.00  0.00     0.041 A 
ATOM     32  Cl  UNL A   1      27.652  32.519  20.511  1.00  0.00    -0.084 Cl
ENDBRANCH  24  26
ENDBRANCH  19  21
ENDBRANCH  18  19
ENDBRANCH  11  16
ENDBRANCH   5  10
ENDBRANCH   2   4
ENDBRANCH   1   2
BRANCH   1  33
ATOM     33  C   UNL A   1      41.913  19.490  27.192  1.00  0.00     0.275 C 
BRANCH  33  34
ATOM     34  C   UNL A   1      42.772  18.993  26.037  1.00  0.00     0.275 C 
BRANCH  34  35
ATOM     35  O   UNL A   1      42.914  20.007  25.046  1.00  0.00    -0.458 OA
BRANCH  35  36
ATOM     36  C   UNL A   1      44.179  20.230  24.627  1.00  0.00     0.338 C 
ATOM     37  O   UNL A   1      44.998  19.401  24.264  1.00  0.00    -0.246 OA
BRANCH  36  38
ATOM     38  C   UNL A   1      44.521  21.630  24.867  1.00  0.00     0.060 A 
ATOM     39  C   UNL A   1      45.587  21.885  25.737  1.00  0.00     0.016 A 
ATOM     40  C   UNL A   1      43.583  22.612  24.525  1.00  0.00     0.016 A 
ATOM     41  C   UNL A   1      45.584  23.067  26.442  1.00  0.00     0.010 A 
ATOM     42  C   UNL A   1      43.565  23.776  25.244  1.00  0.00     0.010 A 
ATOM     43  C   UNL A   1      44.513  23.944  26.253  1.00  0.00    -0.014 A 
BRANCH  43  44
ATOM     44  C   UNL A   1      44.402  25.094  27.120  1.00  0.00     0.031 A 
ATOM     45  C   UNL A   1      45.492  26.080  26.940  1.00  0.00     0.074 A 
ATOM     46  C   UNL A   1      43.297  25.282  27.866  1.00  0.00     0.049 A 
ATOM     47  N   UNL A   1      46.305  26.547  27.827  1.00  0.00    -0.248 NA
ATOM     48  C   UNL A   1      45.798  26.501  25.561  1.00  0.00     0.031 C 
ATOM     49  C   UNL A   1      42.055  24.499  27.851  1.00  0.00     0.029 A 
ATOM     50  N   UNL A   1      42.998  26.305  28.705  1.00  0.00    -0.354 N 
ATOM     51  C   UNL A   1      47.114  27.455  27.149  1.00  0.00     0.074 A 
ATOM     52  C   UNL A   1      46.877  27.258  25.745  1.00  0.00     0.031 C 
ATOM     53  C   UNL A   1      41.074  25.212  28.448  1.00  0.00     0.029 A 
ATOM     54  C   UNL A   1      41.645  26.437  28.981  1.00  0.00     0.049 A 
ATOM     55  H   UNL A   1      43.683  26.901  29.087  1.00  0.00     0.167 HD
ATOM     56  C   UNL A   1      47.728  28.475  27.803  1.00  0.00     0.037 A 
ATOM     57  C   UNL A   1      41.047  27.535  29.505  1.00  0.00     0.037 A 
ATOM     58  C   UNL A   1      47.839  28.203  29.210  1.00  0.00     0.049 A 
ATOM     59  C   UNL A   1      42.113  28.377  30.113  1.00  0.00     0.074 A 
ATOM     60  C   UNL A   1      48.459  27.218  29.955  1.00  0.00     0.029 A 
ATOM     61  N   UNL A   1      46.949  28.809  30.063  1.00  0.00    -0.354 N 
ATOM     62  N   UNL A   1      42.793  28.038  31.174  1.00  0.00    -0.248 NA
ATOM     63  C   UNL A   1      42.743  29.382  29.266  1.00  0.00     0.031 C 
ATOM     64  C   UNL A   1      47.579  26.970  31.048  1.00  0.00     0.029 A 
ATOM     65  C   UNL A   1      46.502  27.849  30.933  1.00  0.00     0.049 A 
ATOM     66  H   UNL A   1      46.682  29.756  30.051  1.00  0.00     0.167 HD
ATOM     67  C   UNL A   1      44.090  28.459  30.916  1.00  0.00     0.074 A 
ATOM     68  C   UNL A   1      43.982  29.352  29.765  1.00  0.00     0.031 C 
ATOM     69  C   UNL A   1      45.162  27.817  31.468  1.00  0.00     0.037 A 
BRANCH  56  70
ATOM     70  C   UNL A   1      47.873  29.861  27.226  1.00  0.00     0.064 A 
ATOM     71  C   UNL A   1      49.135  30.484  27.261  1.00  0.00     0.173 A 
ATOM     72  C   UNL A   1      46.781  30.710  26.929  1.00  0.00     0.173 A 
ATOM     73  F   UNL A   1      50.237  29.775  27.548  1.00  0.00    -0.203 F 
ATOM     74  C   UNL A   1      49.278  31.863  27.102  1.00  0.00     0.198 A 
ATOM     75  C   UNL A   1      46.937  32.077  26.713  1.00  0.00     0.198 A 
ATOM     76  F   UNL A   1      45.513  30.284  26.948  1.00  0.00    -0.203 F 
ATOM     77  F   UNL A   1      50.478  32.430  27.280  1.00  0.00    -0.200 F 
ATOM     78  C   UNL A   1      48.179  32.660  26.837  1.00  0.00     0.200 A 
ATOM     79  F   UNL A   1      45.856  32.831  26.473  1.00  0.00    -0.200 F 
ATOM     80  F   UNL A   1      48.304  33.989  26.752  1.00  0.00    -0.200 F 
ENDBRANCH  56  70
BRANCH  57  81
ATOM     81  C   UNL A   1      39.695  28.059  29.192  1.00  0.00     0.064 A 
ATOM     82  C   UNL A   1      38.713  28.176  30.187  1.00  0.00     0.173 A 
ATOM     83  C   UNL A   1      39.416  28.691  27.963  1.00  0.00     0.173 A 
ATOM     84  F   UNL A   1      38.921  27.649  31.403  1.00  0.00    -0.203 F 
ATOM     85  C   UNL A   1      37.529  28.890  29.970  1.00  0.00     0.198 A 
ATOM     86  C   UNL A   1      38.230  29.392  27.742  1.00  0.00     0.198 A 
ATOM     87  F   UNL A   1      40.326  28.721  26.979  1.00  0.00    -0.203 F 
ATOM     88  F   UNL A   1      36.639  29.028  30.962  1.00  0.00    -0.200 F 
ATOM     89  C   UNL A   1      37.292  29.503  28.749  1.00  0.00     0.200 A 
ATOM     90  F   UNL A   1      38.033  30.010  26.568  1.00  0.00    -0.200 F 
ATOM     91  F   UNL A   1      36.183  30.230  28.557  1.00  0.00    -0.200 F 
ENDBRANCH  57  81
BRANCH  69  92
ATOM     92  C   UNL A   1      44.891  26.811  32.550  1.00  0.00     0.064 A 
ATOM     93  C   UNL A   1      44.645  25.448  32.304  1.00  0.00     0.173 A 
ATOM     94  C   UNL A   1      45.039  27.207  33.885  1.00  0.00     0.173 A 
ATOM     95  F   UNL A   1      44.598  24.971  31.055  1.00  0.00    -0.203 F 
ATOM     96  C   UNL A   1      44.505  24.537  33.349  1.00  0.00     0.198 A 
ATOM     97  C   UNL A   1      44.938  26.289  34.926  1.00  0.00     0.198 A 
ATOM     98  F   UNL A   1      45.336  28.483  34.177  1.00  0.00    -0.203 F 
ATOM     99  F   UNL A   1      44.257  23.245  33.087  1.00  0.00    -0.200 F 
ATOM    100  C   UNL A   1      44.660  24.958  34.659  1.00  0.00     0.200 A 
ATOM    101  F   UNL A   1      45.138  26.691  36.189  1.00  0.00    -0.200 F 
ATOM    102  F   UNL A   1      44.568  24.075  35.664  1.00  0.00    -0.200 F 
ENDBRANCH  69  92
ENDBRANCH  43  44
ENDBRANCH  36  38
ENDBRANCH  35  36
ENDBRANCH  34  35
ENDBRANCH  33  34
ENDBRANCH   1  33
TORSDOF 16
ENDMDL
