MODEL 1
REMARK VINA RESULT:     -11.9      0.000      0.000
REMARK SMILES CCOc1cc2c(cc1OCC)[C@@H](C(=O)OCCOC(=O)c1ccc(-c3c4nc(c(-c5c(F)c(F)c(F)c(F)c5F)c5ccc([nH]5)c(-c5c(F)c(F)c(F)c(F)c5F)c5nc(c(-c6c(F)c(F)c(F)c(F)c6F)c6ccc3[nH]6)C=C5)C=C4)cc1)[C@H](c1ccc(F)cc1Cl)N(C)C2=O
REMARK SMILES IDX 17 1 16 2 14 3 15 4 13 5 4 6 5 7 9 8 6 9 8 10 7 11 96 12
REMARK SMILES IDX 94 13 97 14 85 15 95 16 3 17 2 18 1 19 10 20 11 21 12 22
REMARK SMILES IDX 86 23 87 24 92 25 88 26 91 27 93 28 89 29 90 30 18 31 19 32
REMARK SMILES IDX 20 33 21 34 22 35 23 36 84 37 24 38 83 39 25 40 26 41 27 42
REMARK SMILES IDX 77 43 28 44 82 45 76 46 78 47 29 48 81 49 75 50 74 51 30 53
REMARK SMILES IDX 62 54 42 55 61 56 43 57 46 58 60 59 79 60 44 61 45 62 59 64
REMARK SMILES IDX 80 65 47 66 31 67 32 68 40 69 33 70 34 71 38 72 41 73 35 74
REMARK SMILES IDX 36 75 39 76 37 77 63 78 64 79 72 80 65 81 66 82 70 83 73 84
REMARK SMILES IDX 67 85 68 86 71 87 69 88 48 89 49 90 57 91 50 92 51 93 55 94
REMARK SMILES IDX 58 95 52 96 53 97 56 98 54 99
REMARK H PARENT 78 52 46 63
REMARK Flexibility Score: inf
ROOT
ATOM      1  C   UNL A   1      31.504  28.233  26.188  1.00  0.00     0.274 C 
ENDROOT
BRANCH   1   2
ATOM      2  O   UNL A   1      32.143  27.136  26.872  1.00  0.00    -0.462 OA
BRANCH   2   3
ATOM      3  C   UNL A   1      31.802  25.889  26.471  1.00  0.00     0.316 C 
ATOM      4  O   UNL A   1      30.687  25.396  26.628  1.00  0.00    -0.251 OA
BRANCH   3   5
ATOM      5  C   UNL A   1      32.937  25.097  25.832  1.00  0.00     0.157 C 
ATOM      6  C   UNL A   1      33.017  25.577  21.563  1.00  0.00     0.161 A 
ATOM      7  C   UNL A   1      32.335  24.500  22.154  1.00  0.00     0.064 A 
ATOM      8  C   UNL A   1      33.682  26.516  22.366  1.00  0.00     0.161 A 
ATOM      9  C   UNL A   1      32.278  24.369  23.537  1.00  0.00     0.048 A 
ATOM     10  C   UNL A   1      33.628  26.362  23.756  1.00  0.00     0.056 A 
ATOM     11  C   UNL A   1      32.944  25.291  24.341  1.00  0.00    -0.015 A 
ATOM     12  C   UNL A   1      31.517  23.250  24.162  1.00  0.00     0.254 C 
ATOM     13  N   UNL A   1      31.882  22.906  25.464  1.00  0.00    -0.333 N 
ATOM     14  O   UNL A   1      30.612  22.707  23.538  1.00  0.00    -0.269 OA
ATOM     15  C   UNL A   1      32.992  23.573  26.150  1.00  0.00     0.135 C 
ATOM     16  C   UNL A   1      31.101  21.907  26.174  1.00  0.00     0.147 C 
BRANCH   6  17
ATOM     17  O   UNL A   1      33.102  25.612  20.198  1.00  0.00    -0.490 OA
BRANCH  17  18
ATOM     18  C   UNL A   1      31.820  25.650  19.555  1.00  0.00     0.226 C 
ATOM     19  C   UNL A   1      31.925  25.307  18.078  1.00  0.00     0.049 C 
ENDBRANCH  17  18
ENDBRANCH   6  17
BRANCH   8  20
ATOM     20  O   UNL A   1      34.419  27.610  22.018  1.00  0.00    -0.490 OA
BRANCH  20  21
ATOM     21  C   UNL A   1      34.269  28.849  22.697  1.00  0.00     0.226 C 
ATOM     22  C   UNL A   1      32.809  29.256  22.762  1.00  0.00     0.049 C 
ENDBRANCH  20  21
ENDBRANCH   8  20
BRANCH  15  23
ATOM     23  C   UNL A   1      34.412  22.996  25.870  1.00  0.00    -0.005 A 
ATOM     24  C   UNL A   1      35.497  23.889  26.093  1.00  0.00     0.010 A 
ATOM     25  C   UNL A   1      34.754  21.714  25.384  1.00  0.00     0.049 A 
ATOM     26  C   UNL A   1      36.814  23.567  25.755  1.00  0.00     0.040 A 
ATOM     27  C   UNL A   1      36.083  21.396  25.052  1.00  0.00     0.060 A 
ATOM     28  Cl  UNL A   1      33.665  20.393  25.165  1.00  0.00    -0.084 Cl
ATOM     29  C   UNL A   1      37.092  22.326  25.220  1.00  0.00     0.124 A 
ATOM     30  F   UNL A   1      38.347  22.014  24.877  1.00  0.00    -0.207 F 
ENDBRANCH  15  23
ENDBRANCH   3   5
ENDBRANCH   2   3
ENDBRANCH   1   2
BRANCH   1  31
ATOM     31  C   UNL A   1      31.797  29.579  26.859  1.00  0.00     0.275 C 
BRANCH  31  32
ATOM     32  O   UNL A   1      32.988  30.199  26.336  1.00  0.00    -0.458 OA
BRANCH  32  33
ATOM     33  C   UNL A   1      33.425  31.264  27.045  1.00  0.00     0.338 C 
ATOM     34  O   UNL A   1      32.789  32.260  27.351  1.00  0.00    -0.246 OA
BRANCH  33  35
ATOM     35  C   UNL A   1      34.761  31.003  27.601  1.00  0.00     0.060 A 
ATOM     36  C   UNL A   1      35.067  29.673  27.897  1.00  0.00     0.016 A 
ATOM     37  C   UNL A   1      35.645  32.023  27.942  1.00  0.00     0.016 A 
ATOM     38  C   UNL A   1      36.239  29.348  28.562  1.00  0.00     0.010 A 
ATOM     39  C   UNL A   1      36.831  31.699  28.613  1.00  0.00     0.010 A 
ATOM     40  C   UNL A   1      37.118  30.363  28.948  1.00  0.00    -0.014 A 
BRANCH  40  41
ATOM     41  C   UNL A   1      38.273  29.998  29.800  1.00  0.00     0.031 A 
ATOM     42  C   UNL A   1      39.339  29.096  29.248  1.00  0.00     0.074 A 
ATOM     43  C   UNL A   1      38.409  30.548  31.019  1.00  0.00     0.049 A 
ATOM     44  N   UNL A   1      40.423  28.644  29.824  1.00  0.00    -0.248 NA
ATOM     45  C   UNL A   1      39.165  28.648  27.857  1.00  0.00     0.031 C 
ATOM     46  C   UNL A   1      37.468  31.488  31.630  1.00  0.00     0.029 A 
ATOM     47  N   UNL A   1      39.401  30.409  31.956  1.00  0.00    -0.354 N 
ATOM     48  C   UNL A   1      41.043  27.837  28.881  1.00  0.00     0.074 A 
ATOM     49  C   UNL A   1      40.213  27.853  27.695  1.00  0.00     0.031 C 
ATOM     50  C   UNL A   1      37.930  31.844  32.839  1.00  0.00     0.029 A 
ATOM     51  C   UNL A   1      39.176  31.128  33.103  1.00  0.00     0.049 A 
ATOM     52  H   UNL A   1      40.198  29.846  31.819  1.00  0.00     0.167 HD
ATOM     53  C   UNL A   1      42.200  27.144  28.997  1.00  0.00     0.037 A 
ATOM     54  C   UNL A   1      39.886  31.182  34.245  1.00  0.00     0.037 A 
ATOM     55  C   UNL A   1      43.036  27.155  30.169  1.00  0.00     0.049 A 
ATOM     56  C   UNL A   1      41.155  30.381  34.357  1.00  0.00     0.074 A 
ATOM     57  C   UNL A   1      44.232  26.493  30.384  1.00  0.00     0.029 A 
ATOM     58  N   UNL A   1      42.762  27.873  31.324  1.00  0.00    -0.354 N 
ATOM     59  N   UNL A   1      41.725  29.604  33.466  1.00  0.00    -0.248 NA
ATOM     60  C   UNL A   1      41.879  30.464  35.631  1.00  0.00     0.031 C 
ATOM     61  C   UNL A   1      44.663  26.782  31.684  1.00  0.00     0.029 A 
ATOM     62  C   UNL A   1      43.759  27.659  32.261  1.00  0.00     0.049 A 
ATOM     63  H   UNL A   1      41.975  28.450  31.458  1.00  0.00     0.167 HD
ATOM     64  C   UNL A   1      42.878  29.118  34.066  1.00  0.00     0.074 A 
ATOM     65  C   UNL A   1      42.940  29.708  35.387  1.00  0.00     0.031 C 
ATOM     66  C   UNL A   1      43.799  28.256  33.572  1.00  0.00     0.037 A 
BRANCH  53  67
ATOM     67  C   UNL A   1      42.612  26.285  27.840  1.00  0.00     0.064 A 
ATOM     68  C   UNL A   1      43.498  26.743  26.854  1.00  0.00     0.173 A 
ATOM     69  C   UNL A   1      42.130  24.972  27.731  1.00  0.00     0.173 A 
ATOM     70  F   UNL A   1      43.970  27.998  26.902  1.00  0.00    -0.203 F 
ATOM     71  C   UNL A   1      43.872  25.924  25.792  1.00  0.00     0.198 A 
ATOM     72  C   UNL A   1      42.524  24.147  26.682  1.00  0.00     0.198 A 
ATOM     73  F   UNL A   1      41.278  24.487  28.647  1.00  0.00    -0.203 F 
ATOM     74  F   UNL A   1      44.688  26.395  24.839  1.00  0.00    -0.200 F 
ATOM     75  C   UNL A   1      43.392  24.625  25.710  1.00  0.00     0.200 A 
ATOM     76  F   UNL A   1      42.064  22.891  26.609  1.00  0.00    -0.200 F 
ATOM     77  F   UNL A   1      43.756  23.837  24.690  1.00  0.00    -0.200 F 
ENDBRANCH  53  67
BRANCH  54  78
ATOM     78  C   UNL A   1      39.399  32.003  35.383  1.00  0.00     0.064 A 
ATOM     79  C   UNL A   1      38.560  31.460  36.365  1.00  0.00     0.173 A 
ATOM     80  C   UNL A   1      39.753  33.356  35.502  1.00  0.00     0.173 A 
ATOM     81  F   UNL A   1      38.174  30.179  36.281  1.00  0.00    -0.203 F 
ATOM     82  C   UNL A   1      38.079  32.244  37.413  1.00  0.00     0.198 A 
ATOM     83  C   UNL A   1      39.294  34.130  36.565  1.00  0.00     0.198 A 
ATOM     84  F   UNL A   1      40.552  33.924  34.587  1.00  0.00    -0.203 F 
ATOM     85  F   UNL A   1      37.241  31.712  38.313  1.00  0.00    -0.200 F 
ATOM     86  C   UNL A   1      38.451  33.576  37.515  1.00  0.00     0.200 A 
ATOM     87  F   UNL A   1      39.667  35.414  36.665  1.00  0.00    -0.200 F 
ATOM     88  F   UNL A   1      37.989  34.328  38.524  1.00  0.00    -0.200 F 
ENDBRANCH  54  78
BRANCH  66  89
ATOM     89  C   UNL A   1      44.962  27.921  34.459  1.00  0.00     0.064 A 
ATOM     90  C   UNL A   1      46.140  28.681  34.440  1.00  0.00     0.173 A 
ATOM     91  C   UNL A   1      44.889  26.838  35.348  1.00  0.00     0.173 A 
ATOM     92  F   UNL A   1      46.263  29.716  33.595  1.00  0.00    -0.203 F 
ATOM     93  C   UNL A   1      47.216  28.351  35.260  1.00  0.00     0.198 A 
ATOM     94  C   UNL A   1      45.956  26.528  36.185  1.00  0.00     0.198 A 
ATOM     95  F   UNL A   1      43.781  26.085  35.407  1.00  0.00    -0.203 F 
ATOM     96  F   UNL A   1      48.351  29.060  35.190  1.00  0.00    -0.200 F 
ATOM     97  C   UNL A   1      47.121  27.279  36.135  1.00  0.00     0.200 A 
ATOM     98  F   UNL A   1      45.859  25.498  37.037  1.00  0.00    -0.200 F 
ATOM     99  F   UNL A   1      48.157  26.962  36.923  1.00  0.00    -0.200 F 
ENDBRANCH  66  89
ENDBRANCH  40  41
ENDBRANCH  33  35
ENDBRANCH  32  33
ENDBRANCH  31  32
ENDBRANCH   1  31
TORSDOF 16
ENDMDL
MODEL 2
REMARK VINA RESULT:     -11.8      1.710      3.417
REMARK SMILES CCOc1cc2c(cc1OCC)[C@@H](C(=O)OCCOC(=O)c1ccc(-c3c4nc(c(-c5c(F)c(F)c(F)c(F)c5F)c5ccc([nH]5)c(-c5c(F)c(F)c(F)c(F)c5F)c5nc(c(-c6c(F)c(F)c(F)c(F)c6F)c6ccc3[nH]6)C=C5)C=C4)cc1)[C@H](c1ccc(F)cc1Cl)N(C)C2=O
REMARK SMILES IDX 17 1 16 2 14 3 15 4 13 5 4 6 5 7 9 8 6 9 8 10 7 11 96 12
REMARK SMILES IDX 94 13 97 14 85 15 95 16 3 17 2 18 1 19 10 20 11 21 12 22
REMARK SMILES IDX 86 23 87 24 92 25 88 26 91 27 93 28 89 29 90 30 18 31 19 32
REMARK SMILES IDX 20 33 21 34 22 35 23 36 84 37 24 38 83 39 25 40 26 41 27 42
REMARK SMILES IDX 77 43 28 44 82 45 76 46 78 47 29 48 81 49 75 50 74 51 30 53
REMARK SMILES IDX 62 54 42 55 61 56 43 57 46 58 60 59 79 60 44 61 45 62 59 64
REMARK SMILES IDX 80 65 47 66 31 67 32 68 40 69 33 70 34 71 38 72 41 73 35 74
REMARK SMILES IDX 36 75 39 76 37 77 63 78 64 79 72 80 65 81 66 82 70 83 73 84
REMARK SMILES IDX 67 85 68 86 71 87 69 88 48 89 49 90 57 91 50 92 51 93 55 94
REMARK SMILES IDX 58 95 52 96 53 97 56 98 54 99
REMARK H PARENT 78 52 46 63
REMARK Flexibility Score: inf
ROOT
ATOM      1  C   UNL A   1      32.398  29.621  24.805  1.00  0.00     0.274 C 
ENDROOT
BRANCH   1   2
ATOM      2  O   UNL A   1      33.500  28.733  25.081  1.00  0.00    -0.462 OA
BRANCH   2   3
ATOM      3  C   UNL A   1      33.702  27.724  24.201  1.00  0.00     0.316 C 
ATOM      4  O   UNL A   1      34.251  27.861  23.110  1.00  0.00    -0.251 OA
BRANCH   3   5
ATOM      5  C   UNL A   1      33.146  26.376  24.646  1.00  0.00     0.157 C 
ATOM      6  C   UNL A   1      35.995  23.209  24.086  1.00  0.00     0.161 A 
ATOM      7  C   UNL A   1      35.037  23.499  23.099  1.00  0.00     0.064 A 
ATOM      8  C   UNL A   1      36.034  23.957  25.272  1.00  0.00     0.161 A 
ATOM      9  C   UNL A   1      34.143  24.550  23.266  1.00  0.00     0.048 A 
ATOM     10  C   UNL A   1      35.117  25.001  25.432  1.00  0.00     0.056 A 
ATOM     11  C   UNL A   1      34.168  25.291  24.446  1.00  0.00    -0.015 A 
ATOM     12  C   UNL A   1      33.157  24.883  22.199  1.00  0.00     0.254 C 
ATOM     13  N   UNL A   1      32.024  25.591  22.604  1.00  0.00    -0.333 N 
ATOM     14  O   UNL A   1      33.382  24.555  21.040  1.00  0.00    -0.269 OA
ATOM     15  C   UNL A   1      31.796  25.932  24.011  1.00  0.00     0.135 C 
ATOM     16  C   UNL A   1      31.084  26.052  21.596  1.00  0.00     0.147 C 
BRANCH   6  17
ATOM     17  O   UNL A   1      36.799  22.118  23.898  1.00  0.00    -0.490 OA
BRANCH  17  18
ATOM     18  C   UNL A   1      36.754  21.190  24.991  1.00  0.00     0.226 C 
ATOM     19  C   UNL A   1      35.553  20.265  24.890  1.00  0.00     0.049 C 
ENDBRANCH  17  18
ENDBRANCH   6  17
BRANCH   8  20
ATOM     20  O   UNL A   1      36.846  23.840  26.363  1.00  0.00    -0.490 OA
BRANCH  20  21
ATOM     21  C   UNL A   1      38.243  24.074  26.273  1.00  0.00     0.226 C 
ATOM     22  C   UNL A   1      38.816  24.447  27.629  1.00  0.00     0.049 C 
ENDBRANCH  20  21
ENDBRANCH   8  20
BRANCH  15  23
ATOM     23  C   UNL A   1      31.107  24.834  24.875  1.00  0.00    -0.005 A 
ATOM     24  C   UNL A   1      30.458  25.292  26.055  1.00  0.00     0.010 A 
ATOM     25  C   UNL A   1      31.082  23.438  24.657  1.00  0.00     0.049 A 
ATOM     26  C   UNL A   1      29.918  24.419  27.002  1.00  0.00     0.040 A 
ATOM     27  C   UNL A   1      30.532  22.565  25.612  1.00  0.00     0.060 A 
ATOM     28  Cl  UNL A   1      31.657  22.625  23.247  1.00  0.00    -0.084 Cl
ATOM     29  C   UNL A   1      29.976  23.058  26.778  1.00  0.00     0.124 A 
ATOM     30  F   UNL A   1      29.477  22.211  27.687  1.00  0.00    -0.207 F 
ENDBRANCH  15  23
ENDBRANCH   3   5
ENDBRANCH   2   3
ENDBRANCH   1   2
BRANCH   1  31
ATOM     31  C   UNL A   1      31.787  30.196  26.088  1.00  0.00     0.275 C 
BRANCH  31  32
ATOM     32  O   UNL A   1      32.728  30.214  27.178  1.00  0.00    -0.458 OA
BRANCH  32  33
ATOM     33  C   UNL A   1      33.400  31.378  27.322  1.00  0.00     0.338 C 
ATOM     34  O   UNL A   1      32.954  32.509  27.207  1.00  0.00    -0.246 OA
BRANCH  33  35
ATOM     35  C   UNL A   1      34.752  31.134  27.844  1.00  0.00     0.060 A 
ATOM     36  C   UNL A   1      35.027  29.840  28.292  1.00  0.00     0.016 A 
ATOM     37  C   UNL A   1      35.689  32.152  28.010  1.00  0.00     0.016 A 
ATOM     38  C   UNL A   1      36.219  29.553  28.937  1.00  0.00     0.010 A 
ATOM     39  C   UNL A   1      36.895  31.866  28.661  1.00  0.00     0.010 A 
ATOM     40  C   UNL A   1      37.152  30.571  29.150  1.00  0.00    -0.014 A 
BRANCH  40  41
ATOM     41  C   UNL A   1      38.336  30.269  29.987  1.00  0.00     0.031 A 
ATOM     42  C   UNL A   1      39.470  29.479  29.400  1.00  0.00     0.074 A 
ATOM     43  C   UNL A   1      38.431  30.782  31.226  1.00  0.00     0.049 A 
ATOM     44  N   UNL A   1      40.590  29.095  29.957  1.00  0.00    -0.248 NA
ATOM     45  C   UNL A   1      39.327  29.072  27.992  1.00  0.00     0.031 C 
ATOM     46  C   UNL A   1      37.420  31.618  31.872  1.00  0.00     0.029 A 
ATOM     47  N   UNL A   1      39.435  30.688  32.156  1.00  0.00    -0.354 N 
ATOM     48  C   UNL A   1      41.269  28.377  28.984  1.00  0.00     0.074 A 
ATOM     49  C   UNL A   1      40.436  28.372  27.799  1.00  0.00     0.031 C 
ATOM     50  C   UNL A   1      37.855  31.964  33.094  1.00  0.00     0.029 A 
ATOM     51  C   UNL A   1      39.157  31.342  33.330  1.00  0.00     0.049 A 
ATOM     52  H   UNL A   1      40.274  30.197  31.997  1.00  0.00     0.167 HD
ATOM     53  C   UNL A   1      42.479  27.777  29.072  1.00  0.00     0.037 A 
ATOM     54  C   UNL A   1      39.864  31.410  34.473  1.00  0.00     0.037 A 
ATOM     55  C   UNL A   1      43.315  27.811  30.243  1.00  0.00     0.049 A 
ATOM     56  C   UNL A   1      41.194  30.711  34.553  1.00  0.00     0.074 A 
ATOM     57  C   UNL A   1      44.562  27.241  30.432  1.00  0.00     0.029 A 
ATOM     58  N   UNL A   1      42.989  28.460  31.425  1.00  0.00    -0.354 N 
ATOM     59  N   UNL A   1      41.822  30.018  33.633  1.00  0.00    -0.248 NA
ATOM     60  C   UNL A   1      41.914  30.803  35.829  1.00  0.00     0.031 C 
ATOM     61  C   UNL A   1      44.973  27.514  31.741  1.00  0.00     0.029 A 
ATOM     62  C   UNL A   1      44.003  28.291  32.353  1.00  0.00     0.049 A 
ATOM     63  H   UNL A   1      42.158  28.965  31.581  1.00  0.00     0.167 HD
ATOM     64  C   UNL A   1      43.013  29.603  34.212  1.00  0.00     0.074 A 
ATOM     65  C   UNL A   1      43.032  30.145  35.556  1.00  0.00     0.031 C 
ATOM     66  C   UNL A   1      44.000  28.839  33.685  1.00  0.00     0.037 A 
BRANCH  53  67
ATOM     67  C   UNL A   1      42.955  27.000  27.882  1.00  0.00     0.064 A 
ATOM     68  C   UNL A   1      43.650  27.609  26.827  1.00  0.00     0.173 A 
ATOM     69  C   UNL A   1      42.732  25.616  27.810  1.00  0.00     0.173 A 
ATOM     70  F   UNL A   1      43.870  28.932  26.840  1.00  0.00    -0.203 F 
ATOM     71  C   UNL A   1      44.090  26.864  25.736  1.00  0.00     0.198 A 
ATOM     72  C   UNL A   1      43.194  24.870  26.730  1.00  0.00     0.198 A 
ATOM     73  F   UNL A   1      42.070  24.986  28.793  1.00  0.00    -0.203 F 
ATOM     74  F   UNL A   1      44.717  27.472  24.720  1.00  0.00    -0.200 F 
ATOM     75  C   UNL A   1      43.868  25.495  25.691  1.00  0.00     0.200 A 
ATOM     76  F   UNL A   1      42.984  23.547  26.692  1.00  0.00    -0.200 F 
ATOM     77  F   UNL A   1      44.295  24.779  24.642  1.00  0.00    -0.200 F 
ENDBRANCH  53  67
BRANCH  54  78
ATOM     78  C   UNL A   1      39.317  32.144  35.642  1.00  0.00     0.064 A 
ATOM     79  C   UNL A   1      39.644  33.486  35.876  1.00  0.00     0.173 A 
ATOM     80  C   UNL A   1      38.465  31.510  36.559  1.00  0.00     0.173 A 
ATOM     81  F   UNL A   1      40.474  34.127  35.042  1.00  0.00    -0.203 F 
ATOM     82  C   UNL A   1      39.154  34.161  36.994  1.00  0.00     0.198 A 
ATOM     83  C   UNL A   1      37.954  32.193  37.660  1.00  0.00     0.198 A 
ATOM     84  F   UNL A   1      38.123  30.225  36.381  1.00  0.00    -0.203 F 
ATOM     85  F   UNL A   1      39.520  35.429  37.220  1.00  0.00    -0.200 F 
ATOM     86  C   UNL A   1      38.305  33.515  37.881  1.00  0.00     0.200 A 
ATOM     87  F   UNL A   1      37.125  31.568  38.508  1.00  0.00    -0.200 F 
ATOM     88  F   UNL A   1      37.834  34.165  38.954  1.00  0.00    -0.200 F 
ENDBRANCH  54  78
BRANCH  66  89
ATOM     89  C   UNL A   1      45.189  28.566  34.558  1.00  0.00     0.064 A 
ATOM     90  C   UNL A   1      45.248  27.429  35.378  1.00  0.00     0.173 A 
ATOM     91  C   UNL A   1      46.286  29.439  34.559  1.00  0.00     0.173 A 
ATOM     92  F   UNL A   1      44.216  26.574  35.423  1.00  0.00    -0.203 F 
ATOM     93  C   UNL A   1      46.353  27.194  36.192  1.00  0.00     0.198 A 
ATOM     94  C   UNL A   1      47.400  29.186  35.354  1.00  0.00     0.198 A 
ATOM     95  F   UNL A   1      46.279  30.535  33.787  1.00  0.00    -0.203 F 
ATOM     96  F   UNL A   1      46.368  26.130  37.007  1.00  0.00    -0.200 F 
ATOM     97  C   UNL A   1      47.429  28.069  36.176  1.00  0.00     0.200 A 
ATOM     98  F   UNL A   1      48.444  30.026  35.329  1.00  0.00    -0.200 F 
ATOM     99  F   UNL A   1      48.491  27.841  36.960  1.00  0.00    -0.200 F 
ENDBRANCH  66  89
ENDBRANCH  40  41
ENDBRANCH  33  35
ENDBRANCH  32  33
ENDBRANCH  31  32
ENDBRANCH   1  31
TORSDOF 16
ENDMDL
MODEL 3
REMARK VINA RESULT:     -11.8      0.371      7.015
REMARK SMILES CCOc1cc2c(cc1OCC)[C@@H](C(=O)OCCOC(=O)c1ccc(-c3c4nc(c(-c5c(F)c(F)c(F)c(F)c5F)c5ccc([nH]5)c(-c5c(F)c(F)c(F)c(F)c5F)c5nc(c(-c6c(F)c(F)c(F)c(F)c6F)c6ccc3[nH]6)C=C5)C=C4)cc1)[C@H](c1ccc(F)cc1Cl)N(C)C2=O
REMARK SMILES IDX 17 1 16 2 14 3 15 4 13 5 4 6 5 7 9 8 6 9 8 10 7 11 96 12
REMARK SMILES IDX 94 13 97 14 85 15 95 16 3 17 2 18 1 19 10 20 11 21 12 22
REMARK SMILES IDX 86 23 87 24 92 25 88 26 91 27 93 28 89 29 90 30 18 31 19 32
REMARK SMILES IDX 20 33 21 34 22 35 23 36 84 37 24 38 83 39 25 40 26 41 27 42
REMARK SMILES IDX 77 43 28 44 82 45 76 46 78 47 29 48 81 49 75 50 74 51 30 53
REMARK SMILES IDX 62 54 42 55 61 56 43 57 46 58 60 59 79 60 44 61 45 62 59 64
REMARK SMILES IDX 80 65 47 66 31 67 32 68 40 69 33 70 34 71 38 72 41 73 35 74
REMARK SMILES IDX 36 75 39 76 37 77 63 78 64 79 72 80 65 81 66 82 70 83 73 84
REMARK SMILES IDX 67 85 68 86 71 87 69 88 48 89 49 90 57 91 50 92 51 93 55 94
REMARK SMILES IDX 58 95 52 96 53 97 56 98 54 99
REMARK H PARENT 78 52 46 63
REMARK Flexibility Score: inf
ROOT
ATOM      1  C   UNL A   1      31.624  28.509  26.257  1.00  0.00     0.274 C 
ENDROOT
BRANCH   1   2
ATOM      2  O   UNL A   1      32.205  27.357  26.901  1.00  0.00    -0.462 OA
BRANCH   2   3
ATOM      3  C   UNL A   1      31.780  26.144  26.475  1.00  0.00     0.316 C 
ATOM      4  O   UNL A   1      30.630  25.732  26.608  1.00  0.00    -0.251 OA
BRANCH   3   5
ATOM      5  C   UNL A   1      32.864  25.282  25.840  1.00  0.00     0.157 C 
ATOM      6  C   UNL A   1      32.972  25.736  21.569  1.00  0.00     0.161 A 
ATOM      7  C   UNL A   1      32.226  24.705  22.165  1.00  0.00     0.064 A 
ATOM      8  C   UNL A   1      33.694  26.636  22.367  1.00  0.00     0.161 A 
ATOM      9  C   UNL A   1      32.161  24.585  23.548  1.00  0.00     0.048 A 
ATOM     10  C   UNL A   1      33.631  26.492  23.758  1.00  0.00     0.056 A 
ATOM     11  C   UNL A   1      32.883  25.468  24.348  1.00  0.00    -0.015 A 
ATOM     12  C   UNL A   1      31.333  23.517  24.178  1.00  0.00     0.254 C 
ATOM     13  N   UNL A   1      31.677  23.158  25.483  1.00  0.00    -0.333 N 
ATOM     14  O   UNL A   1      30.396  23.028  23.557  1.00  0.00    -0.269 OA
ATOM     15  C   UNL A   1      32.826  23.759  26.165  1.00  0.00     0.135 C 
ATOM     16  C   UNL A   1      30.837  22.211  26.197  1.00  0.00     0.147 C 
BRANCH   6  17
ATOM     17  O   UNL A   1      33.058  25.759  20.204  1.00  0.00    -0.490 OA
BRANCH  17  18
ATOM     18  C   UNL A   1      31.792  25.576  19.556  1.00  0.00     0.226 C 
ATOM     19  C   UNL A   1      31.957  25.312  18.069  1.00  0.00     0.049 C 
ENDBRANCH  17  18
ENDBRANCH   6  17
BRANCH   8  20
ATOM     20  O   UNL A   1      34.496  27.681  22.014  1.00  0.00    -0.490 OA
BRANCH  20  21
ATOM     21  C   UNL A   1      34.359  28.957  22.623  1.00  0.00     0.226 C 
ATOM     22  C   UNL A   1      32.895  29.325  22.782  1.00  0.00     0.049 C 
ENDBRANCH  20  21
ENDBRANCH   8  20
BRANCH  15  23
ATOM     23  C   UNL A   1      34.207  23.095  25.888  1.00  0.00    -0.005 A 
ATOM     24  C   UNL A   1      35.322  23.978  25.850  1.00  0.00     0.010 A 
ATOM     25  C   UNL A   1      34.487  21.734  25.629  1.00  0.00     0.049 A 
ATOM     26  C   UNL A   1      36.601  23.557  25.476  1.00  0.00     0.040 A 
ATOM     27  C   UNL A   1      35.777  21.316  25.258  1.00  0.00     0.060 A 
ATOM     28  Cl  UNL A   1      33.362  20.430  25.752  1.00  0.00    -0.084 Cl
ATOM     29  C   UNL A   1      36.812  22.229  25.166  1.00  0.00     0.124 A 
ATOM     30  F   UNL A   1      38.029  21.818  24.790  1.00  0.00    -0.207 F 
ENDBRANCH  15  23
ENDBRANCH   3   5
ENDBRANCH   2   3
ENDBRANCH   1   2
BRANCH   1  31
ATOM     31  C   UNL A   1      31.958  29.810  26.993  1.00  0.00     0.275 C 
BRANCH  31  32
ATOM     32  O   UNL A   1      33.128  30.456  26.455  1.00  0.00    -0.458 OA
BRANCH  32  33
ATOM     33  C   UNL A   1      33.623  31.453  27.221  1.00  0.00     0.338 C 
ATOM     34  O   UNL A   1      33.030  32.442  27.623  1.00  0.00    -0.246 OA
BRANCH  33  35
ATOM     35  C   UNL A   1      34.969  31.115  27.705  1.00  0.00     0.060 A 
ATOM     36  C   UNL A   1      35.217  29.768  27.978  1.00  0.00     0.016 A 
ATOM     37  C   UNL A   1      35.926  32.083  28.002  1.00  0.00     0.016 A 
ATOM     38  C   UNL A   1      36.402  29.374  28.579  1.00  0.00     0.010 A 
ATOM     39  C   UNL A   1      37.125  31.689  28.609  1.00  0.00     0.010 A 
ATOM     40  C   UNL A   1      37.355  30.336  28.922  1.00  0.00    -0.014 A 
BRANCH  40  41
ATOM     41  C   UNL A   1      38.532  29.903  29.711  1.00  0.00     0.031 A 
ATOM     42  C   UNL A   1      38.694  30.392  31.121  1.00  0.00     0.074 A 
ATOM     43  C   UNL A   1      39.390  29.004  29.197  1.00  0.00     0.049 A 
ATOM     44  N   UNL A   1      39.651  30.147  31.979  1.00  0.00    -0.248 NA
ATOM     45  C   UNL A   1      37.633  31.272  31.637  1.00  0.00     0.031 C 
ATOM     46  C   UNL A   1      39.292  28.411  27.863  1.00  0.00     0.029 A 
ATOM     47  N   UNL A   1      40.505  28.420  29.744  1.00  0.00    -0.354 N 
ATOM     48  C   UNL A   1      39.325  30.863  33.122  1.00  0.00     0.074 A 
ATOM     49  C   UNL A   1      38.085  31.559  32.849  1.00  0.00     0.031 C 
ATOM     50  C   UNL A   1      40.304  27.544  27.696  1.00  0.00     0.029 A 
ATOM     51  C   UNL A   1      41.141  27.551  28.893  1.00  0.00     0.049 A 
ATOM     52  H   UNL A   1      40.818  28.608  30.659  1.00  0.00     0.167 HD
ATOM     53  C   UNL A   1      40.001  30.933  34.292  1.00  0.00     0.037 A 
ATOM     54  C   UNL A   1      42.282  26.859  29.058  1.00  0.00     0.037 A 
ATOM     55  C   UNL A   1      41.218  30.215  34.567  1.00  0.00     0.049 A 
ATOM     56  C   UNL A   1      43.028  26.975  30.359  1.00  0.00     0.074 A 
ATOM     57  C   UNL A   1      41.977  30.212  35.725  1.00  0.00     0.029 A 
ATOM     58  N   UNL A   1      41.850  29.365  33.672  1.00  0.00    -0.354 N 
ATOM     59  N   UNL A   1      42.723  27.670  31.429  1.00  0.00    -0.248 NA
ATOM     60  C   UNL A   1      44.277  26.212  30.477  1.00  0.00     0.031 C 
ATOM     61  C   UNL A   1      43.088  29.388  35.515  1.00  0.00     0.029 A 
ATOM     62  C   UNL A   1      42.998  28.843  34.244  1.00  0.00     0.049 A 
ATOM     63  H   UNL A   1      41.530  29.163  32.763  1.00  0.00     0.167 HD
ATOM     64  C   UNL A   1      43.732  27.418  32.349  1.00  0.00     0.074 A 
ATOM     65  C   UNL A   1      44.645  26.486  31.720  1.00  0.00     0.031 C 
ATOM     66  C   UNL A   1      43.893  27.917  33.598  1.00  0.00     0.037 A 
BRANCH  53  67
ATOM     67  C   UNL A   1      39.460  31.846  35.351  1.00  0.00     0.064 A 
ATOM     68  C   UNL A   1      39.830  33.196  35.427  1.00  0.00     0.173 A 
ATOM     69  C   UNL A   1      38.535  31.364  36.290  1.00  0.00     0.173 A 
ATOM     70  F   UNL A   1      40.727  33.699  34.565  1.00  0.00    -0.203 F 
ATOM     71  C   UNL A   1      39.308  34.026  36.415  1.00  0.00     0.198 A 
ATOM     72  C   UNL A   1      37.996  32.202  37.261  1.00  0.00     0.198 A 
ATOM     73  F   UNL A   1      38.150  30.079  36.261  1.00  0.00    -0.203 F 
ATOM     74  F   UNL A   1      39.706  35.303  36.494  1.00  0.00    -0.200 F 
ATOM     75  C   UNL A   1      38.386  33.532  37.326  1.00  0.00     0.200 A 
ATOM     76  F   UNL A   1      37.101  31.723  38.136  1.00  0.00    -0.200 F 
ATOM     77  F   UNL A   1      37.881  34.333  38.274  1.00  0.00    -0.200 F 
ENDBRANCH  53  67
BRANCH  54  78
ATOM     78  C   UNL A   1      42.805  26.016  27.952  1.00  0.00     0.064 A 
ATOM     79  C   UNL A   1      43.660  26.544  26.976  1.00  0.00     0.173 A 
ATOM     80  C   UNL A   1      42.444  24.664  27.841  1.00  0.00     0.173 A 
ATOM     81  F   UNL A   1      44.012  27.837  27.025  1.00  0.00    -0.203 F 
ATOM     82  C   UNL A   1      44.120  25.757  25.921  1.00  0.00     0.198 A 
ATOM     83  C   UNL A   1      42.927  23.872  26.803  1.00  0.00     0.198 A 
ATOM     84  F   UNL A   1      41.626  24.111  28.749  1.00  0.00    -0.203 F 
ATOM     85  F   UNL A   1      44.899  26.299  24.976  1.00  0.00    -0.200 F 
ATOM     86  C   UNL A   1      43.758  24.421  25.839  1.00  0.00     0.200 A 
ATOM     87  F   UNL A   1      42.584  22.578  26.735  1.00  0.00    -0.200 F 
ATOM     88  F   UNL A   1      44.203  23.665  24.826  1.00  0.00    -0.200 F 
ENDBRANCH  54  78
BRANCH  66  89
ATOM     89  C   UNL A   1      45.089  27.445  34.371  1.00  0.00     0.064 A 
ATOM     90  C   UNL A   1      46.307  28.139  34.331  1.00  0.00     0.173 A 
ATOM     91  C   UNL A   1      45.009  26.297  35.173  1.00  0.00     0.173 A 
ATOM     92  F   UNL A   1      46.436  29.232  33.565  1.00  0.00    -0.203 F 
ATOM     93  C   UNL A   1      47.412  27.682  35.043  1.00  0.00     0.198 A 
ATOM     94  C   UNL A   1      46.109  25.859  35.905  1.00  0.00     0.198 A 
ATOM     95  F   UNL A   1      43.864  25.603  35.250  1.00  0.00    -0.203 F 
ATOM     96  F   UNL A   1      48.581  28.331  34.950  1.00  0.00    -0.200 F 
ATOM     97  C   UNL A   1      47.311  26.547  35.833  1.00  0.00     0.200 A 
ATOM     98  F   UNL A   1      46.007  24.768  36.677  1.00  0.00    -0.200 F 
ATOM     99  F   UNL A   1      48.376  26.109  36.518  1.00  0.00    -0.200 F 
ENDBRANCH  66  89
ENDBRANCH  40  41
ENDBRANCH  33  35
ENDBRANCH  32  33
ENDBRANCH  31  32
ENDBRANCH   1  31
TORSDOF 16
ENDMDL
