MODEL 1
REMARK VINA RESULT:     -12.5      0.000      0.000
REMARK SMILES CC(C)C[C@H](C(=O)OCCOC(=O)c1ccc(-c2c3nc(c(-c4c(F)c(F)c(F)c(F)c4F)c4ccc([nH]4)c(-c4c(F)c(F)c(F)c(F)c4F)c4nc(c(-c5c(F)c(F)c(F)c(F)c5F)c5ccc2[nH]5)C=C4)C=C3)cc1)N1C(=O)/C(=C/C2=c3ccccc3=NC2)SC1=S
REMARK SMILES IDX 9 1 8 2 6 3 7 4 5 5 4 6 2 7 1 8 3 9 77 10 78 11 92 12 79 13
REMARK SMILES IDX 80 14 91 15 93 16 81 17 82 18 83 19 90 20 84 21 88 22 89 23
REMARK SMILES IDX 85 24 87 25 86 26 10 27 11 28 12 29 13 30 14 31 15 32 76 33
REMARK SMILES IDX 16 34 75 35 17 36 18 37 19 38 69 39 20 40 74 41 68 42 70 43
REMARK SMILES IDX 21 44 73 45 67 46 66 47 22 49 54 50 34 51 53 52 35 53 38 54
REMARK SMILES IDX 52 55 71 56 36 57 37 58 51 60 72 61 39 62 23 63 24 64 32 65
REMARK SMILES IDX 25 66 26 67 30 68 33 69 27 70 28 71 31 72 29 73 55 74 56 75
REMARK SMILES IDX 64 76 57 77 58 78 62 79 65 80 59 81 60 82 63 83 61 84 40 85
REMARK SMILES IDX 41 86 49 87 42 88 43 89 47 90 50 91 44 92 45 93 48 94 46 95
REMARK H PARENT 70 48 38 59
REMARK Flexibility Score: inf
ROOT
ATOM      1  C   UNL A   1      36.600  20.005  24.963  1.00  0.00     0.274 C 
ENDROOT
BRANCH   1   2
ATOM      2  O   UNL A   1      35.884  21.256  24.858  1.00  0.00    -0.461 OA
BRANCH   2   3
ATOM      3  C   UNL A   1      34.601  21.239  25.300  1.00  0.00     0.329 C 
ATOM      4  O   UNL A   1      34.288  21.079  26.476  1.00  0.00    -0.250 OA
BRANCH   3   5
ATOM      5  C   UNL A   1      33.555  21.548  24.219  1.00  0.00     0.202 C 
BRANCH   5   6
ATOM      6  C   UNL A   1      32.462  20.473  24.054  1.00  0.00     0.040 C 
BRANCH   6   7
ATOM      7  C   UNL A   1      32.995  19.023  23.961  1.00  0.00    -0.015 C 
ATOM      8  C   UNL A   1      32.525  18.179  25.146  1.00  0.00     0.007 C 
ATOM      9  C   UNL A   1      32.548  18.379  22.649  1.00  0.00     0.007 C 
ENDBRANCH   6   7
ENDBRANCH   5   6
BRANCH   5  10
ATOM     10  N   UNL A   1      33.017  22.909  24.279  1.00  0.00    -0.278 N 
ATOM     11  C   UNL A   1      33.644  23.864  23.485  1.00  0.00     0.266 C 
ATOM     12  C   UNL A   1      31.936  23.352  25.013  1.00  0.00     0.149 C 
ATOM     13  O   UNL A   1      34.662  23.711  22.826  1.00  0.00    -0.268 OA
ATOM     14  C   UNL A   1      32.924  25.149  23.597  1.00  0.00     0.080 C 
ATOM     15  S   UNL A   1      31.386  24.863  24.316  1.00  0.00    -0.054 SA
ATOM     16  S   UNL A   1      31.165  22.690  26.332  1.00  0.00    -0.052 S 
ATOM     17  C   UNL A   1      33.485  26.331  23.303  1.00  0.00     0.027 C 
BRANCH  17  18
ATOM     18  C   UNL A   1      32.873  27.598  23.617  1.00  0.00    -0.016 C 
ATOM     19  C   UNL A   1      33.081  28.326  24.714  1.00  0.00     0.005 A 
ATOM     20  C   UNL A   1      31.802  28.212  22.769  1.00  0.00     0.179 C 
ATOM     21  C   UNL A   1      33.949  28.225  25.847  1.00  0.00     0.011 A 
ATOM     22  C   UNL A   1      31.985  29.302  24.656  1.00  0.00     0.065 A 
ATOM     23  N   UNL A   1      31.249  29.326  23.585  1.00  0.00    -0.280 NA
ATOM     24  C   UNL A   1      33.692  28.978  26.927  1.00  0.00     0.001 A 
ATOM     25  C   UNL A   1      31.785  30.118  25.875  1.00  0.00     0.028 A 
ATOM     26  C   UNL A   1      32.585  29.918  26.937  1.00  0.00     0.002 A 
ENDBRANCH  17  18
ENDBRANCH   5  10
ENDBRANCH   3   5
ENDBRANCH   2   3
ENDBRANCH   1   2
BRANCH   1  27
ATOM     27  C   UNL A   1      38.117  20.206  24.927  1.00  0.00     0.275 C 
BRANCH  27  28
ATOM     28  O   UNL A   1      38.501  21.328  25.744  1.00  0.00    -0.458 OA
BRANCH  28  29
ATOM     29  C   UNL A   1      39.633  21.165  26.465  1.00  0.00     0.338 C 
ATOM     30  O   UNL A   1      40.271  20.139  26.623  1.00  0.00    -0.246 OA
BRANCH  29  31
ATOM     31  C   UNL A   1      40.079  22.449  27.026  1.00  0.00     0.060 A 
ATOM     32  C   UNL A   1      39.584  23.633  26.489  1.00  0.00     0.016 A 
ATOM     33  C   UNL A   1      41.138  22.488  27.929  1.00  0.00     0.016 A 
ATOM     34  C   UNL A   1      40.234  24.837  26.724  1.00  0.00     0.010 A 
ATOM     35  C   UNL A   1      41.701  23.721  28.279  1.00  0.00     0.010 A 
ATOM     36  C   UNL A   1      41.283  24.904  27.644  1.00  0.00    -0.014 A 
BRANCH  36  37
ATOM     37  C   UNL A   1      41.938  26.209  27.923  1.00  0.00     0.031 A 
ATOM     38  C   UNL A   1      41.220  27.264  28.719  1.00  0.00     0.074 A 
ATOM     39  C   UNL A   1      43.189  26.440  27.477  1.00  0.00     0.049 A 
ATOM     40  N   UNL A   1      41.535  28.522  28.899  1.00  0.00    -0.248 NA
ATOM     41  C   UNL A   1      39.980  26.855  29.395  1.00  0.00     0.031 C 
ATOM     42  C   UNL A   1      44.020  25.481  26.746  1.00  0.00     0.029 A 
ATOM     43  N   UNL A   1      43.986  27.553  27.579  1.00  0.00    -0.354 N 
ATOM     44  C   UNL A   1      40.505  29.067  29.655  1.00  0.00     0.074 A 
ATOM     45  C   UNL A   1      39.556  28.002  29.907  1.00  0.00     0.031 C 
ATOM     46  C   UNL A   1      45.216  26.030  26.498  1.00  0.00     0.029 A 
ATOM     47  C   UNL A   1      45.201  27.412  26.956  1.00  0.00     0.049 A 
ATOM     48  H   UNL A   1      43.713  28.372  28.052  1.00  0.00     0.167 HD
ATOM     49  C   UNL A   1      40.365  30.342  30.090  1.00  0.00     0.037 A 
ATOM     50  C   UNL A   1      46.177  28.310  26.724  1.00  0.00     0.037 A 
ATOM     51  C   UNL A   1      41.341  31.380  29.874  1.00  0.00     0.049 A 
ATOM     52  C   UNL A   1      45.984  29.723  27.185  1.00  0.00     0.074 A 
ATOM     53  C   UNL A   1      41.299  32.705  30.271  1.00  0.00     0.029 A 
ATOM     54  N   UNL A   1      42.549  31.200  29.214  1.00  0.00    -0.354 N 
ATOM     55  N   UNL A   1      44.973  30.250  27.833  1.00  0.00    -0.248 NA
ATOM     56  C   UNL A   1      47.057  30.674  26.867  1.00  0.00     0.031 C 
ATOM     57  C   UNL A   1      42.466  33.334  29.825  1.00  0.00     0.029 A 
ATOM     58  C   UNL A   1      43.254  32.391  29.185  1.00  0.00     0.049 A 
ATOM     59  H   UNL A   1      42.858  30.351  28.823  1.00  0.00     0.167 HD
ATOM     60  C   UNL A   1      45.287  31.589  28.005  1.00  0.00     0.074 A 
ATOM     61  C   UNL A   1      46.595  31.790  27.412  1.00  0.00     0.031 C 
ATOM     62  C   UNL A   1      44.555  32.567  28.590  1.00  0.00     0.037 A 
BRANCH  49  63
ATOM     63  C   UNL A   1      39.098  30.700  30.809  1.00  0.00     0.064 A 
ATOM     64  C   UNL A   1      37.949  31.124  30.127  1.00  0.00     0.173 A 
ATOM     65  C   UNL A   1      39.025  30.581  32.206  1.00  0.00     0.173 A 
ATOM     66  F   UNL A   1      37.970  31.268  28.794  1.00  0.00    -0.203 F 
ATOM     67  C   UNL A   1      36.780  31.436  30.819  1.00  0.00     0.198 A 
ATOM     68  C   UNL A   1      37.848  30.869  32.892  1.00  0.00     0.198 A 
ATOM     69  F   UNL A   1      40.095  30.176  32.907  1.00  0.00    -0.203 F 
ATOM     70  F   UNL A   1      35.706  31.879  30.151  1.00  0.00    -0.200 F 
ATOM     71  C   UNL A   1      36.728  31.302  32.199  1.00  0.00     0.200 A 
ATOM     72  F   UNL A   1      37.798  30.728  34.224  1.00  0.00    -0.200 F 
ATOM     73  F   UNL A   1      35.601  31.597  32.862  1.00  0.00    -0.200 F 
ENDBRANCH  49  63
BRANCH  50  74
ATOM     74  C   UNL A   1      47.389  27.899  25.970  1.00  0.00     0.064 A 
ATOM     75  C   UNL A   1      48.565  27.533  26.637  1.00  0.00     0.173 A 
ATOM     76  C   UNL A   1      47.387  27.838  24.567  1.00  0.00     0.173 A 
ATOM     77  F   UNL A   1      48.624  27.597  27.975  1.00  0.00    -0.203 F 
ATOM     78  C   UNL A   1      49.695  27.125  25.930  1.00  0.00     0.198 A 
ATOM     79  C   UNL A   1      48.505  27.401  23.864  1.00  0.00     0.198 A 
ATOM     80  F   UNL A   1      46.285  28.176  23.882  1.00  0.00    -0.203 F 
ATOM     81  F   UNL A   1      50.818  26.813  26.589  1.00  0.00    -0.200 F 
ATOM     82  C   UNL A   1      49.661  27.050  24.544  1.00  0.00     0.200 A 
ATOM     83  F   UNL A   1      48.461  27.313  22.527  1.00  0.00    -0.200 F 
ATOM     84  F   UNL A   1      50.742  26.644  23.866  1.00  0.00    -0.200 F 
ENDBRANCH  50  74
BRANCH  62  85
ATOM     85  C   UNL A   1      45.168  33.933  28.640  1.00  0.00     0.064 A 
ATOM     86  C   UNL A   1      45.999  34.323  29.700  1.00  0.00     0.173 A 
ATOM     87  C   UNL A   1      44.940  34.851  27.606  1.00  0.00     0.173 A 
ATOM     88  F   UNL A   1      46.229  33.485  30.722  1.00  0.00    -0.203 F 
ATOM     89  C   UNL A   1      46.560  35.596  29.734  1.00  0.00     0.198 A 
ATOM     90  C   UNL A   1      45.523  36.115  27.631  1.00  0.00     0.198 A 
ATOM     91  F   UNL A   1      44.154  34.521  26.569  1.00  0.00    -0.203 F 
ATOM     92  F   UNL A   1      47.314  35.966  30.778  1.00  0.00    -0.200 F 
ATOM     93  C   UNL A   1      46.327  36.487  28.697  1.00  0.00     0.200 A 
ATOM     94  F   UNL A   1      45.304  36.973  26.625  1.00  0.00    -0.200 F 
ATOM     95  F   UNL A   1      46.870  37.713  28.731  1.00  0.00    -0.200 F 
ENDBRANCH  62  85
ENDBRANCH  36  37
ENDBRANCH  29  31
ENDBRANCH  28  29
ENDBRANCH  27  28
ENDBRANCH   1  27
TORSDOF 15
ENDMDL
MODEL 2
REMARK VINA RESULT:     -12.5      4.480     10.082
REMARK SMILES CC(C)C[C@H](C(=O)OCCOC(=O)c1ccc(-c2c3nc(c(-c4c(F)c(F)c(F)c(F)c4F)c4ccc([nH]4)c(-c4c(F)c(F)c(F)c(F)c4F)c4nc(c(-c5c(F)c(F)c(F)c(F)c5F)c5ccc2[nH]5)C=C4)C=C3)cc1)N1C(=O)/C(=C/C2=c3ccccc3=NC2)SC1=S
REMARK SMILES IDX 9 1 8 2 6 3 7 4 5 5 4 6 2 7 1 8 3 9 77 10 78 11 92 12 79 13
REMARK SMILES IDX 80 14 91 15 93 16 81 17 82 18 83 19 90 20 84 21 88 22 89 23
REMARK SMILES IDX 85 24 87 25 86 26 10 27 11 28 12 29 13 30 14 31 15 32 76 33
REMARK SMILES IDX 16 34 75 35 17 36 18 37 19 38 69 39 20 40 74 41 68 42 70 43
REMARK SMILES IDX 21 44 73 45 67 46 66 47 22 49 54 50 34 51 53 52 35 53 38 54
REMARK SMILES IDX 52 55 71 56 36 57 37 58 51 60 72 61 39 62 23 63 24 64 32 65
REMARK SMILES IDX 25 66 26 67 30 68 33 69 27 70 28 71 31 72 29 73 55 74 56 75
REMARK SMILES IDX 64 76 57 77 58 78 62 79 65 80 59 81 60 82 63 83 61 84 40 85
REMARK SMILES IDX 41 86 49 87 42 88 43 89 47 90 50 91 44 92 45 93 48 94 46 95
REMARK H PARENT 70 48 38 59
REMARK Flexibility Score: inf
ROOT
ATOM      1  C   UNL A   1      31.697  28.895  26.769  1.00  0.00     0.274 C 
ENDROOT
BRANCH   1   2
ATOM      2  O   UNL A   1      32.519  28.390  25.693  1.00  0.00    -0.461 OA
BRANCH   2   3
ATOM      3  C   UNL A   1      31.975  28.465  24.452  1.00  0.00     0.329 C 
ATOM      4  O   UNL A   1      32.307  29.297  23.612  1.00  0.00    -0.250 OA
BRANCH   3   5
ATOM      5  C   UNL A   1      30.972  27.347  24.132  1.00  0.00     0.202 C 
BRANCH   5   6
ATOM      6  C   UNL A   1      30.035  27.642  22.943  1.00  0.00     0.040 C 
BRANCH   6   7
ATOM      7  C   UNL A   1      29.098  28.855  23.148  1.00  0.00    -0.015 C 
ATOM      8  C   UNL A   1      29.276  29.893  22.039  1.00  0.00     0.007 C 
ATOM      9  C   UNL A   1      27.641  28.394  23.206  1.00  0.00     0.007 C 
ENDBRANCH   6   7
ENDBRANCH   5   6
BRANCH   5  10
ATOM     10  N   UNL A   1      31.566  26.009  24.077  1.00  0.00    -0.278 N 
ATOM     11  C   UNL A   1      31.290  25.159  25.142  1.00  0.00     0.266 C 
ATOM     12  C   UNL A   1      32.348  25.480  23.071  1.00  0.00     0.149 C 
ATOM     13  O   UNL A   1      30.694  25.446  26.170  1.00  0.00    -0.268 OA
ATOM     14  C   UNL A   1      31.888  23.833  24.883  1.00  0.00     0.080 C 
ATOM     15  S   UNL A   1      32.320  23.734  23.220  1.00  0.00    -0.054 SA
ATOM     16  S   UNL A   1      33.213  26.218  21.856  1.00  0.00    -0.052 S 
ATOM     17  C   UNL A   1      32.155  22.948  25.855  1.00  0.00     0.027 C 
BRANCH  17  18
ATOM     18  C   UNL A   1      32.935  21.753  25.645  1.00  0.00    -0.016 C 
ATOM     19  C   UNL A   1      34.262  21.651  25.724  1.00  0.00     0.005 A 
ATOM     20  C   UNL A   1      32.331  20.464  25.180  1.00  0.00     0.179 C 
ATOM     21  C   UNL A   1      35.325  22.535  26.092  1.00  0.00     0.011 A 
ATOM     22  C   UNL A   1      34.513  20.343  25.107  1.00  0.00     0.065 A 
ATOM     23  N   UNL A   1      33.486  19.604  24.809  1.00  0.00    -0.280 NA
ATOM     24  C   UNL A   1      36.584  22.198  25.774  1.00  0.00     0.001 A 
ATOM     25  C   UNL A   1      35.931  20.030  24.816  1.00  0.00     0.028 A 
ATOM     26  C   UNL A   1      36.877  20.938  25.113  1.00  0.00     0.002 A 
ENDBRANCH  17  18
ENDBRANCH   5  10
ENDBRANCH   3   5
ENDBRANCH   2   3
ENDBRANCH   1   2
BRANCH   1  27
ATOM     27  C   UNL A   1      31.741  30.423  26.857  1.00  0.00     0.275 C 
BRANCH  27  28
ATOM     28  O   UNL A   1      33.043  30.917  26.489  1.00  0.00    -0.458 OA
BRANCH  28  29
ATOM     29  C   UNL A   1      33.561  31.862  27.305  1.00  0.00     0.338 C 
ATOM     30  O   UNL A   1      33.024  32.886  27.690  1.00  0.00    -0.246 OA
BRANCH  29  31
ATOM     31  C   UNL A   1      34.904  31.473  27.762  1.00  0.00     0.060 A 
ATOM     32  C   UNL A   1      35.148  30.146  28.102  1.00  0.00     0.016 A 
ATOM     33  C   UNL A   1      35.853  32.449  28.056  1.00  0.00     0.016 A 
ATOM     34  C   UNL A   1      36.255  29.809  28.867  1.00  0.00     0.010 A 
ATOM     35  C   UNL A   1      37.040  32.083  28.701  1.00  0.00     0.010 A 
ATOM     36  C   UNL A   1      37.232  30.766  29.154  1.00  0.00    -0.014 A 
BRANCH  36  37
ATOM     37  C   UNL A   1      38.437  30.379  29.934  1.00  0.00     0.031 A 
ATOM     38  C   UNL A   1      39.476  29.476  29.328  1.00  0.00     0.074 A 
ATOM     39  C   UNL A   1      38.610  30.858  31.182  1.00  0.00     0.049 A 
ATOM     40  N   UNL A   1      40.485  28.872  29.904  1.00  0.00    -0.248 NA
ATOM     41  C   UNL A   1      39.362  29.209  27.886  1.00  0.00     0.031 C 
ATOM     42  C   UNL A   1      37.711  31.790  31.865  1.00  0.00     0.029 A 
ATOM     43  N   UNL A   1      39.606  30.632  32.100  1.00  0.00    -0.354 N 
ATOM     44  C   UNL A   1      41.086  28.108  28.912  1.00  0.00     0.074 A 
ATOM     45  C   UNL A   1      40.335  28.328  27.694  1.00  0.00     0.031 C 
ATOM     46  C   UNL A   1      38.210  32.083  33.073  1.00  0.00     0.029 A 
ATOM     47  C   UNL A   1      39.406  31.282  33.292  1.00  0.00     0.049 A 
ATOM     48  H   UNL A   1      40.387  30.060  31.920  1.00  0.00     0.167 HD
ATOM     49  C   UNL A   1      42.163  27.293  29.016  1.00  0.00     0.037 A 
ATOM     50  C   UNL A   1      40.076  31.201  34.457  1.00  0.00     0.037 A 
ATOM     51  C   UNL A   1      42.932  27.121  30.223  1.00  0.00     0.049 A 
ATOM     52  C   UNL A   1      41.244  30.266  34.557  1.00  0.00     0.074 A 
ATOM     53  C   UNL A   1      44.040  26.321  30.437  1.00  0.00     0.029 A 
ATOM     54  N   UNL A   1      42.679  27.780  31.418  1.00  0.00    -0.354 N 
ATOM     55  N   UNL A   1      41.760  29.489  33.637  1.00  0.00    -0.248 NA
ATOM     56  C   UNL A   1      41.910  30.179  35.863  1.00  0.00     0.031 C 
ATOM     57  C   UNL A   1      44.438  26.471  31.769  1.00  0.00     0.029 A 
ATOM     58  C   UNL A   1      43.603  27.396  32.375  1.00  0.00     0.049 A 
ATOM     59  H   UNL A   1      41.949  28.424  31.564  1.00  0.00     0.167 HD
ATOM     60  C   UNL A   1      42.813  28.825  34.246  1.00  0.00     0.074 A 
ATOM     61  C   UNL A   1      42.877  29.308  35.612  1.00  0.00     0.031 C 
ATOM     62  C   UNL A   1      43.647  27.892  33.727  1.00  0.00     0.037 A 
BRANCH  49  63
ATOM     63  C   UNL A   1      42.554  26.494  27.807  1.00  0.00     0.064 A 
ATOM     64  C   UNL A   1      43.536  26.935  26.910  1.00  0.00     0.173 A 
ATOM     65  C   UNL A   1      41.956  25.248  27.565  1.00  0.00     0.173 A 
ATOM     66  F   UNL A   1      44.128  28.125  27.087  1.00  0.00    -0.203 F 
ATOM     67  C   UNL A   1      43.891  26.166  25.802  1.00  0.00     0.198 A 
ATOM     68  C   UNL A   1      42.330  24.470  26.472  1.00  0.00     0.198 A 
ATOM     69  F   UNL A   1      41.012  24.778  28.395  1.00  0.00    -0.203 F 
ATOM     70  F   UNL A   1      44.804  26.625  24.935  1.00  0.00    -0.200 F 
ATOM     71  C   UNL A   1      43.293  24.932  25.588  1.00  0.00     0.200 A 
ATOM     72  F   UNL A   1      41.759  23.274  26.274  1.00  0.00    -0.200 F 
ATOM     73  F   UNL A   1      43.640  24.192  24.526  1.00  0.00    -0.200 F 
ENDBRANCH  49  63
BRANCH  50  74
ATOM     74  C   UNL A   1      39.610  31.989  35.628  1.00  0.00     0.064 A 
ATOM     75  C   UNL A   1      40.125  33.264  35.890  1.00  0.00     0.173 A 
ATOM     76  C   UNL A   1      38.622  31.492  36.492  1.00  0.00     0.173 A 
ATOM     77  F   UNL A   1      41.087  33.772  35.107  1.00  0.00    -0.203 F 
ATOM     78  C   UNL A   1      39.671  34.013  36.974  1.00  0.00     0.198 A 
ATOM     79  C   UNL A   1      38.147  32.253  37.556  1.00  0.00     0.198 A 
ATOM     80  F   UNL A   1      38.096  30.276  36.282  1.00  0.00    -0.203 F 
ATOM     81  F   UNL A   1      40.203  35.217  37.224  1.00  0.00    -0.200 F 
ATOM     82  C   UNL A   1      38.676  33.511  37.801  1.00  0.00     0.200 A 
ATOM     83  F   UNL A   1      37.173  31.770  38.340  1.00  0.00    -0.200 F 
ATOM     84  F   UNL A   1      38.230  34.237  38.835  1.00  0.00    -0.200 F 
ENDBRANCH  50  74
BRANCH  62  85
ATOM     85  C   UNL A   1      44.712  27.357  34.634  1.00  0.00     0.064 A 
ATOM     86  C   UNL A   1      45.934  28.025  34.800  1.00  0.00     0.173 A 
ATOM     87  C   UNL A   1      44.499  26.177  35.360  1.00  0.00     0.173 A 
ATOM     88  F   UNL A   1      46.190  29.147  34.110  1.00  0.00    -0.203 F 
ATOM     89  C   UNL A   1      46.916  27.515  35.645  1.00  0.00     0.198 A 
ATOM     90  C   UNL A   1      45.474  25.684  36.223  1.00  0.00     0.198 A 
ATOM     91  F   UNL A   1      43.345  25.505  35.235  1.00  0.00    -0.203 F 
ATOM     92  F   UNL A   1      48.094  28.144  35.755  1.00  0.00    -0.200 F 
ATOM     93  C   UNL A   1      46.682  26.350  36.359  1.00  0.00     0.200 A 
ATOM     94  F   UNL A   1      45.245  24.562  36.919  1.00  0.00    -0.200 F 
ATOM     95  F   UNL A   1      47.629  25.861  37.174  1.00  0.00    -0.200 F 
ENDBRANCH  62  85
ENDBRANCH  36  37
ENDBRANCH  29  31
ENDBRANCH  28  29
ENDBRANCH  27  28
ENDBRANCH   1  27
TORSDOF 15
ENDMDL
MODEL 3
REMARK VINA RESULT:     -12.4      4.504     10.138
REMARK SMILES CC(C)C[C@H](C(=O)OCCOC(=O)c1ccc(-c2c3nc(c(-c4c(F)c(F)c(F)c(F)c4F)c4ccc([nH]4)c(-c4c(F)c(F)c(F)c(F)c4F)c4nc(c(-c5c(F)c(F)c(F)c(F)c5F)c5ccc2[nH]5)C=C4)C=C3)cc1)N1C(=O)/C(=C/C2=c3ccccc3=NC2)SC1=S
REMARK SMILES IDX 9 1 8 2 6 3 7 4 5 5 4 6 2 7 1 8 3 9 77 10 78 11 92 12 79 13
REMARK SMILES IDX 80 14 91 15 93 16 81 17 82 18 83 19 90 20 84 21 88 22 89 23
REMARK SMILES IDX 85 24 87 25 86 26 10 27 11 28 12 29 13 30 14 31 15 32 76 33
REMARK SMILES IDX 16 34 75 35 17 36 18 37 19 38 69 39 20 40 74 41 68 42 70 43
REMARK SMILES IDX 21 44 73 45 67 46 66 47 22 49 54 50 34 51 53 52 35 53 38 54
REMARK SMILES IDX 52 55 71 56 36 57 37 58 51 60 72 61 39 62 23 63 24 64 32 65
REMARK SMILES IDX 25 66 26 67 30 68 33 69 27 70 28 71 31 72 29 73 55 74 56 75
REMARK SMILES IDX 64 76 57 77 58 78 62 79 65 80 59 81 60 82 63 83 61 84 40 85
REMARK SMILES IDX 41 86 49 87 42 88 43 89 47 90 50 91 44 92 45 93 48 94 46 95
REMARK H PARENT 70 48 38 59
REMARK Flexibility Score: inf
ROOT
ATOM      1  C   UNL A   1      31.546  29.678  25.792  1.00  0.00     0.274 C 
ENDROOT
BRANCH   1   2
ATOM      2  O   UNL A   1      32.649  29.362  24.912  1.00  0.00    -0.461 OA
BRANCH   2   3
ATOM      3  C   UNL A   1      32.309  28.823  23.714  1.00  0.00     0.329 C 
ATOM      4  O   UNL A   1      32.828  29.147  22.649  1.00  0.00    -0.250 OA
BRANCH   3   5
ATOM      5  C   UNL A   1      31.287  27.679  23.802  1.00  0.00     0.202 C 
BRANCH   5   6
ATOM      6  C   UNL A   1      30.153  27.747  22.759  1.00  0.00     0.040 C 
BRANCH   6   7
ATOM      7  C   UNL A   1      28.944  28.616  23.180  1.00  0.00    -0.015 C 
ATOM      8  C   UNL A   1      28.534  29.579  22.065  1.00  0.00     0.007 C 
ATOM      9  C   UNL A   1      27.762  27.727  23.566  1.00  0.00     0.007 C 
ENDBRANCH   6   7
ENDBRANCH   5   6
BRANCH   5  10
ATOM     10  N   UNL A   1      31.888  26.348  23.911  1.00  0.00    -0.278 N 
ATOM     11  C   UNL A   1      31.984  25.809  25.189  1.00  0.00     0.266 C 
ATOM     12  C   UNL A   1      32.346  25.548  22.884  1.00  0.00     0.149 C 
ATOM     13  O   UNL A   1      31.719  26.373  26.241  1.00  0.00    -0.268 OA
ATOM     14  C   UNL A   1      32.525  24.437  25.107  1.00  0.00     0.080 C 
ATOM     15  S   UNL A   1      32.433  23.901  23.474  1.00  0.00    -0.054 SA
ATOM     16  S   UNL A   1      32.770  25.917  21.317  1.00  0.00    -0.052 S 
ATOM     17  C   UNL A   1      33.111  23.817  26.142  1.00  0.00     0.027 C 
BRANCH  17  18
ATOM     18  C   UNL A   1      33.835  22.577  26.016  1.00  0.00    -0.016 C 
ATOM     19  C   UNL A   1      35.153  22.443  25.863  1.00  0.00     0.005 A 
ATOM     20  C   UNL A   1      33.153  21.248  25.921  1.00  0.00     0.179 C 
ATOM     21  C   UNL A   1      36.268  23.340  25.855  1.00  0.00     0.011 A 
ATOM     22  C   UNL A   1      35.281  21.036  25.464  1.00  0.00     0.065 A 
ATOM     23  N   UNL A   1      34.216  20.293  25.507  1.00  0.00    -0.280 NA
ATOM     24  C   UNL A   1      37.443  22.905  25.376  1.00  0.00     0.001 A 
ATOM     25  C   UNL A   1      36.618  20.624  24.977  1.00  0.00     0.028 A 
ATOM     26  C   UNL A   1      37.604  21.536  24.918  1.00  0.00     0.002 A 
ENDBRANCH  17  18
ENDBRANCH   5  10
ENDBRANCH   3   5
ENDBRANCH   2   3
ENDBRANCH   1   2
BRANCH   1  27
ATOM     27  C   UNL A   1      31.824  30.924  26.637  1.00  0.00     0.275 C 
BRANCH  27  28
ATOM     28  O   UNL A   1      33.182  31.369  26.456  1.00  0.00    -0.458 OA
BRANCH  28  29
ATOM     29  C   UNL A   1      33.660  32.189  27.418  1.00  0.00     0.338 C 
ATOM     30  O   UNL A   1      33.106  33.156  27.912  1.00  0.00    -0.246 OA
BRANCH  29  31
ATOM     31  C   UNL A   1      34.979  31.732  27.880  1.00  0.00     0.060 A 
ATOM     32  C   UNL A   1      35.135  30.410  28.286  1.00  0.00     0.016 A 
ATOM     33  C   UNL A   1      35.997  32.653  28.116  1.00  0.00     0.016 A 
ATOM     34  C   UNL A   1      36.226  30.036  29.057  1.00  0.00     0.010 A 
ATOM     35  C   UNL A   1      37.164  32.239  28.768  1.00  0.00     0.010 A 
ATOM     36  C   UNL A   1      37.271  30.936  29.285  1.00  0.00    -0.014 A 
BRANCH  36  37
ATOM     37  C   UNL A   1      38.456  30.506  30.073  1.00  0.00     0.031 A 
ATOM     38  C   UNL A   1      39.476  29.581  29.466  1.00  0.00     0.074 A 
ATOM     39  C   UNL A   1      38.629  30.965  31.328  1.00  0.00     0.049 A 
ATOM     40  N   UNL A   1      40.461  28.942  30.046  1.00  0.00    -0.248 NA
ATOM     41  C   UNL A   1      39.370  29.335  28.021  1.00  0.00     0.031 C 
ATOM     42  C   UNL A   1      37.749  31.913  32.014  1.00  0.00     0.029 A 
ATOM     43  N   UNL A   1      39.609  30.700  32.254  1.00  0.00    -0.354 N 
ATOM     44  C   UNL A   1      41.051  28.174  29.050  1.00  0.00     0.074 A 
ATOM     45  C   UNL A   1      40.320  28.430  27.827  1.00  0.00     0.031 C 
ATOM     46  C   UNL A   1      38.243  32.178  33.230  1.00  0.00     0.029 A 
ATOM     47  C   UNL A   1      39.414  31.341  33.452  1.00  0.00     0.049 A 
ATOM     48  H   UNL A   1      40.375  30.109  32.075  1.00  0.00     0.167 HD
ATOM     49  C   UNL A   1      42.104  27.329  29.156  1.00  0.00     0.037 A 
ATOM     50  C   UNL A   1      40.069  31.227  34.623  1.00  0.00     0.037 A 
ATOM     51  C   UNL A   1      42.855  27.121  30.368  1.00  0.00     0.049 A 
ATOM     52  C   UNL A   1      41.209  30.259  34.724  1.00  0.00     0.074 A 
ATOM     53  C   UNL A   1      43.938  26.287  30.584  1.00  0.00     0.029 A 
ATOM     54  N   UNL A   1      42.607  27.772  31.569  1.00  0.00    -0.354 N 
ATOM     55  N   UNL A   1      41.713  29.479  33.799  1.00  0.00    -0.248 NA
ATOM     56  C   UNL A   1      41.859  30.138  36.035  1.00  0.00     0.031 C 
ATOM     57  C   UNL A   1      44.326  26.410  31.922  1.00  0.00     0.029 A 
ATOM     58  C   UNL A   1      43.511  27.351  32.530  1.00  0.00     0.049 A 
ATOM     59  H   UNL A   1      41.894  28.434  31.715  1.00  0.00     0.167 HD
ATOM     60  C   UNL A   1      42.741  28.779  34.411  1.00  0.00     0.074 A 
ATOM     61  C   UNL A   1      42.803  29.243  35.783  1.00  0.00     0.031 C 
ATOM     62  C   UNL A   1      43.553  27.829  33.888  1.00  0.00     0.037 A 
BRANCH  49  63
ATOM     63  C   UNL A   1      42.486  26.534  27.941  1.00  0.00     0.064 A 
ATOM     64  C   UNL A   1      41.908  25.290  27.654  1.00  0.00     0.173 A 
ATOM     65  C   UNL A   1      43.423  27.047  27.031  1.00  0.00     0.173 A 
ATOM     66  F   UNL A   1      41.018  24.748  28.498  1.00  0.00    -0.203 F 
ATOM     67  C   UNL A   1      42.270  24.579  26.511  1.00  0.00     0.198 A 
ATOM     68  C   UNL A   1      43.764  26.347  25.877  1.00  0.00     0.198 A 
ATOM     69  F   UNL A   1      44.004  28.236  27.257  1.00  0.00    -0.203 F 
ATOM     70  F   UNL A   1      41.735  23.373  26.276  1.00  0.00    -0.200 F 
ATOM     71  C   UNL A   1      43.192  25.111  25.620  1.00  0.00     0.200 A 
ATOM     72  F   UNL A   1      44.646  26.868  25.013  1.00  0.00    -0.200 F 
ATOM     73  F   UNL A   1      43.533  24.429  24.518  1.00  0.00    -0.200 F 
ENDBRANCH  49  63
BRANCH  50  74
ATOM     74  C   UNL A   1      39.613  32.014  35.798  1.00  0.00     0.064 A 
ATOM     75  C   UNL A   1      40.188  33.253  36.104  1.00  0.00     0.173 A 
ATOM     76  C   UNL A   1      38.574  31.553  36.623  1.00  0.00     0.173 A 
ATOM     77  F   UNL A   1      41.199  33.724  35.360  1.00  0.00    -0.203 F 
ATOM     78  C   UNL A   1      39.745  34.002  37.193  1.00  0.00     0.198 A 
ATOM     79  C   UNL A   1      38.111  32.316  37.691  1.00  0.00     0.198 A 
ATOM     80  F   UNL A   1      37.989  30.373  36.370  1.00  0.00    -0.203 F 
ATOM     81  F   UNL A   1      40.334  35.168  37.485  1.00  0.00    -0.200 F 
ATOM     82  C   UNL A   1      38.700  33.537  37.980  1.00  0.00     0.200 A 
ATOM     83  F   UNL A   1      37.090  31.871  38.436  1.00  0.00    -0.200 F 
ATOM     84  F   UNL A   1      38.264  34.263  39.017  1.00  0.00    -0.200 F 
ENDBRANCH  50  74
BRANCH  62  85
ATOM     85  C   UNL A   1      44.594  27.254  34.800  1.00  0.00     0.064 A 
ATOM     86  C   UNL A   1      44.351  26.093  35.548  1.00  0.00     0.173 A 
ATOM     87  C   UNL A   1      45.854  27.858  34.909  1.00  0.00     0.173 A 
ATOM     88  F   UNL A   1      43.153  25.492  35.491  1.00  0.00    -0.203 F 
ATOM     89  C   UNL A   1      45.327  25.571  36.393  1.00  0.00     0.198 A 
ATOM     90  C   UNL A   1      46.836  27.319  35.735  1.00  0.00     0.198 A 
ATOM     91  F   UNL A   1      46.134  28.969  34.210  1.00  0.00    -0.203 F 
ATOM     92  F   UNL A   1      45.058  24.488  37.134  1.00  0.00    -0.200 F 
ATOM     93  C   UNL A   1      46.569  26.181  36.480  1.00  0.00     0.200 A 
ATOM     94  F   UNL A   1      48.039  27.905  35.813  1.00  0.00    -0.200 F 
ATOM     95  F   UNL A   1      47.508  25.676  37.293  1.00  0.00    -0.200 F 
ENDBRANCH  62  85
ENDBRANCH  36  37
ENDBRANCH  29  31
ENDBRANCH  28  29
ENDBRANCH  27  28
ENDBRANCH   1  27
TORSDOF 15
ENDMDL
