MODEL 1
REMARK VINA RESULT:     -12.4      0.000      0.000
REMARK SMILES O=C(OCCOC(=O)C1(Oc2cccc(F)c2)CCN(c2cc(NCCO)ncn2)CC1)c1ccc(-c2c3nc(c(-c4c(F)c(F)c(F)c(F)c4F)c4ccc([nH]4)c(-c4c(F)c(F)c(F)c(F)c4F)c4nc(c(-c5c(F)c(F)c(F)c(F)c5F)c5ccc2[nH]5)C=C4)C=C3)cc1
REMARK SMILES IDX 6 1 5 2 4 3 3 4 2 5 1 6 33 7 34 8 95 9 35 10 94 11 36 12
REMARK SMILES IDX 37 13 38 14 88 15 39 16 93 17 87 18 89 19 40 20 92 21 86 22
REMARK SMILES IDX 85 23 41 25 73 26 53 27 72 28 54 29 57 30 71 31 90 32 55 33
REMARK SMILES IDX 56 34 70 36 91 37 58 38 42 39 43 40 51 41 44 42 45 43 49 44
REMARK SMILES IDX 52 45 46 46 47 47 50 48 48 49 74 50 75 51 83 52 76 53 77 54
REMARK SMILES IDX 81 55 84 56 78 57 79 58 82 59 80 60 59 61 60 62 68 63 61 64
REMARK SMILES IDX 62 65 66 66 69 67 63 68 64 69 67 70 65 71 7 72 8 73 9 74
REMARK SMILES IDX 18 75 32 76 19 77 31 78 20 79 10 80 11 81 12 82 17 83 13 84
REMARK SMILES IDX 15 85 14 86 16 87 21 88 22 89 30 90 23 91 29 92 28 93 24 94
REMARK SMILES IDX 25 96 26 97 27 98
REMARK H PARENT 89 24 57 35 24 95 27 99
REMARK Flexibility Score: inf
ROOT
ATOM      1  O   UNL A   1      31.703  30.014  25.977  1.00  0.00    -0.459 OA
ENDROOT
BRANCH   1   2
ATOM      2  C   UNL A   1      32.336  31.025  26.785  1.00  0.00     0.274 C 
BRANCH   2   3
ATOM      3  C   UNL A   1      31.412  32.200  27.103  1.00  0.00     0.275 C 
BRANCH   3   4
ATOM      4  O   UNL A   1      32.083  33.465  27.062  1.00  0.00    -0.458 OA
BRANCH   4   5
ATOM      5  C   UNL A   1      32.827  34.084  28.003  1.00  0.00     0.338 C 
ATOM      6  O   UNL A   1      32.434  35.185  28.396  1.00  0.00    -0.246 OA
BRANCH   5   7
ATOM      7  C   UNL A   1      34.146  33.591  28.550  1.00  0.00     0.060 A 
ATOM      8  C   UNL A   1      35.371  34.265  28.616  1.00  0.00     0.016 A 
ATOM      9  C   UNL A   1      34.107  32.311  29.131  1.00  0.00     0.016 A 
ATOM     10  C   UNL A   1      36.455  33.748  29.356  1.00  0.00     0.010 A 
ATOM     11  C   UNL A   1      35.166  31.806  29.897  1.00  0.00     0.010 A 
ATOM     12  C   UNL A   1      36.341  32.540  30.052  1.00  0.00    -0.014 A 
BRANCH  12  13
ATOM     13  C   UNL A   1      37.496  31.989  30.812  1.00  0.00     0.031 A 
ATOM     14  C   UNL A   1      38.440  31.105  30.085  1.00  0.00     0.074 A 
ATOM     15  C   UNL A   1      37.645  32.142  32.143  1.00  0.00     0.049 A 
ATOM     16  N   UNL A   1      39.465  30.461  30.560  1.00  0.00    -0.248 NA
ATOM     17  C   UNL A   1      38.108  30.795  28.685  1.00  0.00     0.031 C 
ATOM     18  C   UNL A   1      36.571  32.568  33.006  1.00  0.00     0.029 A 
ATOM     19  N   UNL A   1      38.670  31.919  33.030  1.00  0.00    -0.354 N 
ATOM     20  C   UNL A   1      39.842  29.600  29.552  1.00  0.00     0.074 A 
ATOM     21  C   UNL A   1      38.934  29.790  28.445  1.00  0.00     0.031 C 
ATOM     22  C   UNL A   1      37.003  32.761  34.259  1.00  0.00     0.029 A 
ATOM     23  C   UNL A   1      38.382  32.304  34.333  1.00  0.00     0.049 A 
ATOM     24  H   UNL A   1      39.531  31.521  32.767  1.00  0.00     0.167 HD
ATOM     25  C   UNL A   1      40.861  28.720  29.571  1.00  0.00     0.037 A 
ATOM     26  C   UNL A   1      39.128  32.225  35.457  1.00  0.00     0.037 A 
ATOM     27  C   UNL A   1      41.765  28.579  30.674  1.00  0.00     0.049 A 
ATOM     28  C   UNL A   1      40.463  31.528  35.319  1.00  0.00     0.074 A 
ATOM     29  C   UNL A   1      42.896  27.792  30.759  1.00  0.00     0.029 A 
ATOM     30  N   UNL A   1      41.641  29.250  31.883  1.00  0.00    -0.354 N 
ATOM     31  N   UNL A   1      40.938  30.896  34.270  1.00  0.00    -0.248 NA
ATOM     32  C   UNL A   1      41.353  31.481  36.488  1.00  0.00     0.031 C 
ATOM     33  C   UNL A   1      43.452  27.976  32.026  1.00  0.00     0.029 A 
ATOM     34  C   UNL A   1      42.689  28.903  32.716  1.00  0.00     0.049 A 
ATOM     35  H   UNL A   1      40.917  29.878  32.112  1.00  0.00     0.167 HD
ATOM     36  C   UNL A   1      42.132  30.329  34.677  1.00  0.00     0.074 A 
ATOM     37  C   UNL A   1      42.387  30.802  36.018  1.00  0.00     0.031 C 
ATOM     38  C   UNL A   1      42.908  29.424  34.038  1.00  0.00     0.037 A 
BRANCH  25  39
ATOM     39  C   UNL A   1      41.050  27.876  28.357  1.00  0.00     0.064 A 
ATOM     40  C   UNL A   1      40.409  26.634  28.249  1.00  0.00     0.173 A 
ATOM     41  C   UNL A   1      41.882  28.291  27.308  1.00  0.00     0.173 A 
ATOM     42  F   UNL A   1      39.589  26.207  29.221  1.00  0.00    -0.203 F 
ATOM     43  C   UNL A   1      40.613  25.827  27.135  1.00  0.00     0.198 A 
ATOM     44  C   UNL A   1      42.057  27.496  26.184  1.00  0.00     0.198 A 
ATOM     45  F   UNL A   1      42.485  29.489  27.358  1.00  0.00    -0.203 F 
ATOM     46  F   UNL A   1      40.015  24.631  27.060  1.00  0.00    -0.200 F 
ATOM     47  C   UNL A   1      41.434  26.260  26.104  1.00  0.00     0.200 A 
ATOM     48  F   UNL A   1      42.819  27.933  25.171  1.00  0.00    -0.200 F 
ATOM     49  F   UNL A   1      41.621  25.485  25.027  1.00  0.00    -0.200 F 
ENDBRANCH  25  39
BRANCH  26  50
ATOM     50  C   UNL A   1      38.655  32.709  36.799  1.00  0.00     0.064 A 
ATOM     51  C   UNL A   1      37.944  31.894  37.695  1.00  0.00     0.173 A 
ATOM     52  C   UNL A   1      38.995  33.989  37.265  1.00  0.00     0.173 A 
ATOM     53  F   UNL A   1      37.602  30.645  37.348  1.00  0.00    -0.203 F 
ATOM     54  C   UNL A   1      37.591  32.337  38.973  1.00  0.00     0.198 A 
ATOM     55  C   UNL A   1      38.725  34.394  38.575  1.00  0.00     0.198 A 
ATOM     56  F   UNL A   1      39.666  34.835  36.463  1.00  0.00    -0.203 F 
ATOM     57  F   UNL A   1      36.869  31.545  39.780  1.00  0.00    -0.200 F 
ATOM     58  C   UNL A   1      38.003  33.578  39.422  1.00  0.00     0.200 A 
ATOM     59  F   UNL A   1      39.189  35.569  39.025  1.00  0.00    -0.200 F 
ATOM     60  F   UNL A   1      37.721  33.980  40.669  1.00  0.00    -0.200 F 
ENDBRANCH  26  50
BRANCH  38  61
ATOM     61  C   UNL A   1      44.063  28.866  34.806  1.00  0.00     0.064 A 
ATOM     62  C   UNL A   1      43.915  27.713  35.585  1.00  0.00     0.173 A 
ATOM     63  C   UNL A   1      45.293  29.540  34.837  1.00  0.00     0.173 A 
ATOM     64  F   UNL A   1      42.753  27.041  35.584  1.00  0.00    -0.203 F 
ATOM     65  C   UNL A   1      44.953  27.265  36.392  1.00  0.00     0.198 A 
ATOM     66  C   UNL A   1      46.339  29.071  35.621  1.00  0.00     0.198 A 
ATOM     67  F   UNL A   1      45.482  30.639  34.090  1.00  0.00    -0.203 F 
ATOM     68  F   UNL A   1      44.781  26.184  37.164  1.00  0.00    -0.200 F 
ATOM     69  C   UNL A   1      46.164  27.943  36.408  1.00  0.00     0.200 A 
ATOM     70  F   UNL A   1      47.517  29.712  35.615  1.00  0.00    -0.200 F 
ATOM     71  F   UNL A   1      47.165  27.509  37.186  1.00  0.00    -0.200 F 
ENDBRANCH  38  61
ENDBRANCH  12  13
ENDBRANCH   5   7
ENDBRANCH   4   5
ENDBRANCH   3   4
ENDBRANCH   2   3
ENDBRANCH   1   2
BRANCH   1  72
ATOM     72  C   UNL A   1      32.485  29.328  25.088  1.00  0.00     0.350 C 
ATOM     73  O   UNL A   1      33.661  29.612  24.867  1.00  0.00    -0.247 OA
BRANCH  72  74
ATOM     74  C   UNL A   1      31.718  28.201  24.340  1.00  0.00     0.209 C 
ATOM     75  C   UNL A   1      30.642  27.634  25.282  1.00  0.00     0.082 C 
ATOM     76  C   UNL A   1      32.629  27.045  23.954  1.00  0.00     0.082 C 
ATOM     77  C   UNL A   1      31.249  26.853  26.453  1.00  0.00     0.123 C 
ATOM     78  C   UNL A   1      33.267  26.291  25.116  1.00  0.00     0.123 C 
ATOM     79  N   UNL A   1      32.204  25.836  25.995  1.00  0.00    -0.356 N 
BRANCH  74  80
ATOM     80  O   UNL A   1      31.144  28.888  23.177  1.00  0.00    -0.475 OA
BRANCH  80  81
ATOM     81  C   UNL A   1      29.898  29.455  23.257  1.00  0.00     0.123 A 
ATOM     82  C   UNL A   1      29.687  30.821  23.402  1.00  0.00     0.047 A 
ATOM     83  C   UNL A   1      28.784  28.646  23.046  1.00  0.00     0.085 A 
ATOM     84  C   UNL A   1      28.387  31.344  23.491  1.00  0.00     0.007 A 
ATOM     85  C   UNL A   1      27.491  29.154  23.166  1.00  0.00     0.126 A 
ATOM     86  C   UNL A   1      27.281  30.501  23.409  1.00  0.00     0.039 A 
ATOM     87  F   UNL A   1      26.440  28.332  23.040  1.00  0.00    -0.207 F 
ENDBRANCH  80  81
ENDBRANCH  74  80
BRANCH  79  88
ATOM     88  C   UNL A   1      31.832  24.497  25.958  1.00  0.00     0.134 A 
ATOM     89  C   UNL A   1      32.625  23.550  25.315  1.00  0.00     0.093 A 
ATOM     90  N   UNL A   1      30.709  24.123  26.584  1.00  0.00    -0.219 NA
ATOM     91  C   UNL A   1      32.263  22.214  25.381  1.00  0.00     0.131 A 
ATOM     92  C   UNL A   1      30.409  22.818  26.555  1.00  0.00     0.226 A 
ATOM     93  N   UNL A   1      31.126  21.841  25.980  1.00  0.00    -0.219 NA
BRANCH  91  94
ATOM     94  N   UNL A   1      33.064  21.246  24.781  1.00  0.00    -0.368 N 
ATOM     95  H   UNL A   1      34.030  21.395  24.665  1.00  0.00     0.162 HD
BRANCH  94  96
ATOM     96  C   UNL A   1      32.439  20.001  24.326  1.00  0.00     0.142 C 
BRANCH  96  97
ATOM     97  C   UNL A   1      32.986  18.789  25.099  1.00  0.00     0.177 C 
BRANCH  97  98
ATOM     98  O   UNL A   1      32.651  18.860  26.484  1.00  0.00    -0.395 OA
ATOM     99  H   UNL A   1      33.382  19.266  26.974  1.00  0.00     0.210 HD
ENDBRANCH  97  98
ENDBRANCH  96  97
ENDBRANCH  94  96
ENDBRANCH  91  94
ENDBRANCH  79  88
ENDBRANCH  72  74
ENDBRANCH   1  72
TORSDOF 18
ENDMDL
MODEL 2
REMARK VINA RESULT:     -12.2      4.641      8.761
REMARK SMILES O=C(OCCOC(=O)C1(Oc2cccc(F)c2)CCN(c2cc(NCCO)ncn2)CC1)c1ccc(-c2c3nc(c(-c4c(F)c(F)c(F)c(F)c4F)c4ccc([nH]4)c(-c4c(F)c(F)c(F)c(F)c4F)c4nc(c(-c5c(F)c(F)c(F)c(F)c5F)c5ccc2[nH]5)C=C4)C=C3)cc1
REMARK SMILES IDX 6 1 5 2 4 3 3 4 2 5 1 6 33 7 34 8 95 9 35 10 94 11 36 12
REMARK SMILES IDX 37 13 38 14 88 15 39 16 93 17 87 18 89 19 40 20 92 21 86 22
REMARK SMILES IDX 85 23 41 25 73 26 53 27 72 28 54 29 57 30 71 31 90 32 55 33
REMARK SMILES IDX 56 34 70 36 91 37 58 38 42 39 43 40 51 41 44 42 45 43 49 44
REMARK SMILES IDX 52 45 46 46 47 47 50 48 48 49 74 50 75 51 83 52 76 53 77 54
REMARK SMILES IDX 81 55 84 56 78 57 79 58 82 59 80 60 59 61 60 62 68 63 61 64
REMARK SMILES IDX 62 65 66 66 69 67 63 68 64 69 67 70 65 71 7 72 8 73 9 74
REMARK SMILES IDX 18 75 32 76 19 77 31 78 20 79 10 80 11 81 12 82 17 83 13 84
REMARK SMILES IDX 15 85 14 86 16 87 21 88 22 89 30 90 23 91 29 92 28 93 24 94
REMARK SMILES IDX 25 96 26 97 27 98
REMARK H PARENT 89 24 57 35 24 95 27 99
REMARK Flexibility Score: inf
ROOT
ATOM      1  O   UNL A   1      34.929  20.854  25.332  1.00  0.00    -0.459 OA
ENDROOT
BRANCH   1   2
ATOM      2  C   UNL A   1      36.180  21.431  25.755  1.00  0.00     0.274 C 
BRANCH   2   3
ATOM      3  C   UNL A   1      37.396  20.708  25.176  1.00  0.00     0.275 C 
BRANCH   3   4
ATOM      4  O   UNL A   1      38.601  21.476  25.275  1.00  0.00    -0.458 OA
BRANCH   4   5
ATOM      5  C   UNL A   1      39.506  21.547  26.275  1.00  0.00     0.338 C 
ATOM      6  O   UNL A   1      39.819  20.490  26.826  1.00  0.00    -0.246 OA
BRANCH   5   7
ATOM      7  C   UNL A   1      40.100  22.817  26.839  1.00  0.00     0.060 A 
ATOM      8  C   UNL A   1      41.136  22.958  27.767  1.00  0.00     0.016 A 
ATOM      9  C   UNL A   1      39.581  24.006  26.299  1.00  0.00     0.016 A 
ATOM     10  C   UNL A   1      41.724  24.214  28.026  1.00  0.00     0.010 A 
ATOM     11  C   UNL A   1      40.180  25.253  26.523  1.00  0.00     0.010 A 
ATOM     12  C   UNL A   1      41.288  25.365  27.361  1.00  0.00    -0.014 A 
BRANCH  12  13
ATOM     13  C   UNL A   1      41.897  26.690  27.656  1.00  0.00     0.031 A 
ATOM     14  C   UNL A   1      43.242  26.970  27.096  1.00  0.00     0.074 A 
ATOM     15  C   UNL A   1      41.351  27.580  28.510  1.00  0.00     0.049 A 
ATOM     16  N   UNL A   1      43.987  28.020  27.284  1.00  0.00    -0.248 NA
ATOM     17  C   UNL A   1      43.887  25.878  26.352  1.00  0.00     0.031 C 
ATOM     18  C   UNL A   1      40.315  27.228  29.449  1.00  0.00     0.029 A 
ATOM     19  N   UNL A   1      41.585  28.901  28.804  1.00  0.00    -0.354 N 
ATOM     20  C   UNL A   1      45.218  27.679  26.766  1.00  0.00     0.074 A 
ATOM     21  C   UNL A   1      45.129  26.326  26.269  1.00  0.00     0.031 C 
ATOM     22  C   UNL A   1      39.856  28.309  30.094  1.00  0.00     0.029 A 
ATOM     23  C   UNL A   1      40.698  29.439  29.728  1.00  0.00     0.049 A 
ATOM     24  H   UNL A   1      42.315  29.421  28.398  1.00  0.00     0.167 HD
ATOM     25  C   UNL A   1      46.326  28.443  26.728  1.00  0.00     0.037 A 
ATOM     26  C   UNL A   1      40.628  30.679  30.260  1.00  0.00     0.037 A 
ATOM     27  C   UNL A   1      46.372  29.795  27.201  1.00  0.00     0.049 A 
ATOM     28  C   UNL A   1      41.738  31.630  29.871  1.00  0.00     0.074 A 
ATOM     29  C   UNL A   1      47.413  30.697  27.115  1.00  0.00     0.029 A 
ATOM     30  N   UNL A   1      45.322  30.440  27.842  1.00  0.00    -0.354 N 
ATOM     31  N   UNL A   1      42.816  31.367  29.168  1.00  0.00    -0.248 NA
ATOM     32  C   UNL A   1      41.674  33.016  30.355  1.00  0.00     0.031 C 
ATOM     33  C   UNL A   1      47.001  31.887  27.717  1.00  0.00     0.029 A 
ATOM     34  C   UNL A   1      45.691  31.738  28.144  1.00  0.00     0.049 A 
ATOM     35  H   UNL A   1      44.449  30.035  28.049  1.00  0.00     0.167 HD
ATOM     36  C   UNL A   1      43.574  32.523  29.189  1.00  0.00     0.074 A 
ATOM     37  C   UNL A   1      42.781  33.535  29.849  1.00  0.00     0.031 C 
ATOM     38  C   UNL A   1      44.850  32.714  28.783  1.00  0.00     0.037 A 
BRANCH  25  39
ATOM     39  C   UNL A   1      47.550  27.834  26.135  1.00  0.00     0.064 A 
ATOM     40  C   UNL A   1      48.562  27.326  26.961  1.00  0.00     0.173 A 
ATOM     41  C   UNL A   1      47.727  27.769  24.746  1.00  0.00     0.173 A 
ATOM     42  F   UNL A   1      48.424  27.350  28.295  1.00  0.00    -0.203 F 
ATOM     43  C   UNL A   1      49.722  26.790  26.413  1.00  0.00     0.198 A 
ATOM     44  C   UNL A   1      48.873  27.204  24.202  1.00  0.00     0.198 A 
ATOM     45  F   UNL A   1      46.766  28.211  23.921  1.00  0.00    -0.203 F 
ATOM     46  F   UNL A   1      50.691  26.334  27.217  1.00  0.00    -0.200 F 
ATOM     47  C   UNL A   1      49.875  26.728  25.035  1.00  0.00     0.200 A 
ATOM     48  F   UNL A   1      49.002  27.109  22.871  1.00  0.00    -0.200 F 
ATOM     49  F   UNL A   1      50.989  26.202  24.508  1.00  0.00    -0.200 F 
ENDBRANCH  25  39
BRANCH  26  50
ATOM     50  C   UNL A   1      39.579  31.096  31.252  1.00  0.00     0.064 A 
ATOM     51  C   UNL A   1      38.348  31.652  30.869  1.00  0.00     0.173 A 
ATOM     52  C   UNL A   1      39.748  30.854  32.624  1.00  0.00     0.173 A 
ATOM     53  F   UNL A   1      38.086  31.892  29.576  1.00  0.00    -0.203 F 
ATOM     54  C   UNL A   1      37.352  31.952  31.803  1.00  0.00     0.198 A 
ATOM     55  C   UNL A   1      38.716  31.064  33.544  1.00  0.00     0.198 A 
ATOM     56  F   UNL A   1      40.903  30.333  33.074  1.00  0.00    -0.203 F 
ATOM     57  F   UNL A   1      36.209  32.527  31.402  1.00  0.00    -0.200 F 
ATOM     58  C   UNL A   1      37.527  31.635  33.138  1.00  0.00     0.200 A 
ATOM     59  F   UNL A   1      38.868  30.688  34.822  1.00  0.00    -0.200 F 
ATOM     60  F   UNL A   1      36.549  31.861  34.026  1.00  0.00    -0.200 F 
ENDBRANCH  26  50
BRANCH  38  61
ATOM     61  C   UNL A   1      45.462  34.043  29.088  1.00  0.00     0.064 A 
ATOM     62  C   UNL A   1      46.059  34.289  30.330  1.00  0.00     0.173 A 
ATOM     63  C   UNL A   1      45.367  35.101  28.172  1.00  0.00     0.173 A 
ATOM     64  F   UNL A   1      46.166  33.304  31.236  1.00  0.00    -0.203 F 
ATOM     65  C   UNL A   1      46.518  35.559  30.656  1.00  0.00     0.198 A 
ATOM     66  C   UNL A   1      45.857  36.361  28.489  1.00  0.00     0.198 A 
ATOM     67  F   UNL A   1      44.820  34.902  26.963  1.00  0.00    -0.203 F 
ATOM     68  F   UNL A   1      47.047  35.788  31.866  1.00  0.00    -0.200 F 
ATOM     69  C   UNL A   1      46.418  36.593  29.736  1.00  0.00     0.200 A 
ATOM     70  F   UNL A   1      45.783  37.352  27.589  1.00  0.00    -0.200 F 
ATOM     71  F   UNL A   1      46.864  37.816  30.052  1.00  0.00    -0.200 F 
ENDBRANCH  38  61
ENDBRANCH  12  13
ENDBRANCH   5   7
ENDBRANCH   4   5
ENDBRANCH   3   4
ENDBRANCH   2   3
ENDBRANCH   1   2
BRANCH   1  72
ATOM     72  C   UNL A   1      33.800  21.205  26.022  1.00  0.00     0.350 C 
ATOM     73  O   UNL A   1      33.745  21.236  27.250  1.00  0.00    -0.247 OA
BRANCH  72  74
ATOM     74  C   UNL A   1      32.583  21.492  25.100  1.00  0.00     0.209 C 
ATOM     75  C   UNL A   1      33.103  21.802  23.685  1.00  0.00     0.082 C 
ATOM     76  C   UNL A   1      31.789  22.707  25.559  1.00  0.00     0.082 C 
ATOM     77  C   UNL A   1      33.848  23.139  23.620  1.00  0.00     0.123 C 
ATOM     78  C   UNL A   1      32.540  24.035  25.534  1.00  0.00     0.123 C 
ATOM     79  N   UNL A   1      33.054  24.235  24.190  1.00  0.00    -0.356 N 
BRANCH  74  80
ATOM     80  O   UNL A   1      31.806  20.249  25.156  1.00  0.00    -0.475 OA
BRANCH  80  81
ATOM     81  C   UNL A   1      32.330  19.086  24.651  1.00  0.00     0.123 A 
ATOM     82  C   UNL A   1      32.554  18.874  23.295  1.00  0.00     0.047 A 
ATOM     83  C   UNL A   1      32.789  18.120  25.543  1.00  0.00     0.085 A 
ATOM     84  C   UNL A   1      33.082  17.657  22.835  1.00  0.00     0.007 A 
ATOM     85  C   UNL A   1      33.283  16.898  25.090  1.00  0.00     0.126 A 
ATOM     86  C   UNL A   1      33.415  16.647  23.735  1.00  0.00     0.039 A 
ATOM     87  F   UNL A   1      33.639  15.956  25.975  1.00  0.00    -0.207 F 
ENDBRANCH  80  81
ENDBRANCH  74  80
BRANCH  79  88
ATOM     88  C   UNL A   1      32.406  25.135  23.352  1.00  0.00     0.134 A 
ATOM     89  C   UNL A   1      31.641  26.176  23.873  1.00  0.00     0.093 A 
ATOM     90  N   UNL A   1      32.556  25.006  22.028  1.00  0.00    -0.219 NA
ATOM     91  C   UNL A   1      31.088  27.103  23.004  1.00  0.00     0.131 A 
ATOM     92  C   UNL A   1      31.945  25.917  21.260  1.00  0.00     0.226 A 
ATOM     93  N   UNL A   1      31.211  26.960  21.680  1.00  0.00    -0.219 NA
BRANCH  91  94
ATOM     94  N   UNL A   1      30.356  28.176  23.506  1.00  0.00    -0.368 N 
ATOM     95  H   UNL A   1      30.691  28.700  24.269  1.00  0.00     0.162 HD
BRANCH  94  96
ATOM     96  C   UNL A   1      29.075  28.508  22.875  1.00  0.00     0.142 C 
BRANCH  96  97
ATOM     97  C   UNL A   1      29.145  29.865  22.155  1.00  0.00     0.177 C 
BRANCH  97  98
ATOM     98  O   UNL A   1      30.270  29.932  21.280  1.00  0.00    -0.395 OA
ATOM     99  H   UNL A   1      30.218  29.217  20.628  1.00  0.00     0.210 HD
ENDBRANCH  97  98
ENDBRANCH  96  97
ENDBRANCH  94  96
ENDBRANCH  91  94
ENDBRANCH  79  88
ENDBRANCH  72  74
ENDBRANCH   1  72
TORSDOF 18
ENDMDL
MODEL 3
REMARK VINA RESULT:     -12.2      1.442      7.353
REMARK SMILES O=C(OCCOC(=O)C1(Oc2cccc(F)c2)CCN(c2cc(NCCO)ncn2)CC1)c1ccc(-c2c3nc(c(-c4c(F)c(F)c(F)c(F)c4F)c4ccc([nH]4)c(-c4c(F)c(F)c(F)c(F)c4F)c4nc(c(-c5c(F)c(F)c(F)c(F)c5F)c5ccc2[nH]5)C=C4)C=C3)cc1
REMARK SMILES IDX 6 1 5 2 4 3 3 4 2 5 1 6 33 7 34 8 95 9 35 10 94 11 36 12
REMARK SMILES IDX 37 13 38 14 88 15 39 16 93 17 87 18 89 19 40 20 92 21 86 22
REMARK SMILES IDX 85 23 41 25 73 26 53 27 72 28 54 29 57 30 71 31 90 32 55 33
REMARK SMILES IDX 56 34 70 36 91 37 58 38 42 39 43 40 51 41 44 42 45 43 49 44
REMARK SMILES IDX 52 45 46 46 47 47 50 48 48 49 74 50 75 51 83 52 76 53 77 54
REMARK SMILES IDX 81 55 84 56 78 57 79 58 82 59 80 60 59 61 60 62 68 63 61 64
REMARK SMILES IDX 62 65 66 66 69 67 63 68 64 69 67 70 65 71 7 72 8 73 9 74
REMARK SMILES IDX 18 75 32 76 19 77 31 78 20 79 10 80 11 81 12 82 17 83 13 84
REMARK SMILES IDX 15 85 14 86 16 87 21 88 22 89 30 90 23 91 29 92 28 93 24 94
REMARK SMILES IDX 25 96 26 97 27 98
REMARK H PARENT 89 24 57 35 24 95 27 99
REMARK Flexibility Score: inf
ROOT
ATOM      1  O   UNL A   1      31.638  29.524  24.848  1.00  0.00    -0.459 OA
ENDROOT
BRANCH   1   2
ATOM      2  C   UNL A   1      32.409  30.074  25.934  1.00  0.00     0.274 C 
BRANCH   2   3
ATOM      3  C   UNL A   1      31.645  31.131  26.734  1.00  0.00     0.275 C 
BRANCH   3   4
ATOM      4  O   UNL A   1      32.279  32.414  26.711  1.00  0.00    -0.458 OA
BRANCH   4   5
ATOM      5  C   UNL A   1      33.065  33.011  27.632  1.00  0.00     0.338 C 
ATOM      6  O   UNL A   1      32.660  34.070  28.116  1.00  0.00    -0.246 OA
BRANCH   5   7
ATOM      7  C   UNL A   1      34.439  32.545  28.053  1.00  0.00     0.060 A 
ATOM      8  C   UNL A   1      35.644  33.257  28.043  1.00  0.00     0.016 A 
ATOM      9  C   UNL A   1      34.488  31.247  28.590  1.00  0.00     0.016 A 
ATOM     10  C   UNL A   1      36.800  32.753  28.675  1.00  0.00     0.010 A 
ATOM     11  C   UNL A   1      35.621  30.752  29.250  1.00  0.00     0.010 A 
ATOM     12  C   UNL A   1      36.781  31.520  29.335  1.00  0.00    -0.014 A 
BRANCH  12  13
ATOM     13  C   UNL A   1      38.010  30.984  29.979  1.00  0.00     0.031 A 
ATOM     14  C   UNL A   1      38.392  31.536  31.303  1.00  0.00     0.074 A 
ATOM     15  C   UNL A   1      38.856  30.132  29.364  1.00  0.00     0.049 A 
ATOM     16  N   UNL A   1      39.453  31.271  32.008  1.00  0.00    -0.248 NA
ATOM     17  C   UNL A   1      37.551  32.622  31.831  1.00  0.00     0.031 C 
ATOM     18  C   UNL A   1      38.835  29.903  27.940  1.00  0.00     0.029 A 
ATOM     19  N   UNL A   1      39.913  29.358  29.775  1.00  0.00    -0.354 N 
ATOM     20  C   UNL A   1      39.458  32.219  33.009  1.00  0.00     0.074 A 
ATOM     21  C   UNL A   1      38.309  33.072  32.817  1.00  0.00     0.031 C 
ATOM     22  C   UNL A   1      39.685  28.928  27.593  1.00  0.00     0.029 A 
ATOM     23  C   UNL A   1      40.453  28.562  28.774  1.00  0.00     0.049 A 
ATOM     24  H   UNL A   1      40.258  29.365  30.697  1.00  0.00     0.167 HD
ATOM     25  C   UNL A   1      40.366  32.358  33.994  1.00  0.00     0.037 A 
ATOM     26  C   UNL A   1      41.491  27.697  28.802  1.00  0.00     0.037 A 
ATOM     27  C   UNL A   1      41.478  31.473  34.175  1.00  0.00     0.049 A 
ATOM     28  C   UNL A   1      42.264  27.633  30.101  1.00  0.00     0.074 A 
ATOM     29  C   UNL A   1      42.401  31.458  35.202  1.00  0.00     0.029 A 
ATOM     30  N   UNL A   1      41.811  30.440  33.309  1.00  0.00    -0.354 N 
ATOM     31  N   UNL A   1      42.117  28.389  31.165  1.00  0.00    -0.248 NA
ATOM     32  C   UNL A   1      43.353  26.653  30.220  1.00  0.00     0.031 C 
ATOM     33  C   UNL A   1      43.304  30.423  34.952  1.00  0.00     0.029 A 
ATOM     34  C   UNL A   1      42.922  29.771  33.791  1.00  0.00     0.049 A 
ATOM     35  H   UNL A   1      41.330  30.218  32.480  1.00  0.00     0.167 HD
ATOM     36  C   UNL A   1      43.129  28.023  32.033  1.00  0.00     0.074 A 
ATOM     37  C   UNL A   1      43.799  26.886  31.444  1.00  0.00     0.031 C 
ATOM     38  C   UNL A   1      43.535  28.626  33.174  1.00  0.00     0.037 A 
BRANCH  25  39
ATOM     39  C   UNL A   1      40.165  33.486  34.947  1.00  0.00     0.064 A 
ATOM     40  C   UNL A   1      40.724  34.744  34.684  1.00  0.00     0.173 A 
ATOM     41  C   UNL A   1      39.432  33.315  36.129  1.00  0.00     0.173 A 
ATOM     42  F   UNL A   1      41.417  34.957  33.556  1.00  0.00    -0.203 F 
ATOM     43  C   UNL A   1      40.571  35.790  35.589  1.00  0.00     0.198 A 
ATOM     44  C   UNL A   1      39.255  34.370  37.013  1.00  0.00     0.198 A 
ATOM     45  F   UNL A   1      38.851  32.136  36.398  1.00  0.00    -0.203 F 
ATOM     46  F   UNL A   1      41.135  36.978  35.337  1.00  0.00    -0.200 F 
ATOM     47  C   UNL A   1      39.835  35.601  36.750  1.00  0.00     0.200 A 
ATOM     48  F   UNL A   1      38.510  34.198  38.115  1.00  0.00    -0.200 F 
ATOM     49  F   UNL A   1      39.680  36.613  37.616  1.00  0.00    -0.200 F 
ENDBRANCH  25  39
BRANCH  26  50
ATOM     50  C   UNL A   1      41.936  26.899  27.610  1.00  0.00     0.064 A 
ATOM     51  C   UNL A   1      42.941  27.338  26.732  1.00  0.00     0.173 A 
ATOM     52  C   UNL A   1      41.426  25.613  27.372  1.00  0.00     0.173 A 
ATOM     53  F   UNL A   1      43.508  28.542  26.899  1.00  0.00    -0.203 F 
ATOM     54  C   UNL A   1      43.400  26.540  25.680  1.00  0.00     0.198 A 
ATOM     55  C   UNL A   1      41.954  24.781  26.380  1.00  0.00     0.198 A 
ATOM     56  F   UNL A   1      40.454  25.124  28.160  1.00  0.00    -0.203 F 
ATOM     57  F   UNL A   1      44.327  27.016  24.835  1.00  0.00    -0.200 F 
ATOM     58  C   UNL A   1      42.924  25.252  25.519  1.00  0.00     0.200 A 
ATOM     59  F   UNL A   1      41.537  23.510  26.276  1.00  0.00    -0.200 F 
ATOM     60  F   UNL A   1      43.409  24.462  24.551  1.00  0.00    -0.200 F 
ENDBRANCH  26  50
BRANCH  38  61
ATOM     61  C   UNL A   1      44.775  28.091  33.815  1.00  0.00     0.064 A 
ATOM     62  C   UNL A   1      46.037  28.559  33.433  1.00  0.00     0.173 A 
ATOM     63  C   UNL A   1      44.704  27.041  34.744  1.00  0.00     0.173 A 
ATOM     64  F   UNL A   1      46.148  29.558  32.545  1.00  0.00    -0.203 F 
ATOM     65  C   UNL A   1      47.192  27.976  33.941  1.00  0.00     0.198 A 
ATOM     66  C   UNL A   1      45.859  26.483  35.273  1.00  0.00     0.198 A 
ATOM     67  F   UNL A   1      43.512  26.578  35.150  1.00  0.00    -0.203 F 
ATOM     68  F   UNL A   1      48.393  28.406  33.532  1.00  0.00    -0.200 F 
ATOM     69  C   UNL A   1      47.102  26.940  34.861  1.00  0.00     0.200 A 
ATOM     70  F   UNL A   1      45.770  25.502  36.182  1.00  0.00    -0.200 F 
ATOM     71  F   UNL A   1      48.216  26.381  35.351  1.00  0.00    -0.200 F 
ENDBRANCH  38  61
ENDBRANCH  12  13
ENDBRANCH   5   7
ENDBRANCH   4   5
ENDBRANCH   3   4
ENDBRANCH   2   3
ENDBRANCH   1   2
BRANCH   1  72
ATOM     72  C   UNL A   1      32.311  28.839  23.874  1.00  0.00     0.350 C 
ATOM     73  O   UNL A   1      33.408  29.188  23.440  1.00  0.00    -0.247 OA
BRANCH  72  74
ATOM     74  C   UNL A   1      31.520  27.618  23.326  1.00  0.00     0.209 C 
ATOM     75  C   UNL A   1      30.551  27.134  24.420  1.00  0.00     0.082 C 
ATOM     76  C   UNL A   1      32.432  26.447  22.988  1.00  0.00     0.082 C 
ATOM     77  C   UNL A   1      31.284  26.505  25.608  1.00  0.00     0.123 C 
ATOM     78  C   UNL A   1      33.195  25.844  24.163  1.00  0.00     0.123 C 
ATOM     79  N   UNL A   1      32.229  25.465  25.180  1.00  0.00    -0.356 N 
BRANCH  74  80
ATOM     80  O   UNL A   1      30.824  28.156  22.153  1.00  0.00    -0.475 OA
BRANCH  80  81
ATOM     81  C   UNL A   1      29.733  28.973  22.313  1.00  0.00     0.123 A 
ATOM     82  C   UNL A   1      29.682  30.280  21.842  1.00  0.00     0.047 A 
ATOM     83  C   UNL A   1      28.569  28.431  22.849  1.00  0.00     0.085 A 
ATOM     84  C   UNL A   1      28.543  31.075  22.046  1.00  0.00     0.007 A 
ATOM     85  C   UNL A   1      27.446  29.225  23.084  1.00  0.00     0.126 A 
ATOM     86  C   UNL A   1      27.430  30.556  22.703  1.00  0.00     0.039 A 
ATOM     87  F   UNL A   1      26.369  28.693  23.679  1.00  0.00    -0.207 F 
ENDBRANCH  80  81
ENDBRANCH  74  80
BRANCH  79  88
ATOM     88  C   UNL A   1      31.901  24.122  25.324  1.00  0.00     0.134 A 
ATOM     89  C   UNL A   1      32.573  23.138  24.603  1.00  0.00     0.093 A 
ATOM     90  N   UNL A   1      30.945  23.783  26.198  1.00  0.00    -0.219 NA
ATOM     91  C   UNL A   1      32.276  21.807  24.845  1.00  0.00     0.131 A 
ATOM     92  C   UNL A   1      30.687  22.475  26.332  1.00  0.00     0.226 A 
ATOM     93  N   UNL A   1      31.301  21.466  25.695  1.00  0.00    -0.219 NA
BRANCH  91  94
ATOM     94  N   UNL A   1      32.966  20.806  24.167  1.00  0.00    -0.368 N 
ATOM     95  H   UNL A   1      33.795  21.010  23.677  1.00  0.00     0.162 HD
BRANCH  94  96
ATOM     96  C   UNL A   1      32.432  19.441  24.197  1.00  0.00     0.142 C 
BRANCH  96  97
ATOM     97  C   UNL A   1      33.232  18.551  25.163  1.00  0.00     0.177 C 
BRANCH  97  98
ATOM     98  O   UNL A   1      32.757  18.681  26.503  1.00  0.00    -0.395 OA
ATOM     99  H   UNL A   1      31.802  18.849  26.494  1.00  0.00     0.210 HD
ENDBRANCH  97  98
ENDBRANCH  96  97
ENDBRANCH  94  96
ENDBRANCH  91  94
ENDBRANCH  79  88
ENDBRANCH  72  74
ENDBRANCH   1  72
TORSDOF 18
ENDMDL
