MODEL 1
REMARK VINA RESULT:     -11.6      0.000      0.000
REMARK SMILES [NH3+][C@H](C(=O)OCCOC(=O)c1ccc(-c2c3nc(c(-c4c(F)c(F)c(F)c(F)c4F)c4ccc([nH]4)c(-c4c(F)c(F)c(F)c(F)c4F)c4nc(c(-c5c(F)c(F)c(F)c(F)c5F)c5ccc2[nH]5)C=C4)C=C3)cc1)c1ccc(OCC(=O)N2CCCC2)cc1
REMARK SMILES IDX 6 1 5 2 3 3 4 4 2 5 1 6 74 10 75 11 88 12 76 13 87 14 77 15
REMARK SMILES IDX 78 16 79 17 80 18 81 19 82 20 83 21 86 22 84 23 85 24 7 25
REMARK SMILES IDX 8 26 9 27 10 28 11 29 12 30 73 31 13 32 72 33 14 34 15 35
REMARK SMILES IDX 16 36 66 37 17 38 71 39 65 40 67 41 18 42 70 43 64 44 63 45
REMARK SMILES IDX 19 47 51 48 31 49 50 50 32 51 35 52 49 53 68 54 33 55 34 56
REMARK SMILES IDX 48 58 69 59 36 60 20 61 21 62 29 63 22 64 23 65 27 66 30 67
REMARK SMILES IDX 24 68 25 69 28 70 26 71 52 72 53 73 61 74 54 75 55 76 59 77
REMARK SMILES IDX 62 78 56 79 57 80 60 81 58 82 37 83 38 84 46 85 39 86 40 87
REMARK SMILES IDX 44 88 47 89 41 90 42 91 45 92 43 93
REMARK H PARENT 1 7 1 8 1 9 67 46 35 57
REMARK Flexibility Score: inf
ROOT
ATOM      1  C   UNL A   1      44.560  20.392  25.079  1.00  0.00     0.274 C 
ENDROOT
BRANCH   1   2
ATOM      2  O   UNL A   1      43.135  20.205  25.027  1.00  0.00    -0.457 OA
BRANCH   2   3
ATOM      3  C   UNL A   1      42.630  19.190  25.790  1.00  0.00     0.369 C 
ATOM      4  O   UNL A   1      42.976  18.016  25.686  1.00  0.00    -0.245 OA
BRANCH   3   5
ATOM      5  C   UNL A   1      41.638  19.707  26.862  1.00  0.00     0.323 C 
BRANCH   5   6
ATOM      6  N   UNL A   1      42.235  20.704  27.775  1.00  0.00    -0.342 N 
ATOM      7  H   UNL A   1      42.899  20.243  28.396  1.00  0.00     0.345 HD
ATOM      8  H   UNL A   1      41.498  21.141  28.329  1.00  0.00     0.345 HD
ATOM      9  H   UNL A   1      42.718  21.419  27.231  1.00  0.00     0.345 HD
ENDBRANCH   5   6
BRANCH   5  10
ATOM     10  C   UNL A   1      40.341  20.213  26.267  1.00  0.00     0.021 A 
ATOM     11  C   UNL A   1      39.492  19.374  25.535  1.00  0.00     0.014 A 
ATOM     12  C   UNL A   1      39.971  21.558  26.436  1.00  0.00     0.014 A 
ATOM     13  C   UNL A   1      38.291  19.864  25.023  1.00  0.00     0.047 A 
ATOM     14  C   UNL A   1      38.767  22.047  25.920  1.00  0.00     0.047 A 
ATOM     15  C   UNL A   1      37.919  21.196  25.217  1.00  0.00     0.120 A 
BRANCH  15  16
ATOM     16  O   UNL A   1      36.712  21.519  24.673  1.00  0.00    -0.484 OA
BRANCH  16  17
ATOM     17  C   UNL A   1      35.622  21.756  25.540  1.00  0.00     0.329 C 
BRANCH  17  18
ATOM     18  C   UNL A   1      34.185  21.497  25.054  1.00  0.00     0.260 C 
ATOM     19  O   UNL A   1      33.401  22.443  24.923  1.00  0.00    -0.271 OA
ATOM     20  N   UNL A   1      33.840  20.222  24.662  1.00  0.00    -0.340 N 
ATOM     21  C   UNL A   1      34.588  18.995  24.868  1.00  0.00     0.119 C 
ATOM     22  C   UNL A   1      32.586  19.966  23.976  1.00  0.00     0.119 C 
ATOM     23  C   UNL A   1      34.004  18.032  23.847  1.00  0.00     0.023 C 
ATOM     24  C   UNL A   1      32.546  18.460  23.753  1.00  0.00     0.023 C 
ENDBRANCH  17  18
ENDBRANCH  16  17
ENDBRANCH  15  16
ENDBRANCH   5  10
ENDBRANCH   3   5
ENDBRANCH   2   3
ENDBRANCH   1   2
BRANCH   1  25
ATOM     25  C   UNL A   1      44.906  21.795  25.590  1.00  0.00     0.275 C 
BRANCH  25  26
ATOM     26  O   UNL A   1      43.732  22.614  25.767  1.00  0.00    -0.458 OA
BRANCH  26  27
ATOM     27  C   UNL A   1      43.848  23.890  25.332  1.00  0.00     0.338 C 
ATOM     28  O   UNL A   1      44.285  24.271  24.259  1.00  0.00    -0.246 OA
BRANCH  27  29
ATOM     29  C   UNL A   1      43.248  24.806  26.311  1.00  0.00     0.060 A 
ATOM     30  C   UNL A   1      43.663  26.139  26.321  1.00  0.00     0.016 A 
ATOM     31  C   UNL A   1      42.371  24.328  27.285  1.00  0.00     0.016 A 
ATOM     32  C   UNL A   1      43.240  26.994  27.333  1.00  0.00     0.010 A 
ATOM     33  C   UNL A   1      41.920  25.197  28.283  1.00  0.00     0.010 A 
ATOM     34  C   UNL A   1      42.368  26.530  28.325  1.00  0.00    -0.014 A 
BRANCH  34  35
ATOM     35  C   UNL A   1      41.955  27.435  29.422  1.00  0.00     0.031 A 
ATOM     36  C   UNL A   1      42.730  27.461  30.707  1.00  0.00     0.074 A 
ATOM     37  C   UNL A   1      40.895  28.248  29.255  1.00  0.00     0.049 A 
ATOM     38  N   UNL A   1      42.464  28.089  31.824  1.00  0.00    -0.248 NA
ATOM     39  C   UNL A   1      43.970  26.670  30.742  1.00  0.00     0.031 C 
ATOM     40  C   UNL A   1      40.096  28.351  28.034  1.00  0.00     0.029 A 
ATOM     41  N   UNL A   1      40.310  29.142  30.114  1.00  0.00    -0.354 N 
ATOM     42  C   UNL A   1      43.481  27.745  32.702  1.00  0.00     0.074 A 
ATOM     43  C   UNL A   1      44.368  26.847  31.994  1.00  0.00     0.031 C 
ATOM     44  C   UNL A   1      39.129  29.264  28.219  1.00  0.00     0.029 A 
ATOM     45  C   UNL A   1      39.206  29.765  29.588  1.00  0.00     0.049 A 
ATOM     46  H   UNL A   1      40.649  29.319  31.022  1.00  0.00     0.167 HD
ATOM     47  C   UNL A   1      43.655  28.146  33.985  1.00  0.00     0.037 A 
ATOM     48  C   UNL A   1      38.335  30.619  30.157  1.00  0.00     0.037 A 
ATOM     49  C   UNL A   1      42.787  29.064  34.674  1.00  0.00     0.049 A 
ATOM     50  C   UNL A   1      38.529  31.015  31.593  1.00  0.00     0.074 A 
ATOM     51  C   UNL A   1      42.884  29.540  35.970  1.00  0.00     0.029 A 
ATOM     52  N   UNL A   1      41.663  29.655  34.114  1.00  0.00    -0.354 N 
ATOM     53  N   UNL A   1      39.473  30.659  32.429  1.00  0.00    -0.248 NA
ATOM     54  C   UNL A   1      37.527  31.921  32.170  1.00  0.00     0.031 C 
ATOM     55  C   UNL A   1      41.800  30.394  36.205  1.00  0.00     0.029 A 
ATOM     56  C   UNL A   1      41.050  30.479  35.044  1.00  0.00     0.049 A 
ATOM     57  H   UNL A   1      41.349  29.511  33.193  1.00  0.00     0.167 HD
ATOM     58  C   UNL A   1      39.190  31.306  33.623  1.00  0.00     0.074 A 
ATOM     59  C   UNL A   1      37.993  32.091  33.400  1.00  0.00     0.031 C 
ATOM     60  C   UNL A   1      39.860  31.253  34.800  1.00  0.00     0.037 A 
BRANCH  47  61
ATOM     61  C   UNL A   1      44.813  27.565  34.739  1.00  0.00     0.064 A 
ATOM     62  C   UNL A   1      44.707  26.359  35.445  1.00  0.00     0.173 A 
ATOM     63  C   UNL A   1      46.060  28.211  34.724  1.00  0.00     0.173 A 
ATOM     64  F   UNL A   1      43.533  25.712  35.502  1.00  0.00    -0.203 F 
ATOM     65  C   UNL A   1      45.801  25.830  36.126  1.00  0.00     0.198 A 
ATOM     66  C   UNL A   1      47.157  27.667  35.386  1.00  0.00     0.198 A 
ATOM     67  F   UNL A   1      46.215  29.367  34.060  1.00  0.00    -0.203 F 
ATOM     68  F   UNL A   1      45.666  24.696  36.828  1.00  0.00    -0.200 F 
ATOM     69  C   UNL A   1      47.025  26.481  36.092  1.00  0.00     0.200 A 
ATOM     70  F   UNL A   1      48.341  28.293  35.344  1.00  0.00    -0.200 F 
ATOM     71  F   UNL A   1      48.078  25.968  36.744  1.00  0.00    -0.200 F 
ENDBRANCH  47  61
BRANCH  48  72
ATOM     72  C   UNL A   1      37.188  31.133  29.368  1.00  0.00     0.064 A 
ATOM     73  C   UNL A   1      36.097  30.308  29.061  1.00  0.00     0.173 A 
ATOM     74  C   UNL A   1      37.155  32.460  28.913  1.00  0.00     0.173 A 
ATOM     75  F   UNL A   1      36.095  29.027  29.454  1.00  0.00    -0.203 F 
ATOM     76  C   UNL A   1      35.018  30.790  28.321  1.00  0.00     0.198 A 
ATOM     77  C   UNL A   1      36.064  32.946  28.195  1.00  0.00     0.198 A 
ATOM     78  F   UNL A   1      38.175  33.287  29.180  1.00  0.00    -0.203 F 
ATOM     79  F   UNL A   1      34.004  29.972  28.011  1.00  0.00    -0.200 F 
ATOM     80  C   UNL A   1      35.001  32.109  27.896  1.00  0.00     0.200 A 
ATOM     81  F   UNL A   1      36.046  34.226  27.797  1.00  0.00    -0.200 F 
ATOM     82  F   UNL A   1      33.959  32.574  27.191  1.00  0.00    -0.200 F 
ENDBRANCH  48  72
BRANCH  60  83
ATOM     83  C   UNL A   1      39.324  32.083  35.927  1.00  0.00     0.064 A 
ATOM     84  C   UNL A   1      38.389  31.565  36.835  1.00  0.00     0.173 A 
ATOM     85  C   UNL A   1      39.774  33.397  36.119  1.00  0.00     0.173 A 
ATOM     86  F   UNL A   1      37.917  30.320  36.682  1.00  0.00    -0.203 F 
ATOM     87  C   UNL A   1      37.908  32.344  37.885  1.00  0.00     0.198 A 
ATOM     88  C   UNL A   1      39.309  34.164  37.182  1.00  0.00     0.198 A 
ATOM     89  F   UNL A   1      40.670  33.933  35.277  1.00  0.00    -0.203 F 
ATOM     90  F   UNL A   1      36.986  31.844  38.719  1.00  0.00    -0.200 F 
ATOM     91  C   UNL A   1      38.373  33.639  38.061  1.00  0.00     0.200 A 
ATOM     92  F   UNL A   1      39.764  35.412  37.356  1.00  0.00    -0.200 F 
ATOM     93  F   UNL A   1      37.911  34.385  39.074  1.00  0.00    -0.200 F 
ENDBRANCH  60  83
ENDBRANCH  34  35
ENDBRANCH  27  29
ENDBRANCH  26  27
ENDBRANCH  25  26
ENDBRANCH   1  25
TORSDOF 16
ENDMDL
MODEL 2
REMARK VINA RESULT:     -11.5      0.781      2.035
REMARK SMILES [NH3+][C@H](C(=O)OCCOC(=O)c1ccc(-c2c3nc(c(-c4c(F)c(F)c(F)c(F)c4F)c4ccc([nH]4)c(-c4c(F)c(F)c(F)c(F)c4F)c4nc(c(-c5c(F)c(F)c(F)c(F)c5F)c5ccc2[nH]5)C=C4)C=C3)cc1)c1ccc(OCC(=O)N2CCCC2)cc1
REMARK SMILES IDX 6 1 5 2 3 3 4 4 2 5 1 6 74 10 75 11 88 12 76 13 87 14 77 15
REMARK SMILES IDX 78 16 79 17 80 18 81 19 82 20 83 21 86 22 84 23 85 24 7 25
REMARK SMILES IDX 8 26 9 27 10 28 11 29 12 30 73 31 13 32 72 33 14 34 15 35
REMARK SMILES IDX 16 36 66 37 17 38 71 39 65 40 67 41 18 42 70 43 64 44 63 45
REMARK SMILES IDX 19 47 51 48 31 49 50 50 32 51 35 52 49 53 68 54 33 55 34 56
REMARK SMILES IDX 48 58 69 59 36 60 20 61 21 62 29 63 22 64 23 65 27 66 30 67
REMARK SMILES IDX 24 68 25 69 28 70 26 71 52 72 53 73 61 74 54 75 55 76 59 77
REMARK SMILES IDX 62 78 56 79 57 80 60 81 58 82 37 83 38 84 46 85 39 86 40 87
REMARK SMILES IDX 44 88 47 89 41 90 42 91 45 92 43 93
REMARK H PARENT 1 7 1 8 1 9 67 46 35 57
REMARK Flexibility Score: inf
ROOT
ATOM      1  C   UNL A   1      44.543  20.390  25.001  1.00  0.00     0.274 C 
ENDROOT
BRANCH   1   2
ATOM      2  O   UNL A   1      43.118  20.195  25.047  1.00  0.00    -0.457 OA
BRANCH   2   3
ATOM      3  C   UNL A   1      42.671  19.190  25.859  1.00  0.00     0.369 C 
ATOM      4  O   UNL A   1      43.031  18.020  25.764  1.00  0.00    -0.245 OA
BRANCH   3   5
ATOM      5  C   UNL A   1      41.727  19.718  26.968  1.00  0.00     0.323 C 
BRANCH   5   6
ATOM      6  N   UNL A   1      42.380  20.680  27.880  1.00  0.00    -0.342 N 
ATOM      7  H   UNL A   1      43.382  20.494  27.910  1.00  0.00     0.345 HD
ATOM      8  H   UNL A   1      41.988  20.580  28.816  1.00  0.00     0.345 HD
ATOM      9  H   UNL A   1      42.220  21.630  27.545  1.00  0.00     0.345 HD
ENDBRANCH   5   6
BRANCH   5  10
ATOM     10  C   UNL A   1      40.429  20.272  26.421  1.00  0.00     0.021 A 
ATOM     11  C   UNL A   1      40.031  21.592  26.667  1.00  0.00     0.014 A 
ATOM     12  C   UNL A   1      39.584  19.450  25.656  1.00  0.00     0.014 A 
ATOM     13  C   UNL A   1      38.842  22.080  26.126  1.00  0.00     0.047 A 
ATOM     14  C   UNL A   1      38.391  19.942  25.116  1.00  0.00     0.047 A 
ATOM     15  C   UNL A   1      38.022  21.263  25.345  1.00  0.00     0.120 A 
BRANCH  15  16
ATOM     16  O   UNL A   1      36.906  21.889  24.874  1.00  0.00    -0.484 OA
BRANCH  16  17
ATOM     17  C   UNL A   1      35.795  22.030  25.735  1.00  0.00     0.329 C 
BRANCH  17  18
ATOM     18  C   UNL A   1      34.407  21.544  25.282  1.00  0.00     0.260 C 
ATOM     19  O   UNL A   1      34.290  20.443  24.734  1.00  0.00    -0.271 OA
ATOM     20  N   UNL A   1      33.304  22.303  25.605  1.00  0.00    -0.340 N 
ATOM     21  C   UNL A   1      33.277  23.658  26.124  1.00  0.00     0.119 C 
ATOM     22  C   UNL A   1      31.961  21.784  25.417  1.00  0.00     0.119 C 
ATOM     23  C   UNL A   1      31.891  23.794  26.731  1.00  0.00     0.023 C 
ATOM     24  C   UNL A   1      31.028  22.912  25.838  1.00  0.00     0.023 C 
ENDBRANCH  17  18
ENDBRANCH  16  17
ENDBRANCH  15  16
ENDBRANCH   5  10
ENDBRANCH   3   5
ENDBRANCH   2   3
ENDBRANCH   1   2
BRANCH   1  25
ATOM     25  C   UNL A   1      44.934  21.701  25.691  1.00  0.00     0.275 C 
BRANCH  25  26
ATOM     26  O   UNL A   1      43.791  22.544  25.946  1.00  0.00    -0.458 OA
BRANCH  26  27
ATOM     27  C   UNL A   1      43.890  23.808  25.475  1.00  0.00     0.338 C 
ATOM     28  O   UNL A   1      44.319  24.164  24.390  1.00  0.00    -0.246 OA
BRANCH  27  29
ATOM     29  C   UNL A   1      43.281  24.745  26.429  1.00  0.00     0.060 A 
ATOM     30  C   UNL A   1      43.762  26.055  26.478  1.00  0.00     0.016 A 
ATOM     31  C   UNL A   1      42.328  24.303  27.347  1.00  0.00     0.016 A 
ATOM     32  C   UNL A   1      43.325  26.921  27.475  1.00  0.00     0.010 A 
ATOM     33  C   UNL A   1      41.865  25.184  28.328  1.00  0.00     0.010 A 
ATOM     34  C   UNL A   1      42.377  26.492  28.411  1.00  0.00    -0.014 A 
BRANCH  34  35
ATOM     35  C   UNL A   1      41.947  27.408  29.494  1.00  0.00     0.031 A 
ATOM     36  C   UNL A   1      42.718  27.462  30.781  1.00  0.00     0.074 A 
ATOM     37  C   UNL A   1      40.877  28.203  29.312  1.00  0.00     0.049 A 
ATOM     38  N   UNL A   1      42.439  28.102  31.888  1.00  0.00    -0.248 NA
ATOM     39  C   UNL A   1      43.968  26.688  30.831  1.00  0.00     0.031 C 
ATOM     40  C   UNL A   1      40.081  28.278  28.087  1.00  0.00     0.029 A 
ATOM     41  N   UNL A   1      40.277  29.102  30.157  1.00  0.00    -0.354 N 
ATOM     42  C   UNL A   1      43.458  27.784  32.774  1.00  0.00     0.074 A 
ATOM     43  C   UNL A   1      44.359  26.888  32.081  1.00  0.00     0.031 C 
ATOM     44  C   UNL A   1      39.101  29.180  28.256  1.00  0.00     0.029 A 
ATOM     45  C   UNL A   1      39.167  29.702  29.619  1.00  0.00     0.049 A 
ATOM     46  H   UNL A   1      40.611  29.296  31.063  1.00  0.00     0.167 HD
ATOM     47  C   UNL A   1      43.623  28.205  34.051  1.00  0.00     0.037 A 
ATOM     48  C   UNL A   1      38.283  30.553  30.172  1.00  0.00     0.037 A 
ATOM     49  C   UNL A   1      42.740  29.121  34.724  1.00  0.00     0.049 A 
ATOM     50  C   UNL A   1      38.466  30.971  31.604  1.00  0.00     0.074 A 
ATOM     51  C   UNL A   1      42.827  29.617  36.014  1.00  0.00     0.029 A 
ATOM     52  N   UNL A   1      41.611  29.689  34.153  1.00  0.00    -0.354 N 
ATOM     53  N   UNL A   1      39.413  30.640  32.447  1.00  0.00    -0.248 NA
ATOM     54  C   UNL A   1      37.450  31.872  32.164  1.00  0.00     0.031 C 
ATOM     55  C   UNL A   1      41.730  30.459  36.234  1.00  0.00     0.029 A 
ATOM     56  C   UNL A   1      40.983  30.518  35.070  1.00  0.00     0.049 A 
ATOM     57  H   UNL A   1      41.301  29.527  33.233  1.00  0.00     0.167 HD
ATOM     58  C   UNL A   1      39.117  31.299  33.631  1.00  0.00     0.074 A 
ATOM     59  C   UNL A   1      37.911  32.065  33.393  1.00  0.00     0.031 C 
ATOM     60  C   UNL A   1      39.783  31.272  34.810  1.00  0.00     0.037 A 
BRANCH  47  61
ATOM     61  C   UNL A   1      44.786  27.650  34.818  1.00  0.00     0.064 A 
ATOM     62  C   UNL A   1      46.025  28.305  34.859  1.00  0.00     0.173 A 
ATOM     63  C   UNL A   1      44.645  26.462  35.552  1.00  0.00     0.173 A 
ATOM     64  F   UNL A   1      46.214  29.435  34.162  1.00  0.00    -0.203 F 
ATOM     65  C   UNL A   1      47.087  27.779  35.590  1.00  0.00     0.198 A 
ATOM     66  C   UNL A   1      45.702  25.952  36.300  1.00  0.00     0.198 A 
ATOM     67  F   UNL A   1      43.478  25.799  35.548  1.00  0.00    -0.203 F 
ATOM     68  F   UNL A   1      48.275  28.401  35.584  1.00  0.00    -0.200 F 
ATOM     69  C   UNL A   1      46.924  26.608  36.315  1.00  0.00     0.200 A 
ATOM     70  F   UNL A   1      45.539  24.825  37.007  1.00  0.00    -0.200 F 
ATOM     71  F   UNL A   1      47.946  26.106  37.022  1.00  0.00    -0.200 F 
ENDBRANCH  47  61
BRANCH  48  72
ATOM     72  C   UNL A   1      37.131  31.040  29.373  1.00  0.00     0.064 A 
ATOM     73  C   UNL A   1      37.104  32.347  28.869  1.00  0.00     0.173 A 
ATOM     74  C   UNL A   1      36.039  30.206  29.090  1.00  0.00     0.173 A 
ATOM     75  F   UNL A   1      38.114  33.187  29.134  1.00  0.00    -0.203 F 
ATOM     76  C   UNL A   1      36.024  32.805  28.117  1.00  0.00     0.198 A 
ATOM     77  C   UNL A   1      34.971  30.657  28.317  1.00  0.00     0.198 A 
ATOM     78  F   UNL A   1      36.017  28.948  29.552  1.00  0.00    -0.203 F 
ATOM     79  F   UNL A   1      36.006  34.070  27.676  1.00  0.00    -0.200 F 
ATOM     80  C   UNL A   1      34.963  31.957  27.837  1.00  0.00     0.200 A 
ATOM     81  F   UNL A   1      33.954  29.831  28.039  1.00  0.00    -0.200 F 
ATOM     82  F   UNL A   1      33.927  32.396  27.107  1.00  0.00    -0.200 F 
ENDBRANCH  48  72
BRANCH  60  83
ATOM     83  C   UNL A   1      39.233  32.110  35.924  1.00  0.00     0.064 A 
ATOM     84  C   UNL A   1      38.270  31.607  36.811  1.00  0.00     0.173 A 
ATOM     85  C   UNL A   1      39.697  33.418  36.126  1.00  0.00     0.173 A 
ATOM     86  F   UNL A   1      37.784  30.368  36.647  1.00  0.00    -0.203 F 
ATOM     87  C   UNL A   1      37.775  32.393  37.848  1.00  0.00     0.198 A 
ATOM     88  C   UNL A   1      39.218  34.193  37.178  1.00  0.00     0.198 A 
ATOM     89  F   UNL A   1      40.620  33.941  35.305  1.00  0.00    -0.203 F 
ATOM     90  F   UNL A   1      36.827  31.907  38.660  1.00  0.00    -0.200 F 
ATOM     91  C   UNL A   1      38.254  33.682  38.034  1.00  0.00     0.200 A 
ATOM     92  F   UNL A   1      39.686  35.435  37.362  1.00  0.00    -0.200 F 
ATOM     93  F   UNL A   1      37.779  34.435  39.036  1.00  0.00    -0.200 F 
ENDBRANCH  60  83
ENDBRANCH  34  35
ENDBRANCH  27  29
ENDBRANCH  26  27
ENDBRANCH  25  26
ENDBRANCH   1  25
TORSDOF 16
ENDMDL
MODEL 3
REMARK VINA RESULT:     -11.4      3.357      8.733
REMARK SMILES [NH3+][C@H](C(=O)OCCOC(=O)c1ccc(-c2c3nc(c(-c4c(F)c(F)c(F)c(F)c4F)c4ccc([nH]4)c(-c4c(F)c(F)c(F)c(F)c4F)c4nc(c(-c5c(F)c(F)c(F)c(F)c5F)c5ccc2[nH]5)C=C4)C=C3)cc1)c1ccc(OCC(=O)N2CCCC2)cc1
REMARK SMILES IDX 6 1 5 2 3 3 4 4 2 5 1 6 74 10 75 11 88 12 76 13 87 14 77 15
REMARK SMILES IDX 78 16 79 17 80 18 81 19 82 20 83 21 86 22 84 23 85 24 7 25
REMARK SMILES IDX 8 26 9 27 10 28 11 29 12 30 73 31 13 32 72 33 14 34 15 35
REMARK SMILES IDX 16 36 66 37 17 38 71 39 65 40 67 41 18 42 70 43 64 44 63 45
REMARK SMILES IDX 19 47 51 48 31 49 50 50 32 51 35 52 49 53 68 54 33 55 34 56
REMARK SMILES IDX 48 58 69 59 36 60 20 61 21 62 29 63 22 64 23 65 27 66 30 67
REMARK SMILES IDX 24 68 25 69 28 70 26 71 52 72 53 73 61 74 54 75 55 76 59 77
REMARK SMILES IDX 62 78 56 79 57 80 60 81 58 82 37 83 38 84 46 85 39 86 40 87
REMARK SMILES IDX 44 88 47 89 41 90 42 91 45 92 43 93
REMARK H PARENT 1 7 1 8 1 9 67 46 35 57
REMARK Flexibility Score: inf
ROOT
ATOM      1  C   UNL A   1      31.129  29.970  25.026  1.00  0.00     0.274 C 
ENDROOT
BRANCH   1   2
ATOM      2  O   UNL A   1      32.218  29.070  24.754  1.00  0.00    -0.457 OA
BRANCH   2   3
ATOM      3  C   UNL A   1      31.936  27.735  24.836  1.00  0.00     0.369 C 
ATOM      4  O   UNL A   1      31.429  27.084  23.927  1.00  0.00    -0.245 OA
BRANCH   3   5
ATOM      5  C   UNL A   1      32.412  27.123  26.177  1.00  0.00     0.323 C 
BRANCH   5   6
ATOM      6  N   UNL A   1      31.402  27.214  27.251  1.00  0.00    -0.342 N 
ATOM      7  H   UNL A   1      30.967  28.136  27.233  1.00  0.00     0.345 HD
ATOM      8  H   UNL A   1      31.852  27.068  28.154  1.00  0.00     0.345 HD
ATOM      9  H   UNL A   1      30.688  26.499  27.109  1.00  0.00     0.345 HD
ENDBRANCH   5   6
BRANCH   5  10
ATOM     10  C   UNL A   1      32.930  25.708  26.026  1.00  0.00     0.021 A 
ATOM     11  C   UNL A   1      34.153  25.435  25.404  1.00  0.00     0.014 A 
ATOM     12  C   UNL A   1      32.168  24.630  26.508  1.00  0.00     0.014 A 
ATOM     13  C   UNL A   1      34.615  24.122  25.305  1.00  0.00     0.047 A 
ATOM     14  C   UNL A   1      32.632  23.314  26.406  1.00  0.00     0.047 A 
ATOM     15  C   UNL A   1      33.863  23.059  25.809  1.00  0.00     0.120 A 
BRANCH  15  16
ATOM     16  O   UNL A   1      34.454  21.841  25.654  1.00  0.00    -0.484 OA
BRANCH  16  17
ATOM     17  C   UNL A   1      33.990  20.990  24.626  1.00  0.00     0.329 C 
BRANCH  17  18
ATOM     18  C   UNL A   1      33.014  19.848  24.959  1.00  0.00     0.260 C 
ATOM     19  O   UNL A   1      31.868  20.110  25.338  1.00  0.00    -0.271 OA
ATOM     20  N   UNL A   1      33.407  18.550  24.713  1.00  0.00    -0.340 N 
ATOM     21  C   UNL A   1      34.739  18.069  24.394  1.00  0.00     0.119 C 
ATOM     22  C   UNL A   1      32.454  17.457  24.780  1.00  0.00     0.119 C 
ATOM     23  C   UNL A   1      34.499  16.706  23.768  1.00  0.00     0.023 C 
ATOM     24  C   UNL A   1      33.261  16.197  24.497  1.00  0.00     0.023 C 
ENDBRANCH  17  18
ENDBRANCH  16  17
ENDBRANCH  15  16
ENDBRANCH   5  10
ENDBRANCH   3   5
ENDBRANCH   2   3
ENDBRANCH   1   2
BRANCH   1  25
ATOM     25  C   UNL A   1      31.518  30.983  26.107  1.00  0.00     0.275 C 
BRANCH  25  26
ATOM     26  O   UNL A   1      32.848  30.753  26.616  1.00  0.00    -0.458 OA
BRANCH  26  27
ATOM     27  C   UNL A   1      33.410  31.802  27.258  1.00  0.00     0.338 C 
ATOM     28  O   UNL A   1      32.928  32.909  27.435  1.00  0.00    -0.246 OA
BRANCH  27  29
ATOM     29  C   UNL A   1      34.692  31.396  27.850  1.00  0.00     0.060 A 
ATOM     30  C   UNL A   1      34.824  30.089  28.324  1.00  0.00     0.016 A 
ATOM     31  C   UNL A   1      35.712  32.328  28.042  1.00  0.00     0.016 A 
ATOM     32  C   UNL A   1      35.960  29.716  29.034  1.00  0.00     0.010 A 
ATOM     33  C   UNL A   1      36.868  31.943  28.727  1.00  0.00     0.010 A 
ATOM     34  C   UNL A   1      36.990  30.641  29.246  1.00  0.00    -0.014 A 
BRANCH  34  35
ATOM     35  C   UNL A   1      38.179  30.248  30.039  1.00  0.00     0.031 A 
ATOM     36  C   UNL A   1      39.197  29.314  29.453  1.00  0.00     0.074 A 
ATOM     37  C   UNL A   1      38.351  30.748  31.277  1.00  0.00     0.049 A 
ATOM     38  N   UNL A   1      40.237  28.759  30.022  1.00  0.00    -0.248 NA
ATOM     39  C   UNL A   1      39.020  28.953  28.038  1.00  0.00     0.031 C 
ATOM     40  C   UNL A   1      37.458  31.704  31.932  1.00  0.00     0.029 A 
ATOM     41  N   UNL A   1      39.337  30.521  32.203  1.00  0.00    -0.354 N 
ATOM     42  C   UNL A   1      40.817  27.959  29.048  1.00  0.00     0.074 A 
ATOM     43  C   UNL A   1      40.012  28.094  27.853  1.00  0.00     0.031 C 
ATOM     44  C   UNL A   1      37.942  31.988  33.152  1.00  0.00     0.029 A 
ATOM     45  C   UNL A   1      39.143  31.192  33.384  1.00  0.00     0.049 A 
ATOM     46  H   UNL A   1      40.109  29.933  32.036  1.00  0.00     0.167 HD
ATOM     47  C   UNL A   1      41.924  27.184  29.147  1.00  0.00     0.037 A 
ATOM     48  C   UNL A   1      39.839  31.146  34.535  1.00  0.00     0.037 A 
ATOM     49  C   UNL A   1      42.738  27.079  30.330  1.00  0.00     0.049 A 
ATOM     50  C   UNL A   1      41.038  30.246  34.631  1.00  0.00     0.074 A 
ATOM     51  C   UNL A   1      43.885  26.329  30.526  1.00  0.00     0.029 A 
ATOM     52  N   UNL A   1      42.496  27.756  31.515  1.00  0.00    -0.354 N 
ATOM     53  N   UNL A   1      41.562  29.467  33.717  1.00  0.00    -0.248 NA
ATOM     54  C   UNL A   1      41.735  30.210  35.923  1.00  0.00     0.031 C 
ATOM     55  C   UNL A   1      44.316  26.527  31.843  1.00  0.00     0.029 A 
ATOM     56  C   UNL A   1      43.462  27.429  32.453  1.00  0.00     0.049 A 
ATOM     57  H   UNL A   1      41.747  28.377  31.668  1.00  0.00     0.167 HD
ATOM     58  C   UNL A   1      42.655  28.858  34.316  1.00  0.00     0.074 A 
ATOM     59  C   UNL A   1      42.731  29.371  35.668  1.00  0.00     0.031 C 
ATOM     60  C   UNL A   1      43.519  27.954  33.794  1.00  0.00     0.037 A 
BRANCH  47  61
ATOM     61  C   UNL A   1      42.300  26.360  27.952  1.00  0.00     0.064 A 
ATOM     62  C   UNL A   1      41.724  25.106  27.707  1.00  0.00     0.173 A 
ATOM     63  C   UNL A   1      43.228  26.852  27.020  1.00  0.00     0.173 A 
ATOM     64  F   UNL A   1      40.843  24.586  28.575  1.00  0.00    -0.203 F 
ATOM     65  C   UNL A   1      42.077  24.365  26.581  1.00  0.00     0.198 A 
ATOM     66  C   UNL A   1      43.561  26.118  25.885  1.00  0.00     0.198 A 
ATOM     67  F   UNL A   1      43.806  28.048  27.208  1.00  0.00    -0.203 F 
ATOM     68  F   UNL A   1      41.543  23.151  26.386  1.00  0.00    -0.200 F 
ATOM     69  C   UNL A   1      42.990  24.874  25.669  1.00  0.00     0.200 A 
ATOM     70  F   UNL A   1      44.437  26.616  25.001  1.00  0.00    -0.200 F 
ATOM     71  F   UNL A   1      43.325  24.161  24.585  1.00  0.00    -0.200 F 
ENDBRANCH  47  61
BRANCH  48  72
ATOM     72  C   UNL A   1      39.396  31.959  35.695  1.00  0.00     0.064 A 
ATOM     73  C   UNL A   1      39.920  33.239  35.921  1.00  0.00     0.173 A 
ATOM     74  C   UNL A   1      38.435  31.476  36.596  1.00  0.00     0.173 A 
ATOM     75  F   UNL A   1      40.859  33.732  35.101  1.00  0.00    -0.203 F 
ATOM     76  C   UNL A   1      39.504  34.004  37.009  1.00  0.00     0.198 A 
ATOM     77  C   UNL A   1      38.001  32.252  37.669  1.00  0.00     0.198 A 
ATOM     78  F   UNL A   1      37.905  30.257  36.423  1.00  0.00    -0.203 F 
ATOM     79  F   UNL A   1      40.045  35.210  37.223  1.00  0.00    -0.200 F 
ATOM     80  C   UNL A   1      38.540  33.512  37.877  1.00  0.00     0.200 A 
ATOM     81  F   UNL A   1      37.061  31.778  38.497  1.00  0.00    -0.200 F 
ATOM     82  F   UNL A   1      38.135  34.251  38.919  1.00  0.00    -0.200 F 
ENDBRANCH  48  72
BRANCH  60  83
ATOM     83  C   UNL A   1      44.629  27.480  34.681  1.00  0.00     0.064 A 
ATOM     84  C   UNL A   1      45.845  28.175  34.765  1.00  0.00     0.173 A 
ATOM     85  C   UNL A   1      44.464  26.339  35.480  1.00  0.00     0.173 A 
ATOM     86  F   UNL A   1      46.055  29.261  34.007  1.00  0.00    -0.203 F 
ATOM     87  C   UNL A   1      46.864  27.730  35.603  1.00  0.00     0.198 A 
ATOM     88  C   UNL A   1      45.476  25.911  36.334  1.00  0.00     0.198 A 
ATOM     89  F   UNL A   1      43.317  25.645  35.436  1.00  0.00    -0.203 F 
ATOM     90  F   UNL A   1      48.033  28.385  35.639  1.00  0.00    -0.200 F 
ATOM     91  C   UNL A   1      46.676  26.603  36.390  1.00  0.00     0.200 A 
ATOM     92  F   UNL A   1      45.292  24.827  37.100  1.00  0.00    -0.200 F 
ATOM     93  F   UNL A   1      47.658  26.179  37.198  1.00  0.00    -0.200 F 
ENDBRANCH  60  83
ENDBRANCH  34  35
ENDBRANCH  27  29
ENDBRANCH  26  27
ENDBRANCH  25  26
ENDBRANCH   1  25
TORSDOF 16
ENDMDL
