MODEL 1
REMARK VINA RESULT:     -12.1      0.000      0.000
REMARK SMILES [NH3+][C@H]1C=C[C@@H](C(=O)NC2(CC(=O)OCCOC(=O)c3ccc(-c4c5nc(c(-c6c(F)c(F)c(F)c(F)c6F)c6ccc([nH]6)c(-c6c(F)c(F)c(F)c(F)c6F)c6nc(c(-c7c(F)c(F)c(F)c(F)c7F)c7ccc4[nH]7)C=C6)C=C5)cc3)CCCCC2)C1
REMARK SMILES IDX 14 1 13 2 11 3 12 4 10 5 9 6 82 7 86 8 83 9 85 10 84 11 8 12
REMARK SMILES IDX 6 13 7 14 5 16 2 17 3 18 87 19 4 20 1 21 15 25 16 26 17 27
REMARK SMILES IDX 18 28 19 29 20 30 81 31 21 32 80 33 22 34 23 35 24 36 74 37
REMARK SMILES IDX 25 38 79 39 73 40 75 41 26 42 78 43 72 44 71 45 27 47 59 48
REMARK SMILES IDX 39 49 58 50 40 51 43 52 57 53 76 54 41 55 42 56 56 58 77 59
REMARK SMILES IDX 44 60 28 61 29 62 37 63 30 64 31 65 35 66 38 67 32 68 33 69
REMARK SMILES IDX 36 70 34 71 60 72 61 73 69 74 62 75 63 76 67 77 70 78 64 79
REMARK SMILES IDX 65 80 68 81 66 82 45 83 46 84 54 85 47 86 48 87 52 88 55 89
REMARK SMILES IDX 49 90 50 91 53 92 51 93
REMARK H PARENT 8 15 1 22 1 23 1 24 75 46 43 57
REMARK Flexibility Score: inf
ROOT
ATOM      1  C   UNL A   1      36.536  22.571  23.615  1.00  0.00     0.274 C 
ENDROOT
BRANCH   1   2
ATOM      2  O   UNL A   1      35.198  22.289  23.149  1.00  0.00    -0.462 OA
BRANCH   2   3
ATOM      3  C   UNL A   1      34.304  23.285  23.323  1.00  0.00     0.308 C 
ATOM      4  O   UNL A   1      34.226  24.274  22.597  1.00  0.00    -0.252 OA
BRANCH   3   5
ATOM      5  C   UNL A   1      33.401  23.159  24.528  1.00  0.00     0.151 C 
BRANCH   5   6
ATOM      6  C   UNL A   1      32.941  21.797  25.147  1.00  0.00     0.051 C 
ATOM      7  C   UNL A   1      31.643  22.146  25.935  1.00  0.00     0.029 C 
ATOM      8  C   UNL A   1      33.991  21.253  26.128  1.00  0.00     0.029 C 
ATOM      9  C   UNL A   1      31.865  23.027  27.167  1.00  0.00     0.002 C 
ATOM     10  C   UNL A   1      34.242  22.157  27.335  1.00  0.00     0.002 C 
ATOM     11  C   UNL A   1      32.946  22.461  28.081  1.00  0.00     0.000 C 
BRANCH   6  12
ATOM     12  N   UNL A   1      32.635  20.816  24.059  1.00  0.00    -0.350 N 
ATOM     13  C   UNL A   1      32.731  19.488  23.793  1.00  0.00     0.227 C 
ATOM     14  O   UNL A   1      32.162  19.122  22.751  1.00  0.00    -0.274 OA
ATOM     15  H   UNL A   1      32.235  21.283  23.290  1.00  0.00     0.164 HD
BRANCH  13  16
ATOM     16  C   UNL A   1      33.469  18.399  24.584  1.00  0.00     0.107 C 
ATOM     17  C   UNL A   1      33.142  16.137  25.485  1.00  0.00     0.205 C 
ATOM     18  C   UNL A   1      34.062  16.152  24.310  1.00  0.00     0.033 C 
ATOM     19  C   UNL A   1      32.605  17.582  25.550  1.00  0.00     0.087 C 
ATOM     20  C   UNL A   1      34.259  17.386  23.835  1.00  0.00    -0.012 C 
BRANCH  17  21
ATOM     21  N   UNL A   1      32.106  15.126  25.369  1.00  0.00    -0.352 N 
ATOM     22  H   UNL A   1      31.407  15.432  24.691  1.00  0.00     0.345 HD
ATOM     23  H   UNL A   1      31.661  14.989  26.276  1.00  0.00     0.345 HD
ATOM     24  H   UNL A   1      32.520  14.248  25.057  1.00  0.00     0.345 HD
ENDBRANCH  17  21
ENDBRANCH  13  16
ENDBRANCH   6  12
ENDBRANCH   5   6
ENDBRANCH   3   5
ENDBRANCH   2   3
ENDBRANCH   1   2
BRANCH   1  25
ATOM     25  C   UNL A   1      37.151  21.430  24.441  1.00  0.00     0.275 C 
BRANCH  25  26
ATOM     26  O   UNL A   1      37.502  21.814  25.784  1.00  0.00    -0.458 OA
BRANCH  26  27
ATOM     27  C   UNL A   1      38.794  21.596  26.094  1.00  0.00     0.338 C 
ATOM     28  O   UNL A   1      39.446  20.591  25.810  1.00  0.00    -0.246 OA
BRANCH  27  29
ATOM     29  C   UNL A   1      39.442  22.776  26.666  1.00  0.00     0.060 A 
ATOM     30  C   UNL A   1      39.053  24.021  26.167  1.00  0.00     0.016 A 
ATOM     31  C   UNL A   1      40.511  22.671  27.553  1.00  0.00     0.016 A 
ATOM     32  C   UNL A   1      39.731  25.171  26.537  1.00  0.00     0.010 A 
ATOM     33  C   UNL A   1      41.192  23.833  27.937  1.00  0.00     0.010 A 
ATOM     34  C   UNL A   1      40.812  25.086  27.421  1.00  0.00    -0.014 A 
BRANCH  34  35
ATOM     35  C   UNL A   1      41.559  26.315  27.759  1.00  0.00     0.031 A 
ATOM     36  C   UNL A   1      40.920  27.368  28.613  1.00  0.00     0.074 A 
ATOM     37  C   UNL A   1      42.832  26.453  27.346  1.00  0.00     0.049 A 
ATOM     38  N   UNL A   1      41.361  28.561  28.921  1.00  0.00    -0.248 NA
ATOM     39  C   UNL A   1      39.615  27.034  29.202  1.00  0.00     0.031 C 
ATOM     40  C   UNL A   1      43.583  25.454  26.585  1.00  0.00     0.029 A 
ATOM     41  N   UNL A   1      43.718  27.485  27.514  1.00  0.00    -0.354 N 
ATOM     42  C   UNL A   1      40.373  29.134  29.708  1.00  0.00     0.074 A 
ATOM     43  C   UNL A   1      39.313  28.156  29.840  1.00  0.00     0.031 C 
ATOM     44  C   UNL A   1      44.822  25.919  26.358  1.00  0.00     0.029 A 
ATOM     45  C   UNL A   1      44.928  27.268  26.905  1.00  0.00     0.049 A 
ATOM     46  H   UNL A   1      43.507  28.301  28.022  1.00  0.00     0.167 HD
ATOM     47  C   UNL A   1      40.354  30.370  30.260  1.00  0.00     0.037 A 
ATOM     48  C   UNL A   1      45.989  28.084  26.773  1.00  0.00     0.037 A 
ATOM     49  C   UNL A   1      41.424  31.326  30.144  1.00  0.00     0.049 A 
ATOM     50  C   UNL A   1      45.924  29.470  27.352  1.00  0.00     0.074 A 
ATOM     51  C   UNL A   1      41.493  32.614  30.646  1.00  0.00     0.029 A 
ATOM     52  N   UNL A   1      42.622  31.087  29.485  1.00  0.00    -0.354 N 
ATOM     53  N   UNL A   1      44.958  30.034  28.033  1.00  0.00    -0.248 NA
ATOM     54  C   UNL A   1      47.088  30.337  27.125  1.00  0.00     0.031 C 
ATOM     55  C   UNL A   1      42.726  33.163  30.270  1.00  0.00     0.029 A 
ATOM     56  C   UNL A   1      43.434  32.206  29.560  1.00  0.00     0.049 A 
ATOM     57  H   UNL A   1      42.858  30.247  29.030  1.00  0.00     0.167 HD
ATOM     58  C   UNL A   1      45.396  31.317  28.323  1.00  0.00     0.074 A 
ATOM     59  C   UNL A   1      46.724  31.444  27.757  1.00  0.00     0.031 C 
ATOM     60  C   UNL A   1      44.752  32.306  28.991  1.00  0.00     0.037 A 
BRANCH  47  61
ATOM     61  C   UNL A   1      39.117  30.774  31.001  1.00  0.00     0.064 A 
ATOM     62  C   UNL A   1      38.019  31.350  30.346  1.00  0.00     0.173 A 
ATOM     63  C   UNL A   1      39.022  30.559  32.384  1.00  0.00     0.173 A 
ATOM     64  F   UNL A   1      38.070  31.590  29.027  1.00  0.00    -0.203 F 
ATOM     65  C   UNL A   1      36.877  31.713  31.054  1.00  0.00     0.198 A 
ATOM     66  C   UNL A   1      37.870  30.904  33.085  1.00  0.00     0.198 A 
ATOM     67  F   UNL A   1      40.046  30.009  33.054  1.00  0.00    -0.203 F 
ATOM     68  F   UNL A   1      35.850  32.293  30.416  1.00  0.00    -0.200 F 
ATOM     69  C   UNL A   1      36.800  31.485  32.421  1.00  0.00     0.200 A 
ATOM     70  F   UNL A   1      37.797  30.676  34.404  1.00  0.00    -0.200 F 
ATOM     71  F   UNL A   1      35.697  31.830  33.099  1.00  0.00    -0.200 F 
ENDBRANCH  47  61
BRANCH  48  72
ATOM     72  C   UNL A   1      47.185  27.618  26.027  1.00  0.00     0.064 A 
ATOM     73  C   UNL A   1      47.246  27.719  24.631  1.00  0.00     0.173 A 
ATOM     74  C   UNL A   1      48.293  27.080  26.696  1.00  0.00     0.173 A 
ATOM     75  F   UNL A   1      46.200  28.204  23.948  1.00  0.00    -0.203 F 
ATOM     76  C   UNL A   1      48.376  27.298  23.932  1.00  0.00     0.198 A 
ATOM     77  C   UNL A   1      49.429  26.681  25.998  1.00  0.00     0.198 A 
ATOM     78  F   UNL A   1      48.279  26.962  28.032  1.00  0.00    -0.203 F 
ATOM     79  F   UNL A   1      48.401  27.378  22.595  1.00  0.00    -0.200 F 
ATOM     80  C   UNL A   1      49.469  26.786  24.617  1.00  0.00     0.200 A 
ATOM     81  F   UNL A   1      50.487  26.197  26.665  1.00  0.00    -0.200 F 
ATOM     82  F   UNL A   1      50.557  26.389  23.943  1.00  0.00    -0.200 F 
ENDBRANCH  48  72
BRANCH  60  83
ATOM     83  C   UNL A   1      45.489  33.598  29.162  1.00  0.00     0.064 A 
ATOM     84  C   UNL A   1      45.380  34.627  28.216  1.00  0.00     0.173 A 
ATOM     85  C   UNL A   1      46.281  33.821  30.298  1.00  0.00     0.173 A 
ATOM     86  F   UNL A   1      44.648  34.450  27.107  1.00  0.00    -0.203 F 
ATOM     87  C   UNL A   1      46.056  35.832  28.394  1.00  0.00     0.198 A 
ATOM     88  C   UNL A   1      46.939  35.033  30.481  1.00  0.00     0.198 A 
ATOM     89  F   UNL A   1      46.410  32.864  31.229  1.00  0.00    -0.203 F 
ATOM     90  F   UNL A   1      45.968  36.791  27.463  1.00  0.00    -0.200 F 
ATOM     91  C   UNL A   1      46.829  36.035  29.528  1.00  0.00     0.200 A 
ATOM     92  F   UNL A   1      47.681  35.231  31.579  1.00  0.00    -0.200 F 
ATOM     93  F   UNL A   1      47.477  37.196  29.699  1.00  0.00    -0.200 F 
ENDBRANCH  60  83
ENDBRANCH  34  35
ENDBRANCH  27  29
ENDBRANCH  26  27
ENDBRANCH  25  26
ENDBRANCH   1  25
TORSDOF 15
ENDMDL
MODEL 2
REMARK VINA RESULT:     -12.1      4.783      9.929
REMARK SMILES [NH3+][C@H]1C=C[C@@H](C(=O)NC2(CC(=O)OCCOC(=O)c3ccc(-c4c5nc(c(-c6c(F)c(F)c(F)c(F)c6F)c6ccc([nH]6)c(-c6c(F)c(F)c(F)c(F)c6F)c6nc(c(-c7c(F)c(F)c(F)c(F)c7F)c7ccc4[nH]7)C=C6)C=C5)cc3)CCCCC2)C1
REMARK SMILES IDX 14 1 13 2 11 3 12 4 10 5 9 6 82 7 86 8 83 9 85 10 84 11 8 12
REMARK SMILES IDX 6 13 7 14 5 16 2 17 3 18 87 19 4 20 1 21 15 25 16 26 17 27
REMARK SMILES IDX 18 28 19 29 20 30 81 31 21 32 80 33 22 34 23 35 24 36 74 37
REMARK SMILES IDX 25 38 79 39 73 40 75 41 26 42 78 43 72 44 71 45 27 47 59 48
REMARK SMILES IDX 39 49 58 50 40 51 43 52 57 53 76 54 41 55 42 56 56 58 77 59
REMARK SMILES IDX 44 60 28 61 29 62 37 63 30 64 31 65 35 66 38 67 32 68 33 69
REMARK SMILES IDX 36 70 34 71 60 72 61 73 69 74 62 75 63 76 67 77 70 78 64 79
REMARK SMILES IDX 65 80 68 81 66 82 45 83 46 84 54 85 47 86 48 87 52 88 55 89
REMARK SMILES IDX 49 90 50 91 53 92 51 93
REMARK H PARENT 8 15 1 22 1 23 1 24 75 46 43 57
REMARK Flexibility Score: inf
ROOT
ATOM      1  C   UNL A   1      31.804  28.659  27.272  1.00  0.00     0.274 C 
ENDROOT
BRANCH   1   2
ATOM      2  O   UNL A   1      32.831  27.890  26.608  1.00  0.00    -0.462 OA
BRANCH   2   3
ATOM      3  C   UNL A   1      32.547  26.583  26.426  1.00  0.00     0.308 C 
ATOM      4  O   UNL A   1      31.518  26.041  26.824  1.00  0.00    -0.252 OA
BRANCH   3   5
ATOM      5  C   UNL A   1      33.613  25.767  25.732  1.00  0.00     0.151 C 
BRANCH   5   6
ATOM      6  C   UNL A   1      33.354  24.397  25.022  1.00  0.00     0.051 C 
ATOM      7  C   UNL A   1      33.400  23.348  26.172  1.00  0.00     0.029 C 
ATOM      8  C   UNL A   1      34.465  24.080  24.009  1.00  0.00     0.029 C 
ATOM      9  C   UNL A   1      34.783  23.153  26.800  1.00  0.00     0.002 C 
ATOM     10  C   UNL A   1      35.852  23.930  24.635  1.00  0.00     0.002 C 
ATOM     11  C   UNL A   1      35.851  22.884  25.746  1.00  0.00     0.000 C 
BRANCH   6  12
ATOM     12  N   UNL A   1      32.001  24.399  24.382  1.00  0.00    -0.350 N 
ATOM     13  C   UNL A   1      31.320  25.017  23.383  1.00  0.00     0.227 C 
ATOM     14  O   UNL A   1      30.206  24.528  23.130  1.00  0.00    -0.274 OA
ATOM     15  H   UNL A   1      31.419  23.741  24.826  1.00  0.00     0.164 HD
BRANCH  13  16
ATOM     16  C   UNL A   1      31.726  26.246  22.558  1.00  0.00     0.107 C 
ATOM     17  C   UNL A   1      32.733  28.473  22.810  1.00  0.00     0.205 C 
ATOM     18  C   UNL A   1      33.655  27.505  22.146  1.00  0.00     0.033 C 
ATOM     19  C   UNL A   1      31.539  27.600  23.249  1.00  0.00     0.087 C 
ATOM     20  C   UNL A   1      33.098  26.300  21.986  1.00  0.00    -0.012 C 
BRANCH  17  21
ATOM     21  N   UNL A   1      33.370  29.193  23.899  1.00  0.00    -0.352 N 
ATOM     22  H   UNL A   1      33.123  28.755  24.786  1.00  0.00     0.345 HD
ATOM     23  H   UNL A   1      33.051  30.162  23.898  1.00  0.00     0.345 HD
ATOM     24  H   UNL A   1      34.382  29.168  23.777  1.00  0.00     0.345 HD
ENDBRANCH  17  21
ENDBRANCH  13  16
ENDBRANCH   6  12
ENDBRANCH   5   6
ENDBRANCH   3   5
ENDBRANCH   2   3
ENDBRANCH   1   2
BRANCH   1  25
ATOM     25  C   UNL A   1      31.776  30.138  26.854  1.00  0.00     0.275 C 
BRANCH  25  26
ATOM     26  O   UNL A   1      33.058  30.641  26.430  1.00  0.00    -0.458 OA
BRANCH  26  27
ATOM     27  C   UNL A   1      33.543  31.625  27.213  1.00  0.00     0.338 C 
ATOM     28  O   UNL A   1      32.938  32.640  27.555  1.00  0.00    -0.246 OA
BRANCH  27  29
ATOM     29  C   UNL A   1      34.842  31.292  27.794  1.00  0.00     0.060 A 
ATOM     30  C   UNL A   1      35.021  29.982  28.247  1.00  0.00     0.016 A 
ATOM     31  C   UNL A   1      35.811  32.263  28.037  1.00  0.00     0.016 A 
ATOM     32  C   UNL A   1      36.159  29.631  28.954  1.00  0.00     0.010 A 
ATOM     33  C   UNL A   1      36.967  31.909  28.744  1.00  0.00     0.010 A 
ATOM     34  C   UNL A   1      37.140  30.594  29.215  1.00  0.00    -0.014 A 
BRANCH  34  35
ATOM     35  C   UNL A   1      38.319  30.216  30.021  1.00  0.00     0.031 A 
ATOM     36  C   UNL A   1      39.361  29.307  29.442  1.00  0.00     0.074 A 
ATOM     37  C   UNL A   1      38.478  30.738  31.250  1.00  0.00     0.049 A 
ATOM     38  N   UNL A   1      40.400  28.766  30.023  1.00  0.00    -0.248 NA
ATOM     39  C   UNL A   1      39.217  28.965  28.019  1.00  0.00     0.031 C 
ATOM     40  C   UNL A   1      37.574  31.700  31.879  1.00  0.00     0.029 A 
ATOM     41  N   UNL A   1      39.461  30.538  32.184  1.00  0.00    -0.354 N 
ATOM     42  C   UNL A   1      41.014  27.990  29.050  1.00  0.00     0.074 A 
ATOM     43  C   UNL A   1      40.237  28.139  27.836  1.00  0.00     0.031 C 
ATOM     44  C   UNL A   1      38.048  32.014  33.096  1.00  0.00     0.029 A 
ATOM     45  C   UNL A   1      39.253  31.231  33.350  1.00  0.00     0.049 A 
ATOM     46  H   UNL A   1      40.240  29.956  32.033  1.00  0.00     0.167 HD
ATOM     47  C   UNL A   1      42.120  27.220  29.168  1.00  0.00     0.037 A 
ATOM     48  C   UNL A   1      39.940  31.205  34.507  1.00  0.00     0.037 A 
ATOM     49  C   UNL A   1      42.900  27.100  30.372  1.00  0.00     0.049 A 
ATOM     50  C   UNL A   1      41.135  30.303  34.629  1.00  0.00     0.074 A 
ATOM     51  C   UNL A   1      44.024  26.327  30.602  1.00  0.00     0.029 A 
ATOM     52  N   UNL A   1      42.637  27.787  31.549  1.00  0.00    -0.354 N 
ATOM     53  N   UNL A   1      41.669  29.516  33.728  1.00  0.00    -0.248 NA
ATOM     54  C   UNL A   1      41.810  30.272  35.933  1.00  0.00     0.031 C 
ATOM     55  C   UNL A   1      44.429  26.529  31.928  1.00  0.00     0.029 A 
ATOM     56  C   UNL A   1      43.573  27.449  32.512  1.00  0.00     0.049 A 
ATOM     57  H   UNL A   1      41.894  28.418  31.680  1.00  0.00     0.167 HD
ATOM     58  C   UNL A   1      42.744  28.900  34.350  1.00  0.00     0.074 A 
ATOM     59  C   UNL A   1      42.798  29.417  35.703  1.00  0.00     0.031 C 
ATOM     60  C   UNL A   1      43.606  27.981  33.850  1.00  0.00     0.037 A 
BRANCH  47  61
ATOM     61  C   UNL A   1      42.525  26.411  27.975  1.00  0.00     0.064 A 
ATOM     62  C   UNL A   1      42.018  25.124  27.749  1.00  0.00     0.173 A 
ATOM     63  C   UNL A   1      43.418  26.944  27.033  1.00  0.00     0.173 A 
ATOM     64  F   UNL A   1      41.174  24.567  28.630  1.00  0.00    -0.203 F 
ATOM     65  C   UNL A   1      42.404  24.392  26.629  1.00  0.00     0.198 A 
ATOM     66  C   UNL A   1      43.786  26.217  25.904  1.00  0.00     0.198 A 
ATOM     67  F   UNL A   1      43.929  28.172  27.205  1.00  0.00    -0.203 F 
ATOM     68  F   UNL A   1      41.934  23.149  26.446  1.00  0.00    -0.200 F 
ATOM     69  C   UNL A   1      43.282  24.940  25.705  1.00  0.00     0.200 A 
ATOM     70  F   UNL A   1      44.630  26.751  25.010  1.00  0.00    -0.200 F 
ATOM     71  F   UNL A   1      43.649  24.235  24.626  1.00  0.00    -0.200 F 
ENDBRANCH  47  61
BRANCH  48  72
ATOM     72  C   UNL A   1      39.482  32.034  35.650  1.00  0.00     0.064 A 
ATOM     73  C   UNL A   1      38.522  31.554  36.549  1.00  0.00     0.173 A 
ATOM     74  C   UNL A   1      40.010  33.314  35.874  1.00  0.00     0.173 A 
ATOM     75  F   UNL A   1      37.972  30.347  36.359  1.00  0.00    -0.203 F 
ATOM     76  C   UNL A   1      38.105  32.326  37.631  1.00  0.00     0.198 A 
ATOM     77  C   UNL A   1      39.610  34.075  36.969  1.00  0.00     0.198 A 
ATOM     78  F   UNL A   1      40.931  33.817  35.038  1.00  0.00    -0.203 F 
ATOM     79  F   UNL A   1      37.164  31.857  38.462  1.00  0.00    -0.200 F 
ATOM     80  C   UNL A   1      38.655  33.582  37.844  1.00  0.00     0.200 A 
ATOM     81  F   UNL A   1      40.152  35.283  37.177  1.00  0.00    -0.200 F 
ATOM     82  F   UNL A   1      38.260  34.320  38.892  1.00  0.00    -0.200 F 
ENDBRANCH  48  72
BRANCH  60  83
ATOM     83  C   UNL A   1      44.688  27.498  34.764  1.00  0.00     0.064 A 
ATOM     84  C   UNL A   1      45.913  28.173  34.860  1.00  0.00     0.173 A 
ATOM     85  C   UNL A   1      44.485  26.372  35.574  1.00  0.00     0.173 A 
ATOM     86  F   UNL A   1      46.156  29.244  34.091  1.00  0.00    -0.203 F 
ATOM     87  C   UNL A   1      46.907  27.726  35.727  1.00  0.00     0.198 A 
ATOM     88  C   UNL A   1      45.473  25.939  36.453  1.00  0.00     0.198 A 
ATOM     89  F   UNL A   1      43.328  25.697  35.515  1.00  0.00    -0.203 F 
ATOM     90  F   UNL A   1      48.083  28.364  35.782  1.00  0.00    -0.200 F 
ATOM     91  C   UNL A   1      46.684  26.613  36.527  1.00  0.00     0.200 A 
ATOM     92  F   UNL A   1      45.256  24.867  37.228  1.00  0.00    -0.200 F 
ATOM     93  F   UNL A   1      47.641  26.185  37.362  1.00  0.00    -0.200 F 
ENDBRANCH  60  83
ENDBRANCH  34  35
ENDBRANCH  27  29
ENDBRANCH  26  27
ENDBRANCH  25  26
ENDBRANCH   1  25
TORSDOF 15
ENDMDL
MODEL 3
REMARK VINA RESULT:     -12.0      5.046     10.183
REMARK SMILES [NH3+][C@H]1C=C[C@@H](C(=O)NC2(CC(=O)OCCOC(=O)c3ccc(-c4c5nc(c(-c6c(F)c(F)c(F)c(F)c6F)c6ccc([nH]6)c(-c6c(F)c(F)c(F)c(F)c6F)c6nc(c(-c7c(F)c(F)c(F)c(F)c7F)c7ccc4[nH]7)C=C6)C=C5)cc3)CCCCC2)C1
REMARK SMILES IDX 14 1 13 2 11 3 12 4 10 5 9 6 82 7 86 8 83 9 85 10 84 11 8 12
REMARK SMILES IDX 6 13 7 14 5 16 2 17 3 18 87 19 4 20 1 21 15 25 16 26 17 27
REMARK SMILES IDX 18 28 19 29 20 30 81 31 21 32 80 33 22 34 23 35 24 36 74 37
REMARK SMILES IDX 25 38 79 39 73 40 75 41 26 42 78 43 72 44 71 45 27 47 59 48
REMARK SMILES IDX 39 49 58 50 40 51 43 52 57 53 76 54 41 55 42 56 56 58 77 59
REMARK SMILES IDX 44 60 28 61 29 62 37 63 30 64 31 65 35 66 38 67 32 68 33 69
REMARK SMILES IDX 36 70 34 71 60 72 61 73 69 74 62 75 63 76 67 77 70 78 64 79
REMARK SMILES IDX 65 80 68 81 66 82 45 83 46 84 54 85 47 86 48 87 52 88 55 89
REMARK SMILES IDX 49 90 50 91 53 92 51 93
REMARK H PARENT 8 15 1 22 1 23 1 24 75 46 43 57
REMARK Flexibility Score: inf
ROOT
ATOM      1  C   UNL A   1      31.797  28.623  27.435  1.00  0.00     0.274 C 
ENDROOT
BRANCH   1   2
ATOM      2  O   UNL A   1      32.404  27.623  26.587  1.00  0.00    -0.462 OA
BRANCH   2   3
ATOM      3  C   UNL A   1      31.577  26.640  26.171  1.00  0.00     0.308 C 
ATOM      4  O   UNL A   1      30.562  26.296  26.772  1.00  0.00    -0.252 OA
BRANCH   3   5
ATOM      5  C   UNL A   1      31.996  25.914  24.914  1.00  0.00     0.151 C 
BRANCH   5   6
ATOM      6  C   UNL A   1      31.008  25.178  23.950  1.00  0.00     0.051 C 
ATOM      7  C   UNL A   1      31.119  23.677  24.349  1.00  0.00     0.029 C 
ATOM      8  C   UNL A   1      31.443  25.339  22.484  1.00  0.00     0.029 C 
ATOM      9  C   UNL A   1      32.466  23.029  24.021  1.00  0.00     0.002 C 
ATOM     10  C   UNL A   1      32.809  24.730  22.171  1.00  0.00     0.002 C 
ATOM     11  C   UNL A   1      32.866  23.258  22.568  1.00  0.00     0.000 C 
BRANCH   6  12
ATOM     12  N   UNL A   1      29.612  25.669  24.172  1.00  0.00    -0.350 N 
ATOM     13  C   UNL A   1      28.796  26.693  23.814  1.00  0.00     0.227 C 
ATOM     14  O   UNL A   1      27.608  26.559  24.156  1.00  0.00    -0.274 OA
ATOM     15  H   UNL A   1      29.131  25.051  24.770  1.00  0.00     0.164 HD
BRANCH  13  16
ATOM     16  C   UNL A   1      29.148  27.994  23.081  1.00  0.00     0.107 C 
ATOM     17  C   UNL A   1      28.499  30.361  22.966  1.00  0.00     0.205 C 
ATOM     18  C   UNL A   1      29.826  30.168  23.622  1.00  0.00     0.033 C 
ATOM     19  C   UNL A   1      27.969  28.925  22.778  1.00  0.00     0.087 C 
ATOM     20  C   UNL A   1      30.190  28.882  23.662  1.00  0.00    -0.012 C 
BRANCH  17  21
ATOM     21  N   UNL A   1      27.617  31.222  23.734  1.00  0.00    -0.352 N 
ATOM     22  H   UNL A   1      26.895  31.601  23.121  1.00  0.00     0.345 HD
ATOM     23  H   UNL A   1      28.156  31.987  24.139  1.00  0.00     0.345 HD
ATOM     24  H   UNL A   1      27.180  30.681  24.480  1.00  0.00     0.345 HD
ENDBRANCH  17  21
ENDBRANCH  13  16
ENDBRANCH   6  12
ENDBRANCH   5   6
ENDBRANCH   3   5
ENDBRANCH   2   3
ENDBRANCH   1   2
BRANCH   1  25
ATOM     25  C   UNL A   1      31.780  30.028  26.811  1.00  0.00     0.275 C 
BRANCH  25  26
ATOM     26  O   UNL A   1      33.083  30.497  26.412  1.00  0.00    -0.458 OA
BRANCH  26  27
ATOM     27  C   UNL A   1      33.563  31.492  27.183  1.00  0.00     0.338 C 
ATOM     28  O   UNL A   1      32.948  32.500  27.529  1.00  0.00    -0.246 OA
BRANCH  27  29
ATOM     29  C   UNL A   1      34.876  31.182  27.748  1.00  0.00     0.060 A 
ATOM     30  C   UNL A   1      35.078  29.881  28.213  1.00  0.00     0.016 A 
ATOM     31  C   UNL A   1      35.836  32.168  27.963  1.00  0.00     0.016 A 
ATOM     32  C   UNL A   1      36.230  29.551  28.907  1.00  0.00     0.010 A 
ATOM     33  C   UNL A   1      37.007  31.837  28.656  1.00  0.00     0.010 A 
ATOM     34  C   UNL A   1      37.203  30.530  29.140  1.00  0.00    -0.014 A 
BRANCH  34  35
ATOM     35  C   UNL A   1      38.399  30.176  29.932  1.00  0.00     0.031 A 
ATOM     36  C   UNL A   1      39.461  29.302  29.335  1.00  0.00     0.074 A 
ATOM     37  C   UNL A   1      38.555  30.690  31.166  1.00  0.00     0.049 A 
ATOM     38  N   UNL A   1      40.519  28.784  29.902  1.00  0.00    -0.248 NA
ATOM     39  C   UNL A   1      39.314  28.971  27.910  1.00  0.00     0.031 C 
ATOM     40  C   UNL A   1      37.630  31.620  31.813  1.00  0.00     0.029 A 
ATOM     41  N   UNL A   1      39.551  30.507  32.090  1.00  0.00    -0.354 N 
ATOM     42  C   UNL A   1      41.145  28.035  28.916  1.00  0.00     0.074 A 
ATOM     43  C   UNL A   1      40.355  28.175  27.710  1.00  0.00     0.031 C 
ATOM     44  C   UNL A   1      38.106  31.934  33.029  1.00  0.00     0.029 A 
ATOM     45  C   UNL A   1      39.334  31.182  33.265  1.00  0.00     0.049 A 
ATOM     46  H   UNL A   1      40.344  29.947  31.926  1.00  0.00     0.167 HD
ATOM     47  C   UNL A   1      42.274  27.295  29.016  1.00  0.00     0.037 A 
ATOM     48  C   UNL A   1      40.031  31.163  34.415  1.00  0.00     0.037 A 
ATOM     49  C   UNL A   1      43.067  27.183  30.211  1.00  0.00     0.049 A 
ATOM     50  C   UNL A   1      41.252  30.292  34.517  1.00  0.00     0.074 A 
ATOM     51  C   UNL A   1      44.214  26.439  30.424  1.00  0.00     0.029 A 
ATOM     52  N   UNL A   1      42.795  27.850  31.398  1.00  0.00    -0.354 N 
ATOM     53  N   UNL A   1      41.799  29.529  33.603  1.00  0.00    -0.248 NA
ATOM     54  C   UNL A   1      41.939  30.266  35.816  1.00  0.00     0.031 C 
ATOM     55  C   UNL A   1      44.625  26.638  31.749  1.00  0.00     0.029 A 
ATOM     56  C   UNL A   1      43.749  27.529  32.350  1.00  0.00     0.049 A 
ATOM     57  H   UNL A   1      42.037  28.460  31.542  1.00  0.00     0.167 HD
ATOM     58  C   UNL A   1      42.896  28.937  34.210  1.00  0.00     0.074 A 
ATOM     59  C   UNL A   1      42.948  29.441  35.568  1.00  0.00     0.031 C 
ATOM     60  C   UNL A   1      43.779  28.047  33.692  1.00  0.00     0.037 A 
BRANCH  47  61
ATOM     61  C   UNL A   1      42.690  26.509  27.810  1.00  0.00     0.064 A 
ATOM     62  C   UNL A   1      43.612  27.014  26.882  1.00  0.00     0.173 A 
ATOM     63  C   UNL A   1      42.173  25.223  27.595  1.00  0.00     0.173 A 
ATOM     64  F   UNL A   1      44.120  28.245  27.037  1.00  0.00    -0.203 F 
ATOM     65  C   UNL A   1      43.988  26.263  25.771  1.00  0.00     0.198 A 
ATOM     66  C   UNL A   1      42.568  24.468  26.495  1.00  0.00     0.198 A 
ATOM     67  F   UNL A   1      41.290  24.697  28.457  1.00  0.00    -0.203 F 
ATOM     68  F   UNL A   1      44.846  26.776  24.877  1.00  0.00    -0.200 F 
ATOM     69  C   UNL A   1      43.471  24.990  25.581  1.00  0.00     0.200 A 
ATOM     70  F   UNL A   1      42.071  23.236  26.317  1.00  0.00    -0.200 F 
ATOM     71  F   UNL A   1      43.839  24.268  24.514  1.00  0.00    -0.200 F 
ENDBRANCH  47  61
BRANCH  48  72
ATOM     72  C   UNL A   1      39.562  31.967  35.570  1.00  0.00     0.064 A 
ATOM     73  C   UNL A   1      40.066  33.252  35.805  1.00  0.00     0.173 A 
ATOM     74  C   UNL A   1      38.588  31.471  36.451  1.00  0.00     0.173 A 
ATOM     75  F   UNL A   1      41.015  33.755  35.005  1.00  0.00    -0.203 F 
ATOM     76  C   UNL A   1      39.612  34.014  36.881  1.00  0.00     0.198 A 
ATOM     77  C   UNL A   1      38.120  32.242  37.511  1.00  0.00     0.198 A 
ATOM     78  F   UNL A   1      38.078  30.245  36.266  1.00  0.00    -0.203 F 
ATOM     79  F   UNL A   1      40.129  35.230  37.102  1.00  0.00    -0.200 F 
ATOM     80  C   UNL A   1      38.634  33.511  37.728  1.00  0.00     0.200 A 
ATOM     81  F   UNL A   1      37.168  31.757  38.320  1.00  0.00    -0.200 F 
ATOM     82  F   UNL A   1      38.193  34.248  38.756  1.00  0.00    -0.200 F 
ENDBRANCH  48  72
BRANCH  60  83
ATOM     83  C   UNL A   1      44.882  27.585  34.593  1.00  0.00     0.064 A 
ATOM     84  C   UNL A   1      44.742  26.434  35.381  1.00  0.00     0.173 A 
ATOM     85  C   UNL A   1      46.099  28.279  34.640  1.00  0.00     0.173 A 
ATOM     86  F   UNL A   1      43.589  25.750  35.379  1.00  0.00    -0.203 F 
ATOM     87  C   UNL A   1      45.782  26.003  36.202  1.00  0.00     0.198 A 
ATOM     88  C   UNL A   1      47.142  27.835  35.447  1.00  0.00     0.198 A 
ATOM     89  F   UNL A   1      46.276  29.384  33.901  1.00  0.00    -0.203 F 
ATOM     90  F   UNL A   1      45.619  24.920  36.974  1.00  0.00    -0.200 F 
ATOM     91  C   UNL A   1      46.981  26.700  36.229  1.00  0.00     0.200 A 
ATOM     92  F   UNL A   1      48.302  28.505  35.470  1.00  0.00    -0.200 F 
ATOM     93  F   UNL A   1      47.981  26.283  37.019  1.00  0.00    -0.200 F 
ENDBRANCH  60  83
ENDBRANCH  34  35
ENDBRANCH  27  29
ENDBRANCH  26  27
ENDBRANCH  25  26
ENDBRANCH   1  25
TORSDOF 15
ENDMDL
