MODEL 1
REMARK VINA RESULT:     -11.8      0.000      0.000
REMARK SMILES C[NH2+][C@@]1(C(=O)OCCOC(=O)c2ccc(-c3c4nc(c(-c5c(F)c(F)c(F)c(F)c5F)c5ccc([nH]5)c(-c5c(F)c(F)c(F)c(F)c5F)c5nc(c(-c6c(F)c(F)c(F)c(F)c6F)c6ccc3[nH]6)C=C5)C=C4)cc2)CCC[C@H]([N@H+](C)C2CC[NH+](C)CC2)C1
REMARK SMILES IDX 7 1 6 2 4 3 5 4 3 5 75 6 88 7 76 8 78 9 77 10 2 11 1 12
REMARK SMILES IDX 79 15 80 16 81 18 82 19 87 20 83 21 86 22 84 23 85 24 8 26
REMARK SMILES IDX 9 27 10 28 11 29 12 30 13 31 74 32 14 33 73 34 15 35 16 36
REMARK SMILES IDX 17 37 67 38 18 39 72 40 66 41 68 42 19 43 71 44 65 45 64 46
REMARK SMILES IDX 20 48 52 49 32 50 51 51 33 52 36 53 50 54 69 55 34 56 35 57
REMARK SMILES IDX 49 59 70 60 37 61 21 62 22 63 30 64 23 65 24 66 28 67 31 68
REMARK SMILES IDX 25 69 26 70 29 71 27 72 53 73 54 74 62 75 55 76 56 77 60 78
REMARK SMILES IDX 63 79 57 80 58 81 61 82 59 83 38 84 39 85 47 86 40 87 41 88
REMARK SMILES IDX 45 89 48 90 42 91 43 92 46 93 44 94
REMARK H PARENT 2 13 2 14 79 17 84 25 68 47 36 58
REMARK Flexibility Score: inf
ROOT
ATOM      1  C   UNL A   1      31.607  27.649  27.124  1.00  0.00     0.274 C 
ENDROOT
BRANCH   1   2
ATOM      2  O   UNL A   1      32.222  27.212  25.898  1.00  0.00    -0.457 OA
BRANCH   2   3
ATOM      3  C   UNL A   1      31.371  27.149  24.827  1.00  0.00     0.368 C 
ATOM      4  O   UNL A   1      30.218  26.736  24.914  1.00  0.00    -0.245 OA
BRANCH   3   5
ATOM      5  C   UNL A   1      31.989  27.813  23.543  1.00  0.00     0.199 C 
ATOM      6  C   UNL A   1      31.127  27.419  22.322  1.00  0.00     0.081 C 
ATOM      7  C   UNL A   1      33.457  27.377  23.310  1.00  0.00     0.146 C 
ATOM      8  C   UNL A   1      31.301  25.954  21.931  1.00  0.00     0.013 C 
ATOM      9  C   UNL A   1      33.658  25.864  22.975  1.00  0.00     0.190 C 
ATOM     10  C   UNL A   1      32.773  25.591  21.741  1.00  0.00     0.065 C 
BRANCH   5  11
ATOM     11  N   UNL A   1      31.952  29.291  23.805  1.00  0.00    -0.334 N 
ATOM     12  C   UNL A   1      30.645  29.920  23.901  1.00  0.00     0.331 C 
ATOM     13  H   UNL A   1      32.437  29.456  24.687  1.00  0.00     0.347 HD
ATOM     14  H   UNL A   1      32.385  29.713  22.984  1.00  0.00     0.347 HD
ENDBRANCH   5  11
BRANCH   9  15
ATOM     15  N   UNL A   1      33.545  24.999  24.195  1.00  0.00    -0.332 N 
ATOM     16  C   UNL A   1      34.778  25.224  25.001  1.00  0.00     0.333 C 
ATOM     17  H   UNL A   1      32.677  25.278  24.651  1.00  0.00     0.348 HD
BRANCH  15  18
ATOM     18  C   UNL A   1      33.386  23.515  23.972  1.00  0.00     0.195 C 
ATOM     19  C   UNL A   1      31.981  23.036  23.544  1.00  0.00     0.126 C 
ATOM     20  C   UNL A   1      33.660  22.644  25.239  1.00  0.00     0.126 C 
ATOM     21  C   UNL A   1      30.936  23.293  24.626  1.00  0.00     0.268 C 
ATOM     22  C   UNL A   1      32.605  22.866  26.333  1.00  0.00     0.268 C 
ATOM     23  N   UNL A   1      31.250  22.561  25.859  1.00  0.00    -0.337 N 
ATOM     24  C   UNL A   1      30.241  22.868  26.876  1.00  0.00     0.332 C 
ATOM     25  H   UNL A   1      31.227  21.559  25.666  1.00  0.00     0.347 HD
ENDBRANCH  15  18
ENDBRANCH   9  15
ENDBRANCH   3   5
ENDBRANCH   2   3
ENDBRANCH   1   2
BRANCH   1  26
ATOM     26  C   UNL A   1      31.708  29.171  27.253  1.00  0.00     0.275 C 
BRANCH  26  27
ATOM     27  O   UNL A   1      32.957  29.587  26.681  1.00  0.00    -0.458 OA
BRANCH  27  28
ATOM     28  C   UNL A   1      33.334  30.836  27.033  1.00  0.00     0.338 C 
ATOM     29  O   UNL A   1      32.650  31.837  27.136  1.00  0.00    -0.246 OA
BRANCH  28  30
ATOM     30  C   UNL A   1      34.683  30.712  27.588  1.00  0.00     0.060 A 
ATOM     31  C   UNL A   1      35.163  29.417  27.793  1.00  0.00     0.016 A 
ATOM     32  C   UNL A   1      35.439  31.820  27.942  1.00  0.00     0.016 A 
ATOM     33  C   UNL A   1      36.352  29.207  28.466  1.00  0.00     0.010 A 
ATOM     34  C   UNL A   1      36.680  31.609  28.544  1.00  0.00     0.010 A 
ATOM     35  C   UNL A   1      37.124  30.304  28.849  1.00  0.00    -0.014 A 
BRANCH  35  36
ATOM     36  C   UNL A   1      38.346  30.108  29.658  1.00  0.00     0.031 A 
ATOM     37  C   UNL A   1      39.446  29.261  29.094  1.00  0.00     0.074 A 
ATOM     38  C   UNL A   1      38.473  30.679  30.869  1.00  0.00     0.049 A 
ATOM     39  N   UNL A   1      40.457  28.700  29.701  1.00  0.00    -0.248 NA
ATOM     40  C   UNL A   1      39.381  28.988  27.648  1.00  0.00     0.031 C 
ATOM     41  C   UNL A   1      37.515  31.601  31.482  1.00  0.00     0.029 A 
ATOM     42  N   UNL A   1      39.464  30.554  31.809  1.00  0.00    -0.354 N 
ATOM     43  C   UNL A   1      41.100  27.943  28.730  1.00  0.00     0.074 A 
ATOM     44  C   UNL A   1      40.375  28.127  27.492  1.00  0.00     0.031 C 
ATOM     45  C   UNL A   1      37.966  31.961  32.693  1.00  0.00     0.029 A 
ATOM     46  C   UNL A   1      39.195  31.227  32.975  1.00  0.00     0.049 A 
ATOM     47  H   UNL A   1      40.286  30.034  31.662  1.00  0.00     0.167 HD
ATOM     48  C   UNL A   1      42.189  27.156  28.877  1.00  0.00     0.037 A 
ATOM     49  C   UNL A   1      39.837  31.203  34.157  1.00  0.00     0.037 A 
ATOM     50  C   UNL A   1      42.926  27.042  30.108  1.00  0.00     0.049 A 
ATOM     51  C   UNL A   1      41.039  30.313  34.303  1.00  0.00     0.074 A 
ATOM     52  C   UNL A   1      44.044  26.276  30.384  1.00  0.00     0.029 A 
ATOM     53  N   UNL A   1      42.624  27.744  31.268  1.00  0.00    -0.354 N 
ATOM     54  N   UNL A   1      41.591  29.516  33.418  1.00  0.00    -0.248 NA
ATOM     55  C   UNL A   1      41.696  30.299  35.616  1.00  0.00     0.031 C 
ATOM     56  C   UNL A   1      44.403  26.497  31.718  1.00  0.00     0.029 A 
ATOM     57  C   UNL A   1      43.534  27.430  32.261  1.00  0.00     0.049 A 
ATOM     58  H   UNL A   1      41.872  28.372  31.367  1.00  0.00     0.167 HD
ATOM     59  C   UNL A   1      42.662  28.914  34.061  1.00  0.00     0.074 A 
ATOM     60  C   UNL A   1      42.694  29.452  35.406  1.00  0.00     0.031 C 
ATOM     61  C   UNL A   1      43.536  27.992  33.588  1.00  0.00     0.037 A 
BRANCH  48  62
ATOM     62  C   UNL A   1      42.612  26.329  27.699  1.00  0.00     0.064 A 
ATOM     63  C   UNL A   1      43.594  26.760  26.798  1.00  0.00     0.173 A 
ATOM     64  C   UNL A   1      42.017  25.077  27.471  1.00  0.00     0.173 A 
ATOM     65  F   UNL A   1      44.176  27.958  26.956  1.00  0.00    -0.203 F 
ATOM     66  C   UNL A   1      43.948  25.982  25.697  1.00  0.00     0.198 A 
ATOM     67  C   UNL A   1      42.392  24.290  26.387  1.00  0.00     0.198 A 
ATOM     68  F   UNL A   1      41.068  24.619  28.302  1.00  0.00    -0.203 F 
ATOM     69  F   UNL A   1      44.852  26.438  24.819  1.00  0.00    -0.200 F 
ATOM     70  C   UNL A   1      43.351  24.746  25.497  1.00  0.00     0.200 A 
ATOM     71  F   UNL A   1      41.820  23.093  26.199  1.00  0.00    -0.200 F 
ATOM     72  F   UNL A   1      43.695  23.999  24.438  1.00  0.00    -0.200 F 
ENDBRANCH  48  62
BRANCH  49  73
ATOM     73  C   UNL A   1      39.319  32.003  35.296  1.00  0.00     0.064 A 
ATOM     74  C   UNL A   1      38.511  31.418  36.278  1.00  0.00     0.173 A 
ATOM     75  C   UNL A   1      39.643  33.361  35.442  1.00  0.00     0.173 A 
ATOM     76  F   UNL A   1      38.153  30.129  36.171  1.00  0.00    -0.203 F 
ATOM     77  C   UNL A   1      38.042  32.160  37.362  1.00  0.00     0.198 A 
ATOM     78  C   UNL A   1      39.199  34.094  36.539  1.00  0.00     0.198 A 
ATOM     79  F   UNL A   1      40.413  33.969  34.528  1.00  0.00    -0.203 F 
ATOM     80  F   UNL A   1      37.245  31.584  38.271  1.00  0.00    -0.200 F 
ATOM     81  C   UNL A   1      38.395  33.494  37.496  1.00  0.00     0.200 A 
ATOM     82  F   UNL A   1      39.554  35.380  36.672  1.00  0.00    -0.200 F 
ATOM     83  F   UNL A   1      37.957  34.204  38.545  1.00  0.00    -0.200 F 
ENDBRANCH  49  73
BRANCH  61  84
ATOM     84  C   UNL A   1      44.612  27.539  34.525  1.00  0.00     0.064 A 
ATOM     85  C   UNL A   1      44.446  26.407  35.337  1.00  0.00     0.173 A 
ATOM     86  C   UNL A   1      45.834  28.224  34.583  1.00  0.00     0.173 A 
ATOM     87  F   UNL A   1      43.287  25.733  35.324  1.00  0.00    -0.203 F 
ATOM     88  C   UNL A   1      45.461  25.991  36.192  1.00  0.00     0.198 A 
ATOM     89  C   UNL A   1      46.855  27.789  35.422  1.00  0.00     0.198 A 
ATOM     90  F   UNL A   1      46.039  29.308  33.821  1.00  0.00    -0.203 F 
ATOM     91  F   UNL A   1      45.268  24.931  36.989  1.00  0.00    -0.200 F 
ATOM     92  C   UNL A   1      46.665  26.677  36.229  1.00  0.00     0.200 A 
ATOM     93  F   UNL A   1      48.022  28.448  35.452  1.00  0.00    -0.200 F 
ATOM     94  F   UNL A   1      47.643  26.272  37.051  1.00  0.00    -0.200 F 
ENDBRANCH  61  84
ENDBRANCH  35  36
ENDBRANCH  28  30
ENDBRANCH  27  28
ENDBRANCH  26  27
ENDBRANCH   1  26
TORSDOF 14
ENDMDL
MODEL 2
REMARK VINA RESULT:     -11.8      0.956      1.920
REMARK SMILES C[NH2+][C@@]1(C(=O)OCCOC(=O)c2ccc(-c3c4nc(c(-c5c(F)c(F)c(F)c(F)c5F)c5ccc([nH]5)c(-c5c(F)c(F)c(F)c(F)c5F)c5nc(c(-c6c(F)c(F)c(F)c(F)c6F)c6ccc3[nH]6)C=C5)C=C4)cc2)CCC[C@H]([N@H+](C)C2CC[NH+](C)CC2)C1
REMARK SMILES IDX 7 1 6 2 4 3 5 4 3 5 75 6 88 7 76 8 78 9 77 10 2 11 1 12
REMARK SMILES IDX 79 15 80 16 81 18 82 19 87 20 83 21 86 22 84 23 85 24 8 26
REMARK SMILES IDX 9 27 10 28 11 29 12 30 13 31 74 32 14 33 73 34 15 35 16 36
REMARK SMILES IDX 17 37 67 38 18 39 72 40 66 41 68 42 19 43 71 44 65 45 64 46
REMARK SMILES IDX 20 48 52 49 32 50 51 51 33 52 36 53 50 54 69 55 34 56 35 57
REMARK SMILES IDX 49 59 70 60 37 61 21 62 22 63 30 64 23 65 24 66 28 67 31 68
REMARK SMILES IDX 25 69 26 70 29 71 27 72 53 73 54 74 62 75 55 76 56 77 60 78
REMARK SMILES IDX 63 79 57 80 58 81 61 82 59 83 38 84 39 85 47 86 40 87 41 88
REMARK SMILES IDX 45 89 48 90 42 91 43 92 46 93 44 94
REMARK H PARENT 2 13 2 14 79 17 84 25 68 47 36 58
REMARK Flexibility Score: inf
ROOT
ATOM      1  C   UNL A   1      33.022  29.314  24.974  1.00  0.00     0.274 C 
ENDROOT
BRANCH   1   2
ATOM      2  O   UNL A   1      32.627  27.931  24.910  1.00  0.00    -0.457 OA
BRANCH   2   3
ATOM      3  C   UNL A   1      32.798  27.348  23.683  1.00  0.00     0.368 C 
ATOM      4  O   UNL A   1      33.864  26.862  23.317  1.00  0.00    -0.245 OA
BRANCH   3   5
ATOM      5  C   UNL A   1      31.444  27.233  22.891  1.00  0.00     0.199 C 
ATOM      6  C   UNL A   1      30.280  27.203  23.908  1.00  0.00     0.081 C 
ATOM      7  C   UNL A   1      31.395  25.965  22.002  1.00  0.00     0.146 C 
ATOM      8  C   UNL A   1      30.210  25.888  24.679  1.00  0.00     0.013 C 
ATOM      9  C   UNL A   1      31.390  24.608  22.776  1.00  0.00     0.190 C 
ATOM     10  C   UNL A   1      30.187  24.683  23.739  1.00  0.00     0.065 C 
BRANCH   5  11
ATOM     11  N   UNL A   1      31.395  28.449  22.014  1.00  0.00    -0.334 N 
ATOM     12  C   UNL A   1      30.347  29.422  22.277  1.00  0.00     0.331 C 
ATOM     13  H   UNL A   1      32.289  28.931  22.109  1.00  0.00     0.347 HD
ATOM     14  H   UNL A   1      31.190  28.091  21.081  1.00  0.00     0.347 HD
ENDBRANCH   5  11
BRANCH   9  15
ATOM     15  N   UNL A   1      32.752  24.251  23.292  1.00  0.00    -0.332 N 
ATOM     16  C   UNL A   1      33.455  23.526  22.195  1.00  0.00     0.333 C 
ATOM     17  H   UNL A   1      33.183  25.133  23.568  1.00  0.00     0.348 HD
BRANCH  15  18
ATOM     18  C   UNL A   1      32.815  23.403  24.539  1.00  0.00     0.195 C 
ATOM     19  C   UNL A   1      33.379  24.088  25.803  1.00  0.00     0.126 C 
ATOM     20  C   UNL A   1      33.728  22.142  24.411  1.00  0.00     0.126 C 
ATOM     21  C   UNL A   1      34.843  24.483  25.633  1.00  0.00     0.268 C 
ATOM     22  C   UNL A   1      35.211  22.514  24.266  1.00  0.00     0.268 C 
ATOM     23  N   UNL A   1      35.692  23.308  25.403  1.00  0.00    -0.337 N 
ATOM     24  C   UNL A   1      37.078  23.741  25.209  1.00  0.00     0.332 C 
ATOM     25  H   UNL A   1      35.648  22.701  26.222  1.00  0.00     0.347 HD
ENDBRANCH  15  18
ENDBRANCH   9  15
ENDBRANCH   3   5
ENDBRANCH   2   3
ENDBRANCH   1   2
BRANCH   1  26
ATOM     26  C   UNL A   1      32.078  30.091  25.895  1.00  0.00     0.275 C 
BRANCH  26  27
ATOM     27  O   UNL A   1      32.737  30.279  27.157  1.00  0.00    -0.458 OA
BRANCH  27  28
ATOM     28  C   UNL A   1      33.304  31.497  27.304  1.00  0.00     0.338 C 
ATOM     29  O   UNL A   1      32.775  32.592  27.275  1.00  0.00    -0.246 OA
BRANCH  28  30
ATOM     30  C   UNL A   1      34.650  31.257  27.829  1.00  0.00     0.060 A 
ATOM     31  C   UNL A   1      34.960  29.945  28.190  1.00  0.00     0.016 A 
ATOM     32  C   UNL A   1      35.566  32.284  28.008  1.00  0.00     0.016 A 
ATOM     33  C   UNL A   1      36.143  29.658  28.847  1.00  0.00     0.010 A 
ATOM     34  C   UNL A   1      36.795  31.981  28.593  1.00  0.00     0.010 A 
ATOM     35  C   UNL A   1      37.073  30.676  29.056  1.00  0.00    -0.014 A 
BRANCH  35  36
ATOM     36  C   UNL A   1      38.296  30.416  29.846  1.00  0.00     0.031 A 
ATOM     37  C   UNL A   1      39.359  29.544  29.249  1.00  0.00     0.074 A 
ATOM     38  C   UNL A   1      38.457  30.952  31.069  1.00  0.00     0.049 A 
ATOM     39  N   UNL A   1      40.355  28.932  29.829  1.00  0.00    -0.248 NA
ATOM     40  C   UNL A   1      39.268  29.310  27.797  1.00  0.00     0.031 C 
ATOM     41  C   UNL A   1      37.540  31.892  31.715  1.00  0.00     0.029 A 
ATOM     42  N   UNL A   1      39.452  30.768  31.994  1.00  0.00    -0.354 N 
ATOM     43  C   UNL A   1      40.959  28.177  28.833  1.00  0.00     0.074 A 
ATOM     44  C   UNL A   1      40.228  28.418  27.608  1.00  0.00     0.031 C 
ATOM     45  C   UNL A   1      38.016  32.207  32.929  1.00  0.00     0.029 A 
ATOM     46  C   UNL A   1      39.220  31.422  33.179  1.00  0.00     0.049 A 
ATOM     47  H   UNL A   1      40.254  30.222  31.824  1.00  0.00     0.167 HD
ATOM     48  C   UNL A   1      42.021  27.348  28.948  1.00  0.00     0.037 A 
ATOM     49  C   UNL A   1      39.874  31.345  34.352  1.00  0.00     0.037 A 
ATOM     50  C   UNL A   1      42.766  27.177  30.167  1.00  0.00     0.049 A 
ATOM     51  C   UNL A   1      41.045  30.409  34.463  1.00  0.00     0.074 A 
ATOM     52  C   UNL A   1      43.858  26.365  30.411  1.00  0.00     0.029 A 
ATOM     53  N   UNL A   1      42.502  27.861  31.347  1.00  0.00    -0.354 N 
ATOM     54  N   UNL A   1      41.558  29.615  33.552  1.00  0.00    -0.248 NA
ATOM     55  C   UNL A   1      41.715  30.339  35.767  1.00  0.00     0.031 C 
ATOM     56  C   UNL A   1      44.240  26.539  31.746  1.00  0.00     0.029 A 
ATOM     57  C   UNL A   1      43.411  27.490  32.322  1.00  0.00     0.049 A 
ATOM     58  H   UNL A   1      41.775  28.513  31.470  1.00  0.00     0.167 HD
ATOM     59  C   UNL A   1      42.613  28.958  34.167  1.00  0.00     0.074 A 
ATOM     60  C   UNL A   1      42.679  29.462  35.525  1.00  0.00     0.031 C 
ATOM     61  C   UNL A   1      43.448  28.018  33.662  1.00  0.00     0.037 A 
BRANCH  48  62
ATOM     62  C   UNL A   1      42.400  26.536  27.746  1.00  0.00     0.064 A 
ATOM     63  C   UNL A   1      41.798  25.305  27.455  1.00  0.00     0.173 A 
ATOM     64  C   UNL A   1      43.390  27.005  26.866  1.00  0.00     0.173 A 
ATOM     65  F   UNL A   1      40.865  24.800  28.275  1.00  0.00    -0.203 F 
ATOM     66  C   UNL A   1      42.189  24.559  26.344  1.00  0.00     0.198 A 
ATOM     67  C   UNL A   1      43.759  26.272  25.742  1.00  0.00     0.198 A 
ATOM     68  F   UNL A   1      44.002  28.176  27.100  1.00  0.00    -0.203 F 
ATOM     69  F   UNL A   1      41.636  23.361  26.115  1.00  0.00    -0.200 F 
ATOM     70  C   UNL A   1      43.164  25.047  25.486  1.00  0.00     0.200 A 
ATOM     71  F   UNL A   1      44.696  26.748  24.911  1.00  0.00    -0.200 F 
ATOM     72  F   UNL A   1      43.537  24.329  24.418  1.00  0.00    -0.200 F 
ENDBRANCH  48  62
BRANCH  49  73
ATOM     73  C   UNL A   1      39.398  32.135  35.516  1.00  0.00     0.064 A 
ATOM     74  C   UNL A   1      38.509  31.582  36.447  1.00  0.00     0.173 A 
ATOM     75  C   UNL A   1      39.841  33.447  35.739  1.00  0.00     0.173 A 
ATOM     76  F   UNL A   1      38.037  30.339  36.265  1.00  0.00    -0.203 F 
ATOM     77  C   UNL A   1      38.079  32.312  37.554  1.00  0.00     0.198 A 
ATOM     78  C   UNL A   1      39.434  34.166  36.860  1.00  0.00     0.198 A 
ATOM     79  F   UNL A   1      40.693  34.024  34.877  1.00  0.00    -0.203 F 
ATOM     80  F   UNL A   1      37.204  31.771  38.412  1.00  0.00    -0.200 F 
ATOM     81  C   UNL A   1      38.549  33.599  37.764  1.00  0.00     0.200 A 
ATOM     82  F   UNL A   1      39.903  35.405  37.067  1.00  0.00    -0.200 F 
ATOM     83  F   UNL A   1      38.147  34.295  38.836  1.00  0.00    -0.200 F 
ENDBRANCH  49  73
BRANCH  61  84
ATOM     84  C   UNL A   1      44.516  27.503  34.575  1.00  0.00     0.064 A 
ATOM     85  C   UNL A   1      44.322  26.353  35.353  1.00  0.00     0.173 A 
ATOM     86  C   UNL A   1      45.760  28.148  34.643  1.00  0.00     0.173 A 
ATOM     87  F   UNL A   1      43.143  25.715  35.330  1.00  0.00    -0.203 F 
ATOM     88  C   UNL A   1      45.331  25.879  36.186  1.00  0.00     0.198 A 
ATOM     89  C   UNL A   1      46.774  27.657  35.459  1.00  0.00     0.198 A 
ATOM     90  F   UNL A   1      45.992  29.248  33.912  1.00  0.00    -0.203 F 
ATOM     91  F   UNL A   1      45.112  24.802  36.952  1.00  0.00    -0.200 F 
ATOM     92  C   UNL A   1      46.556  26.527  36.233  1.00  0.00     0.200 A 
ATOM     93  F   UNL A   1      47.961  28.278  35.498  1.00  0.00    -0.200 F 
ATOM     94  F   UNL A   1      47.527  26.067  37.033  1.00  0.00    -0.200 F 
ENDBRANCH  61  84
ENDBRANCH  35  36
ENDBRANCH  28  30
ENDBRANCH  27  28
ENDBRANCH  26  27
ENDBRANCH   1  26
TORSDOF 14
ENDMDL
MODEL 3
REMARK VINA RESULT:     -11.6      4.288      9.568
REMARK SMILES C[NH2+][C@@]1(C(=O)OCCOC(=O)c2ccc(-c3c4nc(c(-c5c(F)c(F)c(F)c(F)c5F)c5ccc([nH]5)c(-c5c(F)c(F)c(F)c(F)c5F)c5nc(c(-c6c(F)c(F)c(F)c(F)c6F)c6ccc3[nH]6)C=C5)C=C4)cc2)CCC[C@H]([N@H+](C)C2CC[NH+](C)CC2)C1
REMARK SMILES IDX 7 1 6 2 4 3 5 4 3 5 75 6 88 7 76 8 78 9 77 10 2 11 1 12
REMARK SMILES IDX 79 15 80 16 81 18 82 19 87 20 83 21 86 22 84 23 85 24 8 26
REMARK SMILES IDX 9 27 10 28 11 29 12 30 13 31 74 32 14 33 73 34 15 35 16 36
REMARK SMILES IDX 17 37 67 38 18 39 72 40 66 41 68 42 19 43 71 44 65 45 64 46
REMARK SMILES IDX 20 48 52 49 32 50 51 51 33 52 36 53 50 54 69 55 34 56 35 57
REMARK SMILES IDX 49 59 70 60 37 61 21 62 22 63 30 64 23 65 24 66 28 67 31 68
REMARK SMILES IDX 25 69 26 70 29 71 27 72 53 73 54 74 62 75 55 76 56 77 60 78
REMARK SMILES IDX 63 79 57 80 58 81 61 82 59 83 38 84 39 85 47 86 40 87 41 88
REMARK SMILES IDX 45 89 48 90 42 91 43 92 46 93 44 94
REMARK H PARENT 2 13 2 14 79 17 84 25 68 47 36 58
REMARK Flexibility Score: inf
ROOT
ATOM      1  C   UNL A   1      36.595  23.116  23.651  1.00  0.00     0.274 C 
ENDROOT
BRANCH   1   2
ATOM      2  O   UNL A   1      35.166  23.050  23.488  1.00  0.00    -0.457 OA
BRANCH   2   3
ATOM      3  C   UNL A   1      34.451  23.469  24.577  1.00  0.00     0.368 C 
ATOM      4  O   UNL A   1      34.468  24.628  24.982  1.00  0.00    -0.245 OA
BRANCH   3   5
ATOM      5  C   UNL A   1      33.498  22.345  25.125  1.00  0.00     0.199 C 
ATOM      6  C   UNL A   1      33.204  21.348  23.981  1.00  0.00     0.081 C 
ATOM      7  C   UNL A   1      32.168  22.923  25.671  1.00  0.00     0.146 C 
ATOM      8  C   UNL A   1      32.281  21.933  22.916  1.00  0.00     0.013 C 
ATOM      9  C   UNL A   1      31.241  23.586  24.602  1.00  0.00     0.190 C 
ATOM     10  C   UNL A   1      31.003  22.503  23.529  1.00  0.00     0.065 C 
BRANCH   5  11
ATOM     11  N   UNL A   1      34.252  21.703  26.252  1.00  0.00    -0.334 N 
ATOM     12  C   UNL A   1      34.074  22.263  27.582  1.00  0.00     0.331 C 
ATOM     13  H   UNL A   1      33.967  20.724  26.292  1.00  0.00     0.347 HD
ATOM     14  H   UNL A   1      35.236  21.861  26.033  1.00  0.00     0.347 HD
ENDBRANCH   5  11
BRANCH   9  15
ATOM     15  N   UNL A   1      31.726  24.949  24.208  1.00  0.00    -0.332 N 
ATOM     16  C   UNL A   1      31.249  25.898  25.253  1.00  0.00     0.333 C 
ATOM     17  H   UNL A   1      32.740  24.870  24.130  1.00  0.00     0.348 HD
BRANCH  15  18
ATOM     18  C   UNL A   1      31.292  25.470  22.859  1.00  0.00     0.195 C 
ATOM     19  C   UNL A   1      32.360  25.449  21.743  1.00  0.00     0.126 C 
ATOM     20  C   UNL A   1      30.847  26.967  22.862  1.00  0.00     0.126 C 
ATOM     21  C   UNL A   1      33.534  26.372  22.059  1.00  0.00     0.268 C 
ATOM     22  C   UNL A   1      32.018  27.918  23.152  1.00  0.00     0.268 C 
ATOM     23  N   UNL A   1      33.101  27.770  22.173  1.00  0.00    -0.337 N 
ATOM     24  C   UNL A   1      34.252  28.609  22.513  1.00  0.00     0.332 C 
ATOM     25  H   UNL A   1      32.725  28.075  21.275  1.00  0.00     0.347 HD
ENDBRANCH  15  18
ENDBRANCH   9  15
ENDBRANCH   3   5
ENDBRANCH   2   3
ENDBRANCH   1   2
BRANCH   1  26
ATOM     26  C   UNL A   1      37.114  21.824  24.286  1.00  0.00     0.275 C 
BRANCH  26  27
ATOM     27  O   UNL A   1      37.453  22.101  25.653  1.00  0.00    -0.458 OA
BRANCH  27  28
ATOM     28  C   UNL A   1      38.674  21.650  26.018  1.00  0.00     0.338 C 
ATOM     29  O   UNL A   1      39.235  20.621  25.690  1.00  0.00    -0.246 OA
BRANCH  28  30
ATOM     30  C   UNL A   1      39.355  22.784  26.646  1.00  0.00     0.060 A 
ATOM     31  C   UNL A   1      38.932  24.060  26.267  1.00  0.00     0.016 A 
ATOM     32  C   UNL A   1      40.403  22.613  27.538  1.00  0.00     0.016 A 
ATOM     33  C   UNL A   1      39.628  25.181  26.680  1.00  0.00     0.010 A 
ATOM     34  C   UNL A   1      41.052  23.749  28.023  1.00  0.00     0.010 A 
ATOM     35  C   UNL A   1      40.697  25.035  27.563  1.00  0.00    -0.014 A 
BRANCH  35  36
ATOM     36  C   UNL A   1      41.519  26.207  27.936  1.00  0.00     0.031 A 
ATOM     37  C   UNL A   1      40.900  27.268  28.795  1.00  0.00     0.074 A 
ATOM     38  C   UNL A   1      42.793  26.319  27.521  1.00  0.00     0.049 A 
ATOM     39  N   UNL A   1      41.286  28.497  29.006  1.00  0.00    -0.248 NA
ATOM     40  C   UNL A   1      39.657  26.896  29.493  1.00  0.00     0.031 C 
ATOM     41  C   UNL A   1      43.536  25.309  26.765  1.00  0.00     0.029 A 
ATOM     42  N   UNL A   1      43.688  27.348  27.671  1.00  0.00    -0.354 N 
ATOM     43  C   UNL A   1      40.294  29.069  29.791  1.00  0.00     0.074 A 
ATOM     44  C   UNL A   1      39.296  28.051  30.032  1.00  0.00     0.031 C 
ATOM     45  C   UNL A   1      44.773  25.765  26.520  1.00  0.00     0.029 A 
ATOM     46  C   UNL A   1      44.878  27.131  27.023  1.00  0.00     0.049 A 
ATOM     47  H   UNL A   1      43.495  28.160  28.192  1.00  0.00     0.167 HD
ATOM     48  C   UNL A   1      40.228  30.339  30.251  1.00  0.00     0.037 A 
ATOM     49  C   UNL A   1      45.911  27.966  26.807  1.00  0.00     0.037 A 
ATOM     50  C   UNL A   1      41.268  31.313  30.046  1.00  0.00     0.049 A 
ATOM     51  C   UNL A   1      45.813  29.377  27.316  1.00  0.00     0.074 A 
ATOM     52  C   UNL A   1      41.317  32.631  30.459  1.00  0.00     0.029 A 
ATOM     53  N   UNL A   1      42.463  31.053  29.386  1.00  0.00    -0.354 N 
ATOM     54  N   UNL A   1      44.833  29.954  27.970  1.00  0.00    -0.248 NA
ATOM     55  C   UNL A   1      46.952  30.260  27.039  1.00  0.00     0.031 C 
ATOM     56  C   UNL A   1      42.532  33.177  30.028  1.00  0.00     0.029 A 
ATOM     57  C   UNL A   1      43.256  32.186  29.381  1.00  0.00     0.049 A 
ATOM     58  H   UNL A   1      42.708  30.189  28.982  1.00  0.00     0.167 HD
ATOM     59  C   UNL A   1      45.237  31.261  28.190  1.00  0.00     0.074 A 
ATOM     60  C   UNL A   1      46.562  31.388  27.617  1.00  0.00     0.031 C 
ATOM     61  C   UNL A   1      44.573  32.272  28.804  1.00  0.00     0.037 A 
BRANCH  48  62
ATOM     62  C   UNL A   1      38.978  30.753  30.968  1.00  0.00     0.064 A 
ATOM     63  C   UNL A   1      37.869  31.281  30.294  1.00  0.00     0.173 A 
ATOM     64  C   UNL A   1      38.892  30.616  32.364  1.00  0.00     0.173 A 
ATOM     65  F   UNL A   1      37.908  31.456  28.965  1.00  0.00    -0.203 F 
ATOM     66  C   UNL A   1      36.730  31.681  30.990  1.00  0.00     0.198 A 
ATOM     67  C   UNL A   1      37.742  30.990  33.053  1.00  0.00     0.198 A 
ATOM     68  F   UNL A   1      39.927  30.119  33.059  1.00  0.00    -0.203 F 
ATOM     69  F   UNL A   1      35.702  32.232  30.330  1.00  0.00    -0.200 F 
ATOM     70  C   UNL A   1      36.666  31.529  32.367  1.00  0.00     0.200 A 
ATOM     71  F   UNL A   1      37.680  30.836  34.383  1.00  0.00    -0.200 F 
ATOM     72  F   UNL A   1      35.569  31.914  33.034  1.00  0.00    -0.200 F 
ENDBRANCH  48  62
BRANCH  49  73
ATOM     73  C   UNL A   1      47.089  27.499  26.031  1.00  0.00     0.064 A 
ATOM     74  C   UNL A   1      47.137  27.642  24.639  1.00  0.00     0.173 A 
ATOM     75  C   UNL A   1      48.201  26.927  26.667  1.00  0.00     0.173 A 
ATOM     76  F   UNL A   1      46.088  28.160  23.983  1.00  0.00    -0.203 F 
ATOM     77  C   UNL A   1      48.251  27.226  23.911  1.00  0.00     0.198 A 
ATOM     78  C   UNL A   1      49.326  26.540  25.943  1.00  0.00     0.198 A 
ATOM     79  F   UNL A   1      48.206  26.767  27.999  1.00  0.00    -0.203 F 
ATOM     80  F   UNL A   1      48.259  27.345  22.576  1.00  0.00    -0.200 F 
ATOM     81  C   UNL A   1      49.348  26.685  24.564  1.00  0.00     0.200 A 
ATOM     82  F   UNL A   1      50.389  26.030  26.580  1.00  0.00    -0.200 F 
ATOM     83  F   UNL A   1      50.424  26.300  23.865  1.00  0.00    -0.200 F 
ENDBRANCH  49  73
BRANCH  61  84
ATOM     84  C   UNL A   1      45.287  33.584  28.907  1.00  0.00     0.064 A 
ATOM     85  C   UNL A   1      45.132  34.579  27.933  1.00  0.00     0.173 A 
ATOM     86  C   UNL A   1      46.104  33.859  30.014  1.00  0.00     0.173 A 
ATOM     87  F   UNL A   1      44.372  34.352  26.851  1.00  0.00    -0.203 F 
ATOM     88  C   UNL A   1      45.790  35.799  28.051  1.00  0.00     0.198 A 
ATOM     89  C   UNL A   1      46.742  35.089  30.140  1.00  0.00     0.198 A 
ATOM     90  F   UNL A   1      46.276  32.938  30.973  1.00  0.00    -0.203 F 
ATOM     91  F   UNL A   1      45.662  36.723  27.089  1.00  0.00    -0.200 F 
ATOM     92  C   UNL A   1      46.588  36.054  29.156  1.00  0.00     0.200 A 
ATOM     93  F   UNL A   1      47.506  35.339  31.212  1.00  0.00    -0.200 F 
ATOM     94  F   UNL A   1      47.219  37.231  29.270  1.00  0.00    -0.200 F 
ENDBRANCH  61  84
ENDBRANCH  35  36
ENDBRANCH  28  30
ENDBRANCH  27  28
ENDBRANCH  26  27
ENDBRANCH   1  26
TORSDOF 14
ENDMDL
