MODEL 1
REMARK VINA RESULT:     -11.7      0.000      0.000
REMARK SMILES COC(=O)[C@@H]1CCN(S(=O)(=O)N2CCC(C(=O)OCCOC(=O)c3ccc(-c4c5nc(c(-c6c(F)c(F)c(F)c(F)c6F)c6ccc([nH]6)c(-c6c(F)c(F)c(F)c(F)c6F)c6nc(c(-c7c(F)c(F)c(F)c(F)c7F)c7ccc4[nH]7)C=C6)C=C5)cc3)CC2)C1
REMARK SMILES IDX 19 1 18 2 16 3 17 4 15 5 12 6 13 7 88 8 14 9 87 10 9 11
REMARK SMILES IDX 10 12 11 13 8 14 5 15 6 16 89 17 7 18 3 19 4 20 2 21 1 22
REMARK SMILES IDX 20 23 21 24 22 25 23 26 24 27 25 28 86 29 26 30 85 31 27 32
REMARK SMILES IDX 28 33 29 34 79 35 30 36 84 37 78 38 80 39 31 40 83 41 77 42
REMARK SMILES IDX 76 43 32 45 64 46 44 47 63 48 45 49 48 50 62 51 81 52 46 53
REMARK SMILES IDX 47 54 61 56 82 57 49 58 33 59 34 60 42 61 35 62 36 63 40 64
REMARK SMILES IDX 43 65 37 66 38 67 41 68 39 69 65 70 66 71 74 72 67 73 68 74
REMARK SMILES IDX 72 75 75 76 69 77 70 78 73 79 71 80 50 81 51 82 59 83 52 84
REMARK SMILES IDX 53 85 57 86 60 87 54 88 55 89 58 90 56 91
REMARK H PARENT 80 44 48 55
REMARK Flexibility Score: inf
ROOT
ATOM      1  C   UNL A   1      42.637  20.787  26.308  1.00  0.00     0.274 C 
ENDROOT
BRANCH   1   2
ATOM      2  O   UNL A   1      41.295  20.678  25.799  1.00  0.00    -0.462 OA
BRANCH   2   3
ATOM      3  C   UNL A   1      40.354  21.274  26.563  1.00  0.00     0.309 C 
ATOM      4  O   UNL A   1      40.408  21.394  27.783  1.00  0.00    -0.252 OA
BRANCH   3   5
ATOM      5  C   UNL A   1      39.162  21.762  25.791  1.00  0.00     0.102 C 
ATOM      6  N   UNL A   1      36.559  22.673  25.047  1.00  0.00    -0.189 NA
ATOM      7  C   UNL A   1      37.083  21.441  24.412  1.00  0.00     0.104 C 
ATOM      8  C   UNL A   1      37.579  23.588  25.583  1.00  0.00     0.104 C 
ATOM      9  C   UNL A   1      38.110  20.754  25.332  1.00  0.00     0.032 C 
ATOM     10  C   UNL A   1      38.489  22.885  26.560  1.00  0.00     0.032 C 
BRANCH   6  11
ATOM     11  S   UNL A   1      35.143  23.346  24.429  1.00  0.00     0.281 S 
ATOM     12  O   UNL A   1      34.843  22.673  23.184  1.00  0.00    -0.195 OA
ATOM     13  O   UNL A   1      35.268  24.783  24.473  1.00  0.00    -0.195 OA
BRANCH  11  14
ATOM     14  N   UNL A   1      33.921  22.913  25.544  1.00  0.00    -0.188 NA
ATOM     15  C   UNL A   1      31.788  24.133  25.626  1.00  0.00     0.116 C 
ATOM     16  C   UNL A   1      31.772  23.064  24.549  1.00  0.00     0.033 C 
ATOM     17  C   UNL A   1      33.233  24.132  26.152  1.00  0.00     0.118 C 
ATOM     18  C   UNL A   1      32.785  22.080  25.086  1.00  0.00     0.104 C 
BRANCH  15  19
ATOM     19  C   UNL A   1      30.776  23.874  26.729  1.00  0.00     0.310 C 
ATOM     20  O   UNL A   1      30.941  23.053  27.621  1.00  0.00    -0.252 OA
BRANCH  19  21
ATOM     21  O   UNL A   1      29.691  24.689  26.616  1.00  0.00    -0.469 OA
ATOM     22  C   UNL A   1      29.879  25.893  25.875  1.00  0.00     0.282 C 
ENDBRANCH  19  21
ENDBRANCH  15  19
ENDBRANCH  11  14
ENDBRANCH   6  11
ENDBRANCH   3   5
ENDBRANCH   2   3
ENDBRANCH   1   2
BRANCH   1  23
ATOM     23  C   UNL A   1      43.531  21.598  25.365  1.00  0.00     0.275 C 
BRANCH  23  24
ATOM     24  O   UNL A   1      42.871  22.776  24.854  1.00  0.00    -0.458 OA
BRANCH  24  25
ATOM     25  C   UNL A   1      43.584  23.920  24.962  1.00  0.00     0.338 C 
ATOM     26  O   UNL A   1      44.607  24.212  24.365  1.00  0.00    -0.246 OA
BRANCH  25  27
ATOM     27  C   UNL A   1      42.919  24.875  25.860  1.00  0.00     0.060 A 
ATOM     28  C   UNL A   1      43.450  26.162  25.975  1.00  0.00     0.016 A 
ATOM     29  C   UNL A   1      41.898  24.456  26.711  1.00  0.00     0.016 A 
ATOM     30  C   UNL A   1      42.999  27.026  26.968  1.00  0.00     0.010 A 
ATOM     31  C   UNL A   1      41.427  25.334  27.696  1.00  0.00     0.010 A 
ATOM     32  C   UNL A   1      41.995  26.611  27.851  1.00  0.00    -0.014 A 
BRANCH  32  33
ATOM     33  C   UNL A   1      41.608  27.483  28.988  1.00  0.00     0.031 A 
ATOM     34  C   UNL A   1      42.397  27.430  30.268  1.00  0.00     0.074 A 
ATOM     35  C   UNL A   1      40.573  28.335  28.868  1.00  0.00     0.049 A 
ATOM     36  N   UNL A   1      42.170  28.026  31.411  1.00  0.00    -0.248 NA
ATOM     37  C   UNL A   1      43.603  26.587  30.261  1.00  0.00     0.031 C 
ATOM     38  C   UNL A   1      39.767  28.519  27.661  1.00  0.00     0.029 A 
ATOM     39  N   UNL A   1      40.019  29.203  29.776  1.00  0.00    -0.354 N 
ATOM     40  C   UNL A   1      43.186  27.614  32.263  1.00  0.00     0.074 A 
ATOM     41  C   UNL A   1      44.014  26.691  31.515  1.00  0.00     0.031 C 
ATOM     42  C   UNL A   1      38.823  29.444  27.902  1.00  0.00     0.029 A 
ATOM     43  C   UNL A   1      38.922  29.874  29.294  1.00  0.00     0.049 A 
ATOM     44  H   UNL A   1      40.375  29.332  30.685  1.00  0.00     0.167 HD
ATOM     45  C   UNL A   1      43.412  27.979  33.548  1.00  0.00     0.037 A 
ATOM     46  C   UNL A   1      38.072  30.713  29.916  1.00  0.00     0.037 A 
ATOM     47  C   UNL A   1      42.588  28.905  34.281  1.00  0.00     0.049 A 
ATOM     48  C   UNL A   1      38.300  31.038  31.370  1.00  0.00     0.074 A 
ATOM     49  C   UNL A   1      42.728  29.340  35.587  1.00  0.00     0.029 A 
ATOM     50  N   UNL A   1      41.467  29.542  33.768  1.00  0.00    -0.354 N 
ATOM     51  N   UNL A   1      39.258  30.639  32.170  1.00  0.00    -0.248 NA
ATOM     52  C   UNL A   1      37.326  31.937  32.005  1.00  0.00     0.031 C 
ATOM     53  C   UNL A   1      41.661  30.197  35.881  1.00  0.00     0.029 A 
ATOM     54  C   UNL A   1      40.895  30.352  34.736  1.00  0.00     0.049 A 
ATOM     55  H   UNL A   1      41.127  29.434  32.849  1.00  0.00     0.167 HD
ATOM     56  C   UNL A   1      39.027  31.267  33.388  1.00  0.00     0.074 A 
ATOM     57  C   UNL A   1      37.843  32.084  33.215  1.00  0.00     0.031 C 
ATOM     58  C   UNL A   1      39.730  31.178  34.543  1.00  0.00     0.037 A 
BRANCH  45  59
ATOM     59  C   UNL A   1      44.582  27.353  34.255  1.00  0.00     0.064 A 
ATOM     60  C   UNL A   1      44.468  26.131  34.936  1.00  0.00     0.173 A 
ATOM     61  C   UNL A   1      45.843  27.967  34.223  1.00  0.00     0.173 A 
ATOM     62  F   UNL A   1      43.283  25.506  35.009  1.00  0.00    -0.203 F 
ATOM     63  C   UNL A   1      45.565  25.564  35.582  1.00  0.00     0.198 A 
ATOM     64  C   UNL A   1      46.945  27.381  34.840  1.00  0.00     0.198 A 
ATOM     65  F   UNL A   1      46.012  29.133  33.581  1.00  0.00    -0.203 F 
ATOM     66  F   UNL A   1      45.418  24.423  36.270  1.00  0.00    -0.200 F 
ATOM     67  C   UNL A   1      46.803  26.184  35.527  1.00  0.00     0.200 A 
ATOM     68  F   UNL A   1      48.145  27.974  34.771  1.00  0.00    -0.200 F 
ATOM     69  F   UNL A   1      47.859  25.633  36.141  1.00  0.00    -0.200 F 
ENDBRANCH  45  59
BRANCH  46  70
ATOM     70  C   UNL A   1      36.920  31.296  29.179  1.00  0.00     0.064 A 
ATOM     71  C   UNL A   1      36.905  32.650  28.818  1.00  0.00     0.173 A 
ATOM     72  C   UNL A   1      35.796  30.523  28.850  1.00  0.00     0.173 A 
ATOM     73  F   UNL A   1      37.946  33.438  29.129  1.00  0.00    -0.203 F 
ATOM     74  C   UNL A   1      35.802  33.216  28.182  1.00  0.00     0.198 A 
ATOM     75  C   UNL A   1      34.707  31.081  28.183  1.00  0.00     0.198 A 
ATOM     76  F   UNL A   1      35.757  29.221  29.170  1.00  0.00    -0.203 F 
ATOM     77  F   UNL A   1      35.791  34.526  27.903  1.00  0.00    -0.200 F 
ATOM     78  C   UNL A   1      34.706  32.430  27.860  1.00  0.00     0.200 A 
ATOM     79  F   UNL A   1      33.658  30.314  27.859  1.00  0.00    -0.200 F 
ATOM     80  F   UNL A   1      33.645  32.974  27.250  1.00  0.00    -0.200 F 
ENDBRANCH  46  70
BRANCH  58  81
ATOM     81  C   UNL A   1      39.285  32.040  35.691  1.00  0.00     0.064 A 
ATOM     82  C   UNL A   1      39.706  33.370  35.833  1.00  0.00     0.173 A 
ATOM     83  C   UNL A   1      38.397  31.528  36.651  1.00  0.00     0.173 A 
ATOM     84  F   UNL A   1      40.565  33.904  34.952  1.00  0.00    -0.203 F 
ATOM     85  C   UNL A   1      39.286  34.143  36.912  1.00  0.00     0.198 A 
ATOM     86  C   UNL A   1      37.948  32.316  37.708  1.00  0.00     0.198 A 
ATOM     87  F   UNL A   1      37.955  30.265  36.560  1.00  0.00    -0.203 F 
ATOM     88  F   UNL A   1      39.751  35.391  37.060  1.00  0.00    -0.200 F 
ATOM     89  C   UNL A   1      38.401  33.619  37.843  1.00  0.00     0.200 A 
ATOM     90  F   UNL A   1      37.080  31.812  38.595  1.00  0.00    -0.200 F 
ATOM     91  F   UNL A   1      37.993  34.367  38.877  1.00  0.00    -0.200 F 
ENDBRANCH  58  81
ENDBRANCH  32  33
ENDBRANCH  25  27
ENDBRANCH  24  25
ENDBRANCH  23  24
ENDBRANCH   1  23
TORSDOF 15
ENDMDL
MODEL 2
REMARK VINA RESULT:     -11.7      0.919      2.037
REMARK SMILES COC(=O)[C@@H]1CCN(S(=O)(=O)N2CCC(C(=O)OCCOC(=O)c3ccc(-c4c5nc(c(-c6c(F)c(F)c(F)c(F)c6F)c6ccc([nH]6)c(-c6c(F)c(F)c(F)c(F)c6F)c6nc(c(-c7c(F)c(F)c(F)c(F)c7F)c7ccc4[nH]7)C=C6)C=C5)cc3)CC2)C1
REMARK SMILES IDX 19 1 18 2 16 3 17 4 15 5 12 6 13 7 88 8 14 9 87 10 9 11
REMARK SMILES IDX 10 12 11 13 8 14 5 15 6 16 89 17 7 18 3 19 4 20 2 21 1 22
REMARK SMILES IDX 20 23 21 24 22 25 23 26 24 27 25 28 86 29 26 30 85 31 27 32
REMARK SMILES IDX 28 33 29 34 79 35 30 36 84 37 78 38 80 39 31 40 83 41 77 42
REMARK SMILES IDX 76 43 32 45 64 46 44 47 63 48 45 49 48 50 62 51 81 52 46 53
REMARK SMILES IDX 47 54 61 56 82 57 49 58 33 59 34 60 42 61 35 62 36 63 40 64
REMARK SMILES IDX 43 65 37 66 38 67 41 68 39 69 65 70 66 71 74 72 67 73 68 74
REMARK SMILES IDX 72 75 75 76 69 77 70 78 73 79 71 80 50 81 51 82 59 83 52 84
REMARK SMILES IDX 53 85 57 86 60 87 54 88 55 89 58 90 56 91
REMARK H PARENT 80 44 48 55
REMARK Flexibility Score: inf
ROOT
ATOM      1  C   UNL A   1      42.368  20.978  26.118  1.00  0.00     0.274 C 
ENDROOT
BRANCH   1   2
ATOM      2  O   UNL A   1      41.050  21.416  25.739  1.00  0.00    -0.462 OA
BRANCH   2   3
ATOM      3  C   UNL A   1      40.196  21.584  26.772  1.00  0.00     0.309 C 
ATOM      4  O   UNL A   1      40.469  21.387  27.953  1.00  0.00    -0.252 OA
BRANCH   3   5
ATOM      5  C   UNL A   1      38.814  22.002  26.358  1.00  0.00     0.102 C 
ATOM      6  N   UNL A   1      36.498  22.701  24.841  1.00  0.00    -0.189 NA
ATOM      7  C   UNL A   1      37.046  23.698  25.791  1.00  0.00     0.104 C 
ATOM      8  C   UNL A   1      36.846  21.300  25.126  1.00  0.00     0.104 C 
ATOM      9  C   UNL A   1      38.553  23.465  26.007  1.00  0.00     0.032 C 
ATOM     10  C   UNL A   1      38.340  21.114  25.221  1.00  0.00     0.032 C 
BRANCH   6  11
ATOM     11  S   UNL A   1      34.999  23.014  24.137  1.00  0.00     0.281 S 
ATOM     12  O   UNL A   1      34.126  21.903  24.449  1.00  0.00    -0.195 OA
ATOM     13  O   UNL A   1      35.217  23.411  22.767  1.00  0.00    -0.195 OA
BRANCH  11  14
ATOM     14  N   UNL A   1      34.393  24.381  24.967  1.00  0.00    -0.188 NA
ATOM     15  C   UNL A   1      32.524  25.693  24.056  1.00  0.00     0.116 C 
ATOM     16  C   UNL A   1      32.027  24.481  24.823  1.00  0.00     0.033 C 
ATOM     17  C   UNL A   1      34.053  25.529  24.021  1.00  0.00     0.118 C 
ATOM     18  C   UNL A   1      33.167  24.246  25.786  1.00  0.00     0.104 C 
BRANCH  15  19
ATOM     19  C   UNL A   1      32.103  27.007  24.692  1.00  0.00     0.310 C 
ATOM     20  O   UNL A   1      31.097  27.138  25.376  1.00  0.00    -0.252 OA
BRANCH  19  21
ATOM     21  O   UNL A   1      32.999  28.000  24.432  1.00  0.00    -0.469 OA
ATOM     22  C   UNL A   1      32.687  29.288  24.958  1.00  0.00     0.282 C 
ENDBRANCH  19  21
ENDBRANCH  15  19
ENDBRANCH  11  14
ENDBRANCH   6  11
ENDBRANCH   3   5
ENDBRANCH   2   3
ENDBRANCH   1   2
BRANCH   1  23
ATOM     23  C   UNL A   1      43.455  21.776  25.392  1.00  0.00     0.275 C 
BRANCH  23  24
ATOM     24  O   UNL A   1      42.942  22.977  24.776  1.00  0.00    -0.458 OA
BRANCH  24  25
ATOM     25  C   UNL A   1      43.692  24.085  24.977  1.00  0.00     0.338 C 
ATOM     26  O   UNL A   1      44.756  24.363  24.448  1.00  0.00    -0.246 OA
BRANCH  25  27
ATOM     27  C   UNL A   1      43.017  25.022  25.886  1.00  0.00     0.060 A 
ATOM     28  C   UNL A   1      43.535  26.313  26.017  1.00  0.00     0.016 A 
ATOM     29  C   UNL A   1      42.000  24.582  26.732  1.00  0.00     0.016 A 
ATOM     30  C   UNL A   1      43.075  27.160  27.019  1.00  0.00     0.010 A 
ATOM     31  C   UNL A   1      41.520  25.443  27.727  1.00  0.00     0.010 A 
ATOM     32  C   UNL A   1      42.075  26.725  27.897  1.00  0.00    -0.014 A 
BRANCH  32  33
ATOM     33  C   UNL A   1      41.679  27.579  29.045  1.00  0.00     0.031 A 
ATOM     34  C   UNL A   1      42.463  27.513  30.327  1.00  0.00     0.074 A 
ATOM     35  C   UNL A   1      40.640  28.427  28.932  1.00  0.00     0.049 A 
ATOM     36  N   UNL A   1      42.228  28.093  31.477  1.00  0.00    -0.248 NA
ATOM     37  C   UNL A   1      43.673  26.676  30.313  1.00  0.00     0.031 C 
ATOM     38  C   UNL A   1      39.837  28.623  27.725  1.00  0.00     0.029 A 
ATOM     39  N   UNL A   1      40.078  29.279  29.849  1.00  0.00    -0.354 N 
ATOM     40  C   UNL A   1      43.243  27.674  32.327  1.00  0.00     0.074 A 
ATOM     41  C   UNL A   1      44.080  26.766  31.570  1.00  0.00     0.031 C 
ATOM     42  C   UNL A   1      38.887  29.539  27.974  1.00  0.00     0.029 A 
ATOM     43  C   UNL A   1      38.978  29.950  29.372  1.00  0.00     0.049 A 
ATOM     44  H   UNL A   1      40.429  29.398  30.761  1.00  0.00     0.167 HD
ATOM     45  C   UNL A   1      43.463  28.023  33.617  1.00  0.00     0.037 A 
ATOM     46  C   UNL A   1      38.122  30.777  30.002  1.00  0.00     0.037 A 
ATOM     47  C   UNL A   1      42.630  28.934  34.360  1.00  0.00     0.049 A 
ATOM     48  C   UNL A   1      38.342  31.083  31.461  1.00  0.00     0.074 A 
ATOM     49  C   UNL A   1      42.763  29.353  35.673  1.00  0.00     0.029 A 
ATOM     50  N   UNL A   1      41.508  29.573  33.851  1.00  0.00    -0.354 N 
ATOM     51  N   UNL A   1      39.299  30.678  32.260  1.00  0.00    -0.248 NA
ATOM     52  C   UNL A   1      37.360  31.967  32.104  1.00  0.00     0.031 C 
ATOM     53  C   UNL A   1      41.690  30.199  35.973  1.00  0.00     0.029 A 
ATOM     54  C   UNL A   1      40.928  30.366  34.828  1.00  0.00     0.049 A 
ATOM     55  H   UNL A   1      41.172  29.475  32.930  1.00  0.00     0.167 HD
ATOM     56  C   UNL A   1      39.059  31.289  33.485  1.00  0.00     0.074 A 
ATOM     57  C   UNL A   1      37.872  32.101  33.318  1.00  0.00     0.031 C 
ATOM     58  C   UNL A   1      39.759  31.188  34.642  1.00  0.00     0.037 A 
BRANCH  45  59
ATOM     59  C   UNL A   1      44.633  27.394  34.321  1.00  0.00     0.064 A 
ATOM     60  C   UNL A   1      45.890  28.016  34.368  1.00  0.00     0.173 A 
ATOM     61  C   UNL A   1      44.486  26.168  34.987  1.00  0.00     0.173 A 
ATOM     62  F   UNL A   1      46.091  29.183  33.738  1.00  0.00    -0.203 F 
ATOM     63  C   UNL A   1      46.962  27.419  35.029  1.00  0.00     0.198 A 
ATOM     64  C   UNL A   1      45.549  25.591  35.676  1.00  0.00     0.198 A 
ATOM     65  F   UNL A   1      43.305  25.531  34.981  1.00  0.00    -0.203 F 
ATOM     66  F   UNL A   1      48.167  28.007  35.015  1.00  0.00    -0.200 F 
ATOM     67  C   UNL A   1      46.789  26.212  35.689  1.00  0.00     0.200 A 
ATOM     68  F   UNL A   1      45.375  24.432  36.327  1.00  0.00    -0.200 F 
ATOM     69  F   UNL A   1      47.819  25.644  36.332  1.00  0.00    -0.200 F 
ENDBRANCH  45  59
BRANCH  46  70
ATOM     70  C   UNL A   1      36.968  31.363  29.269  1.00  0.00     0.064 A 
ATOM     71  C   UNL A   1      36.953  32.719  28.915  1.00  0.00     0.173 A 
ATOM     72  C   UNL A   1      35.845  30.592  28.936  1.00  0.00     0.173 A 
ATOM     73  F   UNL A   1      37.994  33.506  29.230  1.00  0.00    -0.203 F 
ATOM     74  C   UNL A   1      35.849  33.287  28.283  1.00  0.00     0.198 A 
ATOM     75  C   UNL A   1      34.756  31.153  28.272  1.00  0.00     0.198 A 
ATOM     76  F   UNL A   1      35.807  29.288  29.249  1.00  0.00    -0.203 F 
ATOM     77  F   UNL A   1      35.838  34.599  28.010  1.00  0.00    -0.200 F 
ATOM     78  C   UNL A   1      34.754  32.503  27.957  1.00  0.00     0.200 A 
ATOM     79  F   UNL A   1      33.707  30.387  27.944  1.00  0.00    -0.200 F 
ATOM     80  F   UNL A   1      33.692  33.050  27.350  1.00  0.00    -0.200 F 
ENDBRANCH  46  70
BRANCH  58  81
ATOM     81  C   UNL A   1      39.304  32.032  35.799  1.00  0.00     0.064 A 
ATOM     82  C   UNL A   1      38.376  31.567  36.742  1.00  0.00     0.173 A 
ATOM     83  C   UNL A   1      39.832  33.321  35.980  1.00  0.00     0.173 A 
ATOM     84  F   UNL A   1      37.829  30.349  36.608  1.00  0.00    -0.203 F 
ATOM     85  C   UNL A   1      37.964  32.374  37.800  1.00  0.00     0.198 A 
ATOM     86  C   UNL A   1      39.448  34.110  37.060  1.00  0.00     0.198 A 
ATOM     87  F   UNL A   1      40.731  33.812  35.113  1.00  0.00    -0.203 F 
ATOM     88  F   UNL A   1      37.028  31.932  38.651  1.00  0.00    -0.200 F 
ATOM     89  C   UNL A   1      38.506  33.640  37.962  1.00  0.00     0.200 A 
ATOM     90  F   UNL A   1      39.986  35.325  37.225  1.00  0.00    -0.200 F 
ATOM     91  F   UNL A   1      38.113  34.413  38.985  1.00  0.00    -0.200 F 
ENDBRANCH  58  81
ENDBRANCH  32  33
ENDBRANCH  25  27
ENDBRANCH  24  25
ENDBRANCH  23  24
ENDBRANCH   1  23
TORSDOF 15
ENDMDL
MODEL 3
REMARK VINA RESULT:     -11.5      4.553      8.632
REMARK SMILES COC(=O)[C@@H]1CCN(S(=O)(=O)N2CCC(C(=O)OCCOC(=O)c3ccc(-c4c5nc(c(-c6c(F)c(F)c(F)c(F)c6F)c6ccc([nH]6)c(-c6c(F)c(F)c(F)c(F)c6F)c6nc(c(-c7c(F)c(F)c(F)c(F)c7F)c7ccc4[nH]7)C=C6)C=C5)cc3)CC2)C1
REMARK SMILES IDX 19 1 18 2 16 3 17 4 15 5 12 6 13 7 88 8 14 9 87 10 9 11
REMARK SMILES IDX 10 12 11 13 8 14 5 15 6 16 89 17 7 18 3 19 4 20 2 21 1 22
REMARK SMILES IDX 20 23 21 24 22 25 23 26 24 27 25 28 86 29 26 30 85 31 27 32
REMARK SMILES IDX 28 33 29 34 79 35 30 36 84 37 78 38 80 39 31 40 83 41 77 42
REMARK SMILES IDX 76 43 32 45 64 46 44 47 63 48 45 49 48 50 62 51 81 52 46 53
REMARK SMILES IDX 47 54 61 56 82 57 49 58 33 59 34 60 42 61 35 62 36 63 40 64
REMARK SMILES IDX 43 65 37 66 38 67 41 68 39 69 65 70 66 71 74 72 67 73 68 74
REMARK SMILES IDX 72 75 75 76 69 77 70 78 73 79 71 80 50 81 51 82 59 83 52 84
REMARK SMILES IDX 53 85 57 86 60 87 54 88 55 89 58 90 56 91
REMARK H PARENT 80 44 48 55
REMARK Flexibility Score: inf
ROOT
ATOM      1  C   UNL A   1      36.261  19.664  24.857  1.00  0.00     0.274 C 
ENDROOT
BRANCH   1   2
ATOM      2  O   UNL A   1      35.471  20.744  25.390  1.00  0.00    -0.462 OA
BRANCH   2   3
ATOM      3  C   UNL A   1      34.162  20.695  25.064  1.00  0.00     0.309 C 
ATOM      4  O   UNL A   1      33.398  19.775  25.344  1.00  0.00    -0.252 OA
BRANCH   3   5
ATOM      5  C   UNL A   1      33.691  21.872  24.258  1.00  0.00     0.102 C 
ATOM      6  N   UNL A   1      33.095  24.513  23.347  1.00  0.00    -0.189 NA
ATOM      7  C   UNL A   1      31.976  23.556  23.516  1.00  0.00     0.104 C 
ATOM      8  C   UNL A   1      34.421  23.904  23.154  1.00  0.00     0.104 C 
ATOM      9  C   UNL A   1      32.330  22.491  24.572  1.00  0.00     0.032 C 
ATOM     10  C   UNL A   1      34.757  22.952  24.274  1.00  0.00     0.032 C 
BRANCH   6  11
ATOM     11  S   UNL A   1      32.779  25.977  22.577  1.00  0.00     0.281 S 
ATOM     12  O   UNL A   1      31.411  25.942  22.107  1.00  0.00    -0.195 OA
ATOM     13  O   UNL A   1      33.861  26.249  21.661  1.00  0.00    -0.195 OA
BRANCH  11  14
ATOM     14  N   UNL A   1      32.859  27.157  23.812  1.00  0.00    -0.188 NA
ATOM     15  C   UNL A   1      31.604  26.886  25.910  1.00  0.00     0.116 C 
ATOM     16  C   UNL A   1      32.924  26.139  25.955  1.00  0.00     0.033 C 
ATOM     17  C   UNL A   1      31.501  27.405  24.465  1.00  0.00     0.118 C 
ATOM     18  C   UNL A   1      33.753  26.932  24.972  1.00  0.00     0.104 C 
BRANCH  15  19
ATOM     19  C   UNL A   1      31.526  28.009  26.930  1.00  0.00     0.310 C 
ATOM     20  O   UNL A   1      31.405  27.825  28.133  1.00  0.00    -0.252 OA
BRANCH  19  21
ATOM     21  O   UNL A   1      31.640  29.231  26.339  1.00  0.00    -0.469 OA
ATOM     22  C   UNL A   1      32.663  30.085  26.845  1.00  0.00     0.282 C 
ENDBRANCH  19  21
ENDBRANCH  15  19
ENDBRANCH  11  14
ENDBRANCH   6  11
ENDBRANCH   3   5
ENDBRANCH   2   3
ENDBRANCH   1   2
BRANCH   1  23
ATOM     23  C   UNL A   1      37.732  20.062  24.712  1.00  0.00     0.275 C 
BRANCH  23  24
ATOM     24  O   UNL A   1      38.108  21.130  25.609  1.00  0.00    -0.458 OA
BRANCH  24  25
ATOM     25  C   UNL A   1      39.325  20.990  26.182  1.00  0.00     0.338 C 
ATOM     26  O   UNL A   1      40.029  19.993  26.187  1.00  0.00    -0.246 OA
BRANCH  25  27
ATOM     27  C   UNL A   1      39.788  22.261  26.757  1.00  0.00     0.060 A 
ATOM     28  C   UNL A   1      39.302  23.453  26.215  1.00  0.00     0.016 A 
ATOM     29  C   UNL A   1      40.820  22.282  27.693  1.00  0.00     0.016 A 
ATOM     30  C   UNL A   1      39.871  24.672  26.569  1.00  0.00     0.010 A 
ATOM     31  C   UNL A   1      41.377  23.511  28.067  1.00  0.00     0.010 A 
ATOM     32  C   UNL A   1      40.928  24.711  27.485  1.00  0.00    -0.014 A 
BRANCH  32  33
ATOM     33  C   UNL A   1      41.618  25.996  27.761  1.00  0.00     0.031 A 
ATOM     34  C   UNL A   1      40.905  27.071  28.535  1.00  0.00     0.074 A 
ATOM     35  C   UNL A   1      42.883  26.190  27.345  1.00  0.00     0.049 A 
ATOM     36  N   UNL A   1      41.282  28.297  28.796  1.00  0.00    -0.248 NA
ATOM     37  C   UNL A   1      39.586  26.719  29.084  1.00  0.00     0.031 C 
ATOM     38  C   UNL A   1      43.699  25.204  26.636  1.00  0.00     0.029 A 
ATOM     39  N   UNL A   1      43.702  27.286  27.455  1.00  0.00    -0.354 N 
ATOM     40  C   UNL A   1      40.241  28.868  29.517  1.00  0.00     0.074 A 
ATOM     41  C   UNL A   1      39.202  27.865  29.625  1.00  0.00     0.031 C 
ATOM     42  C   UNL A   1      44.903  25.739  26.376  1.00  0.00     0.029 A 
ATOM     43  C   UNL A   1      44.923  27.120  26.847  1.00  0.00     0.049 A 
ATOM     44  H   UNL A   1      43.440  28.111  27.923  1.00  0.00     0.167 HD
ATOM     45  C   UNL A   1      40.163  30.112  30.048  1.00  0.00     0.037 A 
ATOM     46  C   UNL A   1      45.929  27.996  26.662  1.00  0.00     0.037 A 
ATOM     47  C   UNL A   1      41.206  31.101  29.944  1.00  0.00     0.049 A 
ATOM     48  C   UNL A   1      45.782  29.399  27.192  1.00  0.00     0.074 A 
ATOM     49  C   UNL A   1      41.227  32.392  30.443  1.00  0.00     0.029 A 
ATOM     50  N   UNL A   1      42.417  30.906  29.295  1.00  0.00    -0.354 N 
ATOM     51  N   UNL A   1      44.793  29.935  27.865  1.00  0.00    -0.248 NA
ATOM     52  C   UNL A   1      46.899  30.320  26.936  1.00  0.00     0.031 C 
ATOM     53  C   UNL A   1      42.426  32.995  30.049  1.00  0.00     0.029 A 
ATOM     54  C   UNL A   1      43.184  32.058  29.365  1.00  0.00     0.049 A 
ATOM     55  H   UNL A   1      42.692  30.071  28.850  1.00  0.00     0.167 HD
ATOM     56  C   UNL A   1      45.183  31.237  28.149  1.00  0.00     0.074 A 
ATOM     57  C   UNL A   1      46.506  31.407  27.584  1.00  0.00     0.031 C 
ATOM     58  C   UNL A   1      44.509  32.205  28.818  1.00  0.00     0.037 A 
BRANCH  45  59
ATOM     59  C   UNL A   1      38.896  30.487  30.765  1.00  0.00     0.064 A 
ATOM     60  C   UNL A   1      38.791  30.426  32.163  1.00  0.00     0.173 A 
ATOM     61  C   UNL A   1      37.783  30.947  30.046  1.00  0.00     0.173 A 
ATOM     62  F   UNL A   1      39.820  29.981  32.900  1.00  0.00    -0.203 F 
ATOM     63  C   UNL A   1      37.609  30.782  32.811  1.00  0.00     0.198 A 
ATOM     64  C   UNL A   1      36.615  31.335  30.698  1.00  0.00     0.198 A 
ATOM     65  F   UNL A   1      37.829  31.033  28.708  1.00  0.00    -0.203 F 
ATOM     66  F   UNL A   1      37.515  30.664  34.142  1.00  0.00    -0.200 F 
ATOM     67  C   UNL A   1      36.525  31.243  32.079  1.00  0.00     0.200 A 
ATOM     68  F   UNL A   1      35.575  31.796  29.989  1.00  0.00    -0.200 F 
ATOM     69  F   UNL A   1      35.393  31.594  32.703  1.00  0.00    -0.200 F 
ENDBRANCH  45  59
BRANCH  46  70
ATOM     70  C   UNL A   1      47.158  27.584  25.933  1.00  0.00     0.064 A 
ATOM     71  C   UNL A   1      47.238  27.691  24.538  1.00  0.00     0.173 A 
ATOM     72  C   UNL A   1      48.263  27.045  26.609  1.00  0.00     0.173 A 
ATOM     73  F   UNL A   1      46.200  28.180  23.842  1.00  0.00    -0.203 F 
ATOM     74  C   UNL A   1      48.363  27.249  23.844  1.00  0.00     0.198 A 
ATOM     75  C   UNL A   1      49.401  26.636  25.918  1.00  0.00     0.198 A 
ATOM     76  F   UNL A   1      48.240  26.922  27.944  1.00  0.00    -0.203 F 
ATOM     77  F   UNL A   1      48.388  27.309  22.506  1.00  0.00    -0.200 F 
ATOM     78  C   UNL A   1      49.446  26.727  24.535  1.00  0.00     0.200 A 
ATOM     79  F   UNL A   1      50.452  26.149  26.591  1.00  0.00    -0.200 F 
ATOM     80  F   UNL A   1      50.526  26.302  23.868  1.00  0.00    -0.200 F 
ENDBRANCH  46  70
BRANCH  58  81
ATOM     81  C   UNL A   1      45.218  33.511  29.042  1.00  0.00     0.064 A 
ATOM     82  C   UNL A   1      45.078  34.596  28.164  1.00  0.00     0.173 A 
ATOM     83  C   UNL A   1      46.032  33.684  30.173  1.00  0.00     0.173 A 
ATOM     84  F   UNL A   1      44.325  34.479  27.060  1.00  0.00    -0.203 F 
ATOM     85  C   UNL A   1      45.755  35.792  28.390  1.00  0.00     0.198 A 
ATOM     86  C   UNL A   1      46.676  34.895  30.417  1.00  0.00     0.198 A 
ATOM     87  F   UNL A   1      46.194  32.683  31.051  1.00  0.00    -0.203 F 
ATOM     88  F   UNL A   1      45.656  36.793  27.504  1.00  0.00    -0.200 F 
ATOM     89  C   UNL A   1      46.546  35.943  29.519  1.00  0.00     0.200 A 
ATOM     90  F   UNL A   1      47.425  35.044  31.517  1.00  0.00    -0.200 F 
ATOM     91  F   UNL A   1      47.192  37.098  29.738  1.00  0.00    -0.200 F 
ENDBRANCH  58  81
ENDBRANCH  32  33
ENDBRANCH  25  27
ENDBRANCH  24  25
ENDBRANCH  23  24
ENDBRANCH   1  23
TORSDOF 15
ENDMDL
