MODEL 1
REMARK VINA RESULT:     -12.1      0.000      0.000
REMARK SMILES CCc1ccc(C[NH+]2CCC(Oc3ccccc3OC)(C(=O)OCCOC(=O)c3ccc(-c4c5nc(c(-c6c(F)c(F)c(F)c(F)c6F)c6ccc([nH]6)c(-c6c(F)c(F)c(F)c(F)c6F)c6nc(c(-c7c(F)c(F)c(F)c(F)c7F)c7ccc4[nH]7)C=C6)C=C5)cc3)CC2)nc1
REMARK SMILES IDX 24 1 23 2 21 3 22 4 11 5 8 6 9 7 93 8 10 10 92 11 7 12 6 13
REMARK SMILES IDX 3 14 4 15 95 16 5 17 94 18 2 19 1 20 12 21 13 22 14 23 18 24
REMARK SMILES IDX 15 25 17 26 16 27 19 28 20 29 25 30 26 31 27 32 28 33 29 34
REMARK SMILES IDX 30 35 91 36 31 37 90 38 32 39 33 40 34 41 84 42 35 43 89 44
REMARK SMILES IDX 83 45 85 46 36 47 88 48 82 49 81 50 37 52 69 53 49 54 68 55
REMARK SMILES IDX 50 56 53 57 67 58 86 59 51 60 52 61 66 63 87 64 54 65 38 66
REMARK SMILES IDX 39 67 47 68 40 69 41 70 45 71 48 72 42 73 43 74 46 75 44 76
REMARK SMILES IDX 70 77 71 78 79 79 72 80 73 81 77 82 80 83 74 84 75 85 78 86
REMARK SMILES IDX 76 87 55 88 56 89 64 90 57 91 58 92 62 93 65 94 59 95 60 96
REMARK SMILES IDX 63 97 61 98
REMARK H PARENT 8 9 85 51 53 62
REMARK Flexibility Score: inf
ROOT
ATOM      1  C   UNL A   1      36.820  22.469  23.594  1.00  0.00     0.274 C 
ENDROOT
BRANCH   1   2
ATOM      2  O   UNL A   1      36.141  23.461  24.392  1.00  0.00    -0.459 OA
BRANCH   2   3
ATOM      3  C   UNL A   1      35.036  24.007  23.812  1.00  0.00     0.351 C 
ATOM      4  O   UNL A   1      35.093  24.781  22.858  1.00  0.00    -0.247 OA
BRANCH   3   5
ATOM      5  C   UNL A   1      33.717  23.690  24.539  1.00  0.00     0.216 C 
ATOM      6  N   UNL A   1      32.429  21.197  23.672  1.00  0.00    -0.330 N 
ATOM      7  C   UNL A   1      33.602  21.146  24.550  1.00  0.00     0.267 C 
ATOM      8  C   UNL A   1      32.523  22.323  22.746  1.00  0.00     0.267 C 
ATOM      9  H   UNL A   1      31.620  21.347  24.274  1.00  0.00     0.348 HD
ATOM     10  C   UNL A   1      33.714  22.416  25.387  1.00  0.00     0.122 C 
ATOM     11  C   UNL A   1      32.564  23.651  23.515  1.00  0.00     0.122 C 
BRANCH   6  12
ATOM     12  C   UNL A   1      32.154  19.914  22.973  1.00  0.00     0.319 C 
BRANCH  12  13
ATOM     13  C   UNL A   1      32.589  18.620  23.651  1.00  0.00     0.095 A 
ATOM     14  C   UNL A   1      33.186  16.170  24.790  1.00  0.00    -0.030 A 
ATOM     15  C   UNL A   1      33.659  16.468  23.516  1.00  0.00     0.007 A 
ATOM     16  C   UNL A   1      32.486  17.174  25.454  1.00  0.00     0.115 A 
ATOM     17  C   UNL A   1      33.377  17.706  22.949  1.00  0.00     0.030 A 
ATOM     18  N   UNL A   1      32.171  18.383  24.921  1.00  0.00    -0.255 NA
BRANCH  14  19
ATOM     19  C   UNL A   1      33.355  14.796  25.378  1.00  0.00     0.034 C 
ATOM     20  C   UNL A   1      32.151  14.373  26.212  1.00  0.00     0.009 C 
ENDBRANCH  14  19
ENDBRANCH  12  13
ENDBRANCH   6  12
BRANCH   5  21
ATOM     21  O   UNL A   1      33.780  24.849  25.425  1.00  0.00    -0.471 OA
BRANCH  21  22
ATOM     22  C   UNL A   1      32.782  25.768  25.363  1.00  0.00     0.162 A 
ATOM     23  C   UNL A   1      32.974  26.905  24.575  1.00  0.00     0.050 A 
ATOM     24  C   UNL A   1      31.653  25.666  26.181  1.00  0.00     0.160 A 
ATOM     25  C   UNL A   1      31.997  27.899  24.537  1.00  0.00     0.004 A 
ATOM     26  C   UNL A   1      30.664  26.645  26.118  1.00  0.00     0.050 A 
ATOM     27  C   UNL A   1      30.837  27.764  25.299  1.00  0.00     0.004 A 
BRANCH  24  28
ATOM     28  O   UNL A   1      31.422  24.598  27.006  1.00  0.00    -0.493 OA
ATOM     29  C   UNL A   1      30.404  23.735  26.500  1.00  0.00     0.278 C 
ENDBRANCH  24  28
ENDBRANCH  21  22
ENDBRANCH   5  21
ENDBRANCH   3   5
ENDBRANCH   2   3
ENDBRANCH   1   2
BRANCH   1  30
ATOM     30  C   UNL A   1      37.346  21.286  24.406  1.00  0.00     0.275 C 
BRANCH  30  31
ATOM     31  O   UNL A   1      37.598  21.647  25.776  1.00  0.00    -0.458 OA
BRANCH  31  32
ATOM     32  C   UNL A   1      38.899  21.544  26.126  1.00  0.00     0.338 C 
ATOM     33  O   UNL A   1      39.631  20.597  25.896  1.00  0.00    -0.246 OA
BRANCH  32  34
ATOM     34  C   UNL A   1      39.392  22.754  26.806  1.00  0.00     0.060 A 
ATOM     35  C   UNL A   1      38.920  24.001  26.404  1.00  0.00     0.016 A 
ATOM     36  C   UNL A   1      40.510  22.662  27.634  1.00  0.00     0.016 A 
ATOM     37  C   UNL A   1      39.653  25.146  26.697  1.00  0.00     0.010 A 
ATOM     38  C   UNL A   1      41.200  23.820  28.002  1.00  0.00     0.010 A 
ATOM     39  C   UNL A   1      40.802  25.065  27.495  1.00  0.00    -0.014 A 
BRANCH  39  40
ATOM     40  C   UNL A   1      41.550  26.293  27.849  1.00  0.00     0.031 A 
ATOM     41  C   UNL A   1      40.903  27.407  28.617  1.00  0.00     0.074 A 
ATOM     42  C   UNL A   1      42.830  26.395  27.448  1.00  0.00     0.049 A 
ATOM     43  N   UNL A   1      41.348  28.619  28.840  1.00  0.00    -0.248 NA
ATOM     44  C   UNL A   1      39.589  27.130  29.215  1.00  0.00     0.031 C 
ATOM     45  C   UNL A   1      43.570  25.354  26.734  1.00  0.00     0.029 A 
ATOM     46  N   UNL A   1      43.726  27.423  27.569  1.00  0.00    -0.354 N 
ATOM     47  C   UNL A   1      40.363  29.256  29.583  1.00  0.00     0.074 A 
ATOM     48  C   UNL A   1      39.293  28.299  29.773  1.00  0.00     0.031 C 
ATOM     49  C   UNL A   1      44.807  25.799  26.472  1.00  0.00     0.029 A 
ATOM     50  C   UNL A   1      44.915  27.178  26.932  1.00  0.00     0.049 A 
ATOM     51  H   UNL A   1      43.536  28.254  28.063  1.00  0.00     0.167 HD
ATOM     52  C   UNL A   1      40.364  30.525  30.057  1.00  0.00     0.037 A 
ATOM     53  C   UNL A   1      45.957  27.989  26.686  1.00  0.00     0.037 A 
ATOM     54  C   UNL A   1      41.446  31.461  29.876  1.00  0.00     0.049 A 
ATOM     55  C   UNL A   1      45.910  29.404  27.169  1.00  0.00     0.074 A 
ATOM     56  C   UNL A   1      41.544  32.769  30.320  1.00  0.00     0.029 A 
ATOM     57  N   UNL A   1      42.625  31.180  29.201  1.00  0.00    -0.354 N 
ATOM     58  N   UNL A   1      44.950  30.020  27.813  1.00  0.00    -0.248 NA
ATOM     59  C   UNL A   1      47.081  30.240  26.881  1.00  0.00     0.031 C 
ATOM     60  C   UNL A   1      42.772  33.288  29.891  1.00  0.00     0.029 A 
ATOM     61  C   UNL A   1      43.452  32.293  29.206  1.00  0.00     0.049 A 
ATOM     62  H   UNL A   1      42.844  30.317  28.780  1.00  0.00     0.167 HD
ATOM     63  C   UNL A   1      45.393  31.317  28.003  1.00  0.00     0.074 A 
ATOM     64  C   UNL A   1      46.720  31.395  27.424  1.00  0.00     0.031 C 
ATOM     65  C   UNL A   1      44.756  32.353  28.601  1.00  0.00     0.037 A 
BRANCH  52  66
ATOM     66  C   UNL A   1      39.153  30.997  30.803  1.00  0.00     0.064 A 
ATOM     67  C   UNL A   1      38.031  31.508  30.135  1.00  0.00     0.173 A 
ATOM     68  C   UNL A   1      39.079  30.854  32.198  1.00  0.00     0.173 A 
ATOM     69  F   UNL A   1      38.053  31.667  28.804  1.00  0.00    -0.203 F 
ATOM     70  C   UNL A   1      36.879  31.862  30.837  1.00  0.00     0.198 A 
ATOM     71  C   UNL A   1      37.922  31.193  32.894  1.00  0.00     0.198 A 
ATOM     72  F   UNL A   1      40.123  30.362  32.882  1.00  0.00    -0.203 F 
ATOM     73  F   UNL A   1      35.822  32.357  30.181  1.00  0.00    -0.200 F 
ATOM     74  C   UNL A   1      36.824  31.696  32.213  1.00  0.00     0.200 A 
ATOM     75  F   UNL A   1      37.864  31.020  34.222  1.00  0.00    -0.200 F 
ATOM     76  F   UNL A   1      35.709  32.019  32.884  1.00  0.00    -0.200 F 
ENDBRANCH  52  66
BRANCH  53  77
ATOM     77  C   UNL A   1      47.089  27.467  25.884  1.00  0.00     0.064 A 
ATOM     78  C   UNL A   1      47.136  27.650  24.499  1.00  0.00     0.173 A 
ATOM     79  C   UNL A   1      48.190  26.865  26.511  1.00  0.00     0.173 A 
ATOM     80  F   UNL A   1      46.097  28.209  23.861  1.00  0.00    -0.203 F 
ATOM     81  C   UNL A   1      48.254  27.258  23.766  1.00  0.00     0.198 A 
ATOM     82  C   UNL A   1      49.315  26.495  25.781  1.00  0.00     0.198 A 
ATOM     83  F   UNL A   1      48.190  26.681  27.839  1.00  0.00    -0.203 F 
ATOM     84  F   UNL A   1      48.278  27.437  22.439  1.00  0.00    -0.200 F 
ATOM     85  C   UNL A   1      49.347  26.693  24.409  1.00  0.00     0.200 A 
ATOM     86  F   UNL A   1      50.377  25.969  26.409  1.00  0.00    -0.200 F 
ATOM     87  F   UNL A   1      50.433  26.345  23.706  1.00  0.00    -0.200 F 
ENDBRANCH  53  77
BRANCH  65  88
ATOM     88  C   UNL A   1      45.494  33.654  28.645  1.00  0.00     0.064 A 
ATOM     89  C   UNL A   1      45.331  34.614  27.637  1.00  0.00     0.173 A 
ATOM     90  C   UNL A   1      46.369  33.942  29.702  1.00  0.00     0.173 A 
ATOM     91  F   UNL A   1      44.518  34.369  26.598  1.00  0.00    -0.203 F 
ATOM     92  C   UNL A   1      46.037  35.812  27.675  1.00  0.00     0.198 A 
ATOM     93  C   UNL A   1      47.060  35.149  29.745  1.00  0.00     0.198 A 
ATOM     94  F   UNL A   1      46.556  33.052  30.687  1.00  0.00    -0.203 F 
ATOM     95  F   UNL A   1      45.899  36.700  26.681  1.00  0.00    -0.200 F 
ATOM     96  C   UNL A   1      46.898  36.080  28.728  1.00  0.00     0.200 A 
ATOM     97  F   UNL A   1      47.893  35.407  30.762  1.00  0.00    -0.200 F 
ATOM     98  F   UNL A   1      47.584  37.231  28.758  1.00  0.00    -0.200 F 
ENDBRANCH  65  88
ENDBRANCH  39  40
ENDBRANCH  32  34
ENDBRANCH  31  32
ENDBRANCH  30  31
ENDBRANCH   1  30
TORSDOF 17
ENDMDL
MODEL 2
REMARK VINA RESULT:     -12.1      4.505     10.170
REMARK SMILES CCc1ccc(C[NH+]2CCC(Oc3ccccc3OC)(C(=O)OCCOC(=O)c3ccc(-c4c5nc(c(-c6c(F)c(F)c(F)c(F)c6F)c6ccc([nH]6)c(-c6c(F)c(F)c(F)c(F)c6F)c6nc(c(-c7c(F)c(F)c(F)c(F)c7F)c7ccc4[nH]7)C=C6)C=C5)cc3)CC2)nc1
REMARK SMILES IDX 24 1 23 2 21 3 22 4 11 5 8 6 9 7 93 8 10 10 92 11 7 12 6 13
REMARK SMILES IDX 3 14 4 15 95 16 5 17 94 18 2 19 1 20 12 21 13 22 14 23 18 24
REMARK SMILES IDX 15 25 17 26 16 27 19 28 20 29 25 30 26 31 27 32 28 33 29 34
REMARK SMILES IDX 30 35 91 36 31 37 90 38 32 39 33 40 34 41 84 42 35 43 89 44
REMARK SMILES IDX 83 45 85 46 36 47 88 48 82 49 81 50 37 52 69 53 49 54 68 55
REMARK SMILES IDX 50 56 53 57 67 58 86 59 51 60 52 61 66 63 87 64 54 65 38 66
REMARK SMILES IDX 39 67 47 68 40 69 41 70 45 71 48 72 42 73 43 74 46 75 44 76
REMARK SMILES IDX 70 77 71 78 79 79 72 80 73 81 77 82 80 83 74 84 75 85 78 86
REMARK SMILES IDX 76 87 55 88 56 89 64 90 57 91 58 92 62 93 65 94 59 95 60 96
REMARK SMILES IDX 63 97 61 98
REMARK H PARENT 8 9 85 51 53 62
REMARK Flexibility Score: inf
ROOT
ATOM      1  C   UNL A   1      33.254  29.317  25.131  1.00  0.00     0.274 C 
ENDROOT
BRANCH   1   2
ATOM      2  O   UNL A   1      33.476  28.045  25.773  1.00  0.00    -0.459 OA
BRANCH   2   3
ATOM      3  C   UNL A   1      33.480  26.970  24.935  1.00  0.00     0.351 C 
ATOM      4  O   UNL A   1      34.123  26.941  23.887  1.00  0.00    -0.247 OA
BRANCH   3   5
ATOM      5  C   UNL A   1      32.503  25.851  25.336  1.00  0.00     0.216 C 
ATOM      6  N   UNL A   1      29.799  26.154  24.232  1.00  0.00    -0.330 N 
ATOM      7  C   UNL A   1      30.891  25.690  23.371  1.00  0.00     0.267 C 
ATOM      8  C   UNL A   1      30.288  27.111  25.221  1.00  0.00     0.267 C 
ATOM      9  H   UNL A   1      29.450  25.334  24.728  1.00  0.00     0.348 HD
ATOM     10  C   UNL A   1      31.971  24.989  24.188  1.00  0.00     0.122 C 
ATOM     11  C   UNL A   1      31.331  26.454  26.136  1.00  0.00     0.122 C 
BRANCH   6  12
ATOM     12  C   UNL A   1      28.627  26.672  23.478  1.00  0.00     0.319 C 
BRANCH  12  13
ATOM     13  C   UNL A   1      28.595  28.157  23.134  1.00  0.00     0.095 A 
ATOM     14  C   UNL A   1      28.426  30.792  22.309  1.00  0.00    -0.030 A 
ATOM     15  C   UNL A   1      27.393  30.241  23.063  1.00  0.00     0.007 A 
ATOM     16  C   UNL A   1      29.534  29.984  22.073  1.00  0.00     0.115 A 
ATOM     17  C   UNL A   1      27.485  28.923  23.495  1.00  0.00     0.030 A 
ATOM     18  N   UNL A   1      29.646  28.687  22.457  1.00  0.00    -0.255 NA
BRANCH  14  19
ATOM     19  C   UNL A   1      28.300  32.166  21.710  1.00  0.00     0.034 C 
ATOM     20  C   UNL A   1      28.778  33.257  22.662  1.00  0.00     0.009 C 
ENDBRANCH  14  19
ENDBRANCH  12  13
ENDBRANCH   6  12
BRANCH   5  21
ATOM     21  O   UNL A   1      33.494  25.082  26.085  1.00  0.00    -0.471 OA
BRANCH  21  22
ATOM     22  C   UNL A   1      33.615  23.754  25.826  1.00  0.00     0.162 A 
ATOM     23  C   UNL A   1      34.523  23.348  24.846  1.00  0.00     0.050 A 
ATOM     24  C   UNL A   1      32.750  22.823  26.408  1.00  0.00     0.160 A 
ATOM     25  C   UNL A   1      34.628  21.998  24.509  1.00  0.00     0.004 A 
ATOM     26  C   UNL A   1      32.878  21.471  26.093  1.00  0.00     0.050 A 
ATOM     27  C   UNL A   1      33.814  21.059  25.141  1.00  0.00     0.004 A 
BRANCH  24  28
ATOM     28  O   UNL A   1      31.810  23.159  27.345  1.00  0.00    -0.493 OA
ATOM     29  C   UNL A   1      30.480  22.950  26.875  1.00  0.00     0.278 C 
ENDBRANCH  24  28
ENDBRANCH  21  22
ENDBRANCH   5  21
ENDBRANCH   3   5
ENDBRANCH   2   3
ENDBRANCH   1   2
BRANCH   1  30
ATOM     30  C   UNL A   1      32.335  30.249  25.919  1.00  0.00     0.275 C 
BRANCH  30  31
ATOM     31  O   UNL A   1      32.741  30.362  27.295  1.00  0.00    -0.458 OA
BRANCH  31  32
ATOM     32  C   UNL A   1      33.556  31.414  27.529  1.00  0.00     0.338 C 
ATOM     33  O   UNL A   1      33.232  32.589  27.516  1.00  0.00    -0.246 OA
BRANCH  32  34
ATOM     34  C   UNL A   1      34.928  30.995  27.858  1.00  0.00     0.060 A 
ATOM     35  C   UNL A   1      35.161  29.683  28.262  1.00  0.00     0.016 A 
ATOM     36  C   UNL A   1      35.915  31.966  28.030  1.00  0.00     0.016 A 
ATOM     37  C   UNL A   1      36.312  29.373  28.979  1.00  0.00     0.010 A 
ATOM     38  C   UNL A   1      37.109  31.637  28.674  1.00  0.00     0.010 A 
ATOM     39  C   UNL A   1      37.295  30.348  29.194  1.00  0.00    -0.014 A 
BRANCH  39  40
ATOM     40  C   UNL A   1      38.543  30.001  29.911  1.00  0.00     0.031 A 
ATOM     41  C   UNL A   1      39.529  29.028  29.337  1.00  0.00     0.074 A 
ATOM     42  C   UNL A   1      38.767  30.571  31.109  1.00  0.00     0.049 A 
ATOM     43  N   UNL A   1      40.565  28.470  29.913  1.00  0.00    -0.248 NA
ATOM     44  C   UNL A   1      39.333  28.628  27.936  1.00  0.00     0.031 C 
ATOM     45  C   UNL A   1      37.896  31.563  31.742  1.00  0.00     0.029 A 
ATOM     46  N   UNL A   1      39.781  30.388  32.012  1.00  0.00    -0.354 N 
ATOM     47  C   UNL A   1      41.130  27.639  28.956  1.00  0.00     0.074 A 
ATOM     48  C   UNL A   1      40.323  27.760  27.760  1.00  0.00     0.031 C 
ATOM     49  C   UNL A   1      38.408  31.897  32.934  1.00  0.00     0.029 A 
ATOM     50  C   UNL A   1      39.595  31.087  33.176  1.00  0.00     0.049 A 
ATOM     51  H   UNL A   1      40.562  29.814  31.841  1.00  0.00     0.167 HD
ATOM     52  C   UNL A   1      42.225  26.849  29.077  1.00  0.00     0.037 A 
ATOM     53  C   UNL A   1      40.267  31.039  34.339  1.00  0.00     0.037 A 
ATOM     54  C   UNL A   1      43.031  26.753  30.269  1.00  0.00     0.049 A 
ATOM     55  C   UNL A   1      41.437  30.115  34.468  1.00  0.00     0.074 A 
ATOM     56  C   UNL A   1      44.162  25.985  30.490  1.00  0.00     0.029 A 
ATOM     57  N   UNL A   1      42.794  27.460  31.439  1.00  0.00    -0.354 N 
ATOM     58  N   UNL A   1      41.927  29.283  33.583  1.00  0.00    -0.248 NA
ATOM     59  C   UNL A   1      42.138  30.114  35.757  1.00  0.00     0.031 C 
ATOM     60  C   UNL A   1      44.593  26.207  31.805  1.00  0.00     0.029 A 
ATOM     61  C   UNL A   1      43.750  27.137  32.391  1.00  0.00     0.049 A 
ATOM     62  H   UNL A   1      42.057  28.098  31.574  1.00  0.00     0.167 HD
ATOM     63  C   UNL A   1      42.990  28.652  34.206  1.00  0.00     0.074 A 
ATOM     64  C   UNL A   1      43.087  29.213  35.540  1.00  0.00     0.031 C 
ATOM     65  C   UNL A   1      43.810  27.690  33.718  1.00  0.00     0.037 A 
BRANCH  52  66
ATOM     66  C   UNL A   1      42.616  26.004  27.903  1.00  0.00     0.064 A 
ATOM     67  C   UNL A   1      42.013  24.761  27.659  1.00  0.00     0.173 A 
ATOM     68  C   UNL A   1      43.540  26.482  26.961  1.00  0.00     0.173 A 
ATOM     69  F   UNL A   1      41.126  24.259  28.530  1.00  0.00    -0.203 F 
ATOM     70  C   UNL A   1      42.324  24.027  26.515  1.00  0.00     0.198 A 
ATOM     71  C   UNL A   1      43.836  25.754  25.812  1.00  0.00     0.198 A 
ATOM     72  F   UNL A   1      44.136  27.670  27.144  1.00  0.00    -0.203 F 
ATOM     73  F   UNL A   1      41.745  22.837  26.306  1.00  0.00    -0.200 F 
ATOM     74  C   UNL A   1      43.228  24.528  25.590  1.00  0.00     0.200 A 
ATOM     75  F   UNL A   1      44.700  26.245  24.911  1.00  0.00    -0.200 F 
ATOM     76  F   UNL A   1      43.512  23.829  24.482  1.00  0.00    -0.200 F 
ENDBRANCH  52  66
BRANCH  53  77
ATOM     77  C   UNL A   1      39.779  31.856  35.475  1.00  0.00     0.064 A 
ATOM     78  C   UNL A   1      40.291  33.134  35.717  1.00  0.00     0.173 A 
ATOM     79  C   UNL A   1      38.718  31.406  36.275  1.00  0.00     0.173 A 
ATOM     80  F   UNL A   1      41.316  33.596  34.984  1.00  0.00    -0.203 F 
ATOM     81  C   UNL A   1      39.750  33.942  36.715  1.00  0.00     0.198 A 
ATOM     82  C   UNL A   1      38.163  32.223  37.255  1.00  0.00     0.198 A 
ATOM     83  F   UNL A   1      38.190  30.191  36.068  1.00  0.00    -0.203 F 
ATOM     84  F   UNL A   1      40.259  35.161  36.935  1.00  0.00    -0.200 F 
ATOM     85  C   UNL A   1      38.679  33.491  37.474  1.00  0.00     0.200 A 
ATOM     86  F   UNL A   1      37.115  31.790  37.971  1.00  0.00    -0.200 F 
ATOM     87  F   UNL A   1      38.141  34.281  38.412  1.00  0.00    -0.200 F 
ENDBRANCH  53  77
BRANCH  65  88
ATOM     88  C   UNL A   1      44.873  27.187  34.643  1.00  0.00     0.064 A 
ATOM     89  C   UNL A   1      44.635  26.103  35.499  1.00  0.00     0.173 A 
ATOM     90  C   UNL A   1      46.137  27.793  34.672  1.00  0.00     0.173 A 
ATOM     91  F   UNL A   1      43.433  25.508  35.515  1.00  0.00    -0.203 F 
ATOM     92  C   UNL A   1      45.623  25.655  36.371  1.00  0.00     0.198 A 
ATOM     93  C   UNL A   1      47.127  27.331  35.534  1.00  0.00     0.198 A 
ATOM     94  F   UNL A   1      46.407  28.834  33.871  1.00  0.00    -0.203 F 
ATOM     95  F   UNL A   1      45.364  24.644  37.210  1.00  0.00    -0.200 F 
ATOM     96  C   UNL A   1      46.867  26.268  36.387  1.00  0.00     0.200 A 
ATOM     97  F   UNL A   1      48.329  27.923  35.550  1.00  0.00    -0.200 F 
ATOM     98  F   UNL A   1      47.814  25.840  37.233  1.00  0.00    -0.200 F 
ENDBRANCH  65  88
ENDBRANCH  39  40
ENDBRANCH  32  34
ENDBRANCH  31  32
ENDBRANCH  30  31
ENDBRANCH   1  30
TORSDOF 17
ENDMDL
MODEL 3
REMARK VINA RESULT:     -12.0      0.906      2.093
REMARK SMILES CCc1ccc(C[NH+]2CCC(Oc3ccccc3OC)(C(=O)OCCOC(=O)c3ccc(-c4c5nc(c(-c6c(F)c(F)c(F)c(F)c6F)c6ccc([nH]6)c(-c6c(F)c(F)c(F)c(F)c6F)c6nc(c(-c7c(F)c(F)c(F)c(F)c7F)c7ccc4[nH]7)C=C6)C=C5)cc3)CC2)nc1
REMARK SMILES IDX 24 1 23 2 21 3 22 4 11 5 8 6 9 7 93 8 10 10 92 11 7 12 6 13
REMARK SMILES IDX 3 14 4 15 95 16 5 17 94 18 2 19 1 20 12 21 13 22 14 23 18 24
REMARK SMILES IDX 15 25 17 26 16 27 19 28 20 29 25 30 26 31 27 32 28 33 29 34
REMARK SMILES IDX 30 35 91 36 31 37 90 38 32 39 33 40 34 41 84 42 35 43 89 44
REMARK SMILES IDX 83 45 85 46 36 47 88 48 82 49 81 50 37 52 69 53 49 54 68 55
REMARK SMILES IDX 50 56 53 57 67 58 86 59 51 60 52 61 66 63 87 64 54 65 38 66
REMARK SMILES IDX 39 67 47 68 40 69 41 70 45 71 48 72 42 73 43 74 46 75 44 76
REMARK SMILES IDX 70 77 71 78 79 79 72 80 73 81 77 82 80 83 74 84 75 85 78 86
REMARK SMILES IDX 76 87 55 88 56 89 64 90 57 91 58 92 62 93 65 94 59 95 60 96
REMARK SMILES IDX 63 97 61 98
REMARK H PARENT 8 9 85 51 53 62
REMARK Flexibility Score: inf
ROOT
ATOM      1  C   UNL A   1      35.918  21.933  26.136  1.00  0.00     0.274 C 
ENDROOT
BRANCH   1   2
ATOM      2  O   UNL A   1      35.737  23.232  25.533  1.00  0.00    -0.459 OA
BRANCH   2   3
ATOM      3  C   UNL A   1      34.492  23.767  25.683  1.00  0.00     0.351 C 
ATOM      4  O   UNL A   1      33.913  23.822  26.767  1.00  0.00    -0.247 OA
BRANCH   3   5
ATOM      5  C   UNL A   1      33.812  24.168  24.363  1.00  0.00     0.216 C 
ATOM      6  N   UNL A   1      32.391  21.977  23.020  1.00  0.00    -0.330 N 
ATOM      7  C   UNL A   1      31.798  22.619  24.196  1.00  0.00     0.267 C 
ATOM      8  C   UNL A   1      33.847  21.935  23.130  1.00  0.00     0.267 C 
ATOM      9  H   UNL A   1      32.150  22.558  22.218  1.00  0.00     0.348 HD
ATOM     10  C   UNL A   1      32.286  24.057  24.339  1.00  0.00     0.122 C 
ATOM     11  C   UNL A   1      34.423  23.356  23.203  1.00  0.00     0.122 C 
BRANCH   6  12
ATOM     12  C   UNL A   1      31.810  20.643  22.714  1.00  0.00     0.319 C 
BRANCH  12  13
ATOM     13  C   UNL A   1      32.383  19.429  23.436  1.00  0.00     0.095 A 
ATOM     14  C   UNL A   1      33.208  17.127  24.730  1.00  0.00    -0.030 A 
ATOM     15  C   UNL A   1      33.303  17.207  23.344  1.00  0.00     0.007 A 
ATOM     16  C   UNL A   1      32.759  18.263  25.398  1.00  0.00     0.115 A 
ATOM     17  C   UNL A   1      32.907  18.370  22.693  1.00  0.00     0.030 A 
ATOM     18  N   UNL A   1      32.341  19.404  24.793  1.00  0.00    -0.255 NA
BRANCH  14  19
ATOM     19  C   UNL A   1      33.497  15.840  25.453  1.00  0.00     0.034 C 
ATOM     20  C   UNL A   1      32.236  15.018  25.695  1.00  0.00     0.009 C 
ENDBRANCH  14  19
ENDBRANCH  12  13
ENDBRANCH   6  12
BRANCH   5  21
ATOM     21  O   UNL A   1      34.182  25.578  24.455  1.00  0.00    -0.471 OA
BRANCH  21  22
ATOM     22  C   UNL A   1      33.226  26.516  24.225  1.00  0.00     0.162 A 
ATOM     23  C   UNL A   1      32.482  26.985  25.309  1.00  0.00     0.050 A 
ATOM     24  C   UNL A   1      32.884  26.894  22.924  1.00  0.00     0.160 A 
ATOM     25  C   UNL A   1      31.450  27.901  25.101  1.00  0.00     0.004 A 
ATOM     26  C   UNL A   1      31.873  27.833  22.721  1.00  0.00     0.050 A 
ATOM     27  C   UNL A   1      31.154  28.333  23.809  1.00  0.00     0.004 A 
BRANCH  24  28
ATOM     28  O   UNL A   1      33.546  26.442  21.814  1.00  0.00    -0.493 OA
ATOM     29  C   UNL A   1      32.694  25.702  20.941  1.00  0.00     0.278 C 
ENDBRANCH  24  28
ENDBRANCH  21  22
ENDBRANCH   5  21
ENDBRANCH   3   5
ENDBRANCH   2   3
ENDBRANCH   1   2
BRANCH   1  30
ATOM     30  C   UNL A   1      36.887  21.034  25.371  1.00  0.00     0.275 C 
BRANCH  30  31
ATOM     31  O   UNL A   1      38.106  21.722  25.037  1.00  0.00    -0.458 OA
BRANCH  31  32
ATOM     32  C   UNL A   1      39.110  21.488  25.912  1.00  0.00     0.338 C 
ATOM     33  O   UNL A   1      39.683  20.425  26.077  1.00  0.00    -0.246 OA
BRANCH  32  34
ATOM     34  C   UNL A   1      39.498  22.698  26.653  1.00  0.00     0.060 A 
ATOM     35  C   UNL A   1      39.062  23.942  26.204  1.00  0.00     0.016 A 
ATOM     36  C   UNL A   1      40.509  22.616  27.612  1.00  0.00     0.016 A 
ATOM     37  C   UNL A   1      39.736  25.095  26.592  1.00  0.00     0.010 A 
ATOM     38  C   UNL A   1      41.132  23.780  28.067  1.00  0.00     0.010 A 
ATOM     39  C   UNL A   1      40.780  25.024  27.524  1.00  0.00    -0.014 A 
BRANCH  39  40
ATOM     40  C   UNL A   1      41.461  26.258  27.974  1.00  0.00     0.031 A 
ATOM     41  C   UNL A   1      40.732  27.315  28.750  1.00  0.00     0.074 A 
ATOM     42  C   UNL A   1      42.758  26.422  27.653  1.00  0.00     0.049 A 
ATOM     43  N   UNL A   1      41.119  28.529  29.050  1.00  0.00    -0.248 NA
ATOM     44  C   UNL A   1      39.397  26.967  29.257  1.00  0.00     0.031 C 
ATOM     45  C   UNL A   1      43.575  25.440  26.939  1.00  0.00     0.029 A 
ATOM     46  N   UNL A   1      43.608  27.473  27.871  1.00  0.00    -0.354 N 
ATOM     47  C   UNL A   1      40.071  29.098  29.760  1.00  0.00     0.074 A 
ATOM     48  C   UNL A   1      39.027  28.099  29.846  1.00  0.00     0.031 C 
ATOM     49  C   UNL A   1      44.808  25.937  26.771  1.00  0.00     0.029 A 
ATOM     50  C   UNL A   1      44.839  27.297  27.295  1.00  0.00     0.049 A 
ATOM     51  H   UNL A   1      43.360  28.274  28.389  1.00  0.00     0.167 HD
ATOM     52  C   UNL A   1      39.999  30.344  30.288  1.00  0.00     0.037 A 
ATOM     53  C   UNL A   1      45.864  28.154  27.147  1.00  0.00     0.037 A 
ATOM     54  C   UNL A   1      41.054  31.323  30.212  1.00  0.00     0.049 A 
ATOM     55  C   UNL A   1      45.738  29.543  27.686  1.00  0.00     0.074 A 
ATOM     56  C   UNL A   1      41.079  32.612  30.717  1.00  0.00     0.029 A 
ATOM     57  N   UNL A   1      42.279  31.113  29.596  1.00  0.00    -0.354 N 
ATOM     58  N   UNL A   1      44.721  30.096  28.298  1.00  0.00    -0.248 NA
ATOM     59  C   UNL A   1      46.892  30.430  27.504  1.00  0.00     0.031 C 
ATOM     60  C   UNL A   1      42.311  33.191  30.383  1.00  0.00     0.029 A 
ATOM     61  C   UNL A   1      43.064  32.252  29.698  1.00  0.00     0.049 A 
ATOM     62  H   UNL A   1      42.553  30.278  29.152  1.00  0.00     0.167 HD
ATOM     63  C   UNL A   1      45.105  31.398  28.571  1.00  0.00     0.074 A 
ATOM     64  C   UNL A   1      46.459  31.546  28.074  1.00  0.00     0.031 C 
ATOM     65  C   UNL A   1      44.398  32.383  29.174  1.00  0.00     0.037 A 
BRANCH  52  66
ATOM     66  C   UNL A   1      38.730  30.741  30.982  1.00  0.00     0.064 A 
ATOM     67  C   UNL A   1      38.607  30.681  32.378  1.00  0.00     0.173 A 
ATOM     68  C   UNL A   1      37.657  31.272  30.249  1.00  0.00     0.173 A 
ATOM     69  F   UNL A   1      39.602  30.179  33.122  1.00  0.00    -0.203 F 
ATOM     70  C   UNL A   1      37.452  31.135  33.014  1.00  0.00     0.198 A 
ATOM     71  C   UNL A   1      36.513  31.740  30.889  1.00  0.00     0.198 A 
ATOM     72  F   UNL A   1      37.731  31.360  28.913  1.00  0.00    -0.203 F 
ATOM     73  F   UNL A   1      37.350  31.060  34.348  1.00  0.00    -0.200 F 
ATOM     74  C   UNL A   1      36.412  31.672  32.270  1.00  0.00     0.200 A 
ATOM     75  F   UNL A   1      35.513  32.271  30.170  1.00  0.00    -0.200 F 
ATOM     76  F   UNL A   1      35.311  32.125  32.885  1.00  0.00    -0.200 F 
ENDBRANCH  52  66
BRANCH  53  77
ATOM     77  C   UNL A   1      47.058  27.707  26.391  1.00  0.00     0.064 A 
ATOM     78  C   UNL A   1      48.156  27.141  27.046  1.00  0.00     0.173 A 
ATOM     79  C   UNL A   1      47.072  27.748  24.989  1.00  0.00     0.173 A 
ATOM     80  F   UNL A   1      48.188  27.096  28.386  1.00  0.00    -0.203 F 
ATOM     81  C   UNL A   1      49.227  26.619  26.323  1.00  0.00     0.198 A 
ATOM     82  C   UNL A   1      48.131  27.205  24.267  1.00  0.00     0.198 A 
ATOM     83  F   UNL A   1      46.034  28.271  24.321  1.00  0.00    -0.203 F 
ATOM     84  F   UNL A   1      50.272  26.087  26.968  1.00  0.00    -0.200 F 
ATOM     85  C   UNL A   1      49.207  26.641  24.934  1.00  0.00     0.200 A 
ATOM     86  F   UNL A   1      48.098  27.210  22.927  1.00  0.00    -0.200 F 
ATOM     87  F   UNL A   1      50.223  26.111  24.240  1.00  0.00    -0.200 F 
ENDBRANCH  53  77
BRANCH  65  88
ATOM     88  C   UNL A   1      45.084  33.705  29.317  1.00  0.00     0.064 A 
ATOM     89  C   UNL A   1      44.948  34.702  28.341  1.00  0.00     0.173 A 
ATOM     90  C   UNL A   1      45.881  33.976  30.438  1.00  0.00     0.173 A 
ATOM     91  F   UNL A   1      44.209  34.475  27.244  1.00  0.00    -0.203 F 
ATOM     92  C   UNL A   1      45.607  35.920  28.472  1.00  0.00     0.198 A 
ATOM     93  C   UNL A   1      46.525  35.202  30.573  1.00  0.00     0.198 A 
ATOM     94  F   UNL A   1      46.040  33.051  31.395  1.00  0.00    -0.203 F 
ATOM     95  F   UNL A   1      45.498  36.845  27.509  1.00  0.00    -0.200 F 
ATOM     96  C   UNL A   1      46.392  36.170  29.587  1.00  0.00     0.200 A 
ATOM     97  F   UNL A   1      47.284  35.444  31.650  1.00  0.00    -0.200 F 
ATOM     98  F   UNL A   1      47.033  37.342  29.707  1.00  0.00    -0.200 F 
ENDBRANCH  65  88
ENDBRANCH  39  40
ENDBRANCH  32  34
ENDBRANCH  31  32
ENDBRANCH  30  31
ENDBRANCH   1  30
TORSDOF 17
ENDMDL
