MODEL 1
REMARK VINA RESULT:     -11.8      0.000      0.000
REMARK SMILES C[NH+](C)Cc1noc(C[C@@](C)(C(=O)OCCOC(=O)c2ccc(-c3c4nc(c(-c5c(F)c(F)c(F)c(F)c5F)c5ccc([nH]5)c(-c5c(F)c(F)c(F)c(F)c5F)c5nc(c(-c6c(F)c(F)c(F)c(F)c6F)c6ccc3[nH]6)C=C5)C=C4)cc2)c2ccccc2)n1
REMARK SMILES IDX 15 1 14 2 12 3 13 4 10 5 11 6 9 7 8 8 5 9 6 10 89 11 7 12
REMARK SMILES IDX 4 13 2 14 1 15 3 16 83 18 84 19 88 20 85 21 87 22 86 23
REMARK SMILES IDX 16 24 17 25 18 26 19 27 20 28 21 29 82 30 22 31 81 32 23 33
REMARK SMILES IDX 24 34 25 35 75 36 26 37 80 38 74 39 76 40 27 41 79 42 73 43
REMARK SMILES IDX 72 44 28 46 60 47 40 48 59 49 41 50 44 51 58 52 77 53 42 54
REMARK SMILES IDX 43 55 57 57 78 58 45 59 29 60 30 61 38 62 31 63 32 64 36 65
REMARK SMILES IDX 39 66 33 67 34 68 37 69 35 70 61 71 62 72 70 73 63 74 64 75
REMARK SMILES IDX 68 76 71 77 65 78 66 79 69 80 67 81 46 82 47 83 55 84 48 85
REMARK SMILES IDX 49 86 53 87 56 88 50 89 51 90 54 91 52 92
REMARK H PARENT 2 17 76 45 44 56
REMARK Flexibility Score: inf
ROOT
ATOM      1  C   UNL A   1      31.673  28.591  26.741  1.00  0.00     0.274 C 
ENDROOT
BRANCH   1   2
ATOM      2  O   UNL A   1      32.024  27.403  25.991  1.00  0.00    -0.461 OA
BRANCH   2   3
ATOM      3  C   UNL A   1      31.016  26.592  25.555  1.00  0.00     0.316 C 
ATOM      4  O   UNL A   1      30.318  25.933  26.318  1.00  0.00    -0.251 OA
BRANCH   3   5
ATOM      5  C   UNL A   1      30.939  26.516  23.994  1.00  0.00     0.099 C 
ATOM      6  C   UNL A   1      30.300  25.133  23.741  1.00  0.00     0.029 C 
BRANCH   5   7
ATOM      7  C   UNL A   1      32.408  26.573  23.446  1.00  0.00     0.123 C 
BRANCH   7   8
ATOM      8  C   UNL A   1      33.168  25.297  23.397  1.00  0.00     0.228 A 
ATOM      9  C   UNL A   1      34.273  23.543  23.720  1.00  0.00     0.226 A 
ATOM     10  N   UNL A   1      34.257  23.663  22.383  1.00  0.00    -0.056 NA
ATOM     11  N   UNL A   1      33.565  24.523  24.380  1.00  0.00    -0.190 NA
ATOM     12  O   UNL A   1      33.528  24.832  22.167  1.00  0.00    -0.339 OA
BRANCH   9  13
ATOM     13  C   UNL A   1      34.944  22.422  24.458  1.00  0.00     0.344 C 
BRANCH  13  14
ATOM     14  N   UNL A   1      36.423  22.402  24.451  1.00  0.00    -0.333 N 
ATOM     15  C   UNL A   1      37.023  23.589  25.049  1.00  0.00     0.332 C 
ATOM     16  C   UNL A   1      36.990  21.179  25.005  1.00  0.00     0.332 C 
ATOM     17  H   UNL A   1      36.671  22.416  23.462  1.00  0.00     0.348 HD
ENDBRANCH  13  14
ENDBRANCH   9  13
ENDBRANCH   7   8
ENDBRANCH   5   7
BRANCH   5  18
ATOM     18  C   UNL A   1      30.022  27.606  23.357  1.00  0.00    -0.030 A 
ATOM     19  C   UNL A   1      30.573  28.627  22.554  1.00  0.00     0.005 A 
ATOM     20  C   UNL A   1      28.625  27.638  23.503  1.00  0.00     0.005 A 
ATOM     21  C   UNL A   1      29.810  29.689  22.055  1.00  0.00     0.000 A 
ATOM     22  C   UNL A   1      27.848  28.675  22.961  1.00  0.00     0.000 A 
ATOM     23  C   UNL A   1      28.444  29.722  22.273  1.00  0.00     0.000 A 
ENDBRANCH   5  18
ENDBRANCH   3   5
ENDBRANCH   2   3
ENDBRANCH   1   2
BRANCH   1  24
ATOM     24  C   UNL A   1      31.781  29.805  25.822  1.00  0.00     0.275 C 
BRANCH  24  25
ATOM     25  O   UNL A   1      33.107  30.336  25.972  1.00  0.00    -0.458 OA
BRANCH  25  26
ATOM     26  C   UNL A   1      33.285  31.259  26.946  1.00  0.00     0.338 C 
ATOM     27  O   UNL A   1      32.530  32.161  27.258  1.00  0.00    -0.246 OA
BRANCH  26  28
ATOM     28  C   UNL A   1      34.570  30.972  27.620  1.00  0.00     0.060 A 
ATOM     29  C   UNL A   1      34.873  29.665  27.997  1.00  0.00     0.016 A 
ATOM     30  C   UNL A   1      35.446  32.008  27.947  1.00  0.00     0.016 A 
ATOM     31  C   UNL A   1      36.028  29.395  28.726  1.00  0.00     0.010 A 
ATOM     32  C   UNL A   1      36.643  31.720  28.621  1.00  0.00     0.010 A 
ATOM     33  C   UNL A   1      36.941  30.410  29.037  1.00  0.00    -0.014 A 
BRANCH  33  34
ATOM     34  C   UNL A   1      38.134  30.100  29.878  1.00  0.00     0.031 A 
ATOM     35  C   UNL A   1      39.253  29.273  29.305  1.00  0.00     0.074 A 
ATOM     36  C   UNL A   1      38.279  30.609  31.119  1.00  0.00     0.049 A 
ATOM     37  N   UNL A   1      40.274  28.720  29.910  1.00  0.00    -0.248 NA
ATOM     38  C   UNL A   1      39.215  29.035  27.854  1.00  0.00     0.031 C 
ATOM     39  C   UNL A   1      37.343  31.512  31.787  1.00  0.00     0.029 A 
ATOM     40  N   UNL A   1      39.295  30.456  32.037  1.00  0.00    -0.354 N 
ATOM     41  C   UNL A   1      40.951  28.005  28.932  1.00  0.00     0.074 A 
ATOM     42  C   UNL A   1      40.242  28.213  27.688  1.00  0.00     0.031 C 
ATOM     43  C   UNL A   1      37.854  31.882  32.972  1.00  0.00     0.029 A 
ATOM     44  C   UNL A   1      39.105  31.164  33.199  1.00  0.00     0.049 A 
ATOM     45  H   UNL A   1      40.086  29.891  31.873  1.00  0.00     0.167 HD
ATOM     46  C   UNL A   1      42.057  27.235  29.063  1.00  0.00     0.037 A 
ATOM     47  C   UNL A   1      39.829  31.199  34.335  1.00  0.00     0.037 A 
ATOM     48  C   UNL A   1      42.811  27.087  30.280  1.00  0.00     0.049 A 
ATOM     49  C   UNL A   1      41.039  30.313  34.471  1.00  0.00     0.074 A 
ATOM     50  C   UNL A   1      43.922  26.297  30.520  1.00  0.00     0.029 A 
ATOM     51  N   UNL A   1      42.549  27.775  31.455  1.00  0.00    -0.354 N 
ATOM     52  N   UNL A   1      41.591  29.522  33.583  1.00  0.00    -0.248 NA
ATOM     53  C   UNL A   1      41.701  30.292  35.784  1.00  0.00     0.031 C 
ATOM     54  C   UNL A   1      44.322  26.492  31.847  1.00  0.00     0.029 A 
ATOM     55  C   UNL A   1      43.478  27.428  32.423  1.00  0.00     0.049 A 
ATOM     56  H   UNL A   1      41.812  28.414  31.582  1.00  0.00     0.167 HD
ATOM     57  C   UNL A   1      42.655  28.908  34.229  1.00  0.00     0.074 A 
ATOM     58  C   UNL A   1      42.697  29.443  35.573  1.00  0.00     0.031 C 
ATOM     59  C   UNL A   1      43.510  27.969  33.755  1.00  0.00     0.037 A 
BRANCH  46  60
ATOM     60  C   UNL A   1      42.487  26.441  27.867  1.00  0.00     0.064 A 
ATOM     61  C   UNL A   1      41.955  25.178  27.579  1.00  0.00     0.173 A 
ATOM     62  C   UNL A   1      43.437  26.974  26.982  1.00  0.00     0.173 A 
ATOM     63  F   UNL A   1      41.060  24.618  28.407  1.00  0.00    -0.203 F 
ATOM     64  C   UNL A   1      42.374  24.467  26.458  1.00  0.00     0.198 A 
ATOM     65  C   UNL A   1      43.834  26.273  25.848  1.00  0.00     0.198 A 
ATOM     66  F   UNL A   1      43.973  28.183  27.214  1.00  0.00    -0.203 F 
ATOM     67  F   UNL A   1      41.885  23.242  26.222  1.00  0.00    -0.200 F 
ATOM     68  C   UNL A   1      43.307  25.017  25.591  1.00  0.00     0.200 A 
ATOM     69  F   UNL A   1      44.729  26.811  25.008  1.00  0.00    -0.200 F 
ATOM     70  F   UNL A   1      43.705  24.333  24.509  1.00  0.00    -0.200 F 
ENDBRANCH  46  60
BRANCH  47  71
ATOM     71  C   UNL A   1      39.402  32.061  35.470  1.00  0.00     0.064 A 
ATOM     72  C   UNL A   1      38.533  31.574  36.457  1.00  0.00     0.173 A 
ATOM     73  C   UNL A   1      39.830  33.392  35.579  1.00  0.00     0.173 A 
ATOM     74  F   UNL A   1      38.065  30.320  36.378  1.00  0.00    -0.203 F 
ATOM     75  C   UNL A   1      38.106  32.388  37.505  1.00  0.00     0.198 A 
ATOM     76  C   UNL A   1      39.430  34.194  36.645  1.00  0.00     0.198 A 
ATOM     77  F   UNL A   1      40.651  33.911  34.654  1.00  0.00    -0.203 F 
ATOM     78  F   UNL A   1      37.240  31.912  38.410  1.00  0.00    -0.200 F 
ATOM     79  C   UNL A   1      38.562  33.694  37.603  1.00  0.00     0.200 A 
ATOM     80  F   UNL A   1      39.881  35.452  36.740  1.00  0.00    -0.200 F 
ATOM     81  F   UNL A   1      38.157  34.474  38.615  1.00  0.00    -0.200 F 
ENDBRANCH  47  71
BRANCH  59  82
ATOM     82  C   UNL A   1      44.567  27.466  34.692  1.00  0.00     0.064 A 
ATOM     83  C   UNL A   1      44.357  26.328  35.485  1.00  0.00     0.173 A 
ATOM     84  C   UNL A   1      45.814  28.105  34.772  1.00  0.00     0.173 A 
ATOM     85  F   UNL A   1      43.175  25.694  35.453  1.00  0.00    -0.203 F 
ATOM     86  C   UNL A   1      45.352  25.859  36.337  1.00  0.00     0.198 A 
ATOM     87  C   UNL A   1      46.813  27.619  35.610  1.00  0.00     0.198 A 
ATOM     88  F   UNL A   1      46.064  29.194  34.030  1.00  0.00    -0.203 F 
ATOM     89  F   UNL A   1      45.117  24.791  37.114  1.00  0.00    -0.200 F 
ATOM     90  C   UNL A   1      46.580  26.500  36.395  1.00  0.00     0.200 A 
ATOM     91  F   UNL A   1      48.003  28.235  35.660  1.00  0.00    -0.200 F 
ATOM     92  F   UNL A   1      47.537  26.045  37.216  1.00  0.00    -0.200 F 
ENDBRANCH  59  82
ENDBRANCH  33  34
ENDBRANCH  26  28
ENDBRANCH  25  26
ENDBRANCH  24  25
ENDBRANCH   1  24
TORSDOF 16
ENDMDL
MODEL 2
REMARK VINA RESULT:     -11.7      1.414      3.941
REMARK SMILES C[NH+](C)Cc1noc(C[C@@](C)(C(=O)OCCOC(=O)c2ccc(-c3c4nc(c(-c5c(F)c(F)c(F)c(F)c5F)c5ccc([nH]5)c(-c5c(F)c(F)c(F)c(F)c5F)c5nc(c(-c6c(F)c(F)c(F)c(F)c6F)c6ccc3[nH]6)C=C5)C=C4)cc2)c2ccccc2)n1
REMARK SMILES IDX 15 1 14 2 12 3 13 4 10 5 11 6 9 7 8 8 5 9 6 10 89 11 7 12
REMARK SMILES IDX 4 13 2 14 1 15 3 16 83 18 84 19 88 20 85 21 87 22 86 23
REMARK SMILES IDX 16 24 17 25 18 26 19 27 20 28 21 29 82 30 22 31 81 32 23 33
REMARK SMILES IDX 24 34 25 35 75 36 26 37 80 38 74 39 76 40 27 41 79 42 73 43
REMARK SMILES IDX 72 44 28 46 60 47 40 48 59 49 41 50 44 51 58 52 77 53 42 54
REMARK SMILES IDX 43 55 57 57 78 58 45 59 29 60 30 61 38 62 31 63 32 64 36 65
REMARK SMILES IDX 39 66 33 67 34 68 37 69 35 70 61 71 62 72 70 73 63 74 64 75
REMARK SMILES IDX 68 76 71 77 65 78 66 79 69 80 67 81 46 82 47 83 55 84 48 85
REMARK SMILES IDX 49 86 53 87 56 88 50 89 51 90 54 91 52 92
REMARK H PARENT 2 17 76 45 44 56
REMARK Flexibility Score: inf
ROOT
ATOM      1  C   UNL A   1      31.745  28.598  26.761  1.00  0.00     0.274 C 
ENDROOT
BRANCH   1   2
ATOM      2  O   UNL A   1      32.700  27.653  26.222  1.00  0.00    -0.461 OA
BRANCH   2   3
ATOM      3  C   UNL A   1      32.223  26.524  25.621  1.00  0.00     0.316 C 
ATOM      4  O   UNL A   1      31.407  25.782  26.156  1.00  0.00    -0.251 OA
BRANCH   3   5
ATOM      5  C   UNL A   1      32.916  26.236  24.248  1.00  0.00     0.099 C 
ATOM      6  C   UNL A   1      33.703  27.537  23.973  1.00  0.00     0.029 C 
BRANCH   5   7
ATOM      7  C   UNL A   1      31.783  26.022  23.183  1.00  0.00     0.123 C 
BRANCH   7   8
ATOM      8  C   UNL A   1      30.844  27.149  22.951  1.00  0.00     0.228 A 
ATOM      9  C   UNL A   1      29.841  28.940  22.514  1.00  0.00     0.226 A 
ATOM     10  N   UNL A   1      28.903  28.195  23.121  1.00  0.00    -0.056 NA
ATOM     11  N   UNL A   1      31.050  28.299  22.352  1.00  0.00    -0.190 NA
ATOM     12  O   UNL A   1      29.570  27.007  23.418  1.00  0.00    -0.339 OA
BRANCH   9  13
ATOM     13  C   UNL A   1      29.608  30.328  21.992  1.00  0.00     0.344 C 
BRANCH  13  14
ATOM     14  N   UNL A   1      28.203  30.769  21.863  1.00  0.00    -0.333 N 
ATOM     15  C   UNL A   1      27.678  31.403  23.067  1.00  0.00     0.332 C 
ATOM     16  C   UNL A   1      27.957  31.585  20.679  1.00  0.00     0.332 C 
ATOM     17  H   UNL A   1      27.677  29.906  21.735  1.00  0.00     0.348 HD
ENDBRANCH  13  14
ENDBRANCH   9  13
ENDBRANCH   7   8
ENDBRANCH   5   7
BRANCH   5  18
ATOM     18  C   UNL A   1      33.926  25.048  24.290  1.00  0.00    -0.030 A 
ATOM     19  C   UNL A   1      34.029  24.154  23.204  1.00  0.00     0.005 A 
ATOM     20  C   UNL A   1      34.803  24.803  25.361  1.00  0.00     0.005 A 
ATOM     21  C   UNL A   1      34.835  23.011  23.241  1.00  0.00     0.000 A 
ATOM     22  C   UNL A   1      35.652  23.684  25.381  1.00  0.00     0.000 A 
ATOM     23  C   UNL A   1      35.638  22.766  24.341  1.00  0.00     0.000 A 
ENDBRANCH   5  18
ENDBRANCH   3   5
ENDBRANCH   2   3
ENDBRANCH   1   2
BRANCH   1  24
ATOM     24  C   UNL A   1      31.739  29.849  25.885  1.00  0.00     0.275 C 
BRANCH  24  25
ATOM     25  O   UNL A   1      33.050  30.429  25.963  1.00  0.00    -0.458 OA
BRANCH  25  26
ATOM     26  C   UNL A   1      33.243  31.372  26.914  1.00  0.00     0.338 C 
ATOM     27  O   UNL A   1      32.498  32.288  27.210  1.00  0.00    -0.246 OA
BRANCH  26  28
ATOM     28  C   UNL A   1      34.529  31.089  27.587  1.00  0.00     0.060 A 
ATOM     29  C   UNL A   1      34.850  29.778  27.935  1.00  0.00     0.016 A 
ATOM     30  C   UNL A   1      35.388  32.130  27.943  1.00  0.00     0.016 A 
ATOM     31  C   UNL A   1      36.006  29.509  28.663  1.00  0.00     0.010 A 
ATOM     32  C   UNL A   1      36.586  31.844  28.615  1.00  0.00     0.010 A 
ATOM     33  C   UNL A   1      36.901  30.529  29.002  1.00  0.00    -0.014 A 
BRANCH  33  34
ATOM     34  C   UNL A   1      38.096  30.218  29.842  1.00  0.00     0.031 A 
ATOM     35  C   UNL A   1      39.220  29.403  29.261  1.00  0.00     0.074 A 
ATOM     36  C   UNL A   1      38.237  30.715  31.088  1.00  0.00     0.049 A 
ATOM     37  N   UNL A   1      40.244  28.850  29.862  1.00  0.00    -0.248 NA
ATOM     38  C   UNL A   1      39.185  29.179  27.808  1.00  0.00     0.031 C 
ATOM     39  C   UNL A   1      37.294  31.606  31.764  1.00  0.00     0.029 A 
ATOM     40  N   UNL A   1      39.252  30.559  32.005  1.00  0.00    -0.354 N 
ATOM     41  C   UNL A   1      40.926  28.148  28.877  1.00  0.00     0.074 A 
ATOM     42  C   UNL A   1      40.217  28.365  27.635  1.00  0.00     0.031 C 
ATOM     43  C   UNL A   1      37.802  31.967  32.953  1.00  0.00     0.029 A 
ATOM     44  C   UNL A   1      39.057  31.254  33.174  1.00  0.00     0.049 A 
ATOM     45  H   UNL A   1      40.046  30.000  31.837  1.00  0.00     0.167 HD
ATOM     46  C   UNL A   1      42.036  27.383  29.002  1.00  0.00     0.037 A 
ATOM     47  C   UNL A   1      39.779  31.282  34.311  1.00  0.00     0.037 A 
ATOM     48  C   UNL A   1      42.789  27.228  30.219  1.00  0.00     0.049 A 
ATOM     49  C   UNL A   1      40.995  30.401  34.439  1.00  0.00     0.074 A 
ATOM     50  C   UNL A   1      43.905  26.442  30.452  1.00  0.00     0.029 A 
ATOM     51  N   UNL A   1      42.523  27.902  31.400  1.00  0.00    -0.354 N 
ATOM     52  N   UNL A   1      41.551  29.622  33.544  1.00  0.00    -0.248 NA
ATOM     53  C   UNL A   1      41.655  30.371  35.753  1.00  0.00     0.031 C 
ATOM     54  C   UNL A   1      44.302  26.626  31.782  1.00  0.00     0.029 A 
ATOM     55  C   UNL A   1      43.452  27.551  32.365  1.00  0.00     0.049 A 
ATOM     56  H   UNL A   1      41.781  28.536  31.533  1.00  0.00     0.167 HD
ATOM     57  C   UNL A   1      42.619  29.008  34.185  1.00  0.00     0.074 A 
ATOM     58  C   UNL A   1      42.656  29.530  35.535  1.00  0.00     0.031 C 
ATOM     59  C   UNL A   1      43.480  28.079  33.703  1.00  0.00     0.037 A 
BRANCH  46  60
ATOM     60  C   UNL A   1      42.472  26.604  27.799  1.00  0.00     0.064 A 
ATOM     61  C   UNL A   1      41.960  25.334  27.507  1.00  0.00     0.173 A 
ATOM     62  C   UNL A   1      43.406  27.159  26.911  1.00  0.00     0.173 A 
ATOM     63  F   UNL A   1      41.081  24.753  28.338  1.00  0.00    -0.203 F 
ATOM     64  C   UNL A   1      42.384  24.636  26.379  1.00  0.00     0.198 A 
ATOM     65  C   UNL A   1      43.807  26.471  25.770  1.00  0.00     0.198 A 
ATOM     66  F   UNL A   1      43.922  28.375  27.146  1.00  0.00    -0.203 F 
ATOM     67  F   UNL A   1      41.915  23.404  26.139  1.00  0.00    -0.200 F 
ATOM     68  C   UNL A   1      43.301  25.208  25.509  1.00  0.00     0.200 A 
ATOM     69  F   UNL A   1      44.687  27.029  24.927  1.00  0.00    -0.200 F 
ATOM     70  F   UNL A   1      43.704  24.537  24.421  1.00  0.00    -0.200 F 
ENDBRANCH  46  60
BRANCH  47  71
ATOM     71  C   UNL A   1      39.346  32.130  35.454  1.00  0.00     0.064 A 
ATOM     72  C   UNL A   1      39.795  33.452  35.580  1.00  0.00     0.173 A 
ATOM     73  C   UNL A   1      38.497  31.633  36.454  1.00  0.00     0.173 A 
ATOM     74  F   UNL A   1      40.638  33.964  34.671  1.00  0.00    -0.203 F 
ATOM     75  C   UNL A   1      39.416  34.241  36.665  1.00  0.00     0.198 A 
ATOM     76  C   UNL A   1      38.092  32.431  37.520  1.00  0.00     0.198 A 
ATOM     77  F   UNL A   1      38.051  30.370  36.388  1.00  0.00    -0.203 F 
ATOM     78  F   UNL A   1      39.895  35.486  36.786  1.00  0.00    -0.200 F 
ATOM     79  C   UNL A   1      38.558  33.733  37.630  1.00  0.00     0.200 A 
ATOM     80  F   UNL A   1      37.255  31.939  38.443  1.00  0.00    -0.200 F 
ATOM     81  F   UNL A   1      38.187  34.493  38.669  1.00  0.00    -0.200 F 
ENDBRANCH  47  71
BRANCH  59  82
ATOM     82  C   UNL A   1      44.538  27.573  34.636  1.00  0.00     0.064 A 
ATOM     83  C   UNL A   1      45.769  28.233  34.769  1.00  0.00     0.173 A 
ATOM     84  C   UNL A   1      44.308  26.441  35.432  1.00  0.00     0.173 A 
ATOM     85  F   UNL A   1      46.040  29.310  34.017  1.00  0.00    -0.203 F 
ATOM     86  C   UNL A   1      46.738  27.766  35.652  1.00  0.00     0.198 A 
ATOM     87  C   UNL A   1      45.272  25.990  36.330  1.00  0.00     0.198 A 
ATOM     88  F   UNL A   1      43.145  25.778  35.344  1.00  0.00    -0.203 F 
ATOM     89  F   UNL A   1      47.922  28.389  35.736  1.00  0.00    -0.200 F 
ATOM     90  C   UNL A   1      46.487  26.649  36.436  1.00  0.00     0.200 A 
ATOM     91  F   UNL A   1      45.025  24.916  37.092  1.00  0.00    -0.200 F 
ATOM     92  F   UNL A   1      47.421  26.203  37.287  1.00  0.00    -0.200 F 
ENDBRANCH  59  82
ENDBRANCH  33  34
ENDBRANCH  26  28
ENDBRANCH  25  26
ENDBRANCH  24  25
ENDBRANCH   1  24
TORSDOF 16
ENDMDL
MODEL 3
REMARK VINA RESULT:     -11.5      4.564      9.657
REMARK SMILES C[NH+](C)Cc1noc(C[C@@](C)(C(=O)OCCOC(=O)c2ccc(-c3c4nc(c(-c5c(F)c(F)c(F)c(F)c5F)c5ccc([nH]5)c(-c5c(F)c(F)c(F)c(F)c5F)c5nc(c(-c6c(F)c(F)c(F)c(F)c6F)c6ccc3[nH]6)C=C5)C=C4)cc2)c2ccccc2)n1
REMARK SMILES IDX 15 1 14 2 12 3 13 4 10 5 11 6 9 7 8 8 5 9 6 10 89 11 7 12
REMARK SMILES IDX 4 13 2 14 1 15 3 16 83 18 84 19 88 20 85 21 87 22 86 23
REMARK SMILES IDX 16 24 17 25 18 26 19 27 20 28 21 29 82 30 22 31 81 32 23 33
REMARK SMILES IDX 24 34 25 35 75 36 26 37 80 38 74 39 76 40 27 41 79 42 73 43
REMARK SMILES IDX 72 44 28 46 60 47 40 48 59 49 41 50 44 51 58 52 77 53 42 54
REMARK SMILES IDX 43 55 57 57 78 58 45 59 29 60 30 61 38 62 31 63 32 64 36 65
REMARK SMILES IDX 39 66 33 67 34 68 37 69 35 70 61 71 62 72 70 73 63 74 64 75
REMARK SMILES IDX 68 76 71 77 65 78 66 79 69 80 67 81 46 82 47 83 55 84 48 85
REMARK SMILES IDX 49 86 53 87 56 88 50 89 51 90 54 91 52 92
REMARK H PARENT 2 17 76 45 44 56
REMARK Flexibility Score: inf
ROOT
ATOM      1  C   UNL A   1      36.700  22.380  23.777  1.00  0.00     0.274 C 
ENDROOT
BRANCH   1   2
ATOM      2  O   UNL A   1      35.733  23.255  24.406  1.00  0.00    -0.461 OA
BRANCH   2   3
ATOM      3  C   UNL A   1      34.526  23.433  23.792  1.00  0.00     0.316 C 
ATOM      4  O   UNL A   1      34.422  23.677  22.594  1.00  0.00    -0.251 OA
BRANCH   3   5
ATOM      5  C   UNL A   1      33.330  23.407  24.799  1.00  0.00     0.099 C 
ATOM      6  C   UNL A   1      33.991  22.947  26.117  1.00  0.00     0.029 C 
BRANCH   5   7
ATOM      7  C   UNL A   1      32.299  22.343  24.279  1.00  0.00     0.123 C 
BRANCH   7   8
ATOM      8  C   UNL A   1      32.608  20.913  24.533  1.00  0.00     0.228 A 
ATOM      9  C   UNL A   1      33.296  18.931  24.588  1.00  0.00     0.226 A 
ATOM     10  N   UNL A   1      32.253  18.925  25.434  1.00  0.00    -0.056 NA
ATOM     11  N   UNL A   1      33.571  20.166  24.043  1.00  0.00    -0.190 NA
ATOM     12  O   UNL A   1      31.791  20.240  25.393  1.00  0.00    -0.339 OA
BRANCH   9  13
ATOM     13  C   UNL A   1      34.143  17.729  24.286  1.00  0.00     0.344 C 
BRANCH  13  14
ATOM     14  N   UNL A   1      34.158  16.647  25.294  1.00  0.00    -0.333 N 
ATOM     15  C   UNL A   1      33.045  15.714  25.161  1.00  0.00     0.332 C 
ATOM     16  C   UNL A   1      35.435  15.949  25.377  1.00  0.00     0.332 C 
ATOM     17  H   UNL A   1      34.031  17.128  26.183  1.00  0.00     0.348 HD
ENDBRANCH  13  14
ENDBRANCH   9  13
ENDBRANCH   7   8
ENDBRANCH   5   7
BRANCH   5  18
ATOM     18  C   UNL A   1      32.677  24.803  25.036  1.00  0.00    -0.030 A 
ATOM     19  C   UNL A   1      33.273  25.736  25.911  1.00  0.00     0.005 A 
ATOM     20  C   UNL A   1      31.504  25.238  24.396  1.00  0.00     0.005 A 
ATOM     21  C   UNL A   1      32.668  26.953  26.242  1.00  0.00     0.000 A 
ATOM     22  C   UNL A   1      30.919  26.482  24.687  1.00  0.00     0.000 A 
ATOM     23  C   UNL A   1      31.478  27.321  25.640  1.00  0.00     0.000 A 
ENDBRANCH   5  18
ENDBRANCH   3   5
ENDBRANCH   2   3
ENDBRANCH   1   2
BRANCH   1  24
ATOM     24  C   UNL A   1      36.978  21.201  24.706  1.00  0.00     0.275 C 
BRANCH  24  25
ATOM     25  O   UNL A   1      37.572  21.731  25.901  1.00  0.00    -0.458 OA
BRANCH  25  26
ATOM     26  C   UNL A   1      38.873  21.430  26.118  1.00  0.00     0.338 C 
ATOM     27  O   UNL A   1      39.425  20.359  25.942  1.00  0.00    -0.246 OA
BRANCH  26  28
ATOM     28  C   UNL A   1      39.555  22.656  26.587  1.00  0.00     0.060 A 
ATOM     29  C   UNL A   1      39.076  23.904  26.193  1.00  0.00     0.016 A 
ATOM     30  C   UNL A   1      40.716  22.571  27.357  1.00  0.00     0.016 A 
ATOM     31  C   UNL A   1      39.768  25.062  26.538  1.00  0.00     0.010 A 
ATOM     32  C   UNL A   1      41.371  23.746  27.759  1.00  0.00     0.010 A 
ATOM     33  C   UNL A   1      40.915  25.007  27.338  1.00  0.00    -0.014 A 
BRANCH  33  34
ATOM     34  C   UNL A   1      41.672  26.260  27.632  1.00  0.00     0.031 A 
ATOM     35  C   UNL A   1      41.061  27.306  28.525  1.00  0.00     0.074 A 
ATOM     36  C   UNL A   1      42.931  26.450  27.184  1.00  0.00     0.049 A 
ATOM     37  N   UNL A   1      41.446  28.537  28.748  1.00  0.00    -0.248 NA
ATOM     38  C   UNL A   1      39.852  26.911  29.264  1.00  0.00     0.031 C 
ATOM     39  C   UNL A   1      43.711  25.495  26.397  1.00  0.00     0.029 A 
ATOM     40  N   UNL A   1      43.791  27.512  27.354  1.00  0.00    -0.354 N 
ATOM     41  C   UNL A   1      40.485  29.087  29.586  1.00  0.00     0.074 A 
ATOM     42  C   UNL A   1      39.512  28.049  29.853  1.00  0.00     0.031 C 
ATOM     43  C   UNL A   1      44.947  25.984  26.208  1.00  0.00     0.029 A 
ATOM     44  C   UNL A   1      45.020  27.330  26.768  1.00  0.00     0.049 A 
ATOM     45  H   UNL A   1      43.546  28.327  27.850  1.00  0.00     0.167 HD
ATOM     46  C   UNL A   1      40.415  30.347  30.077  1.00  0.00     0.037 A 
ATOM     47  C   UNL A   1      46.073  28.165  26.655  1.00  0.00     0.037 A 
ATOM     48  C   UNL A   1      41.419  31.359  29.878  1.00  0.00     0.049 A 
ATOM     49  C   UNL A   1      45.963  29.571  27.183  1.00  0.00     0.074 A 
ATOM     50  C   UNL A   1      41.417  32.676  30.304  1.00  0.00     0.029 A 
ATOM     51  N   UNL A   1      42.624  31.152  29.226  1.00  0.00    -0.354 N 
ATOM     52  N   UNL A   1      44.983  30.132  27.849  1.00  0.00    -0.248 NA
ATOM     53  C   UNL A   1      47.090  30.474  26.903  1.00  0.00     0.031 C 
ATOM     54  C   UNL A   1      42.614  33.273  29.891  1.00  0.00     0.029 A 
ATOM     55  C   UNL A   1      43.374  32.317  29.237  1.00  0.00     0.049 A 
ATOM     56  H   UNL A   1      42.906  30.303  28.815  1.00  0.00     0.167 HD
ATOM     57  C   UNL A   1      45.371  31.448  28.061  1.00  0.00     0.074 A 
ATOM     58  C   UNL A   1      46.691  31.596  27.485  1.00  0.00     0.031 C 
ATOM     59  C   UNL A   1      44.686  32.451  28.663  1.00  0.00     0.037 A 
BRANCH  46  60
ATOM     60  C   UNL A   1      39.176  30.722  30.831  1.00  0.00     0.064 A 
ATOM     61  C   UNL A   1      38.034  31.219  30.192  1.00  0.00     0.173 A 
ATOM     62  C   UNL A   1      39.132  30.555  32.224  1.00  0.00     0.173 A 
ATOM     63  F   UNL A   1      38.036  31.416  28.864  1.00  0.00    -0.203 F 
ATOM     64  C   UNL A   1      36.897  31.556  30.921  1.00  0.00     0.198 A 
ATOM     65  C   UNL A   1      37.985  30.867  32.948  1.00  0.00     0.198 A 
ATOM     66  F   UNL A   1      40.200  30.078  32.882  1.00  0.00    -0.203 F 
ATOM     67  F   UNL A   1      35.829  32.070  30.296  1.00  0.00    -0.200 F 
ATOM     68  C   UNL A   1      36.872  31.374  32.297  1.00  0.00     0.200 A 
ATOM     69  F   UNL A   1      37.961  30.682  34.275  1.00  0.00    -0.200 F 
ATOM     70  F   UNL A   1      35.774  31.693  32.997  1.00  0.00    -0.200 F 
ENDBRANCH  46  60
BRANCH  47  71
ATOM     71  C   UNL A   1      47.311  27.721  25.961  1.00  0.00     0.064 A 
ATOM     72  C   UNL A   1      47.423  27.805  24.566  1.00  0.00     0.173 A 
ATOM     73  C   UNL A   1      48.395  27.183  26.670  1.00  0.00     0.173 A 
ATOM     74  F   UNL A   1      46.401  28.277  23.838  1.00  0.00    -0.203 F 
ATOM     75  C   UNL A   1      48.570  27.361  23.908  1.00  0.00     0.198 A 
ATOM     76  C   UNL A   1      49.553  26.771  26.016  1.00  0.00     0.198 A 
ATOM     77  F   UNL A   1      48.332  27.068  28.005  1.00  0.00    -0.203 F 
ATOM     78  F   UNL A   1      48.634  27.411  22.571  1.00  0.00    -0.200 F 
ATOM     79  C   UNL A   1      49.637  26.853  24.634  1.00  0.00     0.200 A 
ATOM     80  F   UNL A   1      50.584  26.290  26.722  1.00  0.00    -0.200 F 
ATOM     81  F   UNL A   1      50.742  26.434  24.003  1.00  0.00    -0.200 F 
ENDBRANCH  47  71
BRANCH  59  82
ATOM     82  C   UNL A   1      45.352  33.792  28.736  1.00  0.00     0.064 A 
ATOM     83  C   UNL A   1      46.208  34.124  29.797  1.00  0.00     0.173 A 
ATOM     84  C   UNL A   1      45.164  34.740  27.719  1.00  0.00     0.173 A 
ATOM     85  F   UNL A   1      46.405  33.255  30.800  1.00  0.00    -0.203 F 
ATOM     86  C   UNL A   1      46.836  35.364  29.846  1.00  0.00     0.198 A 
ATOM     87  C   UNL A   1      45.812  35.971  27.762  1.00  0.00     0.198 A 
ATOM     88  F   UNL A   1      44.358  34.467  26.682  1.00  0.00    -0.203 F 
ATOM     89  F   UNL A   1      47.621  35.676  30.888  1.00  0.00    -0.200 F 
ATOM     90  C   UNL A   1      46.643  36.284  28.827  1.00  0.00     0.200 A 
ATOM     91  F   UNL A   1      45.630  36.857  26.772  1.00  0.00    -0.200 F 
ATOM     92  F   UNL A   1      47.251  37.478  28.875  1.00  0.00    -0.200 F 
ENDBRANCH  59  82
ENDBRANCH  33  34
ENDBRANCH  26  28
ENDBRANCH  25  26
ENDBRANCH  24  25
ENDBRANCH   1  24
TORSDOF 16
ENDMDL
