MODEL 1
REMARK VINA RESULT:     -11.9      0.000      0.000
REMARK SMILES O=C(COc1ccccc1C[N@@H+]1C[C@@H]2[C@H]3CC[C@H](C3)[C@@H]2C1)OCCOC(=O)c1ccc(-c2c3nc(c(-c4c(F)c(F)c(F)c(F)c4F)c4ccc([nH]4)c(-c4c(F)c(F)c(F)c(F)c4F)c4nc(c(-c5c(F)c(F)c(F)c(F)c5F)c5ccc2[nH]5)C=C4)C=C3)cc1
REMARK SMILES IDX 23 1 22 2 2 3 1 4 3 5 4 6 5 7 6 8 10 9 7 10 9 11 8 12 11 13
REMARK SMILES IDX 12 14 13 15 21 16 14 18 20 19 15 20 18 21 16 22 19 23 17 24
REMARK SMILES IDX 24 25 25 26 26 27 27 28 28 29 29 30 90 31 30 32 89 33 31 34
REMARK SMILES IDX 32 35 33 36 83 37 34 38 88 39 82 40 84 41 35 42 87 43 81 44
REMARK SMILES IDX 80 45 36 47 68 48 48 49 67 50 49 51 52 52 66 53 85 54 50 55
REMARK SMILES IDX 51 56 65 58 86 59 53 60 37 61 38 62 46 63 39 64 40 65 44 66
REMARK SMILES IDX 47 67 41 68 42 69 45 70 43 71 69 72 70 73 78 74 71 75 72 76
REMARK SMILES IDX 76 77 79 78 73 79 74 80 77 81 75 82 54 83 55 84 63 85 56 86
REMARK SMILES IDX 57 87 61 88 64 89 58 90 59 91 62 92 60 93
REMARK H PARENT 12 17 84 46 52 57
REMARK Flexibility Score: inf
ROOT
ATOM      1  C   UNL A   1      32.155  31.816  27.196  1.00  0.00     0.274 C 
ENDROOT
BRANCH   1   2
ATOM      2  O   UNL A   1      33.283  31.013  27.591  1.00  0.00    -0.460 OA
BRANCH   2   3
ATOM      3  C   UNL A   1      33.373  29.709  27.239  1.00  0.00     0.344 C 
ATOM      4  O   UNL A   1      34.469  29.150  27.210  1.00  0.00    -0.248 OA
BRANCH   3   5
ATOM      5  C   UNL A   1      32.084  28.950  26.927  1.00  0.00     0.351 C 
BRANCH   5   6
ATOM      6  O   UNL A   1      32.285  27.791  26.136  1.00  0.00    -0.481 OA
BRANCH   6   7
ATOM      7  C   UNL A   1      31.489  27.750  25.020  1.00  0.00     0.129 A 
ATOM      8  C   UNL A   1      31.626  28.840  24.150  1.00  0.00     0.047 A 
ATOM      9  C   UNL A   1      30.459  26.809  24.833  1.00  0.00     0.048 A 
ATOM     10  C   UNL A   1      30.757  28.997  23.070  1.00  0.00     0.004 A 
ATOM     11  C   UNL A   1      29.609  26.976  23.720  1.00  0.00     0.013 A 
ATOM     12  C   UNL A   1      29.751  28.061  22.853  1.00  0.00     0.001 A 
BRANCH   9  13
ATOM     13  C   UNL A   1      30.150  25.682  25.797  1.00  0.00     0.302 C 
BRANCH  13  14
ATOM     14  N   UNL A   1      30.940  24.475  25.668  1.00  0.00    -0.331 N 
ATOM     15  C   UNL A   1      32.043  24.266  26.572  1.00  0.00     0.266 C 
ATOM     16  C   UNL A   1      31.145  23.809  24.400  1.00  0.00     0.266 C 
ATOM     17  H   UNL A   1      30.134  23.966  26.029  1.00  0.00     0.348 HD
ATOM     18  C   UNL A   1      33.202  23.764  25.728  1.00  0.00     0.056 C 
ATOM     19  C   UNL A   1      32.601  23.324  24.382  1.00  0.00     0.056 C 
ATOM     20  C   UNL A   1      34.246  24.830  25.307  1.00  0.00    -0.002 C 
ATOM     21  C   UNL A   1      33.508  24.050  23.357  1.00  0.00    -0.002 C 
ATOM     22  C   UNL A   1      35.470  24.078  24.764  1.00  0.00     0.004 C 
ATOM     23  C   UNL A   1      33.708  25.413  24.004  1.00  0.00     0.008 C 
ATOM     24  C   UNL A   1      34.940  23.484  23.445  1.00  0.00     0.004 C 
ENDBRANCH  13  14
ENDBRANCH   9  13
ENDBRANCH   6   7
ENDBRANCH   5   6
ENDBRANCH   3   5
ENDBRANCH   2   3
ENDBRANCH   1   2
BRANCH   1  25
ATOM     25  C   UNL A   1      32.551  33.294  27.138  1.00  0.00     0.275 C 
BRANCH  25  26
ATOM     26  O   UNL A   1      32.232  33.909  28.402  1.00  0.00    -0.458 OA
BRANCH  26  27
ATOM     27  C   UNL A   1      32.991  34.963  28.794  1.00  0.00     0.338 C 
ATOM     28  O   UNL A   1      32.681  36.140  28.808  1.00  0.00    -0.246 OA
BRANCH  27  29
ATOM     29  C   UNL A   1      34.207  34.396  29.419  1.00  0.00     0.060 A 
ATOM     30  C   UNL A   1      34.074  33.538  30.518  1.00  0.00     0.016 A 
ATOM     31  C   UNL A   1      35.462  34.629  28.851  1.00  0.00     0.016 A 
ATOM     32  C   UNL A   1      35.198  32.884  31.034  1.00  0.00     0.010 A 
ATOM     33  C   UNL A   1      36.585  34.004  29.388  1.00  0.00     0.010 A 
ATOM     34  C   UNL A   1      36.461  33.131  30.482  1.00  0.00    -0.014 A 
BRANCH  34  35
ATOM     35  C   UNL A   1      37.696  32.623  31.121  1.00  0.00     0.031 A 
ATOM     36  C   UNL A   1      38.415  31.482  30.465  1.00  0.00     0.074 A 
ATOM     37  C   UNL A   1      38.113  33.100  32.309  1.00  0.00     0.049 A 
ATOM     38  N   UNL A   1      39.399  30.750  30.918  1.00  0.00    -0.248 NA
ATOM     39  C   UNL A   1      37.951  31.106  29.119  1.00  0.00     0.031 C 
ATOM     40  C   UNL A   1      37.517  34.222  33.030  1.00  0.00     0.029 A 
ATOM     41  N   UNL A   1      39.121  32.664  33.134  1.00  0.00    -0.354 N 
ATOM     42  C   UNL A   1      39.667  29.825  29.918  1.00  0.00     0.074 A 
ATOM     43  C   UNL A   1      38.737  30.077  28.839  1.00  0.00     0.031 C 
ATOM     44  C   UNL A   1      38.145  34.361  34.212  1.00  0.00     0.029 A 
ATOM     45  C   UNL A   1      39.160  33.317  34.342  1.00  0.00     0.049 A 
ATOM     46  H   UNL A   1      39.755  31.954  32.883  1.00  0.00     0.167 HD
ATOM     47  C   UNL A   1      40.605  28.852  29.904  1.00  0.00     0.037 A 
ATOM     48  C   UNL A   1      39.902  33.065  35.439  1.00  0.00     0.037 A 
ATOM     49  C   UNL A   1      41.525  28.595  30.977  1.00  0.00     0.049 A 
ATOM     50  C   UNL A   1      40.880  31.915  35.428  1.00  0.00     0.074 A 
ATOM     51  C   UNL A   1      42.544  27.661  31.034  1.00  0.00     0.029 A 
ATOM     52  N   UNL A   1      41.523  29.265  32.191  1.00  0.00    -0.354 N 
ATOM     53  N   UNL A   1      41.166  31.078  34.461  1.00  0.00    -0.248 NA
ATOM     54  C   UNL A   1      41.628  31.666  36.671  1.00  0.00     0.031 C 
ATOM     55  C   UNL A   1      43.127  27.730  32.303  1.00  0.00     0.029 A 
ATOM     56  C   UNL A   1      42.499  28.737  33.019  1.00  0.00     0.049 A 
ATOM     57  H   UNL A   1      40.919  30.005  32.428  1.00  0.00     0.167 HD
ATOM     58  C   UNL A   1      42.139  30.224  34.967  1.00  0.00     0.074 A 
ATOM     59  C   UNL A   1      42.406  30.650  36.324  1.00  0.00     0.031 C 
ATOM     60  C   UNL A   1      42.754  29.177  34.366  1.00  0.00     0.037 A 
BRANCH  47  61
ATOM     61  C   UNL A   1      40.670  27.969  28.698  1.00  0.00     0.064 A 
ATOM     62  C   UNL A   1      39.937  26.776  28.622  1.00  0.00     0.173 A 
ATOM     63  C   UNL A   1      41.429  28.352  27.582  1.00  0.00     0.173 A 
ATOM     64  F   UNL A   1      39.210  26.363  29.671  1.00  0.00    -0.203 F 
ATOM     65  C   UNL A   1      39.969  25.992  27.474  1.00  0.00     0.198 A 
ATOM     66  C   UNL A   1      41.442  27.575  26.427  1.00  0.00     0.198 A 
ATOM     67  F   UNL A   1      42.148  29.483  27.609  1.00  0.00    -0.203 F 
ATOM     68  F   UNL A   1      39.282  24.841  27.430  1.00  0.00    -0.200 F 
ATOM     69  C   UNL A   1      40.713  26.396  26.374  1.00  0.00     0.200 A 
ATOM     70  F   UNL A   1      42.156  27.970  25.364  1.00  0.00    -0.200 F 
ATOM     71  F   UNL A   1      40.731  25.646  25.264  1.00  0.00    -0.200 F 
ENDBRANCH  47  61
BRANCH  48  72
ATOM     72  C   UNL A   1      39.725  33.877  36.672  1.00  0.00     0.064 A 
ATOM     73  C   UNL A   1      38.892  33.440  37.711  1.00  0.00     0.173 A 
ATOM     74  C   UNL A   1      40.329  35.136  36.808  1.00  0.00     0.173 A 
ATOM     75  F   UNL A   1      38.264  32.259  37.614  1.00  0.00    -0.203 F 
ATOM     76  C   UNL A   1      38.648  34.243  38.825  1.00  0.00     0.198 A 
ATOM     77  C   UNL A   1      40.108  35.925  37.934  1.00  0.00     0.198 A 
ATOM     78  F   UNL A   1      41.129  35.605  35.838  1.00  0.00    -0.203 F 
ATOM     79  F   UNL A   1      37.797  33.827  39.774  1.00  0.00    -0.200 F 
ATOM     80  C   UNL A   1      39.258  35.483  38.937  1.00  0.00     0.200 A 
ATOM     81  F   UNL A   1      40.704  37.120  38.040  1.00  0.00    -0.200 F 
ATOM     82  F   UNL A   1      39.015  36.258  40.002  1.00  0.00    -0.200 F 
ENDBRANCH  48  72
BRANCH  60  83
ATOM     83  C   UNL A   1      43.788  28.429  35.155  1.00  0.00     0.064 A 
ATOM     84  C   UNL A   1      45.131  28.831  35.166  1.00  0.00     0.173 A 
ATOM     85  C   UNL A   1      43.420  27.337  35.956  1.00  0.00     0.173 A 
ATOM     86  F   UNL A   1      45.534  29.860  34.405  1.00  0.00    -0.203 F 
ATOM     87  C   UNL A   1      46.072  28.158  35.940  1.00  0.00     0.198 A 
ATOM     88  C   UNL A   1      44.357  26.684  36.750  1.00  0.00     0.198 A 
ATOM     89  F   UNL A   1      42.145  26.919  35.986  1.00  0.00    -0.203 F 
ATOM     90  F   UNL A   1      47.357  28.536  35.909  1.00  0.00    -0.200 F 
ATOM     91  C   UNL A   1      45.684  27.091  36.738  1.00  0.00     0.200 A 
ATOM     92  F   UNL A   1      43.978  25.662  37.530  1.00  0.00    -0.200 F 
ATOM     93  F   UNL A   1      46.588  26.452  37.492  1.00  0.00    -0.200 F 
ENDBRANCH  60  83
ENDBRANCH  34  35
ENDBRANCH  27  29
ENDBRANCH  26  27
ENDBRANCH  25  26
ENDBRANCH   1  25
TORSDOF 15
ENDMDL
MODEL 2
REMARK VINA RESULT:     -11.9      0.252      1.601
REMARK SMILES O=C(COc1ccccc1C[N@@H+]1C[C@@H]2[C@H]3CC[C@H](C3)[C@@H]2C1)OCCOC(=O)c1ccc(-c2c3nc(c(-c4c(F)c(F)c(F)c(F)c4F)c4ccc([nH]4)c(-c4c(F)c(F)c(F)c(F)c4F)c4nc(c(-c5c(F)c(F)c(F)c(F)c5F)c5ccc2[nH]5)C=C4)C=C3)cc1
REMARK SMILES IDX 23 1 22 2 2 3 1 4 3 5 4 6 5 7 6 8 10 9 7 10 9 11 8 12 11 13
REMARK SMILES IDX 12 14 13 15 21 16 14 18 20 19 15 20 18 21 16 22 19 23 17 24
REMARK SMILES IDX 24 25 25 26 26 27 27 28 28 29 29 30 90 31 30 32 89 33 31 34
REMARK SMILES IDX 32 35 33 36 83 37 34 38 88 39 82 40 84 41 35 42 87 43 81 44
REMARK SMILES IDX 80 45 36 47 68 48 48 49 67 50 49 51 52 52 66 53 85 54 50 55
REMARK SMILES IDX 51 56 65 58 86 59 53 60 37 61 38 62 46 63 39 64 40 65 44 66
REMARK SMILES IDX 47 67 41 68 42 69 45 70 43 71 69 72 70 73 78 74 71 75 72 76
REMARK SMILES IDX 76 77 79 78 73 79 74 80 77 81 75 82 54 83 55 84 63 85 56 86
REMARK SMILES IDX 57 87 61 88 64 89 58 90 59 91 62 92 60 93
REMARK H PARENT 12 17 84 46 52 57
REMARK Flexibility Score: inf
ROOT
ATOM      1  C   UNL A   1      32.438  31.784  27.304  1.00  0.00     0.274 C 
ENDROOT
BRANCH   1   2
ATOM      2  O   UNL A   1      33.564  30.887  27.346  1.00  0.00    -0.460 OA
BRANCH   2   3
ATOM      3  C   UNL A   1      33.395  29.546  27.276  1.00  0.00     0.344 C 
ATOM      4  O   UNL A   1      34.372  28.798  27.291  1.00  0.00    -0.248 OA
BRANCH   3   5
ATOM      5  C   UNL A   1      31.972  28.995  27.223  1.00  0.00     0.351 C 
BRANCH   5   6
ATOM      6  O   UNL A   1      31.887  27.693  26.668  1.00  0.00    -0.481 OA
BRANCH   6   7
ATOM      7  C   UNL A   1      31.300  27.668  25.429  1.00  0.00     0.129 A 
ATOM      8  C   UNL A   1      31.489  28.821  24.656  1.00  0.00     0.047 A 
ATOM      9  C   UNL A   1      30.402  26.666  25.014  1.00  0.00     0.048 A 
ATOM     10  C   UNL A   1      30.807  28.984  23.450  1.00  0.00     0.004 A 
ATOM     11  C   UNL A   1      29.744  26.843  23.779  1.00  0.00     0.013 A 
ATOM     12  C   UNL A   1      29.938  27.992  23.010  1.00  0.00     0.001 A 
BRANCH   9  13
ATOM     13  C   UNL A   1      30.032  25.456  25.846  1.00  0.00     0.302 C 
BRANCH  13  14
ATOM     14  N   UNL A   1      30.920  24.315  25.775  1.00  0.00    -0.331 N 
ATOM     15  C   UNL A   1      31.996  24.209  26.726  1.00  0.00     0.266 C 
ATOM     16  C   UNL A   1      31.230  23.646  24.529  1.00  0.00     0.266 C 
ATOM     17  H   UNL A   1      30.141  23.748  26.112  1.00  0.00     0.348 HD
ATOM     18  C   UNL A   1      33.226  23.787  25.941  1.00  0.00     0.056 C 
ATOM     19  C   UNL A   1      32.719  23.278  24.580  1.00  0.00     0.056 C 
ATOM     20  C   UNL A   1      34.199  24.926  25.542  1.00  0.00    -0.002 C 
ATOM     21  C   UNL A   1      33.609  24.057  23.580  1.00  0.00    -0.002 C 
ATOM     22  C   UNL A   1      35.501  24.265  25.065  1.00  0.00     0.004 C 
ATOM     23  C   UNL A   1      33.673  25.442  24.207  1.00  0.00     0.008 C 
ATOM     24  C   UNL A   1      35.076  23.609  23.737  1.00  0.00     0.004 C 
ENDBRANCH  13  14
ENDBRANCH   9  13
ENDBRANCH   6   7
ENDBRANCH   5   6
ENDBRANCH   3   5
ENDBRANCH   2   3
ENDBRANCH   1   2
BRANCH   1  25
ATOM     25  C   UNL A   1      32.918  33.234  27.196  1.00  0.00     0.275 C 
BRANCH  25  26
ATOM     26  O   UNL A   1      32.262  34.016  28.213  1.00  0.00    -0.458 OA
BRANCH  26  27
ATOM     27  C   UNL A   1      32.948  35.063  28.736  1.00  0.00     0.338 C 
ATOM     28  O   UNL A   1      32.584  36.221  28.829  1.00  0.00    -0.246 OA
BRANCH  27  29
ATOM     29  C   UNL A   1      34.151  34.496  29.384  1.00  0.00     0.060 A 
ATOM     30  C   UNL A   1      33.999  33.665  30.502  1.00  0.00     0.016 A 
ATOM     31  C   UNL A   1      35.414  34.700  28.822  1.00  0.00     0.016 A 
ATOM     32  C   UNL A   1      35.110  33.009  31.042  1.00  0.00     0.010 A 
ATOM     33  C   UNL A   1      36.525  34.074  29.383  1.00  0.00     0.010 A 
ATOM     34  C   UNL A   1      36.381  33.228  30.495  1.00  0.00    -0.014 A 
BRANCH  34  35
ATOM     35  C   UNL A   1      37.603  32.720  31.157  1.00  0.00     0.031 A 
ATOM     36  C   UNL A   1      38.315  31.557  30.532  1.00  0.00     0.074 A 
ATOM     37  C   UNL A   1      38.015  33.217  32.338  1.00  0.00     0.049 A 
ATOM     38  N   UNL A   1      39.287  30.824  31.009  1.00  0.00    -0.248 NA
ATOM     39  C   UNL A   1      37.859  31.157  29.190  1.00  0.00     0.031 C 
ATOM     40  C   UNL A   1      37.425  34.361  33.031  1.00  0.00     0.029 A 
ATOM     41  N   UNL A   1      39.010  32.787  33.182  1.00  0.00    -0.354 N 
ATOM     42  C   UNL A   1      39.553  29.875  30.032  1.00  0.00     0.074 A 
ATOM     43  C   UNL A   1      38.636  30.114  28.940  1.00  0.00     0.031 C 
ATOM     44  C   UNL A   1      38.045  34.518  34.214  1.00  0.00     0.029 A 
ATOM     45  C   UNL A   1      39.046  33.465  34.376  1.00  0.00     0.049 A 
ATOM     46  H   UNL A   1      39.638  32.065  32.952  1.00  0.00     0.167 HD
ATOM     47  C   UNL A   1      40.480  28.891  30.047  1.00  0.00     0.037 A 
ATOM     48  C   UNL A   1      39.775  33.228  35.486  1.00  0.00     0.037 A 
ATOM     49  C   UNL A   1      41.387  28.646  31.134  1.00  0.00     0.049 A 
ATOM     50  C   UNL A   1      40.739  32.067  35.508  1.00  0.00     0.074 A 
ATOM     51  C   UNL A   1      42.394  27.702  31.220  1.00  0.00     0.029 A 
ATOM     52  N   UNL A   1      41.382  29.342  32.334  1.00  0.00    -0.354 N 
ATOM     53  N   UNL A   1      41.025  31.206  34.561  1.00  0.00    -0.248 NA
ATOM     54  C   UNL A   1      41.473  31.836  36.763  1.00  0.00     0.031 C 
ATOM     55  C   UNL A   1      42.967  27.792  32.493  1.00  0.00     0.029 A 
ATOM     56  C   UNL A   1      42.344  28.820  33.182  1.00  0.00     0.049 A 
ATOM     57  H   UNL A   1      40.784  30.093  32.549  1.00  0.00     0.167 HD
ATOM     58  C   UNL A   1      41.983  30.353  35.095  1.00  0.00     0.074 A 
ATOM     59  C   UNL A   1      42.242  30.804  36.444  1.00  0.00     0.031 C 
ATOM     60  C   UNL A   1      42.591  29.286  34.521  1.00  0.00     0.037 A 
BRANCH  47  61
ATOM     61  C   UNL A   1      40.545  27.982  28.860  1.00  0.00     0.064 A 
ATOM     62  C   UNL A   1      39.800  26.796  28.804  1.00  0.00     0.173 A 
ATOM     63  C   UNL A   1      41.319  28.333  27.744  1.00  0.00     0.173 A 
ATOM     64  F   UNL A   1      39.060  26.413  29.855  1.00  0.00    -0.203 F 
ATOM     65  C   UNL A   1      39.834  25.987  27.672  1.00  0.00     0.198 A 
ATOM     66  C   UNL A   1      41.333  27.531  26.606  1.00  0.00     0.198 A 
ATOM     67  F   UNL A   1      42.050  29.457  27.754  1.00  0.00    -0.203 F 
ATOM     68  F   UNL A   1      39.135  24.843  27.646  1.00  0.00    -0.200 F 
ATOM     69  C   UNL A   1      40.592  26.360  26.571  1.00  0.00     0.200 A 
ATOM     70  F   UNL A   1      42.061  27.896  25.541  1.00  0.00    -0.200 F 
ATOM     71  F   UNL A   1      40.612  25.586  25.478  1.00  0.00    -0.200 F 
ENDBRANCH  47  61
BRANCH  48  72
ATOM     72  C   UNL A   1      39.596  34.068  36.700  1.00  0.00     0.064 A 
ATOM     73  C   UNL A   1      40.279  35.283  36.844  1.00  0.00     0.173 A 
ATOM     74  C   UNL A   1      38.792  33.642  37.767  1.00  0.00     0.173 A 
ATOM     75  F   UNL A   1      41.086  35.718  35.865  1.00  0.00    -0.203 F 
ATOM     76  C   UNL A   1      40.187  36.026  38.021  1.00  0.00     0.198 A 
ATOM     77  C   UNL A   1      38.679  34.398  38.932  1.00  0.00     0.198 A 
ATOM     78  F   UNL A   1      38.124  32.482  37.684  1.00  0.00    -0.203 F 
ATOM     79  F   UNL A   1      40.901  37.153  38.156  1.00  0.00    -0.200 F 
ATOM     80  C   UNL A   1      39.386  35.584  39.062  1.00  0.00     0.200 A 
ATOM     81  F   UNL A   1      37.898  33.970  39.933  1.00  0.00    -0.200 F 
ATOM     82  F   UNL A   1      39.306  36.292  40.197  1.00  0.00    -0.200 F 
ENDBRANCH  48  72
BRANCH  60  83
ATOM     83  C   UNL A   1      43.609  28.544  35.336  1.00  0.00     0.064 A 
ATOM     84  C   UNL A   1      43.237  27.508  36.203  1.00  0.00     0.173 A 
ATOM     85  C   UNL A   1      44.976  28.831  35.202  1.00  0.00     0.173 A 
ATOM     86  F   UNL A   1      41.940  27.206  36.377  1.00  0.00    -0.203 F 
ATOM     87  C   UNL A   1      44.195  26.794  36.918  1.00  0.00     0.198 A 
ATOM     88  C   UNL A   1      45.933  28.098  35.897  1.00  0.00     0.198 A 
ATOM     89  F   UNL A   1      45.385  29.809  34.379  1.00  0.00    -0.203 F 
ATOM     90  F   UNL A   1      43.814  25.831  37.769  1.00  0.00    -0.200 F 
ATOM     91  C   UNL A   1      45.542  27.083  36.758  1.00  0.00     0.200 A 
ATOM     92  F   UNL A   1      47.235  28.370  35.732  1.00  0.00    -0.200 F 
ATOM     93  F   UNL A   1      46.464  26.388  37.438  1.00  0.00    -0.200 F 
ENDBRANCH  60  83
ENDBRANCH  34  35
ENDBRANCH  27  29
ENDBRANCH  26  27
ENDBRANCH  25  26
ENDBRANCH   1  25
TORSDOF 15
ENDMDL
MODEL 3
REMARK VINA RESULT:     -11.9      3.353      8.825
REMARK SMILES O=C(COc1ccccc1C[N@@H+]1C[C@@H]2[C@H]3CC[C@H](C3)[C@@H]2C1)OCCOC(=O)c1ccc(-c2c3nc(c(-c4c(F)c(F)c(F)c(F)c4F)c4ccc([nH]4)c(-c4c(F)c(F)c(F)c(F)c4F)c4nc(c(-c5c(F)c(F)c(F)c(F)c5F)c5ccc2[nH]5)C=C4)C=C3)cc1
REMARK SMILES IDX 23 1 22 2 2 3 1 4 3 5 4 6 5 7 6 8 10 9 7 10 9 11 8 12 11 13
REMARK SMILES IDX 12 14 13 15 21 16 14 18 20 19 15 20 18 21 16 22 19 23 17 24
REMARK SMILES IDX 24 25 25 26 26 27 27 28 28 29 29 30 90 31 30 32 89 33 31 34
REMARK SMILES IDX 32 35 33 36 83 37 34 38 88 39 82 40 84 41 35 42 87 43 81 44
REMARK SMILES IDX 80 45 36 47 68 48 48 49 67 50 49 51 52 52 66 53 85 54 50 55
REMARK SMILES IDX 51 56 65 58 86 59 53 60 37 61 38 62 46 63 39 64 40 65 44 66
REMARK SMILES IDX 47 67 41 68 42 69 45 70 43 71 69 72 70 73 78 74 71 75 72 76
REMARK SMILES IDX 76 77 79 78 73 79 74 80 77 81 75 82 54 83 55 84 63 85 56 86
REMARK SMILES IDX 57 87 61 88 64 89 58 90 59 91 62 92 60 93
REMARK H PARENT 12 17 84 46 52 57
REMARK Flexibility Score: inf
ROOT
ATOM      1  C   UNL A   1      40.478  20.884  26.701  1.00  0.00     0.274 C 
ENDROOT
BRANCH   1   2
ATOM      2  O   UNL A   1      39.470  20.926  25.673  1.00  0.00    -0.460 OA
BRANCH   2   3
ATOM      3  C   UNL A   1      38.419  21.775  25.756  1.00  0.00     0.344 C 
ATOM      4  O   UNL A   1      38.576  22.912  26.200  1.00  0.00    -0.248 OA
BRANCH   3   5
ATOM      5  C   UNL A   1      37.059  21.300  25.248  1.00  0.00     0.351 C 
BRANCH   5   6
ATOM      6  O   UNL A   1      36.031  22.264  25.390  1.00  0.00    -0.481 OA
BRANCH   6   7
ATOM      7  C   UNL A   1      34.793  21.797  25.027  1.00  0.00     0.129 A 
ATOM      8  C   UNL A   1      34.336  20.690  25.754  1.00  0.00     0.047 A 
ATOM      9  C   UNL A   1      34.100  22.240  23.884  1.00  0.00     0.048 A 
ATOM     10  C   UNL A   1      33.173  20.024  25.371  1.00  0.00     0.004 A 
ATOM     11  C   UNL A   1      32.913  21.564  23.532  1.00  0.00     0.013 A 
ATOM     12  C   UNL A   1      32.459  20.464  24.262  1.00  0.00     0.001 A 
BRANCH   9  13
ATOM     13  C   UNL A   1      34.592  23.335  22.960  1.00  0.00     0.302 C 
BRANCH  13  14
ATOM     14  N   UNL A   1      33.894  24.603  23.018  1.00  0.00    -0.331 N 
ATOM     15  C   UNL A   1      34.064  25.438  24.179  1.00  0.00     0.266 C 
ATOM     16  C   UNL A   1      32.614  24.817  22.378  1.00  0.00     0.266 C 
ATOM     17  H   UNL A   1      34.533  24.932  22.294  1.00  0.00     0.348 HD
ATOM     18  C   UNL A   1      32.682  25.947  24.550  1.00  0.00     0.056 C 
ATOM     19  C   UNL A   1      31.781  25.688  23.329  1.00  0.00     0.056 C 
ATOM     20  C   UNL A   1      31.956  25.175  25.682  1.00  0.00    -0.002 C 
ATOM     21  C   UNL A   1      30.563  24.967  23.959  1.00  0.00    -0.002 C 
ATOM     22  C   UNL A   1      30.756  26.029  26.118  1.00  0.00     0.004 C 
ATOM     23  C   UNL A   1      31.217  24.043  24.976  1.00  0.00     0.008 C 
ATOM     24  C   UNL A   1      29.819  25.937  24.899  1.00  0.00     0.004 C 
ENDBRANCH  13  14
ENDBRANCH   9  13
ENDBRANCH   6   7
ENDBRANCH   5   6
ENDBRANCH   3   5
ENDBRANCH   2   3
ENDBRANCH   1   2
BRANCH   1  25
ATOM     25  C   UNL A   1      41.852  21.211  26.109  1.00  0.00     0.275 C 
BRANCH  25  26
ATOM     26  O   UNL A   1      41.778  22.486  25.441  1.00  0.00    -0.458 OA
BRANCH  26  27
ATOM     27  C   UNL A   1      42.870  23.289  25.500  1.00  0.00     0.338 C 
ATOM     28  O   UNL A   1      43.857  23.257  24.789  1.00  0.00    -0.246 OA
BRANCH  27  29
ATOM     29  C   UNL A   1      42.546  24.369  26.458  1.00  0.00     0.060 A 
ATOM     30  C   UNL A   1      43.180  25.611  26.328  1.00  0.00     0.016 A 
ATOM     31  C   UNL A   1      41.541  24.185  27.411  1.00  0.00     0.016 A 
ATOM     32  C   UNL A   1      42.787  26.685  27.134  1.00  0.00     0.010 A 
ATOM     33  C   UNL A   1      41.175  25.245  28.237  1.00  0.00     0.010 A 
ATOM     34  C   UNL A   1      41.796  26.498  28.106  1.00  0.00    -0.014 A 
BRANCH  34  35
ATOM     35  C   UNL A   1      41.495  27.543  29.111  1.00  0.00     0.031 A 
ATOM     36  C   UNL A   1      42.255  27.520  30.404  1.00  0.00     0.074 A 
ATOM     37  C   UNL A   1      40.502  28.431  28.918  1.00  0.00     0.049 A 
ATOM     38  N   UNL A   1      42.050  28.204  31.499  1.00  0.00    -0.248 NA
ATOM     39  C   UNL A   1      43.393  26.589  30.477  1.00  0.00     0.031 C 
ATOM     40  C   UNL A   1      39.713  28.571  27.696  1.00  0.00     0.029 A 
ATOM     41  N   UNL A   1      39.965  29.360  29.775  1.00  0.00    -0.354 N 
ATOM     42  C   UNL A   1      43.026  27.782  32.391  1.00  0.00     0.074 A 
ATOM     43  C   UNL A   1      43.816  26.776  31.717  1.00  0.00     0.031 C 
ATOM     44  C   UNL A   1      38.764  29.503  27.896  1.00  0.00     0.029 A 
ATOM     45  C   UNL A   1      38.858  29.997  29.270  1.00  0.00     0.049 A 
ATOM     46  H   UNL A   1      40.338  29.552  30.666  1.00  0.00     0.167 HD
ATOM     47  C   UNL A   1      43.241  28.197  33.660  1.00  0.00     0.037 A 
ATOM     48  C   UNL A   1      37.997  30.845  29.868  1.00  0.00     0.037 A 
ATOM     49  C   UNL A   1      42.452  29.191  34.333  1.00  0.00     0.049 A 
ATOM     50  C   UNL A   1      38.209  31.223  31.313  1.00  0.00     0.074 A 
ATOM     51  C   UNL A   1      42.624  29.712  35.603  1.00  0.00     0.029 A 
ATOM     52  N   UNL A   1      41.329  29.801  33.795  1.00  0.00    -0.354 N 
ATOM     53  N   UNL A   1      39.165  30.862  32.135  1.00  0.00    -0.248 NA
ATOM     54  C   UNL A   1      37.211  32.119  31.920  1.00  0.00     0.031 C 
ATOM     55  C   UNL A   1      41.574  30.601  35.854  1.00  0.00     0.029 A 
ATOM     56  C   UNL A   1      40.775  30.665  34.724  1.00  0.00     0.049 A 
ATOM     57  H   UNL A   1      40.979  29.643  32.889  1.00  0.00     0.167 HD
ATOM     58  C   UNL A   1      38.898  31.501  33.339  1.00  0.00     0.074 A 
ATOM     59  C   UNL A   1      37.698  32.284  33.142  1.00  0.00     0.031 C 
ATOM     60  C   UNL A   1      39.582  31.441  34.508  1.00  0.00     0.037 A 
BRANCH  47  61
ATOM     61  C   UNL A   1      44.361  27.557  34.417  1.00  0.00     0.064 A 
ATOM     62  C   UNL A   1      44.168  26.383  35.159  1.00  0.00     0.173 A 
ATOM     63  C   UNL A   1      45.654  28.095  34.354  1.00  0.00     0.173 A 
ATOM     64  F   UNL A   1      42.944  25.843  35.260  1.00  0.00    -0.203 F 
ATOM     65  C   UNL A   1      45.231  25.773  35.817  1.00  0.00     0.198 A 
ATOM     66  C   UNL A   1      46.719  27.471  34.996  1.00  0.00     0.198 A 
ATOM     67  F   UNL A   1      45.886  29.219  33.660  1.00  0.00    -0.203 F 
ATOM     68  F   UNL A   1      45.022  24.665  36.541  1.00  0.00    -0.200 F 
ATOM     69  C   UNL A   1      46.507  26.312  35.728  1.00  0.00     0.200 A 
ATOM     70  F   UNL A   1      47.952  27.989  34.904  1.00  0.00    -0.200 F 
ATOM     71  F   UNL A   1      47.532  25.715  36.351  1.00  0.00    -0.200 F 
ENDBRANCH  47  61
BRANCH  48  72
ATOM     72  C   UNL A   1      36.816  31.365  29.129  1.00  0.00     0.064 A 
ATOM     73  C   UNL A   1      36.748  32.706  28.727  1.00  0.00     0.173 A 
ATOM     74  C   UNL A   1      35.703  30.551  28.871  1.00  0.00     0.173 A 
ATOM     75  F   UNL A   1      37.773  33.533  28.981  1.00  0.00    -0.203 F 
ATOM     76  C   UNL A   1      35.603  33.220  28.120  1.00  0.00     0.198 A 
ATOM     77  C   UNL A   1      34.569  31.058  28.239  1.00  0.00     0.198 A 
ATOM     78  F   UNL A   1      35.712  29.263  29.243  1.00  0.00    -0.203 F 
ATOM     79  F   UNL A   1      35.542  34.521  27.802  1.00  0.00    -0.200 F 
ATOM     80  C   UNL A   1      34.516  32.395  27.875  1.00  0.00     0.200 A 
ATOM     81  F   UNL A   1      33.523  30.256  27.999  1.00  0.00    -0.200 F 
ATOM     82  F   UNL A   1      33.411  32.891  27.301  1.00  0.00    -0.200 F 
ENDBRANCH  48  72
BRANCH  60  83
ATOM     83  C   UNL A   1      39.067  32.255  35.658  1.00  0.00     0.064 A 
ATOM     84  C   UNL A   1      38.214  31.701  36.622  1.00  0.00     0.173 A 
ATOM     85  C   UNL A   1      39.479  33.585  35.830  1.00  0.00     0.173 A 
ATOM     86  F   UNL A   1      37.780  30.438  36.493  1.00  0.00    -0.203 F 
ATOM     87  C   UNL A   1      37.781  32.453  37.711  1.00  0.00     0.198 A 
ATOM     88  C   UNL A   1      39.067  34.326  36.934  1.00  0.00     0.198 A 
ATOM     89  F   UNL A   1      40.302  34.160  34.939  1.00  0.00    -0.203 F 
ATOM     90  F   UNL A   1      36.937  31.914  38.602  1.00  0.00    -0.200 F 
ATOM     91  C   UNL A   1      38.214  33.761  37.871  1.00  0.00     0.200 A 
ATOM     92  F   UNL A   1      39.497  35.585  37.094  1.00  0.00    -0.200 F 
ATOM     93  F   UNL A   1      37.807  34.479  38.926  1.00  0.00    -0.200 F 
ENDBRANCH  60  83
ENDBRANCH  34  35
ENDBRANCH  27  29
ENDBRANCH  26  27
ENDBRANCH  25  26
ENDBRANCH   1  25
TORSDOF 15
ENDMDL
