MODEL 1
REMARK VINA RESULT:     -11.4      0.000      0.000
REMARK SMILES [NH3+][C@H](Cc1cnc2[nH]cccc1-2)C(=O)OCCOC(=O)c1ccc(-c2c3nc(c(-c4c(F)c(F)c(F)c(F)c4F)c4ccc([nH]4)c(-c4c(F)c(F)c(F)c(F)c4F)c4nc(c(-c5c(F)c(F)c(F)c(F)c5F)c5ccc2[nH]5)C=C4)C=C3)cc1
REMARK SMILES IDX 16 1 15 2 13 3 14 4 2 5 1 6 3 10 4 11 5 12 12 13 6 14 7 15
REMARK SMILES IDX 11 16 8 17 10 18 9 19 17 21 18 22 19 23 20 24 21 25 22 26
REMARK SMILES IDX 83 27 23 28 82 29 24 30 25 31 26 32 76 33 27 34 81 35 75 36
REMARK SMILES IDX 77 37 28 38 80 39 74 40 73 41 29 43 61 44 41 45 60 46 42 47
REMARK SMILES IDX 45 48 59 49 78 50 43 51 44 52 58 54 79 55 46 56 30 57 31 58
REMARK SMILES IDX 39 59 32 60 33 61 37 62 40 63 34 64 35 65 38 66 36 67 62 68
REMARK SMILES IDX 63 69 71 70 64 71 65 72 69 73 72 74 66 75 67 76 70 77 68 78
REMARK SMILES IDX 47 79 48 80 56 81 49 82 50 83 54 84 57 85 51 86 52 87 55 88
REMARK SMILES IDX 53 89
REMARK H PARENT 1 7 1 8 1 9 8 20 77 42 45 53
REMARK Flexibility Score: inf
ROOT
ATOM      1  C   UNL A   1      42.020  19.537  26.990  1.00  0.00     0.274 C 
ENDROOT
BRANCH   1   2
ATOM      2  O   UNL A   1      43.023  20.147  26.150  1.00  0.00    -0.458 OA
BRANCH   2   3
ATOM      3  C   UNL A   1      43.768  19.335  25.349  1.00  0.00     0.365 C 
ATOM      4  O   UNL A   1      43.706  18.111  25.365  1.00  0.00    -0.245 OA
BRANCH   3   5
ATOM      5  C   UNL A   1      44.680  20.149  24.393  1.00  0.00     0.296 C 
BRANCH   5   6
ATOM      6  N   UNL A   1      44.955  19.438  23.121  1.00  0.00    -0.346 N 
ATOM      7  H   UNL A   1      45.955  19.247  23.048  1.00  0.00     0.345 HD
ATOM      8  H   UNL A   1      44.661  20.018  22.336  1.00  0.00     0.345 HD
ATOM      9  H   UNL A   1      44.440  18.557  23.105  1.00  0.00     0.345 HD
ENDBRANCH   5   6
BRANCH   5  10
ATOM     10  C   UNL A   1      45.951  20.725  25.023  1.00  0.00     0.115 C 
BRANCH  10  11
ATOM     11  C   UNL A   1      46.035  22.210  25.001  1.00  0.00    -0.012 A 
ATOM     12  C   UNL A   1      46.431  23.067  24.035  1.00  0.00     0.118 A 
ATOM     13  C   UNL A   1      45.667  23.050  26.090  1.00  0.00     0.022 A 
ATOM     14  N   UNL A   1      46.366  24.410  24.358  1.00  0.00    -0.238 NA
ATOM     15  C   UNL A   1      45.917  24.430  25.583  1.00  0.00     0.137 A 
ATOM     16  C   UNL A   1      45.197  22.898  27.336  1.00  0.00     0.014 A 
ATOM     17  N   UNL A   1      45.672  25.501  26.389  1.00  0.00    -0.346 N 
ATOM     18  C   UNL A   1      44.946  24.081  28.158  1.00  0.00     0.018 A 
ATOM     19  C   UNL A   1      45.191  25.313  27.664  1.00  0.00     0.084 A 
ATOM     20  H   UNL A   1      45.839  26.413  26.058  1.00  0.00     0.167 HD
ENDBRANCH  10  11
ENDBRANCH   5  10
ENDBRANCH   3   5
ENDBRANCH   2   3
ENDBRANCH   1   2
BRANCH   1  21
ATOM     21  C   UNL A   1      40.636  20.062  26.594  1.00  0.00     0.275 C 
BRANCH  21  22
ATOM     22  O   UNL A   1      40.405  21.297  27.294  1.00  0.00    -0.458 OA
BRANCH  22  23
ATOM     23  C   UNL A   1      39.622  22.190  26.645  1.00  0.00     0.338 C 
ATOM     24  O   UNL A   1      38.517  21.983  26.162  1.00  0.00    -0.246 OA
BRANCH  23  25
ATOM     25  C   UNL A   1      40.146  23.539  26.959  1.00  0.00     0.060 A 
ATOM     26  C   UNL A   1      41.236  23.725  27.818  1.00  0.00     0.016 A 
ATOM     27  C   UNL A   1      39.347  24.623  26.589  1.00  0.00     0.016 A 
ATOM     28  C   UNL A   1      41.413  24.957  28.445  1.00  0.00     0.010 A 
ATOM     29  C   UNL A   1      39.528  25.848  27.218  1.00  0.00     0.010 A 
ATOM     30  C   UNL A   1      40.503  25.994  28.216  1.00  0.00    -0.014 A 
BRANCH  30  31
ATOM     31  C   UNL A   1      40.734  27.311  28.822  1.00  0.00     0.031 A 
ATOM     32  C   UNL A   1      41.949  27.940  28.262  1.00  0.00     0.074 A 
ATOM     33  C   UNL A   1      39.972  27.997  29.706  1.00  0.00     0.049 A 
ATOM     34  N   UNL A   1      43.076  28.082  28.874  1.00  0.00    -0.248 NA
ATOM     35  C   UNL A   1      41.987  28.268  26.830  1.00  0.00     0.031 C 
ATOM     36  C   UNL A   1      38.678  27.650  30.267  1.00  0.00     0.029 A 
ATOM     37  N   UNL A   1      40.190  29.233  30.260  1.00  0.00    -0.354 N 
ATOM     38  C   UNL A   1      43.918  28.685  27.956  1.00  0.00     0.074 A 
ATOM     39  C   UNL A   1      43.272  28.586  26.675  1.00  0.00     0.031 C 
ATOM     40  C   UNL A   1      38.098  28.733  30.839  1.00  0.00     0.029 A 
ATOM     41  C   UNL A   1      39.074  29.805  30.877  1.00  0.00     0.049 A 
ATOM     42  H   UNL A   1      41.065  29.684  30.224  1.00  0.00     0.167 HD
ATOM     43  C   UNL A   1      44.954  29.459  28.369  1.00  0.00     0.037 A 
ATOM     44  C   UNL A   1      38.972  31.044  31.430  1.00  0.00     0.037 A 
ATOM     45  C   UNL A   1      45.274  29.222  29.752  1.00  0.00     0.049 A 
ATOM     46  C   UNL A   1      40.347  31.482  31.753  1.00  0.00     0.074 A 
ATOM     47  C   UNL A   1      45.684  28.122  30.483  1.00  0.00     0.029 A 
ATOM     48  N   UNL A   1      44.828  30.133  30.676  1.00  0.00    -0.354 N 
ATOM     49  N   UNL A   1      41.070  30.955  32.699  1.00  0.00    -0.248 NA
ATOM     50  C   UNL A   1      41.073  32.215  30.731  1.00  0.00     0.031 C 
ATOM     51  C   UNL A   1      45.036  28.246  31.747  1.00  0.00     0.029 A 
ATOM     52  C   UNL A   1      44.315  29.440  31.741  1.00  0.00     0.049 A 
ATOM     53  H   UNL A   1      44.869  31.114  30.589  1.00  0.00     0.167 HD
ATOM     54  C   UNL A   1      42.340  30.887  32.155  1.00  0.00     0.074 A 
ATOM     55  C   UNL A   1      42.301  31.756  30.980  1.00  0.00     0.031 C 
ATOM     56  C   UNL A   1      43.209  29.910  32.541  1.00  0.00     0.037 A 
BRANCH  43  57
ATOM     57  C   UNL A   1      45.402  30.687  27.627  1.00  0.00     0.064 A 
ATOM     58  C   UNL A   1      46.758  30.821  27.283  1.00  0.00     0.173 A 
ATOM     59  C   UNL A   1      44.614  31.852  27.487  1.00  0.00     0.173 A 
ATOM     60  F   UNL A   1      47.602  29.789  27.424  1.00  0.00    -0.203 F 
ATOM     61  C   UNL A   1      47.293  32.045  26.875  1.00  0.00     0.198 A 
ATOM     62  C   UNL A   1      45.138  33.053  27.018  1.00  0.00     0.198 A 
ATOM     63  F   UNL A   1      43.344  31.913  27.904  1.00  0.00    -0.203 F 
ATOM     64  F   UNL A   1      48.612  32.158  26.675  1.00  0.00    -0.200 F 
ATOM     65  C   UNL A   1      46.483  33.158  26.740  1.00  0.00     0.200 A 
ATOM     66  F   UNL A   1      44.339  34.126  26.921  1.00  0.00    -0.200 F 
ATOM     67  F   UNL A   1      47.003  34.343  26.397  1.00  0.00    -0.200 F 
ENDBRANCH  43  57
BRANCH  44  68
ATOM     68  C   UNL A   1      37.846  32.018  31.427  1.00  0.00     0.064 A 
ATOM     69  C   UNL A   1      37.437  32.649  30.233  1.00  0.00     0.173 A 
ATOM     70  C   UNL A   1      36.939  32.084  32.501  1.00  0.00     0.173 A 
ATOM     71  F   UNL A   1      38.219  32.606  29.145  1.00  0.00    -0.203 F 
ATOM     72  C   UNL A   1      36.180  33.253  30.106  1.00  0.00     0.198 A 
ATOM     73  C   UNL A   1      35.685  32.691  32.373  1.00  0.00     0.198 A 
ATOM     74  F   UNL A   1      37.209  31.467  33.660  1.00  0.00    -0.203 F 
ATOM     75  F   UNL A   1      35.798  33.765  28.927  1.00  0.00    -0.200 F 
ATOM     76  C   UNL A   1      35.298  33.257  31.171  1.00  0.00     0.200 A 
ATOM     77  F   UNL A   1      34.823  32.656  33.399  1.00  0.00    -0.200 F 
ATOM     78  F   UNL A   1      34.064  33.762  31.028  1.00  0.00    -0.200 F 
ENDBRANCH  44  68
BRANCH  56  79
ATOM     79  C   UNL A   1      42.872  29.111  33.771  1.00  0.00     0.064 A 
ATOM     80  C   UNL A   1      42.072  27.954  33.775  1.00  0.00     0.173 A 
ATOM     81  C   UNL A   1      43.514  29.453  34.968  1.00  0.00     0.173 A 
ATOM     82  F   UNL A   1      41.488  27.514  32.652  1.00  0.00    -0.203 F 
ATOM     83  C   UNL A   1      41.909  27.193  34.934  1.00  0.00     0.198 A 
ATOM     84  C   UNL A   1      43.379  28.673  36.112  1.00  0.00     0.198 A 
ATOM     85  F   UNL A   1      44.321  30.526  35.014  1.00  0.00    -0.203 F 
ATOM     86  F   UNL A   1      41.137  26.096  34.917  1.00  0.00    -0.200 F 
ATOM     87  C   UNL A   1      42.573  27.547  36.097  1.00  0.00     0.200 A 
ATOM     88  F   UNL A   1      44.058  28.996  37.222  1.00  0.00    -0.200 F 
ATOM     89  F   UNL A   1      42.457  26.789  37.197  1.00  0.00    -0.200 F 
ENDBRANCH  56  79
ENDBRANCH  30  31
ENDBRANCH  23  25
ENDBRANCH  22  23
ENDBRANCH  21  22
ENDBRANCH   1  21
TORSDOF 14
ENDMDL
MODEL 2
REMARK VINA RESULT:     -11.4      4.324     11.440
REMARK SMILES [NH3+][C@H](Cc1cnc2[nH]cccc1-2)C(=O)OCCOC(=O)c1ccc(-c2c3nc(c(-c4c(F)c(F)c(F)c(F)c4F)c4ccc([nH]4)c(-c4c(F)c(F)c(F)c(F)c4F)c4nc(c(-c5c(F)c(F)c(F)c(F)c5F)c5ccc2[nH]5)C=C4)C=C3)cc1
REMARK SMILES IDX 16 1 15 2 13 3 14 4 2 5 1 6 3 10 4 11 5 12 12 13 6 14 7 15
REMARK SMILES IDX 11 16 8 17 10 18 9 19 17 21 18 22 19 23 20 24 21 25 22 26
REMARK SMILES IDX 83 27 23 28 82 29 24 30 25 31 26 32 76 33 27 34 81 35 75 36
REMARK SMILES IDX 77 37 28 38 80 39 74 40 73 41 29 43 61 44 41 45 60 46 42 47
REMARK SMILES IDX 45 48 59 49 78 50 43 51 44 52 58 54 79 55 46 56 30 57 31 58
REMARK SMILES IDX 39 59 32 60 33 61 37 62 40 63 34 64 35 65 38 66 36 67 62 68
REMARK SMILES IDX 63 69 71 70 64 71 65 72 69 73 72 74 66 75 67 76 70 77 68 78
REMARK SMILES IDX 47 79 48 80 56 81 49 82 50 83 54 84 57 85 51 86 52 87 55 88
REMARK SMILES IDX 53 89
REMARK H PARENT 1 7 1 8 1 9 8 20 77 42 45 53
REMARK Flexibility Score: inf
ROOT
ATOM      1  C   UNL A   1      33.554  35.234  28.718  1.00  0.00     0.274 C 
ENDROOT
BRANCH   1   2
ATOM      2  O   UNL A   1      32.555  35.548  29.712  1.00  0.00    -0.458 OA
BRANCH   2   3
ATOM      3  C   UNL A   1      32.937  36.286  30.792  1.00  0.00     0.365 C 
ATOM      4  O   UNL A   1      32.903  37.511  30.833  1.00  0.00    -0.245 OA
BRANCH   3   5
ATOM      5  C   UNL A   1      33.390  35.387  31.973  1.00  0.00     0.296 C 
BRANCH   5   6
ATOM      6  N   UNL A   1      32.272  35.023  32.876  1.00  0.00    -0.346 N 
ATOM      7  H   UNL A   1      31.409  35.449  32.537  1.00  0.00     0.345 HD
ATOM      8  H   UNL A   1      32.470  35.360  33.817  1.00  0.00     0.345 HD
ATOM      9  H   UNL A   1      32.165  34.008  32.894  1.00  0.00     0.345 HD
ENDBRANCH   5   6
BRANCH   5  10
ATOM     10  C   UNL A   1      34.622  35.874  32.740  1.00  0.00     0.115 C 
BRANCH  10  11
ATOM     11  C   UNL A   1      35.418  34.794  33.383  1.00  0.00    -0.012 A 
ATOM     12  C   UNL A   1      35.153  34.003  34.445  1.00  0.00     0.118 A 
ATOM     13  C   UNL A   1      36.702  34.372  32.938  1.00  0.00     0.022 A 
ATOM     14  N   UNL A   1      36.131  33.078  34.766  1.00  0.00    -0.238 NA
ATOM     15  C   UNL A   1      37.072  33.279  33.884  1.00  0.00     0.137 A 
ATOM     16  C   UNL A   1      37.564  34.698  31.966  1.00  0.00     0.014 A 
ATOM     17  N   UNL A   1      38.269  32.644  33.748  1.00  0.00    -0.346 N 
ATOM     18  C   UNL A   1      38.834  33.981  31.861  1.00  0.00     0.018 A 
ATOM     19  C   UNL A   1      39.133  33.003  32.740  1.00  0.00     0.084 A 
ATOM     20  H   UNL A   1      38.517  31.924  34.373  1.00  0.00     0.167 HD
ENDBRANCH  10  11
ENDBRANCH   5  10
ENDBRANCH   3   5
ENDBRANCH   2   3
ENDBRANCH   1   2
BRANCH   1  21
ATOM     21  C   UNL A   1      33.473  33.744  28.370  1.00  0.00     0.275 C 
BRANCH  21  22
ATOM     22  O   UNL A   1      34.804  33.200  28.400  1.00  0.00    -0.458 OA
BRANCH  22  23
ATOM     23  C   UNL A   1      35.108  32.479  29.504  1.00  0.00     0.338 C 
ATOM     24  O   UNL A   1      34.409  32.328  30.498  1.00  0.00    -0.246 OA
BRANCH  23  25
ATOM     25  C   UNL A   1      36.240  31.593  29.149  1.00  0.00     0.060 A 
ATOM     26  C   UNL A   1      36.101  30.201  29.104  1.00  0.00     0.016 A 
ATOM     27  C   UNL A   1      37.509  32.176  29.130  1.00  0.00     0.016 A 
ATOM     28  C   UNL A   1      37.231  29.394  29.223  1.00  0.00     0.010 A 
ATOM     29  C   UNL A   1      38.632  31.367  29.250  1.00  0.00     0.010 A 
ATOM     30  C   UNL A   1      38.491  29.979  29.390  1.00  0.00    -0.014 A 
BRANCH  30  31
ATOM     31  C   UNL A   1      39.686  29.127  29.443  1.00  0.00     0.031 A 
ATOM     32  C   UNL A   1      40.082  28.865  30.843  1.00  0.00     0.074 A 
ATOM     33  C   UNL A   1      40.364  28.533  28.433  1.00  0.00     0.049 A 
ATOM     34  N   UNL A   1      41.103  29.373  31.447  1.00  0.00    -0.248 NA
ATOM     35  C   UNL A   1      39.160  28.127  31.719  1.00  0.00     0.031 C 
ATOM     36  C   UNL A   1      40.070  28.521  27.010  1.00  0.00     0.029 A 
ATOM     37  N   UNL A   1      41.474  27.729  28.492  1.00  0.00    -0.354 N 
ATOM     38  C   UNL A   1      41.052  28.874  32.736  1.00  0.00     0.074 A 
ATOM     39  C   UNL A   1      39.747  28.293  32.904  1.00  0.00     0.031 C 
ATOM     40  C   UNL A   1      40.778  27.550  26.384  1.00  0.00     0.029 A 
ATOM     41  C   UNL A   1      41.741  27.010  27.323  1.00  0.00     0.049 A 
ATOM     42  H   UNL A   1      42.039  27.663  29.296  1.00  0.00     0.167 HD
ATOM     43  C   UNL A   1      42.185  28.736  33.472  1.00  0.00     0.037 A 
ATOM     44  C   UNL A   1      42.715  26.081  27.121  1.00  0.00     0.037 A 
ATOM     45  C   UNL A   1      43.266  29.517  32.930  1.00  0.00     0.049 A 
ATOM     46  C   UNL A   1      43.764  26.334  28.133  1.00  0.00     0.074 A 
ATOM     47  C   UNL A   1      43.473  30.863  32.693  1.00  0.00     0.029 A 
ATOM     48  N   UNL A   1      44.218  28.861  32.191  1.00  0.00    -0.354 N 
ATOM     49  N   UNL A   1      44.545  27.375  28.119  1.00  0.00    -0.248 NA
ATOM     50  C   UNL A   1      43.646  25.644  29.405  1.00  0.00     0.031 C 
ATOM     51  C   UNL A   1      44.221  30.921  31.481  1.00  0.00     0.029 A 
ATOM     52  C   UNL A   1      44.479  29.612  31.075  1.00  0.00     0.049 A 
ATOM     53  H   UNL A   1      44.640  28.001  32.422  1.00  0.00     0.167 HD
ATOM     54  C   UNL A   1      44.642  27.742  29.450  1.00  0.00     0.074 A 
ATOM     55  C   UNL A   1      44.144  26.592  30.201  1.00  0.00     0.031 C 
ATOM     56  C   UNL A   1      44.841  29.045  29.798  1.00  0.00     0.037 A 
BRANCH  43  57
ATOM     57  C   UNL A   1      42.399  27.604  34.437  1.00  0.00     0.064 A 
ATOM     58  C   UNL A   1      42.946  26.399  33.964  1.00  0.00     0.173 A 
ATOM     59  C   UNL A   1      41.839  27.558  35.733  1.00  0.00     0.173 A 
ATOM     60  F   UNL A   1      43.461  26.322  32.729  1.00  0.00    -0.203 F 
ATOM     61  C   UNL A   1      42.891  25.224  34.718  1.00  0.00     0.198 A 
ATOM     62  C   UNL A   1      41.843  26.402  36.506  1.00  0.00     0.198 A 
ATOM     63  F   UNL A   1      41.163  28.587  36.259  1.00  0.00    -0.203 F 
ATOM     64  F   UNL A   1      43.312  24.071  34.181  1.00  0.00    -0.200 F 
ATOM     65  C   UNL A   1      42.343  25.227  35.988  1.00  0.00     0.200 A 
ATOM     66  F   UNL A   1      41.283  26.422  37.724  1.00  0.00    -0.200 F 
ATOM     67  F   UNL A   1      42.245  24.092  36.692  1.00  0.00    -0.200 F 
ENDBRANCH  43  57
BRANCH  44  68
ATOM     68  C   UNL A   1      42.696  24.808  26.349  1.00  0.00     0.064 A 
ATOM     69  C   UNL A   1      43.641  24.565  25.331  1.00  0.00     0.173 A 
ATOM     70  C   UNL A   1      41.991  23.684  26.818  1.00  0.00     0.173 A 
ATOM     71  F   UNL A   1      44.387  25.569  24.848  1.00  0.00    -0.203 F 
ATOM     72  C   UNL A   1      43.906  23.273  24.857  1.00  0.00     0.198 A 
ATOM     73  C   UNL A   1      42.255  22.395  26.341  1.00  0.00     0.198 A 
ATOM     74  F   UNL A   1      41.112  23.800  27.823  1.00  0.00    -0.203 F 
ATOM     75  F   UNL A   1      44.874  23.077  23.950  1.00  0.00    -0.200 F 
ATOM     76  C   UNL A   1      43.225  22.188  25.376  1.00  0.00     0.200 A 
ATOM     77  F   UNL A   1      41.616  21.345  26.878  1.00  0.00    -0.200 F 
ATOM     78  F   UNL A   1      43.532  20.943  24.984  1.00  0.00    -0.200 F 
ENDBRANCH  44  68
BRANCH  56  79
ATOM     79  C   UNL A   1      45.254  30.009  28.718  1.00  0.00     0.064 A 
ATOM     80  C   UNL A   1      44.359  30.681  27.866  1.00  0.00     0.173 A 
ATOM     81  C   UNL A   1      46.604  30.376  28.651  1.00  0.00     0.173 A 
ATOM     82  F   UNL A   1      43.042  30.445  27.923  1.00  0.00    -0.203 F 
ATOM     83  C   UNL A   1      44.807  31.657  26.975  1.00  0.00     0.198 A 
ATOM     84  C   UNL A   1      47.043  31.375  27.788  1.00  0.00     0.198 A 
ATOM     85  F   UNL A   1      47.499  29.796  29.469  1.00  0.00    -0.203 F 
ATOM     86  F   UNL A   1      43.937  32.283  26.166  1.00  0.00    -0.200 F 
ATOM     87  C   UNL A   1      46.146  32.012  26.946  1.00  0.00     0.200 A 
ATOM     88  F   UNL A   1      48.331  31.744  27.796  1.00  0.00    -0.200 F 
ATOM     89  F   UNL A   1      46.569  32.985  26.126  1.00  0.00    -0.200 F 
ENDBRANCH  56  79
ENDBRANCH  30  31
ENDBRANCH  23  25
ENDBRANCH  22  23
ENDBRANCH  21  22
ENDBRANCH   1  21
TORSDOF 14
ENDMDL
MODEL 3
REMARK VINA RESULT:     -11.3      0.679      1.345
REMARK SMILES [NH3+][C@H](Cc1cnc2[nH]cccc1-2)C(=O)OCCOC(=O)c1ccc(-c2c3nc(c(-c4c(F)c(F)c(F)c(F)c4F)c4ccc([nH]4)c(-c4c(F)c(F)c(F)c(F)c4F)c4nc(c(-c5c(F)c(F)c(F)c(F)c5F)c5ccc2[nH]5)C=C4)C=C3)cc1
REMARK SMILES IDX 16 1 15 2 13 3 14 4 2 5 1 6 3 10 4 11 5 12 12 13 6 14 7 15
REMARK SMILES IDX 11 16 8 17 10 18 9 19 17 21 18 22 19 23 20 24 21 25 22 26
REMARK SMILES IDX 83 27 23 28 82 29 24 30 25 31 26 32 76 33 27 34 81 35 75 36
REMARK SMILES IDX 77 37 28 38 80 39 74 40 73 41 29 43 61 44 41 45 60 46 42 47
REMARK SMILES IDX 45 48 59 49 78 50 43 51 44 52 58 54 79 55 46 56 30 57 31 58
REMARK SMILES IDX 39 59 32 60 33 61 37 62 40 63 34 64 35 65 38 66 36 67 62 68
REMARK SMILES IDX 63 69 71 70 64 71 65 72 69 73 72 74 66 75 67 76 70 77 68 78
REMARK SMILES IDX 47 79 48 80 56 81 49 82 50 83 54 84 57 85 51 86 52 87 55 88
REMARK SMILES IDX 53 89
REMARK H PARENT 1 7 1 8 1 9 8 20 77 42 45 53
REMARK Flexibility Score: inf
ROOT
ATOM      1  C   UNL A   1      42.212  19.532  26.751  1.00  0.00     0.274 C 
ENDROOT
BRANCH   1   2
ATOM      2  O   UNL A   1      42.591  19.257  25.386  1.00  0.00    -0.458 OA
BRANCH   2   3
ATOM      3  C   UNL A   1      43.918  19.110  25.106  1.00  0.00     0.365 C 
ATOM      4  O   UNL A   1      44.542  18.069  25.271  1.00  0.00    -0.245 OA
BRANCH   3   5
ATOM      5  C   UNL A   1      44.530  20.413  24.526  1.00  0.00     0.296 C 
BRANCH   5   6
ATOM      6  N   UNL A   1      44.753  20.337  23.062  1.00  0.00    -0.346 N 
ATOM      7  H   UNL A   1      44.354  19.470  22.702  1.00  0.00     0.345 HD
ATOM      8  H   UNL A   1      45.754  20.356  22.869  1.00  0.00     0.345 HD
ATOM      9  H   UNL A   1      44.304  21.132  22.607  1.00  0.00     0.345 HD
ENDBRANCH   5   6
BRANCH   5  10
ATOM     10  C   UNL A   1      45.751  20.959  25.272  1.00  0.00     0.115 C 
BRANCH  10  11
ATOM     11  C   UNL A   1      45.902  22.437  25.213  1.00  0.00    -0.012 A 
ATOM     12  C   UNL A   1      46.275  23.256  24.206  1.00  0.00     0.118 A 
ATOM     13  C   UNL A   1      45.646  23.313  26.305  1.00  0.00     0.022 A 
ATOM     14  N   UNL A   1      46.294  24.607  24.503  1.00  0.00    -0.238 NA
ATOM     15  C   UNL A   1      45.927  24.671  25.754  1.00  0.00     0.137 A 
ATOM     16  C   UNL A   1      45.252  23.208  27.581  1.00  0.00     0.014 A 
ATOM     17  N   UNL A   1      45.786  25.766  26.551  1.00  0.00    -0.346 N 
ATOM     18  C   UNL A   1      45.110  24.416  28.393  1.00  0.00     0.018 A 
ATOM     19  C   UNL A   1      45.380  25.625  27.857  1.00  0.00     0.084 A 
ATOM     20  H   UNL A   1      45.974  26.663  26.191  1.00  0.00     0.167 HD
ENDBRANCH  10  11
ENDBRANCH   5  10
ENDBRANCH   3   5
ENDBRANCH   2   3
ENDBRANCH   1   2
BRANCH   1  21
ATOM     21  C   UNL A   1      40.804  20.133  26.777  1.00  0.00     0.275 C 
BRANCH  21  22
ATOM     22  O   UNL A   1      40.912  21.521  27.138  1.00  0.00    -0.458 OA
BRANCH  22  23
ATOM     23  C   UNL A   1      39.936  22.322  26.650  1.00  0.00     0.338 C 
ATOM     24  O   UNL A   1      38.818  21.981  26.289  1.00  0.00    -0.246 OA
BRANCH  23  25
ATOM     25  C   UNL A   1      40.304  23.716  26.991  1.00  0.00     0.060 A 
ATOM     26  C   UNL A   1      41.465  24.016  27.713  1.00  0.00     0.016 A 
ATOM     27  C   UNL A   1      39.317  24.686  26.807  1.00  0.00     0.016 A 
ATOM     28  C   UNL A   1      41.553  25.225  28.399  1.00  0.00     0.010 A 
ATOM     29  C   UNL A   1      39.410  25.890  27.495  1.00  0.00     0.010 A 
ATOM     30  C   UNL A   1      40.483  26.125  28.367  1.00  0.00    -0.014 A 
BRANCH  30  31
ATOM     31  C   UNL A   1      40.609  27.429  29.032  1.00  0.00     0.031 A 
ATOM     32  C   UNL A   1      41.733  28.201  28.463  1.00  0.00     0.074 A 
ATOM     33  C   UNL A   1      39.820  27.991  29.977  1.00  0.00     0.049 A 
ATOM     34  N   UNL A   1      42.865  28.426  29.041  1.00  0.00    -0.248 NA
ATOM     35  C   UNL A   1      41.681  28.601  27.049  1.00  0.00     0.031 C 
ATOM     36  C   UNL A   1      38.589  27.490  30.565  1.00  0.00     0.029 A 
ATOM     37  N   UNL A   1      39.939  29.215  30.586  1.00  0.00    -0.354 N 
ATOM     38  C   UNL A   1      43.606  29.153  28.127  1.00  0.00     0.074 A 
ATOM     39  C   UNL A   1      42.921  29.052  26.866  1.00  0.00     0.031 C 
ATOM     40  C   UNL A   1      37.930  28.482  31.213  1.00  0.00     0.029 A 
ATOM     41  C   UNL A   1      38.797  29.642  31.272  1.00  0.00     0.049 A 
ATOM     42  H   UNL A   1      40.763  29.751  30.543  1.00  0.00     0.167 HD
ATOM     43  C   UNL A   1      44.577  30.006  28.542  1.00  0.00     0.037 A 
ATOM     44  C   UNL A   1      38.598  30.837  31.892  1.00  0.00     0.037 A 
ATOM     45  C   UNL A   1      44.974  29.734  29.899  1.00  0.00     0.049 A 
ATOM     46  C   UNL A   1      39.936  31.393  32.189  1.00  0.00     0.074 A 
ATOM     47  C   UNL A   1      45.519  28.647  30.556  1.00  0.00     0.029 A 
ATOM     48  N   UNL A   1      44.480  30.551  30.884  1.00  0.00    -0.354 N 
ATOM     49  N   UNL A   1      40.744  30.896  33.080  1.00  0.00    -0.248 NA
ATOM     50  C   UNL A   1      40.544  32.244  31.182  1.00  0.00     0.031 C 
ATOM     51  C   UNL A   1      44.914  28.645  31.847  1.00  0.00     0.029 A 
ATOM     52  C   UNL A   1      44.080  29.759  31.929  1.00  0.00     0.049 A 
ATOM     53  H   UNL A   1      44.421  31.534  30.847  1.00  0.00     0.167 HD
ATOM     54  C   UNL A   1      41.992  30.981  32.488  1.00  0.00     0.074 A 
ATOM     55  C   UNL A   1      41.820  31.897  31.363  1.00  0.00     0.031 C 
ATOM     56  C   UNL A   1      42.967  30.077  32.791  1.00  0.00     0.037 A 
BRANCH  43  57
ATOM     57  C   UNL A   1      44.873  31.307  27.850  1.00  0.00     0.064 A 
ATOM     58  C   UNL A   1      46.114  31.476  27.215  1.00  0.00     0.173 A 
ATOM     59  C   UNL A   1      44.105  32.481  28.021  1.00  0.00     0.173 A 
ATOM     60  F   UNL A   1      46.941  30.434  27.045  1.00  0.00    -0.203 F 
ATOM     61  C   UNL A   1      46.572  32.737  26.825  1.00  0.00     0.198 A 
ATOM     62  C   UNL A   1      44.536  33.725  27.573  1.00  0.00     0.198 A 
ATOM     63  F   UNL A   1      42.968  32.497  28.728  1.00  0.00    -0.203 F 
ATOM     64  F   UNL A   1      47.812  32.870  26.335  1.00  0.00    -0.200 F 
ATOM     65  C   UNL A   1      45.782  33.858  27.001  1.00  0.00     0.200 A 
ATOM     66  F   UNL A   1      43.765  34.802  27.779  1.00  0.00    -0.200 F 
ATOM     67  F   UNL A   1      46.239  35.073  26.673  1.00  0.00    -0.200 F 
ENDBRANCH  43  57
BRANCH  44  68
ATOM     68  C   UNL A   1      37.382  31.693  31.980  1.00  0.00     0.064 A 
ATOM     69  C   UNL A   1      36.851  32.068  33.232  1.00  0.00     0.173 A 
ATOM     70  C   UNL A   1      36.933  32.434  30.872  1.00  0.00     0.173 A 
ATOM     71  F   UNL A   1      37.248  31.443  34.349  1.00  0.00    -0.203 F 
ATOM     72  C   UNL A   1      35.974  33.152  33.370  1.00  0.00     0.198 A 
ATOM     73  C   UNL A   1      36.056  33.515  31.012  1.00  0.00     0.198 A 
ATOM     74  F   UNL A   1      37.422  32.193  29.647  1.00  0.00    -0.203 F 
ATOM     75  F   UNL A   1      35.561  33.528  34.590  1.00  0.00    -0.200 F 
ATOM     76  C   UNL A   1      35.592  33.885  32.262  1.00  0.00     0.200 A 
ATOM     77  F   UNL A   1      35.721  34.242  29.937  1.00  0.00    -0.200 F 
ATOM     78  F   UNL A   1      34.819  34.972  32.401  1.00  0.00    -0.200 F 
ENDBRANCH  44  68
BRANCH  56  79
ATOM     79  C   UNL A   1      42.759  29.190  33.989  1.00  0.00     0.064 A 
ATOM     80  C   UNL A   1      42.023  27.992  33.975  1.00  0.00     0.173 A 
ATOM     81  C   UNL A   1      43.466  29.497  35.160  1.00  0.00     0.173 A 
ATOM     82  F   UNL A   1      41.384  27.587  32.869  1.00  0.00    -0.203 F 
ATOM     83  C   UNL A   1      41.982  27.157  35.093  1.00  0.00     0.198 A 
ATOM     84  C   UNL A   1      43.453  28.645  36.259  1.00  0.00     0.198 A 
ATOM     85  F   UNL A   1      44.218  30.609  35.217  1.00  0.00    -0.203 F 
ATOM     86  F   UNL A   1      41.268  26.021  35.060  1.00  0.00    -0.200 F 
ATOM     87  C   UNL A   1      42.707  27.478  36.229  1.00  0.00     0.200 A 
ATOM     88  F   UNL A   1      44.191  28.940  37.339  1.00  0.00    -0.200 F 
ATOM     89  F   UNL A   1      42.709  26.652  37.284  1.00  0.00    -0.200 F 
ENDBRANCH  56  79
ENDBRANCH  30  31
ENDBRANCH  23  25
ENDBRANCH  22  23
ENDBRANCH  21  22
ENDBRANCH   1  21
TORSDOF 14
ENDMDL
