MODEL 1
REMARK VINA RESULT:     -12.5      0.000      0.000
REMARK SMILES C[C@@H](Sc1nc(-c2ccc3c(c2)OCO3)ccc1C#N)C(=O)OCCOC(=O)c1ccc(-c2c3nc(c(-c4c(F)c(F)c(F)c(F)c4F)c4ccc([nH]4)c(-c4c(F)c(F)c(F)c(F)c4F)c4nc(c(-c5c(F)c(F)c(F)c(F)c5F)c5ccc2[nH]5)C=C4)C=C3)cc1
REMARK SMILES IDX 24 1 23 2 21 3 22 4 2 5 1 6 3 7 4 8 5 9 18 10 6 11 17 12
REMARK SMILES IDX 16 13 19 14 20 15 7 16 8 17 12 18 9 19 11 20 10 21 13 22
REMARK SMILES IDX 15 23 14 24 25 25 26 26 27 27 28 28 29 29 30 30 91 31 31 32
REMARK SMILES IDX 90 33 32 34 33 35 34 36 84 37 35 38 89 39 83 40 85 41 36 42
REMARK SMILES IDX 88 43 82 44 81 45 37 47 69 48 49 49 68 50 50 51 53 52 67 53
REMARK SMILES IDX 86 54 51 55 52 56 66 58 87 59 54 60 38 61 39 62 47 63 40 64
REMARK SMILES IDX 41 65 45 66 48 67 42 68 43 69 46 70 44 71 70 72 71 73 79 74
REMARK SMILES IDX 72 75 73 76 77 77 80 78 74 79 75 80 78 81 76 82 55 83 56 84
REMARK SMILES IDX 64 85 57 86 58 87 62 88 65 89 59 90 60 91 63 92 61 93
REMARK H PARENT 85 46 53 57
REMARK Flexibility Score: inf
ROOT
ATOM      1  C   UNL A   1      39.161  21.450  26.086  1.00  0.00     0.274 C 
ENDROOT
BRANCH   1   2
ATOM      2  O   UNL A   1      37.834  21.825  25.671  1.00  0.00    -0.461 OA
BRANCH   2   3
ATOM      3  C   UNL A   1      37.539  23.150  25.757  1.00  0.00     0.319 C 
ATOM      4  O   UNL A   1      38.173  23.953  26.436  1.00  0.00    -0.251 OA
BRANCH   3   5
ATOM      5  C   UNL A   1      36.337  23.561  24.914  1.00  0.00     0.160 C 
ATOM      6  C   UNL A   1      36.272  22.938  23.526  1.00  0.00     0.032 C 
BRANCH   5   7
ATOM      7  S   UNL A   1      34.841  23.285  25.930  1.00  0.00    -0.090 SA
BRANCH   7   8
ATOM      8  C   UNL A   1      33.839  22.328  24.816  1.00  0.00     0.115 A 
ATOM      9  N   UNL A   1      34.013  20.997  24.993  1.00  0.00    -0.240 NA
ATOM     10  C   UNL A   1      32.930  22.836  23.889  1.00  0.00     0.084 A 
ATOM     11  C   UNL A   1      33.290  20.129  24.250  1.00  0.00     0.072 A 
ATOM     12  C   UNL A   1      32.187  21.929  23.125  1.00  0.00     0.024 A 
ATOM     13  C   UNL A   1      32.367  20.560  23.307  1.00  0.00     0.030 A 
BRANCH  10  14
ATOM     14  C   UNL A   1      32.726  24.236  23.678  1.00  0.00     0.102 C 
ATOM     15  N   UNL A   1      32.617  25.372  23.478  1.00  0.00    -0.192 NA
ENDBRANCH  10  14
BRANCH  11  16
ATOM     16  C   UNL A   1      33.534  18.714  24.536  1.00  0.00     0.004 A 
ATOM     17  C   UNL A   1      34.811  18.132  24.335  1.00  0.00     0.014 A 
ATOM     18  C   UNL A   1      32.493  17.908  25.036  1.00  0.00     0.061 A 
ATOM     19  C   UNL A   1      35.046  16.780  24.610  1.00  0.00     0.051 A 
ATOM     20  C   UNL A   1      32.748  16.577  25.282  1.00  0.00     0.166 A 
ATOM     21  C   UNL A   1      33.991  16.029  25.074  1.00  0.00     0.165 A 
ATOM     22  O   UNL A   1      31.847  15.668  25.739  1.00  0.00    -0.454 OA
ATOM     23  O   UNL A   1      34.028  14.703  25.376  1.00  0.00    -0.454 OA
ATOM     24  C   UNL A   1      32.655  14.473  25.758  1.00  0.00     0.468 C 
ENDBRANCH  11  16
ENDBRANCH   7   8
ENDBRANCH   5   7
ENDBRANCH   3   5
ENDBRANCH   2   3
ENDBRANCH   1   2
BRANCH   1  25
ATOM     25  C   UNL A   1      39.539  20.056  25.574  1.00  0.00     0.275 C 
BRANCH  25  26
ATOM     26  O   UNL A   1      40.404  19.354  26.490  1.00  0.00    -0.458 OA
BRANCH  26  27
ATOM     27  C   UNL A   1      41.707  19.321  26.131  1.00  0.00     0.338 C 
ATOM     28  O   UNL A   1      42.299  18.415  25.568  1.00  0.00    -0.246 OA
BRANCH  27  29
ATOM     29  C   UNL A   1      42.351  20.610  26.410  1.00  0.00     0.060 A 
ATOM     30  C   UNL A   1      42.344  21.082  27.724  1.00  0.00     0.016 A 
ATOM     31  C   UNL A   1      42.827  21.411  25.376  1.00  0.00     0.016 A 
ATOM     32  C   UNL A   1      42.773  22.371  28.012  1.00  0.00     0.010 A 
ATOM     33  C   UNL A   1      43.299  22.695  25.672  1.00  0.00     0.010 A 
ATOM     34  C   UNL A   1      43.257  23.190  26.988  1.00  0.00    -0.014 A 
BRANCH  34  35
ATOM     35  C   UNL A   1      43.694  24.572  27.299  1.00  0.00     0.031 A 
ATOM     36  C   UNL A   1      42.704  25.577  27.809  1.00  0.00     0.074 A 
ATOM     37  C   UNL A   1      44.984  24.917  27.126  1.00  0.00     0.049 A 
ATOM     38  N   UNL A   1      42.859  26.858  28.031  1.00  0.00    -0.248 NA
ATOM     39  C   UNL A   1      41.351  25.077  28.102  1.00  0.00     0.031 C 
ATOM     40  C   UNL A   1      46.048  24.012  26.686  1.00  0.00     0.029 A 
ATOM     41  N   UNL A   1      45.618  26.122  27.291  1.00  0.00    -0.354 N 
ATOM     42  C   UNL A   1      41.624  27.320  28.464  1.00  0.00     0.074 A 
ATOM     43  C   UNL A   1      40.720  26.190  28.448  1.00  0.00     0.031 C 
ATOM     44  C   UNL A   1      47.201  24.693  26.616  1.00  0.00     0.029 A 
ATOM     45  C   UNL A   1      46.946  26.092  26.943  1.00  0.00     0.049 A 
ATOM     46  H   UNL A   1      45.165  26.930  27.625  1.00  0.00     0.167 HD
ATOM     47  C   UNL A   1      41.282  28.576  28.843  1.00  0.00     0.037 A 
ATOM     48  C   UNL A   1      47.847  27.089  26.861  1.00  0.00     0.037 A 
ATOM     49  C   UNL A   1      42.197  29.689  28.862  1.00  0.00     0.049 A 
ATOM     50  C   UNL A   1      47.419  28.488  27.211  1.00  0.00     0.074 A 
ATOM     51  C   UNL A   1      41.955  30.997  29.246  1.00  0.00     0.029 A 
ATOM     52  N   UNL A   1      43.528  29.628  28.473  1.00  0.00    -0.354 N 
ATOM     53  N   UNL A   1      46.253  28.920  27.626  1.00  0.00    -0.248 NA
ATOM     54  C   UNL A   1      48.436  29.541  27.081  1.00  0.00     0.031 C 
ATOM     55  C   UNL A   1      43.119  31.740  29.024  1.00  0.00     0.029 A 
ATOM     56  C   UNL A   1      44.110  30.881  28.577  1.00  0.00     0.049 A 
ATOM     57  H   UNL A   1      43.990  28.814  28.168  1.00  0.00     0.167 HD
ATOM     58  C   UNL A   1      46.403  30.283  27.842  1.00  0.00     0.074 A 
ATOM     59  C   UNL A   1      47.779  30.604  27.524  1.00  0.00     0.031 C 
ATOM     60  C   UNL A   1      45.486  31.185  28.268  1.00  0.00     0.037 A 
BRANCH  47  61
ATOM     61  C   UNL A   1      39.852  28.823  29.232  1.00  0.00     0.064 A 
ATOM     62  C   UNL A   1      39.410  28.708  30.560  1.00  0.00     0.173 A 
ATOM     63  C   UNL A   1      38.915  29.217  28.265  1.00  0.00     0.173 A 
ATOM     64  F   UNL A   1      40.260  28.325  31.524  1.00  0.00    -0.203 F 
ATOM     65  C   UNL A   1      38.080  28.950  30.897  1.00  0.00     0.198 A 
ATOM     66  C   UNL A   1      37.595  29.492  28.611  1.00  0.00     0.198 A 
ATOM     67  F   UNL A   1      39.281  29.350  26.981  1.00  0.00    -0.203 F 
ATOM     68  F   UNL A   1      37.670  28.782  32.162  1.00  0.00    -0.200 F 
ATOM     69  C   UNL A   1      37.175  29.349  29.925  1.00  0.00     0.200 A 
ATOM     70  F   UNL A   1      36.727  29.896  27.672  1.00  0.00    -0.200 F 
ATOM     71  F   UNL A   1      35.899  29.590  30.252  1.00  0.00    -0.200 F 
ENDBRANCH  47  61
BRANCH  48  72
ATOM     72  C   UNL A   1      49.233  26.801  26.406  1.00  0.00     0.064 A 
ATOM     73  C   UNL A   1      50.233  26.439  27.318  1.00  0.00     0.173 A 
ATOM     74  C   UNL A   1      49.591  26.899  25.052  1.00  0.00     0.173 A 
ATOM     75  F   UNL A   1      49.949  26.356  28.626  1.00  0.00    -0.203 F 
ATOM     76  C   UNL A   1      51.543  26.211  26.898  1.00  0.00     0.198 A 
ATOM     77  C   UNL A   1      50.891  26.633  24.629  1.00  0.00     0.198 A 
ATOM     78  F   UNL A   1      48.673  27.241  24.136  1.00  0.00    -0.203 F 
ATOM     79  F   UNL A   1      52.492  25.925  27.800  1.00  0.00    -0.200 F 
ATOM     80  C   UNL A   1      51.868  26.301  25.554  1.00  0.00     0.200 A 
ATOM     81  F   UNL A   1      51.198  26.708  23.326  1.00  0.00    -0.200 F 
ATOM     82  F   UNL A   1      53.128  26.081  25.151  1.00  0.00    -0.200 F 
ENDBRANCH  48  72
BRANCH  60  83
ATOM     83  C   UNL A   1      45.952  32.599  28.473  1.00  0.00     0.064 A 
ATOM     84  C   UNL A   1      45.862  33.566  27.460  1.00  0.00     0.173 A 
ATOM     85  C   UNL A   1      46.458  33.001  29.719  1.00  0.00     0.173 A 
ATOM     86  F   UNL A   1      45.399  33.233  26.246  1.00  0.00    -0.203 F 
ATOM     87  C   UNL A   1      46.293  34.873  27.678  1.00  0.00     0.198 A 
ATOM     88  C   UNL A   1      46.851  34.317  29.944  1.00  0.00     0.198 A 
ATOM     89  F   UNL A   1      46.559  32.119  30.725  1.00  0.00    -0.203 F 
ATOM     90  F   UNL A   1      46.251  35.764  26.679  1.00  0.00    -0.200 F 
ATOM     91  C   UNL A   1      46.777  35.249  28.922  1.00  0.00     0.200 A 
ATOM     92  F   UNL A   1      47.300  34.682  31.154  1.00  0.00    -0.200 F 
ATOM     93  F   UNL A   1      47.179  36.510  29.133  1.00  0.00    -0.200 F 
ENDBRANCH  60  83
ENDBRANCH  34  35
ENDBRANCH  27  29
ENDBRANCH  26  27
ENDBRANCH  25  26
ENDBRANCH   1  25
TORSDOF 15
ENDMDL
MODEL 2
REMARK VINA RESULT:     -12.4      6.550     11.882
REMARK SMILES C[C@@H](Sc1nc(-c2ccc3c(c2)OCO3)ccc1C#N)C(=O)OCCOC(=O)c1ccc(-c2c3nc(c(-c4c(F)c(F)c(F)c(F)c4F)c4ccc([nH]4)c(-c4c(F)c(F)c(F)c(F)c4F)c4nc(c(-c5c(F)c(F)c(F)c(F)c5F)c5ccc2[nH]5)C=C4)C=C3)cc1
REMARK SMILES IDX 24 1 23 2 21 3 22 4 2 5 1 6 3 7 4 8 5 9 18 10 6 11 17 12
REMARK SMILES IDX 16 13 19 14 20 15 7 16 8 17 12 18 9 19 11 20 10 21 13 22
REMARK SMILES IDX 15 23 14 24 25 25 26 26 27 27 28 28 29 29 30 30 91 31 31 32
REMARK SMILES IDX 90 33 32 34 33 35 34 36 84 37 35 38 89 39 83 40 85 41 36 42
REMARK SMILES IDX 88 43 82 44 81 45 37 47 69 48 49 49 68 50 50 51 53 52 67 53
REMARK SMILES IDX 86 54 51 55 52 56 66 58 87 59 54 60 38 61 39 62 47 63 40 64
REMARK SMILES IDX 41 65 45 66 48 67 42 68 43 69 46 70 44 71 70 72 71 73 79 74
REMARK SMILES IDX 72 75 73 76 77 77 80 78 74 79 75 80 78 81 76 82 55 83 56 84
REMARK SMILES IDX 64 85 57 86 58 87 62 88 65 89 59 90 60 91 63 92 61 93
REMARK H PARENT 85 46 53 57
REMARK Flexibility Score: inf
ROOT
ATOM      1  C   UNL A   1      31.853  31.597  26.417  1.00  0.00     0.274 C 
ENDROOT
BRANCH   1   2
ATOM      2  O   UNL A   1      32.116  30.484  27.293  1.00  0.00    -0.461 OA
BRANCH   2   3
ATOM      3  C   UNL A   1      33.189  29.716  26.967  1.00  0.00     0.319 C 
ATOM      4  O   UNL A   1      34.318  30.157  26.772  1.00  0.00    -0.251 OA
BRANCH   3   5
ATOM      5  C   UNL A   1      32.865  28.228  26.870  1.00  0.00     0.160 C 
ATOM      6  C   UNL A   1      31.505  27.822  27.420  1.00  0.00     0.032 C 
BRANCH   5   7
ATOM      7  S   UNL A   1      33.155  27.721  25.137  1.00  0.00    -0.090 SA
BRANCH   7   8
ATOM      8  C   UNL A   1      31.487  27.497  24.560  1.00  0.00     0.115 A 
ATOM      9  N   UNL A   1      30.957  28.648  24.085  1.00  0.00    -0.240 NA
ATOM     10  C   UNL A   1      30.785  26.294  24.531  1.00  0.00     0.084 A 
ATOM     11  C   UNL A   1      29.707  28.639  23.568  1.00  0.00     0.072 A 
ATOM     12  C   UNL A   1      29.492  26.295  23.994  1.00  0.00     0.024 A 
ATOM     13  C   UNL A   1      28.946  27.479  23.506  1.00  0.00     0.030 A 
BRANCH  10  14
ATOM     14  C   UNL A   1      31.319  25.062  25.027  1.00  0.00     0.102 C 
ATOM     15  N   UNL A   1      31.699  24.060  25.465  1.00  0.00    -0.192 NA
ENDBRANCH  10  14
BRANCH  11  16
ATOM     16  C   UNL A   1      29.236  29.928  23.059  1.00  0.00     0.004 A 
ATOM     17  C   UNL A   1      29.136  31.061  23.904  1.00  0.00     0.014 A 
ATOM     18  C   UNL A   1      28.888  30.062  21.701  1.00  0.00     0.061 A 
ATOM     19  C   UNL A   1      28.687  32.295  23.417  1.00  0.00     0.051 A 
ATOM     20  C   UNL A   1      28.434  31.283  21.253  1.00  0.00     0.166 A 
ATOM     21  C   UNL A   1      28.336  32.369  22.089  1.00  0.00     0.165 A 
ATOM     22  O   UNL A   1      28.035  31.565  19.985  1.00  0.00    -0.454 OA
ATOM     23  O   UNL A   1      27.866  33.473  21.450  1.00  0.00    -0.454 OA
ATOM     24  C   UNL A   1      27.639  32.945  20.126  1.00  0.00     0.468 C 
ENDBRANCH  11  16
ENDBRANCH   7   8
ENDBRANCH   5   7
ENDBRANCH   3   5
ENDBRANCH   2   3
ENDBRANCH   1   2
BRANCH   1  25
ATOM     25  C   UNL A   1      31.773  32.917  27.191  1.00  0.00     0.275 C 
BRANCH  25  26
ATOM     26  O   UNL A   1      33.049  33.586  27.263  1.00  0.00    -0.458 OA
BRANCH  26  27
ATOM     27  C   UNL A   1      33.218  34.373  28.348  1.00  0.00     0.338 C 
ATOM     28  O   UNL A   1      32.529  35.320  28.692  1.00  0.00    -0.246 OA
BRANCH  27  29
ATOM     29  C   UNL A   1      34.320  33.877  29.180  1.00  0.00     0.060 A 
ATOM     30  C   UNL A   1      35.594  34.411  28.975  1.00  0.00     0.016 A 
ATOM     31  C   UNL A   1      34.138  32.802  30.045  1.00  0.00     0.016 A 
ATOM     32  C   UNL A   1      36.701  33.853  29.600  1.00  0.00     0.010 A 
ATOM     33  C   UNL A   1      35.247  32.265  30.707  1.00  0.00     0.010 A 
ATOM     34  C   UNL A   1      36.538  32.774  30.474  1.00  0.00    -0.014 A 
BRANCH  34  35
ATOM     35  C   UNL A   1      37.726  32.168  31.122  1.00  0.00     0.031 A 
ATOM     36  C   UNL A   1      38.510  31.105  30.411  1.00  0.00     0.074 A 
ATOM     37  C   UNL A   1      38.099  32.582  32.348  1.00  0.00     0.049 A 
ATOM     38  N   UNL A   1      39.505  30.375  30.847  1.00  0.00    -0.248 NA
ATOM     39  C   UNL A   1      38.117  30.816  29.023  1.00  0.00     0.031 C 
ATOM     40  C   UNL A   1      37.447  33.646  33.114  1.00  0.00     0.029 A 
ATOM     41  N   UNL A   1      39.112  32.153  33.167  1.00  0.00    -0.354 N 
ATOM     42  C   UNL A   1      39.840  29.526  29.801  1.00  0.00     0.074 A 
ATOM     43  C   UNL A   1      38.924  29.811  28.716  1.00  0.00     0.031 C 
ATOM     44  C   UNL A   1      38.076  33.786  34.290  1.00  0.00     0.029 A 
ATOM     45  C   UNL A   1      39.131  32.783  34.387  1.00  0.00     0.049 A 
ATOM     46  H   UNL A   1      39.763  31.461  32.906  1.00  0.00     0.167 HD
ATOM     47  C   UNL A   1      40.825  28.597  29.754  1.00  0.00     0.037 A 
ATOM     48  C   UNL A   1      39.889  32.551  35.475  1.00  0.00     0.037 A 
ATOM     49  C   UNL A   1      41.735  28.332  30.840  1.00  0.00     0.049 A 
ATOM     50  C   UNL A   1      40.923  31.459  35.423  1.00  0.00     0.074 A 
ATOM     51  C   UNL A   1      42.779  27.425  30.888  1.00  0.00     0.029 A 
ATOM     52  N   UNL A   1      41.703  28.968  32.073  1.00  0.00    -0.354 N 
ATOM     53  N   UNL A   1      41.240  30.664  34.430  1.00  0.00    -0.248 NA
ATOM     54  C   UNL A   1      41.706  31.232  36.645  1.00  0.00     0.031 C 
ATOM     55  C   UNL A   1      43.334  27.463  32.171  1.00  0.00     0.029 A 
ATOM     56  C   UNL A   1      42.688  28.450  32.899  1.00  0.00     0.049 A 
ATOM     57  H   UNL A   1      41.073  29.682  32.324  1.00  0.00     0.167 HD
ATOM     58  C   UNL A   1      42.280  29.869  34.893  1.00  0.00     0.074 A 
ATOM     59  C   UNL A   1      42.550  30.288  36.253  1.00  0.00     0.031 C 
ATOM     60  C   UNL A   1      42.954  28.886  34.248  1.00  0.00     0.037 A 
BRANCH  47  61
ATOM     61  C   UNL A   1      40.950  27.773  28.504  1.00  0.00     0.064 A 
ATOM     62  C   UNL A   1      40.244  26.573  28.329  1.00  0.00     0.173 A 
ATOM     63  C   UNL A   1      41.763  28.212  27.447  1.00  0.00     0.173 A 
ATOM     64  F   UNL A   1      39.460  26.101  29.310  1.00  0.00    -0.203 F 
ATOM     65  C   UNL A   1      40.370  25.830  27.157  1.00  0.00     0.198 A 
ATOM     66  C   UNL A   1      41.859  27.484  26.263  1.00  0.00     0.198 A 
ATOM     67  F   UNL A   1      42.456  29.355  27.555  1.00  0.00    -0.203 F 
ATOM     68  F   UNL A   1      39.727  24.660  27.035  1.00  0.00    -0.200 F 
ATOM     69  C   UNL A   1      41.171  26.290  26.123  1.00  0.00     0.200 A 
ATOM     70  F   UNL A   1      42.619  27.942  25.258  1.00  0.00    -0.200 F 
ATOM     71  F   UNL A   1      41.284  25.579  24.993  1.00  0.00    -0.200 F 
ENDBRANCH  47  61
BRANCH  48  72
ATOM     72  C   UNL A   1      39.679  33.351  36.710  1.00  0.00     0.064 A 
ATOM     73  C   UNL A   1      40.449  34.494  36.971  1.00  0.00     0.173 A 
ATOM     74  C   UNL A   1      38.719  32.983  37.665  1.00  0.00     0.173 A 
ATOM     75  F   UNL A   1      41.397  34.875  36.102  1.00  0.00    -0.203 F 
ATOM     76  C   UNL A   1      40.283  35.220  38.148  1.00  0.00     0.198 A 
ATOM     77  C   UNL A   1      38.528  33.731  38.824  1.00  0.00     0.198 A 
ATOM     78  F   UNL A   1      37.955  31.898  37.466  1.00  0.00    -0.203 F 
ATOM     79  F   UNL A   1      41.073  36.274  38.399  1.00  0.00    -0.200 F 
ATOM     80  C   UNL A   1      39.319  34.843  39.069  1.00  0.00     0.200 A 
ATOM     81  F   UNL A   1      37.585  33.371  39.705  1.00  0.00    -0.200 F 
ATOM     82  F   UNL A   1      39.160  35.543  40.202  1.00  0.00    -0.200 F 
ENDBRANCH  48  72
BRANCH  60  83
ATOM     83  C   UNL A   1      44.088  28.229  34.984  1.00  0.00     0.064 A 
ATOM     84  C   UNL A   1      45.419  28.637  34.815  1.00  0.00     0.173 A 
ATOM     85  C   UNL A   1      43.830  27.201  35.904  1.00  0.00     0.173 A 
ATOM     86  F   UNL A   1      45.724  29.605  33.938  1.00  0.00    -0.203 F 
ATOM     87  C   UNL A   1      46.452  28.017  35.516  1.00  0.00     0.198 A 
ATOM     88  C   UNL A   1      44.860  26.611  36.631  1.00  0.00     0.198 A 
ATOM     89  F   UNL A   1      42.573  26.777  36.110  1.00  0.00    -0.203 F 
ATOM     90  F   UNL A   1      47.722  28.384  35.296  1.00  0.00    -0.200 F 
ATOM     91  C   UNL A   1      46.170  27.013  36.430  1.00  0.00     0.200 A 
ATOM     92  F   UNL A   1      44.582  25.655  37.528  1.00  0.00    -0.200 F 
ATOM     93  F   UNL A   1      47.164  26.427  37.112  1.00  0.00    -0.200 F 
ENDBRANCH  60  83
ENDBRANCH  34  35
ENDBRANCH  27  29
ENDBRANCH  26  27
ENDBRANCH  25  26
ENDBRANCH   1  25
TORSDOF 15
ENDMDL
MODEL 3
REMARK VINA RESULT:     -12.4      6.556     10.829
REMARK SMILES C[C@@H](Sc1nc(-c2ccc3c(c2)OCO3)ccc1C#N)C(=O)OCCOC(=O)c1ccc(-c2c3nc(c(-c4c(F)c(F)c(F)c(F)c4F)c4ccc([nH]4)c(-c4c(F)c(F)c(F)c(F)c4F)c4nc(c(-c5c(F)c(F)c(F)c(F)c5F)c5ccc2[nH]5)C=C4)C=C3)cc1
REMARK SMILES IDX 24 1 23 2 21 3 22 4 2 5 1 6 3 7 4 8 5 9 18 10 6 11 17 12
REMARK SMILES IDX 16 13 19 14 20 15 7 16 8 17 12 18 9 19 11 20 10 21 13 22
REMARK SMILES IDX 15 23 14 24 25 25 26 26 27 27 28 28 29 29 30 30 91 31 31 32
REMARK SMILES IDX 90 33 32 34 33 35 34 36 84 37 35 38 89 39 83 40 85 41 36 42
REMARK SMILES IDX 88 43 82 44 81 45 37 47 69 48 49 49 68 50 50 51 53 52 67 53
REMARK SMILES IDX 86 54 51 55 52 56 66 58 87 59 54 60 38 61 39 62 47 63 40 64
REMARK SMILES IDX 41 65 45 66 48 67 42 68 43 69 46 70 44 71 70 72 71 73 79 74
REMARK SMILES IDX 72 75 73 76 77 77 80 78 74 79 75 80 78 81 76 82 55 83 56 84
REMARK SMILES IDX 64 85 57 86 58 87 62 88 65 89 59 90 60 91 63 92 61 93
REMARK H PARENT 85 46 53 57
REMARK Flexibility Score: inf
ROOT
ATOM      1  C   UNL A   1      31.824  31.842  26.445  1.00  0.00     0.274 C 
ENDROOT
BRANCH   1   2
ATOM      2  O   UNL A   1      31.907  30.689  27.305  1.00  0.00    -0.461 OA
BRANCH   2   3
ATOM      3  C   UNL A   1      33.064  29.980  27.234  1.00  0.00     0.319 C 
ATOM      4  O   UNL A   1      34.183  30.487  27.229  1.00  0.00    -0.251 OA
BRANCH   3   5
ATOM      5  C   UNL A   1      32.850  28.472  27.167  1.00  0.00     0.160 C 
ATOM      6  C   UNL A   1      31.477  27.990  27.616  1.00  0.00     0.032 C 
BRANCH   5   7
ATOM      7  S   UNL A   1      33.322  27.930  25.485  1.00  0.00    -0.090 SA
BRANCH   7   8
ATOM      8  C   UNL A   1      31.727  27.618  24.763  1.00  0.00     0.115 A 
ATOM      9  N   UNL A   1      31.159  28.748  24.282  1.00  0.00    -0.240 NA
ATOM     10  C   UNL A   1      31.114  26.372  24.637  1.00  0.00     0.084 A 
ATOM     11  C   UNL A   1      29.959  28.675  23.662  1.00  0.00     0.072 A 
ATOM     12  C   UNL A   1      29.872  26.307  23.994  1.00  0.00     0.024 A 
ATOM     13  C   UNL A   1      29.288  27.470  23.500  1.00  0.00     0.030 A 
BRANCH  10  14
ATOM     14  C   UNL A   1      31.689  25.161  25.137  1.00  0.00     0.102 C 
ATOM     15  N   UNL A   1      32.191  24.216  25.580  1.00  0.00    -0.192 NA
ENDBRANCH  10  14
BRANCH  11  16
ATOM     16  C   UNL A   1      29.443  29.949  23.155  1.00  0.00     0.004 A 
ATOM     17  C   UNL A   1      29.370  31.095  23.986  1.00  0.00     0.014 A 
ATOM     18  C   UNL A   1      29.023  30.053  21.816  1.00  0.00     0.061 A 
ATOM     19  C   UNL A   1      28.879  32.313  23.502  1.00  0.00     0.051 A 
ATOM     20  C   UNL A   1      28.529  31.260  21.371  1.00  0.00     0.166 A 
ATOM     21  C   UNL A   1      28.458  32.359  22.193  1.00  0.00     0.165 A 
ATOM     22  O   UNL A   1      28.062  31.514  20.120  1.00  0.00    -0.454 OA
ATOM     23  O   UNL A   1      27.939  33.445  21.560  1.00  0.00    -0.454 OA
ATOM     24  C   UNL A   1      27.653  32.890  20.259  1.00  0.00     0.468 C 
ENDBRANCH  11  16
ENDBRANCH   7   8
ENDBRANCH   5   7
ENDBRANCH   3   5
ENDBRANCH   2   3
ENDBRANCH   1   2
BRANCH   1  25
ATOM     25  C   UNL A   1      31.779  33.145  27.251  1.00  0.00     0.275 C 
BRANCH  25  26
ATOM     26  O   UNL A   1      33.055  33.816  27.276  1.00  0.00    -0.458 OA
BRANCH  26  27
ATOM     27  C   UNL A   1      33.286  34.557  28.383  1.00  0.00     0.338 C 
ATOM     28  O   UNL A   1      32.679  35.550  28.751  1.00  0.00    -0.246 OA
BRANCH  27  29
ATOM     29  C   UNL A   1      34.339  33.947  29.202  1.00  0.00     0.060 A 
ATOM     30  C   UNL A   1      35.669  34.226  28.885  1.00  0.00     0.016 A 
ATOM     31  C   UNL A   1      34.031  32.999  30.175  1.00  0.00     0.016 A 
ATOM     32  C   UNL A   1      36.703  33.536  29.505  1.00  0.00     0.010 A 
ATOM     33  C   UNL A   1      35.073  32.333  30.830  1.00  0.00     0.010 A 
ATOM     34  C   UNL A   1      36.414  32.582  30.486  1.00  0.00    -0.014 A 
BRANCH  34  35
ATOM     35  C   UNL A   1      37.520  31.834  31.130  1.00  0.00     0.031 A 
ATOM     36  C   UNL A   1      37.934  32.166  32.533  1.00  0.00     0.074 A 
ATOM     37  C   UNL A   1      38.144  30.853  30.451  1.00  0.00     0.049 A 
ATOM     38  N   UNL A   1      38.944  31.710  33.231  1.00  0.00    -0.248 NA
ATOM     39  C   UNL A   1      37.107  33.151  33.248  1.00  0.00     0.031 C 
ATOM     40  C   UNL A   1      37.793  30.406  29.101  1.00  0.00     0.029 A 
ATOM     41  N   UNL A   1      39.209  30.061  30.799  1.00  0.00    -0.354 N 
ATOM     42  C   UNL A   1      38.888  32.367  34.452  1.00  0.00     0.074 A 
ATOM     43  C   UNL A   1      37.763  33.276  34.392  1.00  0.00     0.031 C 
ATOM     44  C   UNL A   1      38.627  29.420  28.737  1.00  0.00     0.029 A 
ATOM     45  C   UNL A   1      39.607  29.211  29.797  1.00  0.00     0.049 A 
ATOM     46  H   UNL A   1      39.645  30.099  31.682  1.00  0.00     0.167 HD
ATOM     47  C   UNL A   1      39.704  32.220  35.524  1.00  0.00     0.037 A 
ATOM     48  C   UNL A   1      40.666  28.384  29.727  1.00  0.00     0.037 A 
ATOM     49  C   UNL A   1      40.816  31.304  35.571  1.00  0.00     0.049 A 
ATOM     50  C   UNL A   1      41.602  28.299  30.903  1.00  0.00     0.074 A 
ATOM     51  C   UNL A   1      41.693  31.066  36.614  1.00  0.00     0.029 A 
ATOM     52  N   UNL A   1      41.209  30.481  34.524  1.00  0.00    -0.354 N 
ATOM     53  N   UNL A   1      41.543  28.917  32.057  1.00  0.00    -0.248 NA
ATOM     54  C   UNL A   1      42.755  27.398  30.764  1.00  0.00     0.031 C 
ATOM     55  C   UNL A   1      42.656  30.151  36.176  1.00  0.00     0.029 A 
ATOM     56  C   UNL A   1      42.335  29.758  34.887  1.00  0.00     0.049 A 
ATOM     57  H   UNL A   1      40.755  30.420  33.653  1.00  0.00     0.167 HD
ATOM     58  C   UNL A   1      42.624  28.456  32.795  1.00  0.00     0.074 A 
ATOM     59  C   UNL A   1      43.316  27.495  31.961  1.00  0.00     0.031 C 
ATOM     60  C   UNL A   1      43.007  28.794  34.050  1.00  0.00     0.037 A 
BRANCH  47  61
ATOM     61  C   UNL A   1      39.450  33.092  36.720  1.00  0.00     0.064 A 
ATOM     62  C   UNL A   1      40.096  34.326  36.894  1.00  0.00     0.173 A 
ATOM     63  C   UNL A   1      38.516  32.703  37.693  1.00  0.00     0.173 A 
ATOM     64  F   UNL A   1      41.005  34.745  36.001  1.00  0.00    -0.203 F 
ATOM     65  C   UNL A   1      39.838  35.121  38.009  1.00  0.00     0.198 A 
ATOM     66  C   UNL A   1      38.235  33.516  38.788  1.00  0.00     0.198 A 
ATOM     67  F   UNL A   1      37.863  31.536  37.577  1.00  0.00    -0.203 F 
ATOM     68  F   UNL A   1      40.507  36.271  38.179  1.00  0.00    -0.200 F 
ATOM     69  C   UNL A   1      38.902  34.720  38.950  1.00  0.00     0.200 A 
ATOM     70  F   UNL A   1      37.316  33.134  39.686  1.00  0.00    -0.200 F 
ATOM     71  F   UNL A   1      38.648  35.490  40.016  1.00  0.00    -0.200 F 
ENDBRANCH  47  61
BRANCH  48  72
ATOM     72  C   UNL A   1      40.910  27.592  28.493  1.00  0.00     0.064 A 
ATOM     73  C   UNL A   1      41.760  28.067  27.485  1.00  0.00     0.173 A 
ATOM     74  C   UNL A   1      40.286  26.352  28.286  1.00  0.00     0.173 A 
ATOM     75  F   UNL A   1      42.362  29.257  27.623  1.00  0.00    -0.203 F 
ATOM     76  C   UNL A   1      41.956  27.346  26.309  1.00  0.00     0.198 A 
ATOM     77  C   UNL A   1      40.512  25.614  27.127  1.00  0.00     0.198 A 
ATOM     78  F   UNL A   1      39.462  25.850  29.219  1.00  0.00    -0.203 F 
ATOM     79  F   UNL A   1      42.727  27.852  25.337  1.00  0.00    -0.200 F 
ATOM     80  C   UNL A   1      41.338  26.118  26.134  1.00  0.00     0.200 A 
ATOM     81  F   UNL A   1      39.923  24.421  26.969  1.00  0.00    -0.200 F 
ATOM     82  F   UNL A   1      41.527  25.424  25.003  1.00  0.00    -0.200 F 
ENDBRANCH  48  72
BRANCH  60  83
ATOM     83  C   UNL A   1      44.197  28.080  34.626  1.00  0.00     0.064 A 
ATOM     84  C   UNL A   1      45.494  28.608  34.542  1.00  0.00     0.173 A 
ATOM     85  C   UNL A   1      44.028  26.865  35.308  1.00  0.00     0.173 A 
ATOM     86  F   UNL A   1      45.715  29.759  33.889  1.00  0.00    -0.203 F 
ATOM     87  C   UNL A   1      46.580  27.931  35.092  1.00  0.00     0.198 A 
ATOM     88  C   UNL A   1      45.110  26.211  35.890  1.00  0.00     0.198 A 
ATOM     89  F   UNL A   1      42.808  26.318  35.425  1.00  0.00    -0.203 F 
ATOM     90  F   UNL A   1      47.817  28.426  34.949  1.00  0.00    -0.200 F 
ATOM     91  C   UNL A   1      46.386  26.739  35.773  1.00  0.00     0.200 A 
ATOM     92  F   UNL A   1      44.916  25.069  36.565  1.00  0.00    -0.200 F 
ATOM     93  F   UNL A   1      47.430  26.095  36.311  1.00  0.00    -0.200 F 
ENDBRANCH  60  83
ENDBRANCH  34  35
ENDBRANCH  27  29
ENDBRANCH  26  27
ENDBRANCH  25  26
ENDBRANCH   1  25
TORSDOF 15
ENDMDL
