MODEL 1
REMARK VINA RESULT:     -10.6      0.000      0.000
REMARK SMILES CC(C)C[C@H](Cn1nnnc1CC1CC1)C(=O)OCCOC(=O)c1ccc(-c2c3nc(c(-c4c(F)c(F)c(F)c(F)c4F)c4ccc([nH]4)c(-c4c(F)c(F)c(F)c(F)c4F)c4nc(c(-c5c(F)c(F)c(F)c(F)c5F)c5ccc2[nH]5)C=C4)C=C3)cc1
REMARK SMILES IDX 19 1 18 2 16 3 17 4 5 5 4 6 2 7 1 8 3 9 6 10 7 11 8 12 11 13
REMARK SMILES IDX 9 14 10 15 12 16 13 17 14 18 15 19 20 20 21 21 22 22 23 23
REMARK SMILES IDX 24 24 25 25 86 26 26 27 85 28 27 29 28 30 29 31 79 32 30 33
REMARK SMILES IDX 84 34 78 35 80 36 31 37 83 38 77 39 76 40 32 42 64 43 44 44
REMARK SMILES IDX 63 45 45 46 48 47 62 48 81 49 46 50 47 51 61 53 82 54 49 55
REMARK SMILES IDX 33 56 34 57 42 58 35 59 36 60 40 61 43 62 37 63 38 64 41 65
REMARK SMILES IDX 39 66 65 67 66 68 74 69 67 70 68 71 72 72 75 73 69 74 70 75
REMARK SMILES IDX 73 76 71 77 50 78 51 79 59 80 52 81 53 82 57 83 60 84 54 85
REMARK SMILES IDX 55 86 58 87 56 88
REMARK H PARENT 80 41 48 52
REMARK Flexibility Score: inf
ROOT
ATOM      1  C   UNL A   1      32.321  29.563  26.856  1.00  0.00     0.274 C 
ENDROOT
BRANCH   1   2
ATOM      2  O   UNL A   1      33.157  28.415  26.629  1.00  0.00    -0.462 OA
BRANCH   2   3
ATOM      3  C   UNL A   1      32.575  27.337  26.051  1.00  0.00     0.310 C 
ATOM      4  O   UNL A   1      32.317  26.280  26.616  1.00  0.00    -0.252 OA
BRANCH   3   5
ATOM      5  C   UNL A   1      32.364  27.527  24.578  1.00  0.00     0.121 C 
BRANCH   5   6
ATOM      6  C   UNL A   1      30.954  27.073  24.121  1.00  0.00     0.020 C 
BRANCH   6   7
ATOM      7  C   UNL A   1      30.129  27.968  23.153  1.00  0.00    -0.017 C 
ATOM      8  C   UNL A   1      28.609  27.799  23.227  1.00  0.00     0.007 C 
ATOM      9  C   UNL A   1      30.464  29.442  23.404  1.00  0.00     0.007 C 
ENDBRANCH   6   7
ENDBRANCH   5   6
BRANCH   5  10
ATOM     10  C   UNL A   1      33.558  27.195  23.631  1.00  0.00     0.163 C 
BRANCH  10  11
ATOM     11  N   UNL A   1      33.541  26.179  22.600  1.00  0.00    -0.229 N 
ATOM     12  N   UNL A   1      33.362  26.571  21.318  1.00  0.00    -0.045 NA
ATOM     13  C   UNL A   1      33.396  24.815  22.653  1.00  0.00     0.151 A 
ATOM     14  N   UNL A   1      33.215  25.463  20.612  1.00  0.00    -0.024 NA
ATOM     15  N   UNL A   1      33.226  24.366  21.424  1.00  0.00    -0.114 NA
BRANCH  13  16
ATOM     16  C   UNL A   1      33.533  23.974  23.852  1.00  0.00     0.082 C 
BRANCH  16  17
ATOM     17  C   UNL A   1      34.895  23.815  24.451  1.00  0.00    -0.004 C 
ATOM     18  C   UNL A   1      35.306  24.457  25.748  1.00  0.00     0.004 C 
ATOM     19  C   UNL A   1      35.013  22.983  25.703  1.00  0.00     0.004 C 
ENDBRANCH  16  17
ENDBRANCH  13  16
ENDBRANCH  10  11
ENDBRANCH   5  10
ENDBRANCH   3   5
ENDBRANCH   2   3
ENDBRANCH   1   2
BRANCH   1  20
ATOM     20  C   UNL A   1      33.141  30.830  27.041  1.00  0.00     0.275 C 
BRANCH  20  21
ATOM     21  O   UNL A   1      34.450  30.513  27.499  1.00  0.00    -0.458 OA
BRANCH  21  22
ATOM     22  C   UNL A   1      35.181  31.560  27.941  1.00  0.00     0.338 C 
ATOM     23  O   UNL A   1      35.097  32.724  27.597  1.00  0.00    -0.246 OA
BRANCH  22  24
ATOM     24  C   UNL A   1      36.230  31.079  28.833  1.00  0.00     0.060 A 
ATOM     25  C   UNL A   1      37.244  31.990  29.157  1.00  0.00     0.016 A 
ATOM     26  C   UNL A   1      36.372  29.699  28.978  1.00  0.00     0.016 A 
ATOM     27  C   UNL A   1      38.503  31.492  29.388  1.00  0.00     0.010 A 
ATOM     28  C   UNL A   1      37.634  29.209  29.140  1.00  0.00     0.010 A 
ATOM     29  C   UNL A   1      38.686  30.115  29.266  1.00  0.00    -0.014 A 
BRANCH  29  30
ATOM     30  C   UNL A   1      40.015  29.574  29.402  1.00  0.00     0.031 A 
ATOM     31  C   UNL A   1      40.418  29.493  30.820  1.00  0.00     0.074 A 
ATOM     32  C   UNL A   1      40.659  29.040  28.350  1.00  0.00     0.049 A 
ATOM     33  N   UNL A   1      41.322  30.187  31.423  1.00  0.00    -0.248 NA
ATOM     34  C   UNL A   1      39.556  28.711  31.727  1.00  0.00     0.031 C 
ATOM     35  C   UNL A   1      40.142  28.827  26.995  1.00  0.00     0.029 A 
ATOM     36  N   UNL A   1      41.881  28.453  28.305  1.00  0.00    -0.354 N 
ATOM     37  C   UNL A   1      41.295  29.732  32.737  1.00  0.00     0.074 A 
ATOM     38  C   UNL A   1      40.032  29.077  32.916  1.00  0.00     0.031 C 
ATOM     39  C   UNL A   1      40.952  27.963  26.342  1.00  0.00     0.029 A 
ATOM     40  C   UNL A   1      42.090  27.654  27.188  1.00  0.00     0.049 A 
ATOM     41  H   UNL A   1      42.563  28.583  29.004  1.00  0.00     0.167 HD
ATOM     42  C   UNL A   1      42.458  29.581  33.426  1.00  0.00     0.037 A 
ATOM     43  C   UNL A   1      43.084  26.739  27.050  1.00  0.00     0.037 A 
ATOM     44  C   UNL A   1      43.506  30.379  32.832  1.00  0.00     0.049 A 
ATOM     45  C   UNL A   1      44.111  27.046  28.083  1.00  0.00     0.074 A 
ATOM     46  C   UNL A   1      43.654  31.721  32.531  1.00  0.00     0.029 A 
ATOM     47  N   UNL A   1      44.460  29.724  32.091  1.00  0.00    -0.354 N 
ATOM     48  N   UNL A   1      44.869  28.107  28.063  1.00  0.00    -0.248 NA
ATOM     49  C   UNL A   1      43.977  26.403  29.382  1.00  0.00     0.031 C 
ATOM     50  C   UNL A   1      44.376  31.753  31.301  1.00  0.00     0.029 A 
ATOM     51  C   UNL A   1      44.689  30.441  30.948  1.00  0.00     0.049 A 
ATOM     52  H   UNL A   1      44.903  28.882  32.341  1.00  0.00     0.167 HD
ATOM     53  C   UNL A   1      44.939  28.515  29.388  1.00  0.00     0.074 A 
ATOM     54  C   UNL A   1      44.457  27.376  30.163  1.00  0.00     0.031 C 
ATOM     55  C   UNL A   1      45.091  29.837  29.699  1.00  0.00     0.037 A 
BRANCH  42  56
ATOM     56  C   UNL A   1      42.751  28.378  34.302  1.00  0.00     0.064 A 
ATOM     57  C   UNL A   1      43.114  28.612  35.643  1.00  0.00     0.173 A 
ATOM     58  C   UNL A   1      43.000  27.064  33.836  1.00  0.00     0.173 A 
ATOM     59  F   UNL A   1      42.925  29.819  36.198  1.00  0.00    -0.203 F 
ATOM     60  C   UNL A   1      43.778  27.651  36.408  1.00  0.00     0.198 A 
ATOM     61  C   UNL A   1      43.615  26.092  34.620  1.00  0.00     0.198 A 
ATOM     62  F   UNL A   1      42.766  26.673  32.580  1.00  0.00    -0.203 F 
ATOM     63  F   UNL A   1      44.235  27.975  37.625  1.00  0.00    -0.200 F 
ATOM     64  C   UNL A   1      44.041  26.397  35.892  1.00  0.00     0.200 A 
ATOM     65  F   UNL A   1      43.868  24.886  34.092  1.00  0.00    -0.200 F 
ATOM     66  F   UNL A   1      44.742  25.500  36.596  1.00  0.00    -0.200 F 
ENDBRANCH  42  56
BRANCH  43  67
ATOM     67  C   UNL A   1      43.058  25.440  26.332  1.00  0.00     0.064 A 
ATOM     68  C   UNL A   1      44.019  25.146  25.349  1.00  0.00     0.173 A 
ATOM     69  C   UNL A   1      42.273  24.359  26.778  1.00  0.00     0.173 A 
ATOM     70  F   UNL A   1      44.840  26.106  24.900  1.00  0.00    -0.203 F 
ATOM     71  C   UNL A   1      44.204  23.846  24.867  1.00  0.00     0.198 A 
ATOM     72  C   UNL A   1      42.451  23.064  26.286  1.00  0.00     0.198 A 
ATOM     73  F   UNL A   1      41.385  24.511  27.770  1.00  0.00    -0.203 F 
ATOM     74  F   UNL A   1      45.179  23.593  23.981  1.00  0.00    -0.200 F 
ATOM     75  C   UNL A   1      43.426  22.804  25.343  1.00  0.00     0.200 A 
ATOM     76  F   UNL A   1      41.715  22.058  26.784  1.00  0.00    -0.200 F 
ATOM     77  F   UNL A   1      43.645  21.548  24.928  1.00  0.00    -0.200 F 
ENDBRANCH  43  67
BRANCH  55  78
ATOM     78  C   UNL A   1      45.502  30.768  28.594  1.00  0.00     0.064 A 
ATOM     79  C   UNL A   1      44.612  31.357  27.679  1.00  0.00     0.173 A 
ATOM     80  C   UNL A   1      46.841  31.176  28.543  1.00  0.00     0.173 A 
ATOM     81  F   UNL A   1      43.299  31.100  27.730  1.00  0.00    -0.203 F 
ATOM     82  C   UNL A   1      45.058  32.269  26.723  1.00  0.00     0.198 A 
ATOM     83  C   UNL A   1      47.276  32.117  27.616  1.00  0.00     0.198 A 
ATOM     84  F   UNL A   1      47.726  30.688  29.427  1.00  0.00    -0.203 F 
ATOM     85  F   UNL A   1      44.194  32.801  25.846  1.00  0.00    -0.200 F 
ATOM     86  C   UNL A   1      46.388  32.654  26.698  1.00  0.00     0.200 A 
ATOM     87  F   UNL A   1      48.553  32.522  27.629  1.00  0.00    -0.200 F 
ATOM     88  F   UNL A   1      46.811  33.560  25.806  1.00  0.00    -0.200 F 
ENDBRANCH  55  78
ENDBRANCH  29  30
ENDBRANCH  22  24
ENDBRANCH  21  22
ENDBRANCH  20  21
ENDBRANCH   1  20
TORSDOF 17
ENDMDL
MODEL 2
REMARK VINA RESULT:     -10.6      3.007      8.150
REMARK SMILES CC(C)C[C@H](Cn1nnnc1CC1CC1)C(=O)OCCOC(=O)c1ccc(-c2c3nc(c(-c4c(F)c(F)c(F)c(F)c4F)c4ccc([nH]4)c(-c4c(F)c(F)c(F)c(F)c4F)c4nc(c(-c5c(F)c(F)c(F)c(F)c5F)c5ccc2[nH]5)C=C4)C=C3)cc1
REMARK SMILES IDX 19 1 18 2 16 3 17 4 5 5 4 6 2 7 1 8 3 9 6 10 7 11 8 12 11 13
REMARK SMILES IDX 9 14 10 15 12 16 13 17 14 18 15 19 20 20 21 21 22 22 23 23
REMARK SMILES IDX 24 24 25 25 86 26 26 27 85 28 27 29 28 30 29 31 79 32 30 33
REMARK SMILES IDX 84 34 78 35 80 36 31 37 83 38 77 39 76 40 32 42 64 43 44 44
REMARK SMILES IDX 63 45 45 46 48 47 62 48 81 49 46 50 47 51 61 53 82 54 49 55
REMARK SMILES IDX 33 56 34 57 42 58 35 59 36 60 40 61 43 62 37 63 38 64 41 65
REMARK SMILES IDX 39 66 65 67 66 68 74 69 67 70 68 71 72 72 75 73 69 74 70 75
REMARK SMILES IDX 73 76 71 77 50 78 51 79 59 80 52 81 53 82 57 83 60 84 54 85
REMARK SMILES IDX 55 86 58 87 56 88
REMARK H PARENT 80 41 48 52
REMARK Flexibility Score: inf
ROOT
ATOM      1  C   UNL A   1      36.652  21.090  25.374  1.00  0.00     0.274 C 
ENDROOT
BRANCH   1   2
ATOM      2  O   UNL A   1      35.936  22.258  24.938  1.00  0.00    -0.462 OA
BRANCH   2   3
ATOM      3  C   UNL A   1      34.587  22.157  24.858  1.00  0.00     0.310 C 
ATOM      4  O   UNL A   1      33.971  21.209  24.384  1.00  0.00    -0.252 OA
BRANCH   3   5
ATOM      5  C   UNL A   1      33.896  23.404  25.327  1.00  0.00     0.121 C 
BRANCH   5   6
ATOM      6  C   UNL A   1      32.353  23.258  25.328  1.00  0.00     0.020 C 
BRANCH   6   7
ATOM      7  C   UNL A   1      31.509  23.979  26.417  1.00  0.00    -0.017 C 
ATOM      8  C   UNL A   1      30.971  25.360  26.032  1.00  0.00     0.007 C 
ATOM      9  C   UNL A   1      30.324  23.094  26.818  1.00  0.00     0.007 C 
ENDBRANCH   6   7
ENDBRANCH   5   6
BRANCH   5  10
ATOM     10  C   UNL A   1      34.479  24.771  24.853  1.00  0.00     0.163 C 
BRANCH  10  11
ATOM     11  N   UNL A   1      33.961  25.557  23.754  1.00  0.00    -0.229 N 
ATOM     12  N   UNL A   1      33.998  25.022  22.512  1.00  0.00    -0.045 NA
ATOM     13  C   UNL A   1      33.666  26.892  23.635  1.00  0.00     0.151 A 
ATOM     14  N   UNL A   1      33.635  25.988  21.685  1.00  0.00    -0.024 NA
ATOM     15  N   UNL A   1      33.433  27.155  22.363  1.00  0.00    -0.114 NA
BRANCH  13  16
ATOM     16  C   UNL A   1      33.507  27.847  24.742  1.00  0.00     0.082 C 
BRANCH  16  17
ATOM     17  C   UNL A   1      32.703  29.085  24.497  1.00  0.00    -0.004 C 
ATOM     18  C   UNL A   1      31.321  29.296  25.052  1.00  0.00     0.004 C 
ATOM     19  C   UNL A   1      32.490  30.020  25.660  1.00  0.00     0.004 C 
ENDBRANCH  16  17
ENDBRANCH  13  16
ENDBRANCH  10  11
ENDBRANCH   5  10
ENDBRANCH   3   5
ENDBRANCH   2   3
ENDBRANCH   1   2
BRANCH   1  20
ATOM     20  C   UNL A   1      38.156  21.304  25.337  1.00  0.00     0.275 C 
BRANCH  20  21
ATOM     21  O   UNL A   1      38.538  22.314  26.264  1.00  0.00    -0.458 OA
BRANCH  21  22
ATOM     22  C   UNL A   1      39.745  22.144  26.845  1.00  0.00     0.338 C 
ATOM     23  O   UNL A   1      40.165  21.153  27.413  1.00  0.00    -0.246 OA
BRANCH  22  24
ATOM     24  C   UNL A   1      40.477  23.406  26.826  1.00  0.00     0.060 A 
ATOM     25  C   UNL A   1      41.667  23.452  27.563  1.00  0.00     0.016 A 
ATOM     26  C   UNL A   1      39.783  24.549  26.430  1.00  0.00     0.016 A 
ATOM     27  C   UNL A   1      42.027  24.652  28.126  1.00  0.00     0.010 A 
ATOM     28  C   UNL A   1      40.101  25.724  27.043  1.00  0.00     0.010 A 
ATOM     29  C   UNL A   1      41.171  25.737  27.937  1.00  0.00    -0.014 A 
BRANCH  29  30
ATOM     30  C   UNL A   1      41.467  26.982  28.599  1.00  0.00     0.031 A 
ATOM     31  C   UNL A   1      42.686  27.605  28.047  1.00  0.00     0.074 A 
ATOM     32  C   UNL A   1      40.591  27.542  29.451  1.00  0.00     0.049 A 
ATOM     33  N   UNL A   1      43.828  27.754  28.627  1.00  0.00    -0.248 NA
ATOM     34  C   UNL A   1      42.706  27.890  26.599  1.00  0.00     0.031 C 
ATOM     35  C   UNL A   1      39.233  27.090  29.769  1.00  0.00     0.029 A 
ATOM     36  N   UNL A   1      40.685  28.718  30.121  1.00  0.00    -0.354 N 
ATOM     37  C   UNL A   1      44.625  28.382  27.676  1.00  0.00     0.074 A 
ATOM     38  C   UNL A   1      43.996  28.163  26.407  1.00  0.00     0.031 C 
ATOM     39  C   UNL A   1      38.563  28.093  30.381  1.00  0.00     0.029 A 
ATOM     40  C   UNL A   1      39.472  29.206  30.592  1.00  0.00     0.049 A 
ATOM     41  H   UNL A   1      41.540  29.187  30.263  1.00  0.00     0.167 HD
ATOM     42  C   UNL A   1      45.498  29.352  28.057  1.00  0.00     0.037 A 
ATOM     43  C   UNL A   1      39.247  30.474  31.021  1.00  0.00     0.037 A 
ATOM     44  C   UNL A   1      45.797  29.239  29.467  1.00  0.00     0.049 A 
ATOM     45  C   UNL A   1      40.575  31.089  31.291  1.00  0.00     0.074 A 
ATOM     46  C   UNL A   1      46.290  28.232  30.278  1.00  0.00     0.029 A 
ATOM     47  N   UNL A   1      45.215  30.149  30.315  1.00  0.00    -0.354 N 
ATOM     48  N   UNL A   1      41.360  30.729  32.268  1.00  0.00    -0.248 NA
ATOM     49  C   UNL A   1      41.229  31.793  30.197  1.00  0.00     0.031 C 
ATOM     50  C   UNL A   1      45.586  28.367  31.512  1.00  0.00     0.029 A 
ATOM     51  C   UNL A   1      44.754  29.481  31.417  1.00  0.00     0.049 A 
ATOM     52  H   UNL A   1      45.140  31.117  30.155  1.00  0.00     0.167 HD
ATOM     53  C   UNL A   1      42.636  30.756  31.724  1.00  0.00     0.074 A 
ATOM     54  C   UNL A   1      42.504  31.513  30.482  1.00  0.00     0.031 C 
ATOM     55  C   UNL A   1      43.603  29.905  32.179  1.00  0.00     0.037 A 
BRANCH  42  56
ATOM     56  C   UNL A   1      45.684  30.648  27.290  1.00  0.00     0.064 A 
ATOM     57  C   UNL A   1      47.000  31.072  27.023  1.00  0.00     0.173 A 
ATOM     58  C   UNL A   1      44.685  31.630  27.083  1.00  0.00     0.173 A 
ATOM     59  F   UNL A   1      48.032  30.229  27.181  1.00  0.00    -0.203 F 
ATOM     60  C   UNL A   1      47.298  32.397  26.697  1.00  0.00     0.198 A 
ATOM     61  C   UNL A   1      44.982  32.937  26.706  1.00  0.00     0.198 A 
ATOM     62  F   UNL A   1      43.388  31.423  27.332  1.00  0.00    -0.203 F 
ATOM     63  F   UNL A   1      48.577  32.783  26.601  1.00  0.00    -0.200 F 
ATOM     64  C   UNL A   1      46.290  33.331  26.552  1.00  0.00     0.200 A 
ATOM     65  F   UNL A   1      43.987  33.827  26.583  1.00  0.00    -0.200 F 
ATOM     66  F   UNL A   1      46.578  34.617  26.313  1.00  0.00    -0.200 F 
ENDBRANCH  42  56
BRANCH  43  67
ATOM     67  C   UNL A   1      38.015  31.292  30.897  1.00  0.00     0.064 A 
ATOM     68  C   UNL A   1      37.455  31.559  29.635  1.00  0.00     0.173 A 
ATOM     69  C   UNL A   1      37.207  31.595  32.011  1.00  0.00     0.173 A 
ATOM     70  F   UNL A   1      38.136  31.259  28.519  1.00  0.00    -0.203 F 
ATOM     71  C   UNL A   1      36.160  32.067  29.496  1.00  0.00     0.198 A 
ATOM     72  C   UNL A   1      35.919  32.114  31.872  1.00  0.00     0.198 A 
ATOM     73  F   UNL A   1      37.609  31.304  33.256  1.00  0.00    -0.203 F 
ATOM     74  F   UNL A   1      35.637  32.242  28.274  1.00  0.00    -0.200 F 
ATOM     75  C   UNL A   1      35.388  32.335  30.615  1.00  0.00     0.200 A 
ATOM     76  F   UNL A   1      35.170  32.334  32.963  1.00  0.00    -0.200 F 
ATOM     77  F   UNL A   1      34.125  32.762  30.483  1.00  0.00    -0.200 F 
ENDBRANCH  43  67
BRANCH  55  78
ATOM     78  C   UNL A   1      43.345  29.191  33.476  1.00  0.00     0.064 A 
ATOM     79  C   UNL A   1      43.638  29.718  34.746  1.00  0.00     0.173 A 
ATOM     80  C   UNL A   1      42.657  27.971  33.428  1.00  0.00     0.173 A 
ATOM     81  F   UNL A   1      44.199  30.926  34.879  1.00  0.00    -0.203 F 
ATOM     82  C   UNL A   1      43.304  29.026  35.909  1.00  0.00     0.198 A 
ATOM     83  C   UNL A   1      42.289  27.302  34.591  1.00  0.00     0.198 A 
ATOM     84  F   UNL A   1      42.303  27.446  32.244  1.00  0.00    -0.203 F 
ATOM     85  F   UNL A   1      43.613  29.539  37.109  1.00  0.00    -0.200 F 
ATOM     86  C   UNL A   1      42.623  27.823  35.830  1.00  0.00     0.200 A 
ATOM     87  F   UNL A   1      41.586  26.164  34.508  1.00  0.00    -0.200 F 
ATOM     88  F   UNL A   1      42.267  27.175  36.949  1.00  0.00    -0.200 F 
ENDBRANCH  55  78
ENDBRANCH  29  30
ENDBRANCH  22  24
ENDBRANCH  21  22
ENDBRANCH  20  21
ENDBRANCH   1  20
TORSDOF 17
ENDMDL
MODEL 3
REMARK VINA RESULT:     -10.5      2.952      7.542
REMARK SMILES CC(C)C[C@H](Cn1nnnc1CC1CC1)C(=O)OCCOC(=O)c1ccc(-c2c3nc(c(-c4c(F)c(F)c(F)c(F)c4F)c4ccc([nH]4)c(-c4c(F)c(F)c(F)c(F)c4F)c4nc(c(-c5c(F)c(F)c(F)c(F)c5F)c5ccc2[nH]5)C=C4)C=C3)cc1
REMARK SMILES IDX 19 1 18 2 16 3 17 4 5 5 4 6 2 7 1 8 3 9 6 10 7 11 8 12 11 13
REMARK SMILES IDX 9 14 10 15 12 16 13 17 14 18 15 19 20 20 21 21 22 22 23 23
REMARK SMILES IDX 24 24 25 25 86 26 26 27 85 28 27 29 28 30 29 31 79 32 30 33
REMARK SMILES IDX 84 34 78 35 80 36 31 37 83 38 77 39 76 40 32 42 64 43 44 44
REMARK SMILES IDX 63 45 45 46 48 47 62 48 81 49 46 50 47 51 61 53 82 54 49 55
REMARK SMILES IDX 33 56 34 57 42 58 35 59 36 60 40 61 43 62 37 63 38 64 41 65
REMARK SMILES IDX 39 66 65 67 66 68 74 69 67 70 68 71 72 72 75 73 69 74 70 75
REMARK SMILES IDX 73 76 71 77 50 78 51 79 59 80 52 81 53 82 57 83 60 84 54 85
REMARK SMILES IDX 55 86 58 87 56 88
REMARK H PARENT 80 41 48 52
REMARK Flexibility Score: inf
ROOT
ATOM      1  C   UNL A   1      31.552  30.208  26.523  1.00  0.00     0.274 C 
ENDROOT
BRANCH   1   2
ATOM      2  O   UNL A   1      32.089  29.679  25.299  1.00  0.00    -0.462 OA
BRANCH   2   3
ATOM      3  C   UNL A   1      31.250  28.948  24.526  1.00  0.00     0.310 C 
ATOM      4  O   UNL A   1      30.318  29.396  23.867  1.00  0.00    -0.252 OA
BRANCH   3   5
ATOM      5  C   UNL A   1      31.515  27.475  24.637  1.00  0.00     0.121 C 
BRANCH   5   6
ATOM      6  C   UNL A   1      30.863  26.671  23.483  1.00  0.00     0.020 C 
BRANCH   6   7
ATOM      7  C   UNL A   1      31.745  25.766  22.577  1.00  0.00    -0.017 C 
ATOM      8  C   UNL A   1      33.247  26.062  22.604  1.00  0.00     0.007 C 
ATOM      9  C   UNL A   1      31.535  24.297  22.959  1.00  0.00     0.007 C 
ENDBRANCH   6   7
ENDBRANCH   5   6
BRANCH   5  10
ATOM     10  C   UNL A   1      31.464  26.840  26.060  1.00  0.00     0.163 C 
BRANCH  10  11
ATOM     11  N   UNL A   1      31.297  25.429  26.333  1.00  0.00    -0.229 N 
ATOM     12  N   UNL A   1      30.070  24.988  26.693  1.00  0.00    -0.045 NA
ATOM     13  C   UNL A   1      32.200  24.425  26.579  1.00  0.00     0.151 A 
ATOM     14  N   UNL A   1      30.223  23.723  27.047  1.00  0.00    -0.024 NA
ATOM     15  N   UNL A   1      31.538  23.360  26.989  1.00  0.00    -0.114 NA
BRANCH  13  16
ATOM     16  C   UNL A   1      33.646  24.474  26.311  1.00  0.00     0.082 C 
BRANCH  16  17
ATOM     17  C   UNL A   1      34.232  23.435  25.407  1.00  0.00    -0.004 C 
ATOM     18  C   UNL A   1      35.360  23.714  24.452  1.00  0.00     0.004 C 
ATOM     19  C   UNL A   1      35.624  22.947  25.717  1.00  0.00     0.004 C 
ENDBRANCH  16  17
ENDBRANCH  13  16
ENDBRANCH  10  11
ENDBRANCH   5  10
ENDBRANCH   3   5
ENDBRANCH   2   3
ENDBRANCH   1   2
BRANCH   1  20
ATOM     20  C   UNL A   1      31.758  31.711  26.626  1.00  0.00     0.275 C 
BRANCH  20  21
ATOM     21  O   UNL A   1      32.847  32.006  27.493  1.00  0.00    -0.458 OA
BRANCH  21  22
ATOM     22  C   UNL A   1      32.921  33.286  27.919  1.00  0.00     0.338 C 
ATOM     23  O   UNL A   1      32.151  34.196  27.679  1.00  0.00    -0.246 OA
BRANCH  22  24
ATOM     24  C   UNL A   1      34.177  33.489  28.632  1.00  0.00     0.060 A 
ATOM     25  C   UNL A   1      35.251  33.986  27.882  1.00  0.00     0.016 A 
ATOM     26  C   UNL A   1      34.340  32.835  29.853  1.00  0.00     0.016 A 
ATOM     27  C   UNL A   1      36.518  33.594  28.240  1.00  0.00     0.010 A 
ATOM     28  C   UNL A   1      35.590  32.391  30.169  1.00  0.00     0.010 A 
ATOM     29  C   UNL A   1      36.644  32.715  29.315  1.00  0.00    -0.014 A 
BRANCH  29  30
ATOM     30  C   UNL A   1      37.949  32.207  29.650  1.00  0.00     0.031 A 
ATOM     31  C   UNL A   1      38.078  30.781  29.291  1.00  0.00     0.074 A 
ATOM     32  C   UNL A   1      38.937  33.031  30.041  1.00  0.00     0.049 A 
ATOM     33  N   UNL A   1      38.176  29.772  30.088  1.00  0.00    -0.248 NA
ATOM     34  C   UNL A   1      37.837  30.411  27.882  1.00  0.00     0.031 C 
ATOM     35  C   UNL A   1      38.915  34.496  30.098  1.00  0.00     0.029 A 
ATOM     36  N   UNL A   1      40.225  32.733  30.349  1.00  0.00    -0.354 N 
ATOM     37  C   UNL A   1      38.258  28.667  29.248  1.00  0.00     0.074 A 
ATOM     38  C   UNL A   1      37.753  29.085  27.974  1.00  0.00     0.031 C 
ATOM     39  C   UNL A   1      40.183  34.955  30.197  1.00  0.00     0.029 A 
ATOM     40  C   UNL A   1      41.086  33.824  30.319  1.00  0.00     0.049 A 
ATOM     41  H   UNL A   1      40.525  31.823  30.575  1.00  0.00     0.167 HD
ATOM     42  C   UNL A   1      39.096  27.642  29.557  1.00  0.00     0.037 A 
ATOM     43  C   UNL A   1      42.441  33.757  30.293  1.00  0.00     0.037 A 
ATOM     44  C   UNL A   1      39.414  27.655  30.967  1.00  0.00     0.049 A 
ATOM     45  C   UNL A   1      42.821  32.383  30.723  1.00  0.00     0.074 A 
ATOM     46  C   UNL A   1      38.668  27.628  32.132  1.00  0.00     0.029 A 
ATOM     47  N   UNL A   1      40.660  28.103  31.333  1.00  0.00    -0.354 N 
ATOM     48  N   UNL A   1      42.663  31.928  31.934  1.00  0.00    -0.248 NA
ATOM     49  C   UNL A   1      42.954  31.364  29.690  1.00  0.00     0.031 C 
ATOM     50  C   UNL A   1      39.361  28.481  33.041  1.00  0.00     0.029 A 
ATOM     51  C   UNL A   1      40.522  28.931  32.415  1.00  0.00     0.049 A 
ATOM     52  H   UNL A   1      41.507  27.869  30.892  1.00  0.00     0.167 HD
ATOM     53  C   UNL A   1      42.236  30.619  31.767  1.00  0.00     0.074 A 
ATOM     54  C   UNL A   1      42.530  30.297  30.374  1.00  0.00     0.031 C 
ATOM     55  C   UNL A   1      41.412  30.036  32.687  1.00  0.00     0.037 A 
BRANCH  42  56
ATOM     56  C   UNL A   1      39.981  26.957  28.532  1.00  0.00     0.064 A 
ATOM     57  C   UNL A   1      40.841  27.762  27.761  1.00  0.00     0.173 A 
ATOM     58  C   UNL A   1      39.810  25.635  28.055  1.00  0.00     0.173 A 
ATOM     59  F   UNL A   1      41.081  29.034  28.114  1.00  0.00    -0.203 F 
ATOM     60  C   UNL A   1      41.383  27.319  26.553  1.00  0.00     0.198 A 
ATOM     61  C   UNL A   1      40.396  25.180  26.876  1.00  0.00     0.198 A 
ATOM     62  F   UNL A   1      38.995  24.745  28.629  1.00  0.00    -0.203 F 
ATOM     63  F   UNL A   1      42.071  28.172  25.784  1.00  0.00    -0.200 F 
ATOM     64  C   UNL A   1      41.150  26.032  26.105  1.00  0.00     0.200 A 
ATOM     65  F   UNL A   1      40.145  23.931  26.459  1.00  0.00    -0.200 F 
ATOM     66  F   UNL A   1      41.606  25.629  24.913  1.00  0.00    -0.200 F 
ENDBRANCH  42  56
BRANCH  43  67
ATOM     67  C   UNL A   1      43.404  34.661  29.617  1.00  0.00     0.064 A 
ATOM     68  C   UNL A   1      43.655  34.540  28.238  1.00  0.00     0.173 A 
ATOM     69  C   UNL A   1      43.888  35.830  30.236  1.00  0.00     0.173 A 
ATOM     70  F   UNL A   1      43.191  33.480  27.560  1.00  0.00    -0.203 F 
ATOM     71  C   UNL A   1      44.319  35.539  27.520  1.00  0.00     0.198 A 
ATOM     72  C   UNL A   1      44.562  36.822  29.520  1.00  0.00     0.198 A 
ATOM     73  F   UNL A   1      43.634  36.086  31.526  1.00  0.00    -0.203 F 
ATOM     74  F   UNL A   1      44.476  35.418  26.194  1.00  0.00    -0.200 F 
ATOM     75  C   UNL A   1      44.763  36.685  28.160  1.00  0.00     0.200 A 
ATOM     76  F   UNL A   1      44.954  37.942  30.145  1.00  0.00    -0.200 F 
ATOM     77  F   UNL A   1      45.343  37.671  27.462  1.00  0.00    -0.200 F 
ENDBRANCH  43  67
BRANCH  55  78
ATOM     78  C   UNL A   1      41.256  30.722  34.015  1.00  0.00     0.064 A 
ATOM     79  C   UNL A   1      42.126  30.551  35.106  1.00  0.00     0.173 A 
ATOM     80  C   UNL A   1      40.250  31.689  34.140  1.00  0.00     0.173 A 
ATOM     81  F   UNL A   1      43.176  29.722  35.028  1.00  0.00    -0.203 F 
ATOM     82  C   UNL A   1      41.959  31.277  36.284  1.00  0.00     0.198 A 
ATOM     83  C   UNL A   1      40.110  32.442  35.301  1.00  0.00     0.198 A 
ATOM     84  F   UNL A   1      39.423  31.935  33.112  1.00  0.00    -0.203 F 
ATOM     85  F   UNL A   1      42.789  31.080  37.319  1.00  0.00    -0.200 F 
ATOM     86  C   UNL A   1      40.957  32.227  36.377  1.00  0.00     0.200 A 
ATOM     87  F   UNL A   1      39.170  33.394  35.367  1.00  0.00    -0.200 F 
ATOM     88  F   UNL A   1      40.818  32.954  37.495  1.00  0.00    -0.200 F 
ENDBRANCH  55  78
ENDBRANCH  29  30
ENDBRANCH  22  24
ENDBRANCH  21  22
ENDBRANCH  20  21
ENDBRANCH   1  20
TORSDOF 17
ENDMDL
