MODEL 1
REMARK VINA RESULT:     -13.1      0.000      0.000
REMARK SMILES C[C@@H](C(=O)OCCOC(=O)c1ccc(-c2c3nc(c(-c4c(F)c(F)c(F)c(F)c4F)c4ccc([nH]4)c(-c4c(F)c(F)c(F)c(F)c4F)c4nc(c(-c5c(F)c(F)c(F)c(F)c5F)c5ccc2[nH]5)C=C4)C=C3)cc1)c1cc(C(=O)c2ccccc2)ccc1O
REMARK SMILES IDX 6 1 5 2 3 3 4 4 2 5 1 6 74 7 75 8 87 9 76 10 86 11 85 12
REMARK SMILES IDX 88 13 77 15 78 16 79 17 80 18 84 19 81 20 83 21 82 22 7 23
REMARK SMILES IDX 8 24 9 25 10 26 11 27 12 28 73 29 13 30 72 31 14 32 15 33
REMARK SMILES IDX 16 34 66 35 17 36 71 37 65 38 67 39 18 40 70 41 64 42 63 43
REMARK SMILES IDX 19 45 51 46 31 47 50 48 32 49 35 50 49 51 68 52 33 53 34 54
REMARK SMILES IDX 48 56 69 57 36 58 20 59 21 60 29 61 22 62 23 63 27 64 30 65
REMARK SMILES IDX 24 66 25 67 28 68 26 69 52 70 53 71 61 72 54 73 55 74 59 75
REMARK SMILES IDX 62 76 56 77 57 78 60 79 58 80 37 81 38 82 46 83 39 84 40 85
REMARK SMILES IDX 44 86 47 87 41 88 42 89 45 90 43 91
REMARK H PARENT 88 14 67 44 35 55
REMARK Flexibility Score: inf
ROOT
ATOM      1  C   UNL A   1      31.935  29.274  23.463  1.00  0.00     0.274 C 
ENDROOT
BRANCH   1   2
ATOM      2  O   UNL A   1      30.665  28.772  23.924  1.00  0.00    -0.462 OA
BRANCH   2   3
ATOM      3  C   UNL A   1      30.006  27.958  23.059  1.00  0.00     0.313 C 
ATOM      4  O   UNL A   1      29.450  28.344  22.035  1.00  0.00    -0.252 OA
BRANCH   3   5
ATOM      5  C   UNL A   1      30.081  26.475  23.454  1.00  0.00     0.130 C 
ATOM      6  C   UNL A   1      29.725  26.195  24.918  1.00  0.00     0.025 C 
BRANCH   5   7
ATOM      7  C   UNL A   1      31.442  25.875  23.153  1.00  0.00     0.009 A 
ATOM      8  C   UNL A   1      32.155  25.281  24.224  1.00  0.00     0.020 A 
ATOM      9  C   UNL A   1      31.961  25.790  21.856  1.00  0.00     0.119 A 
ATOM     10  C   UNL A   1      33.328  24.578  24.051  1.00  0.00     0.023 A 
ATOM     11  C   UNL A   1      33.100  25.071  21.626  1.00  0.00     0.047 A 
ATOM     12  C   UNL A   1      33.745  24.472  22.702  1.00  0.00     0.016 A 
BRANCH   9  13
ATOM     13  O   UNL A   1      31.402  26.324  20.738  1.00  0.00    -0.508 OA
ATOM     14  H   UNL A   1      30.526  26.656  20.764  1.00  0.00     0.293 HD
ENDBRANCH   9  13
BRANCH  10  15
ATOM     15  C   UNL A   1      33.797  23.869  25.361  1.00  0.00     0.193 C 
ATOM     16  O   UNL A   1      33.115  23.824  26.378  1.00  0.00    -0.289 OA
BRANCH  15  17
ATOM     17  C   UNL A   1      35.025  23.057  25.342  1.00  0.00     0.022 A 
ATOM     18  C   UNL A   1      35.397  21.256  24.826  1.00  0.00     0.012 A 
ATOM     19  C   UNL A   1      36.392  24.079  26.034  1.00  0.00     0.012 A 
ATOM     20  C   UNL A   1      37.155  20.626  25.001  1.00  0.00     0.001 A 
ATOM     21  C   UNL A   1      38.089  23.502  26.128  1.00  0.00     0.001 A 
ATOM     22  C   UNL A   1      38.464  21.766  25.669  1.00  0.00     0.000 A 
ENDBRANCH  15  17
ENDBRANCH  10  15
ENDBRANCH   5   7
ENDBRANCH   3   5
ENDBRANCH   2   3
ENDBRANCH   1   2
BRANCH   1  23
ATOM     23  C   UNL A   1      32.961  29.217  24.601  1.00  0.00     0.275 C 
BRANCH  23  24
ATOM     24  O   UNL A   1      32.296  29.330  25.899  1.00  0.00    -0.458 OA
BRANCH  24  25
ATOM     25  C   UNL A   1      32.529  30.465  26.620  1.00  0.00     0.338 C 
ATOM     26  O   UNL A   1      31.696  31.321  26.877  1.00  0.00    -0.246 OA
BRANCH  25  27
ATOM     27  C   UNL A   1      33.867  30.452  27.309  1.00  0.00     0.060 A 
ATOM     28  C   UNL A   1      34.483  31.690  27.488  1.00  0.00     0.016 A 
ATOM     29  C   UNL A   1      34.632  29.332  27.628  1.00  0.00     0.016 A 
ATOM     30  C   UNL A   1      35.754  31.855  28.117  1.00  0.00     0.010 A 
ATOM     31  C   UNL A   1      35.903  29.490  28.296  1.00  0.00     0.010 A 
ATOM     32  C   UNL A   1      36.441  30.770  28.697  1.00  0.00    -0.014 A 
BRANCH  32  33
ATOM     33  C   UNL A   1      37.755  31.023  29.981  1.00  0.00     0.031 A 
ATOM     34  C   UNL A   1      38.916  30.027  29.077  1.00  0.00     0.074 A 
ATOM     35  C   UNL A   1      37.676  31.669  31.734  1.00  0.00     0.049 A 
ATOM     36  N   UNL A   1      39.999  29.477  29.565  1.00  0.00    -0.248 NA
ATOM     37  C   UNL A   1      38.633  29.476  27.733  1.00  0.00     0.031 C 
ATOM     38  C   UNL A   1      36.396  32.222  32.764  1.00  0.00     0.029 A 
ATOM     39  N   UNL A   1      38.597  31.899  32.865  1.00  0.00    -0.354 N 
ATOM     40  C   UNL A   1      40.432  28.497  28.774  1.00  0.00     0.074 A 
ATOM     41  C   UNL A   1      39.549  28.509  27.632  1.00  0.00     0.031 C 
ATOM     42  C   UNL A   1      36.813  32.507  33.996  1.00  0.00     0.029 A 
ATOM     43  C   UNL A   1      38.117  31.937  34.100  1.00  0.00     0.049 A 
ATOM     44  H   UNL A   1      39.560  32.022  32.704  1.00  0.00     0.167 HD
ATOM     45  C   UNL A   1      41.484  27.723  29.091  1.00  0.00     0.037 A 
ATOM     46  C   UNL A   1      38.791  31.458  35.146  1.00  0.00     0.037 A 
ATOM     47  C   UNL A   1      42.190  27.709  30.367  1.00  0.00     0.049 A 
ATOM     48  C   UNL A   1      40.039  30.609  35.056  1.00  0.00     0.074 A 
ATOM     49  C   UNL A   1      43.397  27.100  30.647  1.00  0.00     0.029 A 
ATOM     50  N   UNL A   1      41.737  28.215  31.594  1.00  0.00    -0.354 N 
ATOM     51  N   UNL A   1      40.496  29.807  34.119  1.00  0.00    -0.248 NA
ATOM     52  C   UNL A   1      40.885  30.667  36.244  1.00  0.00     0.031 C 
ATOM     53  C   UNL A   1      43.650  27.208  32.020  1.00  0.00     0.029 A 
ATOM     54  C   UNL A   1      42.671  28.002  32.607  1.00  0.00     0.049 A 
ATOM     55  H   UNL A   1      40.870  28.663  31.723  1.00  0.00     0.167 HD
ATOM     56  C   UNL A   1      41.714  29.302  34.577  1.00  0.00     0.074 A 
ATOM     57  C   UNL A   1      41.884  29.869  35.906  1.00  0.00     0.031 C 
ATOM     58  C   UNL A   1      42.657  28.517  33.976  1.00  0.00     0.037 A 
BRANCH  45  59
ATOM     59  C   UNL A   1      41.938  26.881  27.969  1.00  0.00     0.064 A 
ATOM     60  C   UNL A   1      41.431  25.582  27.805  1.00  0.00     0.173 A 
ATOM     61  C   UNL A   1      42.895  27.356  27.075  1.00  0.00     0.173 A 
ATOM     62  F   UNL A   1      40.513  25.093  28.656  1.00  0.00    -0.203 F 
ATOM     63  C   UNL A   1      41.921  24.758  26.808  1.00  0.00     0.198 A 
ATOM     64  C   UNL A   1      43.346  26.546  26.046  1.00  0.00     0.198 A 
ATOM     65  F   UNL A   1      43.400  28.592  27.209  1.00  0.00    -0.203 F 
ATOM     66  F   UNL A   1      41.496  23.491  26.724  1.00  0.00    -0.200 F 
ATOM     67  C   UNL A   1      42.873  25.244  25.926  1.00  0.00     0.200 A 
ATOM     68  F   UNL A   1      44.251  27.016  25.181  1.00  0.00    -0.200 F 
ATOM     69  F   UNL A   1      43.345  24.450  24.958  1.00  0.00    -0.200 F 
ENDBRANCH  45  59
BRANCH  46  70
ATOM     70  C   UNL A   1      38.386  32.166  36.335  1.00  0.00     0.064 A 
ATOM     71  C   UNL A   1      37.775  31.405  37.339  1.00  0.00     0.173 A 
ATOM     72  C   UNL A   1      38.882  33.438  36.599  1.00  0.00     0.173 A 
ATOM     73  F   UNL A   1      37.434  30.125  37.105  1.00  0.00    -0.203 F 
ATOM     74  C   UNL A   1      37.581  31.952  38.583  1.00  0.00     0.198 A 
ATOM     75  C   UNL A   1      38.753  33.951  37.869  1.00  0.00     0.198 A 
ATOM     76  F   UNL A   1      39.642  34.065  35.687  1.00  0.00    -0.203 F 
ATOM     77  F   UNL A   1      36.945  31.244  39.523  1.00  0.00    -0.200 F 
ATOM     78  C   UNL A   1      38.073  33.225  38.845  1.00  0.00     0.200 A 
ATOM     79  F   UNL A   1      39.335  35.118  38.164  1.00  0.00    -0.200 F 
ATOM     80  F   UNL A   1      37.907  33.753  40.060  1.00  0.00    -0.200 F 
ENDBRANCH  46  70
BRANCH  58  81
ATOM     81  C   UNL A   1      43.899  28.225  34.813  1.00  0.00     0.064 A 
ATOM     82  C   UNL A   1      45.011  29.085  34.824  1.00  0.00     0.173 A 
ATOM     83  C   UNL A   1      43.959  27.086  35.637  1.00  0.00     0.173 A 
ATOM     84  F   UNL A   1      45.029  30.174  34.043  1.00  0.00    -0.203 F 
ATOM     85  C   UNL A   1      46.138  28.801  35.597  1.00  0.00     0.198 A 
ATOM     86  C   UNL A   1      45.065  26.835  36.450  1.00  0.00     0.198 A 
ATOM     87  F   UNL A   1      42.937  26.218  35.672  1.00  0.00    -0.203 F 
ATOM     88  F   UNL A   1      47.209  29.603  35.534  1.00  0.00    -0.200 F 
ATOM     89  C   UNL A   1      46.158  27.686  36.421  1.00  0.00     0.200 A 
ATOM     90  F   UNL A   1      45.071  25.771  37.265  1.00  0.00    -0.200 F 
ATOM     91  F   UNL A   1      47.232  27.430  37.181  1.00  0.00    -0.200 F 
ENDBRANCH  58  81
ENDBRANCH  32  33
ENDBRANCH  25  27
ENDBRANCH  24  25
ENDBRANCH  23  24
ENDBRANCH   1  23
TORSDOF 15
ENDMDL
MODEL 2
REMARK VINA RESULT:     -12.7      3.003      8.313
REMARK SMILES C[C@@H](C(=O)OCCOC(=O)c1ccc(-c2c3nc(c(-c4c(F)c(F)c(F)c(F)c4F)c4ccc([nH]4)c(-c4c(F)c(F)c(F)c(F)c4F)c4nc(c(-c5c(F)c(F)c(F)c(F)c5F)c5ccc2[nH]5)C=C4)C=C3)cc1)c1cc(C(=O)c2ccccc2)ccc1O
REMARK SMILES IDX 6 1 5 2 3 3 4 4 2 5 1 6 74 7 75 8 87 9 76 10 86 11 85 12
REMARK SMILES IDX 88 13 77 15 78 16 79 17 80 18 84 19 81 20 83 21 82 22 7 23
REMARK SMILES IDX 8 24 9 25 10 26 11 27 12 28 73 29 13 30 72 31 14 32 15 33
REMARK SMILES IDX 16 34 66 35 17 36 71 37 65 38 67 39 18 40 70 41 64 42 63 43
REMARK SMILES IDX 19 45 51 46 31 47 50 48 32 49 35 50 49 51 68 52 33 53 34 54
REMARK SMILES IDX 48 56 69 57 36 58 20 59 21 60 29 61 22 62 23 63 27 64 30 65
REMARK SMILES IDX 24 66 25 67 28 68 26 69 52 70 53 71 61 72 54 73 55 74 59 75
REMARK SMILES IDX 62 76 56 77 57 78 60 79 58 80 37 81 38 82 46 83 39 84 40 85
REMARK SMILES IDX 44 86 47 87 41 88 42 89 45 90 43 91
REMARK H PARENT 88 14 67 44 35 55
REMARK Flexibility Score: inf
ROOT
ATOM      1  C   UNL A   1      39.406  20.916  25.479  1.00  0.00     0.274 C 
ENDROOT
BRANCH   1   2
ATOM      2  O   UNL A   1      38.240  21.493  26.100  1.00  0.00    -0.462 OA
BRANCH   2   3
ATOM      3  C   UNL A   1      37.668  22.526  25.429  1.00  0.00     0.313 C 
ATOM      4  O   UNL A   1      37.827  23.708  25.718  1.00  0.00    -0.252 OA
BRANCH   3   5
ATOM      5  C   UNL A   1      36.844  22.071  24.214  1.00  0.00     0.130 C 
ATOM      6  C   UNL A   1      36.680  23.140  23.129  1.00  0.00     0.025 C 
BRANCH   5   7
ATOM      7  C   UNL A   1      35.474  21.560  24.617  1.00  0.00     0.009 A 
ATOM      8  C   UNL A   1      34.388  22.469  24.568  1.00  0.00     0.020 A 
ATOM      9  C   UNL A   1      35.227  20.216  24.922  1.00  0.00     0.119 A 
ATOM     10  C   UNL A   1      33.077  22.091  24.769  1.00  0.00     0.023 A 
ATOM     11  C   UNL A   1      33.942  19.783  25.090  1.00  0.00     0.047 A 
ATOM     12  C   UNL A   1      32.905  20.703  24.995  1.00  0.00     0.016 A 
BRANCH   9  13
ATOM     13  O   UNL A   1      36.165  19.237  25.022  1.00  0.00    -0.508 OA
ATOM     14  H   UNL A   1      36.905  19.352  25.585  1.00  0.00     0.293 HD
ENDBRANCH   9  13
BRANCH  10  15
ATOM     15  C   UNL A   1      32.070  23.246  24.469  1.00  0.00     0.193 C 
ATOM     16  O   UNL A   1      30.874  23.174  24.725  1.00  0.00    -0.289 OA
BRANCH  15  17
ATOM     17  C   UNL A   1      32.583  24.554  24.028  1.00  0.00     0.022 A 
ATOM     18  C   UNL A   1      32.963  25.303  22.313  1.00  0.00     0.012 A 
ATOM     19  C   UNL A   1      32.949  25.555  25.531  1.00  0.00     0.012 A 
ATOM     20  C   UNL A   1      33.646  27.048  22.236  1.00  0.00     0.001 A 
ATOM     21  C   UNL A   1      33.527  27.253  25.454  1.00  0.00     0.001 A 
ATOM     22  C   UNL A   1      33.930  27.981  23.819  1.00  0.00     0.000 A 
ENDBRANCH  15  17
ENDBRANCH  10  15
ENDBRANCH   5   7
ENDBRANCH   3   5
ENDBRANCH   2   3
ENDBRANCH   1   2
BRANCH   1  23
ATOM     23  C   UNL A   1      40.657  21.264  26.296  1.00  0.00     0.275 C 
BRANCH  23  24
ATOM     24  O   UNL A   1      41.722  21.754  25.421  1.00  0.00    -0.458 OA
BRANCH  24  25
ATOM     25  C   UNL A   1      42.912  22.072  26.009  1.00  0.00     0.338 C 
ATOM     26  O   UNL A   1      43.998  21.603  25.703  1.00  0.00    -0.246 OA
BRANCH  25  27
ATOM     27  C   UNL A   1      42.810  23.269  26.917  1.00  0.00     0.060 A 
ATOM     28  C   UNL A   1      43.195  24.493  26.372  1.00  0.00     0.016 A 
ATOM     29  C   UNL A   1      42.543  23.261  28.284  1.00  0.00     0.016 A 
ATOM     30  C   UNL A   1      43.164  25.723  27.096  1.00  0.00     0.010 A 
ATOM     31  C   UNL A   1      42.477  24.504  29.016  1.00  0.00     0.010 A 
ATOM     32  C   UNL A   1      42.644  25.802  28.403  1.00  0.00    -0.014 A 
BRANCH  32  33
ATOM     33  C   UNL A   1      42.069  27.409  29.128  1.00  0.00     0.031 A 
ATOM     34  C   UNL A   1      43.055  27.174  30.586  1.00  0.00     0.074 A 
ATOM     35  C   UNL A   1      40.651  28.542  28.679  1.00  0.00     0.049 A 
ATOM     36  N   UNL A   1      42.892  27.788  31.731  1.00  0.00    -0.248 NA
ATOM     37  C   UNL A   1      43.998  26.045  30.751  1.00  0.00     0.031 C 
ATOM     38  C   UNL A   1      39.392  28.493  27.488  1.00  0.00     0.029 A 
ATOM     39  N   UNL A   1      40.056  29.805  29.160  1.00  0.00    -0.354 N 
ATOM     40  C   UNL A   1      43.504  27.131  32.714  1.00  0.00     0.074 A 
ATOM     41  C   UNL A   1      44.186  26.032  32.074  1.00  0.00     0.031 C 
ATOM     42  C   UNL A   1      38.531  29.501  27.607  1.00  0.00     0.029 A 
ATOM     43  C   UNL A   1      38.787  30.074  28.888  1.00  0.00     0.049 A 
ATOM     44  H   UNL A   1      40.597  30.442  29.679  1.00  0.00     0.167 HD
ATOM     45  C   UNL A   1      43.423  27.514  34.000  1.00  0.00     0.037 A 
ATOM     46  C   UNL A   1      37.990  30.714  29.744  1.00  0.00     0.037 A 
ATOM     47  C   UNL A   1      42.555  28.556  34.536  1.00  0.00     0.049 A 
ATOM     48  C   UNL A   1      38.325  30.996  31.192  1.00  0.00     0.074 A 
ATOM     49  C   UNL A   1      42.608  29.123  35.794  1.00  0.00     0.029 A 
ATOM     50  N   UNL A   1      41.424  29.117  33.924  1.00  0.00    -0.354 N 
ATOM     51  N   UNL A   1      39.123  30.394  32.047  1.00  0.00    -0.248 NA
ATOM     52  C   UNL A   1      37.607  32.133  31.758  1.00  0.00     0.031 C 
ATOM     53  C   UNL A   1      41.512  29.981  35.949  1.00  0.00     0.029 A 
ATOM     54  C   UNL A   1      40.824  30.072  34.744  1.00  0.00     0.049 A 
ATOM     55  H   UNL A   1      41.096  28.868  33.031  1.00  0.00     0.167 HD
ATOM     56  C   UNL A   1      39.049  31.111  33.243  1.00  0.00     0.074 A 
ATOM     57  C   UNL A   1      38.081  32.167  32.992  1.00  0.00     0.031 C 
ATOM     58  C   UNL A   1      39.738  30.995  34.417  1.00  0.00     0.037 A 
BRANCH  45  59
ATOM     59  C   UNL A   1      44.373  26.802  34.874  1.00  0.00     0.064 A 
ATOM     60  C   UNL A   1      45.669  27.306  35.074  1.00  0.00     0.173 A 
ATOM     61  C   UNL A   1      44.005  25.608  35.490  1.00  0.00     0.173 A 
ATOM     62  F   UNL A   1      46.057  28.451  34.488  1.00  0.00    -0.203 F 
ATOM     63  C   UNL A   1      46.591  26.594  35.820  1.00  0.00     0.198 A 
ATOM     64  C   UNL A   1      44.915  24.925  36.278  1.00  0.00     0.198 A 
ATOM     65  F   UNL A   1      42.775  25.102  35.314  1.00  0.00    -0.203 F 
ATOM     66  F   UNL A   1      47.849  27.041  35.923  1.00  0.00    -0.200 F 
ATOM     67  C   UNL A   1      46.210  25.408  36.426  1.00  0.00     0.200 A 
ATOM     68  F   UNL A   1      44.547  23.788  36.880  1.00  0.00    -0.200 F 
ATOM     69  F   UNL A   1      47.099  24.720  37.152  1.00  0.00    -0.200 F 
ENDBRANCH  45  59
BRANCH  46  70
ATOM     70  C   UNL A   1      36.964  31.410  29.008  1.00  0.00     0.064 A 
ATOM     71  C   UNL A   1      35.754  30.730  28.827  1.00  0.00     0.173 A 
ATOM     72  C   UNL A   1      37.056  32.782  28.800  1.00  0.00     0.173 A 
ATOM     73  F   UNL A   1      35.647  29.435  29.173  1.00  0.00    -0.203 F 
ATOM     74  C   UNL A   1      34.659  31.407  28.351  1.00  0.00     0.198 A 
ATOM     75  C   UNL A   1      35.935  33.468  28.397  1.00  0.00     0.198 A 
ATOM     76  F   UNL A   1      38.162  33.446  29.174  1.00  0.00    -0.203 F 
ATOM     77  F   UNL A   1      33.520  30.744  28.123  1.00  0.00    -0.200 F 
ATOM     78  C   UNL A   1      34.752  32.777  28.139  1.00  0.00     0.200 A 
ATOM     79  F   UNL A   1      35.980  34.803  28.314  1.00  0.00    -0.200 F 
ATOM     80  F   UNL A   1      33.683  33.446  27.698  1.00  0.00    -0.200 F 
ENDBRANCH  46  70
BRANCH  58  81
ATOM     81  C   UNL A   1      39.391  32.026  35.486  1.00  0.00     0.064 A 
ATOM     82  C   UNL A   1      38.481  31.752  36.522  1.00  0.00     0.173 A 
ATOM     83  C   UNL A   1      40.003  33.294  35.488  1.00  0.00     0.173 A 
ATOM     84  F   UNL A   1      37.843  30.573  36.564  1.00  0.00    -0.203 F 
ATOM     85  C   UNL A   1      38.177  32.709  37.491  1.00  0.00     0.198 A 
ATOM     86  C   UNL A   1      39.738  34.227  36.491  1.00  0.00     0.198 A 
ATOM     87  F   UNL A   1      40.878  33.626  34.527  1.00  0.00    -0.203 F 
ATOM     88  F   UNL A   1      37.254  32.442  38.425  1.00  0.00    -0.200 F 
ATOM     89  C   UNL A   1      38.817  33.939  37.484  1.00  0.00     0.200 A 
ATOM     90  F   UNL A   1      40.377  35.405  36.497  1.00  0.00    -0.200 F 
ATOM     91  F   UNL A   1      38.540  34.846  38.431  1.00  0.00    -0.200 F 
ENDBRANCH  58  81
ENDBRANCH  32  33
ENDBRANCH  25  27
ENDBRANCH  24  25
ENDBRANCH  23  24
ENDBRANCH   1  23
TORSDOF 15
ENDMDL
MODEL 3
REMARK VINA RESULT:     -12.7      7.913     12.627
REMARK SMILES C[C@@H](C(=O)OCCOC(=O)c1ccc(-c2c3nc(c(-c4c(F)c(F)c(F)c(F)c4F)c4ccc([nH]4)c(-c4c(F)c(F)c(F)c(F)c4F)c4nc(c(-c5c(F)c(F)c(F)c(F)c5F)c5ccc2[nH]5)C=C4)C=C3)cc1)c1cc(C(=O)c2ccccc2)ccc1O
REMARK SMILES IDX 6 1 5 2 3 3 4 4 2 5 1 6 74 7 75 8 87 9 76 10 86 11 85 12
REMARK SMILES IDX 88 13 77 15 78 16 79 17 80 18 84 19 81 20 83 21 82 22 7 23
REMARK SMILES IDX 8 24 9 25 10 26 11 27 12 28 73 29 13 30 72 31 14 32 15 33
REMARK SMILES IDX 16 34 66 35 17 36 71 37 65 38 67 39 18 40 70 41 64 42 63 43
REMARK SMILES IDX 19 45 51 46 31 47 50 48 32 49 35 50 49 51 68 52 33 53 34 54
REMARK SMILES IDX 48 56 69 57 36 58 20 59 21 60 29 61 22 62 23 63 27 64 30 65
REMARK SMILES IDX 24 66 25 67 28 68 26 69 52 70 53 71 61 72 54 73 55 74 59 75
REMARK SMILES IDX 62 76 56 77 57 78 60 79 58 80 37 81 38 82 46 83 39 84 40 85
REMARK SMILES IDX 44 86 47 87 41 88 42 89 45 90 43 91
REMARK H PARENT 88 14 67 44 35 55
REMARK Flexibility Score: inf
ROOT
ATOM      1  C   UNL A   1      35.621  29.950  27.692  1.00  0.00     0.274 C 
ENDROOT
BRANCH   1   2
ATOM      2  O   UNL A   1      35.230  30.996  28.604  1.00  0.00    -0.462 OA
BRANCH   2   3
ATOM      3  C   UNL A   1      34.376  31.925  28.101  1.00  0.00     0.313 C 
ATOM      4  O   UNL A   1      33.275  31.665  27.628  1.00  0.00    -0.252 OA
BRANCH   3   5
ATOM      5  C   UNL A   1      34.901  33.362  28.243  1.00  0.00     0.130 C 
ATOM      6  C   UNL A   1      36.429  33.479  28.228  1.00  0.00     0.025 C 
BRANCH   5   7
ATOM      7  C   UNL A   1      34.366  34.042  29.490  1.00  0.00     0.009 A 
ATOM      8  C   UNL A   1      35.058  33.830  30.708  1.00  0.00     0.020 A 
ATOM      9  C   UNL A   1      33.296  34.944  29.459  1.00  0.00     0.119 A 
ATOM     10  C   UNL A   1      34.758  34.503  31.873  1.00  0.00     0.023 A 
ATOM     11  C   UNL A   1      32.985  35.666  30.578  1.00  0.00     0.047 A 
ATOM     12  C   UNL A   1      33.716  35.453  31.740  1.00  0.00     0.016 A 
BRANCH   9  13
ATOM     13  O   UNL A   1      32.531  35.236  28.375  1.00  0.00    -0.508 OA
ATOM     14  H   UNL A   1      31.819  34.674  28.138  1.00  0.00     0.293 HD
ENDBRANCH   9  13
BRANCH  10  15
ATOM     15  C   UNL A   1      35.795  34.223  33.008  1.00  0.00     0.193 C 
ATOM     16  O   UNL A   1      35.934  34.954  33.981  1.00  0.00    -0.289 OA
BRANCH  15  17
ATOM     17  C   UNL A   1      36.517  32.940  33.024  1.00  0.00     0.022 A 
ATOM     18  C   UNL A   1      36.096  31.191  32.383  1.00  0.00     0.012 A 
ATOM     19  C   UNL A   1      38.105  33.195  33.922  1.00  0.00     0.012 A 
ATOM     20  C   UNL A   1      37.347  29.820  32.655  1.00  0.00     0.001 A 
ATOM     21  C   UNL A   1      39.336  31.902  34.113  1.00  0.00     0.001 A 
ATOM     22  C   UNL A   1      38.939  30.207  33.535  1.00  0.00     0.000 A 
ENDBRANCH  15  17
ENDBRANCH  10  15
ENDBRANCH   5   7
ENDBRANCH   3   5
ENDBRANCH   2   3
ENDBRANCH   1   2
BRANCH   1  23
ATOM     23  C   UNL A   1      37.135  29.724  27.778  1.00  0.00     0.275 C 
BRANCH  23  24
ATOM     24  O   UNL A   1      37.590  29.813  29.166  1.00  0.00    -0.458 OA
BRANCH  24  25
ATOM     25  C   UNL A   1      38.927  29.648  29.393  1.00  0.00     0.338 C 
ATOM     26  O   UNL A   1      39.570  28.647  29.118  1.00  0.00    -0.246 OA
BRANCH  25  27
ATOM     27  C   UNL A   1      39.612  30.930  29.784  1.00  0.00     0.060 A 
ATOM     28  C   UNL A   1      41.002  30.881  29.889  1.00  0.00     0.016 A 
ATOM     29  C   UNL A   1      39.003  32.105  30.220  1.00  0.00     0.016 A 
ATOM     30  C   UNL A   1      41.805  32.004  30.253  1.00  0.00     0.010 A 
ATOM     31  C   UNL A   1      39.808  33.255  30.558  1.00  0.00     0.010 A 
ATOM     32  C   UNL A   1      41.248  33.284  30.442  1.00  0.00    -0.014 A 
BRANCH  32  33
ATOM     33  C   UNL A   1      42.282  34.821  30.344  1.00  0.00     0.031 A 
ATOM     34  C   UNL A   1      42.533  34.837  32.103  1.00  0.00     0.074 A 
ATOM     35  C   UNL A   1      42.523  36.075  28.979  1.00  0.00     0.049 A 
ATOM     36  N   UNL A   1      42.918  35.867  32.814  1.00  0.00    -0.248 NA
ATOM     37  C   UNL A   1      42.058  33.758  32.997  1.00  0.00     0.031 C 
ATOM     38  C   UNL A   1      41.876  36.267  27.382  1.00  0.00     0.029 A 
ATOM     39  N   UNL A   1      43.265  37.333  28.758  1.00  0.00    -0.354 N 
ATOM     40  C   UNL A   1      42.636  35.687  34.103  1.00  0.00     0.074 A 
ATOM     41  C   UNL A   1      42.086  34.355  34.191  1.00  0.00     0.031 C 
ATOM     42  C   UNL A   1      42.278  37.392  26.795  1.00  0.00     0.029 A 
ATOM     43  C   UNL A   1      42.841  38.187  27.836  1.00  0.00     0.049 A 
ATOM     44  H   UNL A   1      44.067  37.536  29.290  1.00  0.00     0.167 HD
ATOM     45  C   UNL A   1      42.861  36.632  35.032  1.00  0.00     0.037 A 
ATOM     46  C   UNL A   1      42.931  39.508  27.989  1.00  0.00     0.037 A 
ATOM     47  C   UNL A   1      43.269  38.009  34.778  1.00  0.00     0.049 A 
ATOM     48  C   UNL A   1      43.280  40.208  29.284  1.00  0.00     0.074 A 
ATOM     49  C   UNL A   1      43.722  38.929  35.703  1.00  0.00     0.029 A 
ATOM     50  N   UNL A   1      43.182  38.712  33.568  1.00  0.00    -0.354 N 
ATOM     51  N   UNL A   1      43.148  39.853  30.543  1.00  0.00    -0.248 NA
ATOM     52  C   UNL A   1      43.847  41.541  29.106  1.00  0.00     0.031 C 
ATOM     53  C   UNL A   1      43.871  40.169  35.069  1.00  0.00     0.029 A 
ATOM     54  C   UNL A   1      43.643  40.020  33.706  1.00  0.00     0.049 A 
ATOM     55  H   UNL A   1      42.838  38.330  32.729  1.00  0.00     0.167 HD
ATOM     56  C   UNL A   1      43.665  40.895  31.315  1.00  0.00     0.074 A 
ATOM     57  C   UNL A   1      44.068  41.912  30.356  1.00  0.00     0.031 C 
ATOM     58  C   UNL A   1      43.874  41.016  32.660  1.00  0.00     0.037 A 
BRANCH  45  59
ATOM     59  C   UNL A   1      42.713  36.131  36.410  1.00  0.00     0.064 A 
ATOM     60  C   UNL A   1      41.482  36.238  37.078  1.00  0.00     0.173 A 
ATOM     61  C   UNL A   1      43.801  35.569  37.075  1.00  0.00     0.173 A 
ATOM     62  F   UNL A   1      40.417  36.782  36.466  1.00  0.00    -0.203 F 
ATOM     63  C   UNL A   1      41.365  35.852  38.400  1.00  0.00     0.198 A 
ATOM     64  C   UNL A   1      43.666  35.136  38.384  1.00  0.00     0.198 A 
ATOM     65  F   UNL A   1      44.990  35.457  36.463  1.00  0.00    -0.203 F 
ATOM     66  F   UNL A   1      40.211  36.048  39.051  1.00  0.00    -0.200 F 
ATOM     67  C   UNL A   1      42.456  35.295  39.049  1.00  0.00     0.200 A 
ATOM     68  F   UNL A   1      44.711  34.582  39.009  1.00  0.00    -0.200 F 
ATOM     69  F   UNL A   1      42.344  34.917  40.328  1.00  0.00    -0.200 F 
ENDBRANCH  45  59
BRANCH  46  70
ATOM     70  C   UNL A   1      43.019  40.131  26.692  1.00  0.00     0.064 A 
ATOM     71  C   UNL A   1      41.847  40.719  26.200  1.00  0.00     0.173 A 
ATOM     72  C   UNL A   1      44.258  40.424  26.135  1.00  0.00     0.173 A 
ATOM     73  F   UNL A   1      40.679  40.540  26.841  1.00  0.00    -0.203 F 
ATOM     74  C   UNL A   1      41.907  41.531  25.094  1.00  0.00     0.198 A 
ATOM     75  C   UNL A   1      44.321  41.298  25.075  1.00  0.00     0.198 A 
ATOM     76  F   UNL A   1      45.382  40.015  26.746  1.00  0.00    -0.203 F 
ATOM     77  F   UNL A   1      40.780  42.045  24.591  1.00  0.00    -0.200 F 
ATOM     78  C   UNL A   1      43.146  41.819  24.536  1.00  0.00     0.200 A 
ATOM     79  F   UNL A   1      45.516  41.681  24.614  1.00  0.00    -0.200 F 
ATOM     80  F   UNL A   1      43.213  42.626  23.473  1.00  0.00    -0.200 F 
ENDBRANCH  46  70
BRANCH  58  81
ATOM     81  C   UNL A   1      44.522  42.321  33.109  1.00  0.00     0.064 A 
ATOM     82  C   UNL A   1      43.779  43.500  33.290  1.00  0.00     0.173 A 
ATOM     83  C   UNL A   1      45.899  42.381  33.392  1.00  0.00     0.173 A 
ATOM     84  F   UNL A   1      42.466  43.520  33.013  1.00  0.00    -0.203 F 
ATOM     85  C   UNL A   1      44.390  44.686  33.702  1.00  0.00     0.198 A 
ATOM     86  C   UNL A   1      46.495  43.554  33.857  1.00  0.00     0.198 A 
ATOM     87  F   UNL A   1      46.671  41.295  33.237  1.00  0.00    -0.203 F 
ATOM     88  F   UNL A   1      43.667  45.810  33.798  1.00  0.00    -0.200 F 
ATOM     89  C   UNL A   1      45.743  44.707  34.000  1.00  0.00     0.200 A 
ATOM     90  F   UNL A   1      47.799  43.565  34.170  1.00  0.00    -0.200 F 
ATOM     91  F   UNL A   1      46.321  45.841  34.420  1.00  0.00    -0.200 F 
ENDBRANCH  58  81
ENDBRANCH  32  33
ENDBRANCH  25  27
ENDBRANCH  24  25
ENDBRANCH  23  24
ENDBRANCH   1  23
TORSDOF 15
ENDMDL
