MODEL 1
REMARK VINA RESULT:     -12.5      0.000      0.000
REMARK SMILES Cc1[nH]c2ccccc2c1[C@@H](C(=O)OCCOC(=O)c1ccc(-c2c3nc(c(-c4c(F)c(F)c(F)c(F)c4F)c4ccc([nH]4)c(-c4c(F)c(F)c(F)c(F)c4F)c4nc(c(-c5c(F)c(F)c(F)c(F)c5F)c5ccc2[nH]5)C=C4)C=C3)cc1)[NH+]1CCCC1
REMARK SMILES IDX 16 1 15 2 14 3 12 4 13 5 11 6 10 7 1 8 2 9 3 10 4 11 9 13
REMARK SMILES IDX 5 14 8 15 6 16 7 17 83 18 84 19 87 20 85 22 86 23 17 24
REMARK SMILES IDX 18 25 19 26 20 27 21 28 82 29 22 30 81 31 23 32 24 33 25 34
REMARK SMILES IDX 75 35 26 36 80 37 74 38 76 39 27 40 79 41 73 42 72 43 28 45
REMARK SMILES IDX 60 46 40 47 59 48 41 49 44 50 58 51 77 52 42 53 43 54 57 56
REMARK SMILES IDX 78 57 45 58 29 59 30 60 38 61 31 62 32 63 36 64 39 65 33 66
REMARK SMILES IDX 34 67 37 68 35 69 61 70 62 71 70 72 63 73 64 74 68 75 71 76
REMARK SMILES IDX 65 77 66 78 69 79 67 80 46 81 47 82 55 83 48 84 49 85 53 86
REMARK SMILES IDX 56 87 50 88 51 89 54 90 52 91
REMARK H PARENT 3 12 83 21 76 44 44 55
REMARK Flexibility Score: inf
ROOT
ATOM      1  C   UNL A   1      31.519  29.782  26.668  1.00  0.00     0.275 C 
ENDROOT
BRANCH   1   2
ATOM      2  C   UNL A   1      31.566  28.484  27.472  1.00  0.00     0.274 C 
BRANCH   2   3
ATOM      3  O   UNL A   1      32.177  27.412  26.723  1.00  0.00    -0.457 OA
BRANCH   3   4
ATOM      4  C   UNL A   1      31.352  26.750  25.861  1.00  0.00     0.370 C 
ATOM      5  O   UNL A   1      30.398  26.070  26.239  1.00  0.00    -0.245 OA
BRANCH   4   6
ATOM      6  C   UNL A   1      31.825  26.774  24.398  1.00  0.00     0.328 C 
BRANCH   6   7
ATOM      7  C   UNL A   1      31.461  27.975  23.548  1.00  0.00     0.049 A 
ATOM      8  C   UNL A   1      33.882  28.814  22.946  1.00  0.00     0.065 C 
ATOM      9  C   UNL A   1      32.394  28.796  22.913  1.00  0.00     0.022 A 
ATOM     10  N   UNL A   1      31.713  29.676  22.116  1.00  0.00    -0.358 N 
ATOM     11  C   UNL A   1      30.362  29.492  22.235  1.00  0.00     0.046 A 
ATOM     12  H   UNL A   1      32.138  30.349  21.536  1.00  0.00     0.166 HD
ATOM     13  C   UNL A   1      30.161  28.502  23.199  1.00  0.00     0.009 A 
ATOM     14  C   UNL A   1      29.316  30.136  21.561  1.00  0.00     0.027 A 
ATOM     15  C   UNL A   1      28.825  28.213  23.558  1.00  0.00     0.011 A 
ATOM     16  C   UNL A   1      28.009  29.777  21.892  1.00  0.00     0.002 A 
ATOM     17  C   UNL A   1      27.764  28.841  22.890  1.00  0.00     0.001 A 
ENDBRANCH   6   7
BRANCH   6  18
ATOM     18  N   UNL A   1      31.662  25.452  23.730  1.00  0.00    -0.319 N 
ATOM     19  C   UNL A   1      32.717  24.481  24.022  1.00  0.00     0.263 C 
ATOM     20  C   UNL A   1      31.495  25.414  22.283  1.00  0.00     0.263 C 
ATOM     21  H   UNL A   1      30.770  25.204  24.160  1.00  0.00     0.349 HD
ATOM     22  C   UNL A   1      33.669  24.520  22.839  1.00  0.00     0.067 C 
ATOM     23  C   UNL A   1      32.834  25.026  21.674  1.00  0.00     0.067 C 
ENDBRANCH   6  18
ENDBRANCH   4   6
ENDBRANCH   3   4
ENDBRANCH   2   3
ENDBRANCH   1   2
BRANCH   1  24
ATOM     24  O   UNL A   1      32.857  30.190  26.334  1.00  0.00    -0.458 OA
BRANCH  24  25
ATOM     25  C   UNL A   1      33.349  31.246  27.023  1.00  0.00     0.338 C 
ATOM     26  O   UNL A   1      32.780  32.302  27.242  1.00  0.00    -0.246 OA
BRANCH  25  27
ATOM     27  C   UNL A   1      34.697  30.934  27.563  1.00  0.00     0.060 A 
ATOM     28  C   UNL A   1      35.089  29.625  27.832  1.00  0.00     0.016 A 
ATOM     29  C   UNL A   1      35.545  31.983  27.925  1.00  0.00     0.016 A 
ATOM     30  C   UNL A   1      36.255  29.374  28.558  1.00  0.00     0.010 A 
ATOM     31  C   UNL A   1      36.763  31.720  28.570  1.00  0.00     0.010 A 
ATOM     32  C   UNL A   1      37.114  30.412  28.944  1.00  0.00    -0.014 A 
BRANCH  32  33
ATOM     33  C   UNL A   1      38.331  30.136  29.771  1.00  0.00     0.031 A 
ATOM     34  C   UNL A   1      39.477  29.326  29.208  1.00  0.00     0.074 A 
ATOM     35  C   UNL A   1      38.450  30.626  31.022  1.00  0.00     0.049 A 
ATOM     36  N   UNL A   1      40.496  28.786  29.831  1.00  0.00    -0.248 NA
ATOM     37  C   UNL A   1      39.468  29.074  27.759  1.00  0.00     0.031 C 
ATOM     38  C   UNL A   1      37.468  31.468  31.705  1.00  0.00     0.029 A 
ATOM     39  N   UNL A   1      39.467  30.501  31.941  1.00  0.00    -0.354 N 
ATOM     40  C   UNL A   1      41.190  28.058  28.873  1.00  0.00     0.074 A 
ATOM     41  C   UNL A   1      40.493  28.244  27.619  1.00  0.00     0.031 C 
ATOM     42  C   UNL A   1      37.958  31.846  32.894  1.00  0.00     0.029 A 
ATOM     43  C   UNL A   1      39.237  31.179  33.113  1.00  0.00     0.049 A 
ATOM     44  H   UNL A   1      40.283  29.976  31.773  1.00  0.00     0.167 HD
ATOM     45  C   UNL A   1      42.301  27.296  29.029  1.00  0.00     0.037 A 
ATOM     46  C   UNL A   1      39.940  31.226  34.261  1.00  0.00     0.037 A 
ATOM     47  C   UNL A   1      43.056  27.189  30.252  1.00  0.00     0.049 A 
ATOM     48  C   UNL A   1      41.182  30.397  34.404  1.00  0.00     0.074 A 
ATOM     49  C   UNL A   1      44.203  26.451  30.498  1.00  0.00     0.029 A 
ATOM     50  N   UNL A   1      42.766  27.871  31.423  1.00  0.00    -0.354 N 
ATOM     51  N   UNL A   1      41.754  29.608  33.530  1.00  0.00    -0.248 NA
ATOM     52  C   UNL A   1      41.856  30.438  35.709  1.00  0.00     0.031 C 
ATOM     53  C   UNL A   1      44.594  26.670  31.823  1.00  0.00     0.029 A 
ATOM     54  C   UNL A   1      43.713  27.573  32.392  1.00  0.00     0.049 A 
ATOM     55  H   UNL A   1      42.000  28.476  31.548  1.00  0.00     0.167 HD
ATOM     56  C   UNL A   1      42.844  29.048  34.180  1.00  0.00     0.074 A 
ATOM     57  C   UNL A   1      42.878  29.618  35.511  1.00  0.00     0.031 C 
ATOM     58  C   UNL A   1      43.728  28.132  33.718  1.00  0.00     0.037 A 
BRANCH  45  59
ATOM     59  C   UNL A   1      42.760  26.475  27.859  1.00  0.00     0.064 A 
ATOM     60  C   UNL A   1      42.263  25.191  27.605  1.00  0.00     0.173 A 
ATOM     61  C   UNL A   1      43.663  27.026  26.934  1.00  0.00     0.173 A 
ATOM     62  F   UNL A   1      41.408  24.616  28.463  1.00  0.00    -0.203 F 
ATOM     63  C   UNL A   1      42.660  24.482  26.472  1.00  0.00     0.198 A 
ATOM     64  C   UNL A   1      44.037  26.326  25.790  1.00  0.00     0.198 A 
ATOM     65  F   UNL A   1      44.162  28.257  27.127  1.00  0.00    -0.203 F 
ATOM     66  F   UNL A   1      42.195  23.243  26.262  1.00  0.00    -0.200 F 
ATOM     67  C   UNL A   1      43.539  25.054  25.562  1.00  0.00     0.200 A 
ATOM     68  F   UNL A   1      44.874  26.887  24.906  1.00  0.00    -0.200 F 
ATOM     69  F   UNL A   1      43.905  24.376  24.465  1.00  0.00    -0.200 F 
ENDBRANCH  45  59
BRANCH  46  70
ATOM     70  C   UNL A   1      39.444  32.057  35.388  1.00  0.00     0.064 A 
ATOM     71  C   UNL A   1      38.576  31.521  36.349  1.00  0.00     0.173 A 
ATOM     72  C   UNL A   1      39.850  33.391  35.542  1.00  0.00     0.173 A 
ATOM     73  F   UNL A   1      38.135  30.261  36.224  1.00  0.00    -0.203 F 
ATOM     74  C   UNL A   1      38.137  32.288  37.425  1.00  0.00     0.198 A 
ATOM     75  C   UNL A   1      39.436  34.146  36.636  1.00  0.00     0.198 A 
ATOM     76  F   UNL A   1      40.675  33.950  34.645  1.00  0.00    -0.203 F 
ATOM     77  F   UNL A   1      37.282  31.763  38.314  1.00  0.00    -0.200 F 
ATOM     78  C   UNL A   1      38.577  33.595  37.575  1.00  0.00     0.200 A 
ATOM     79  F   UNL A   1      39.875  35.403  36.784  1.00  0.00    -0.200 F 
ATOM     80  F   UNL A   1      38.169  34.326  38.621  1.00  0.00    -0.200 F 
ENDBRANCH  46  70
BRANCH  58  81
ATOM     81  C   UNL A   1      44.807  27.696  34.662  1.00  0.00     0.064 A 
ATOM     82  C   UNL A   1      46.028  28.383  34.742  1.00  0.00     0.173 A 
ATOM     83  C   UNL A   1      44.622  26.581  35.492  1.00  0.00     0.173 A 
ATOM     84  F   UNL A   1      46.256  29.445  33.955  1.00  0.00    -0.203 F 
ATOM     85  C   UNL A   1      47.037  27.950  35.597  1.00  0.00     0.198 A 
ATOM     86  C   UNL A   1      45.626  26.163  36.362  1.00  0.00     0.198 A 
ATOM     87  F   UNL A   1      43.471  25.894  35.455  1.00  0.00    -0.203 F 
ATOM     88  F   UNL A   1      48.214  28.589  35.621  1.00  0.00    -0.200 F 
ATOM     89  C   UNL A   1      46.835  26.842  36.407  1.00  0.00     0.200 A 
ATOM     90  F   UNL A   1      45.428  25.096  37.148  1.00  0.00    -0.200 F 
ATOM     91  F   UNL A   1      47.811  26.420  37.223  1.00  0.00    -0.200 F 
ENDBRANCH  58  81
ENDBRANCH  32  33
ENDBRANCH  25  27
ENDBRANCH  24  25
ENDBRANCH   1  24
TORSDOF 13
ENDMDL
MODEL 2
REMARK VINA RESULT:     -12.5      0.293      1.635
REMARK SMILES Cc1[nH]c2ccccc2c1[C@@H](C(=O)OCCOC(=O)c1ccc(-c2c3nc(c(-c4c(F)c(F)c(F)c(F)c4F)c4ccc([nH]4)c(-c4c(F)c(F)c(F)c(F)c4F)c4nc(c(-c5c(F)c(F)c(F)c(F)c5F)c5ccc2[nH]5)C=C4)C=C3)cc1)[NH+]1CCCC1
REMARK SMILES IDX 16 1 15 2 14 3 12 4 13 5 11 6 10 7 1 8 2 9 3 10 4 11 9 13
REMARK SMILES IDX 5 14 8 15 6 16 7 17 83 18 84 19 87 20 85 22 86 23 17 24
REMARK SMILES IDX 18 25 19 26 20 27 21 28 82 29 22 30 81 31 23 32 24 33 25 34
REMARK SMILES IDX 75 35 26 36 80 37 74 38 76 39 27 40 79 41 73 42 72 43 28 45
REMARK SMILES IDX 60 46 40 47 59 48 41 49 44 50 58 51 77 52 42 53 43 54 57 56
REMARK SMILES IDX 78 57 45 58 29 59 30 60 38 61 31 62 32 63 36 64 39 65 33 66
REMARK SMILES IDX 34 67 37 68 35 69 61 70 62 71 70 72 63 73 64 74 68 75 71 76
REMARK SMILES IDX 65 77 66 78 69 79 67 80 46 81 47 82 55 83 48 84 49 85 53 86
REMARK SMILES IDX 56 87 50 88 51 89 54 90 52 91
REMARK H PARENT 3 12 83 21 76 44 44 55
REMARK Flexibility Score: inf
ROOT
ATOM      1  C   UNL A   1      31.609  29.851  26.486  1.00  0.00     0.275 C 
ENDROOT
BRANCH   1   2
ATOM      2  C   UNL A   1      31.667  28.618  27.385  1.00  0.00     0.274 C 
BRANCH   2   3
ATOM      3  O   UNL A   1      32.307  27.505  26.726  1.00  0.00    -0.457 OA
BRANCH   3   4
ATOM      4  C   UNL A   1      31.496  26.743  25.936  1.00  0.00     0.370 C 
ATOM      5  O   UNL A   1      30.612  26.017  26.390  1.00  0.00    -0.245 OA
BRANCH   4   6
ATOM      6  C   UNL A   1      31.905  26.723  24.453  1.00  0.00     0.328 C 
BRANCH   6   7
ATOM      7  C   UNL A   1      31.522  27.910  23.592  1.00  0.00     0.049 A 
ATOM      8  C   UNL A   1      33.930  28.723  22.905  1.00  0.00     0.065 C 
ATOM      9  C   UNL A   1      32.442  28.714  22.915  1.00  0.00     0.022 A 
ATOM     10  N   UNL A   1      31.743  29.583  22.121  1.00  0.00    -0.358 N 
ATOM     11  C   UNL A   1      30.395  29.409  22.281  1.00  0.00     0.046 A 
ATOM     12  H   UNL A   1      32.154  30.242  21.516  1.00  0.00     0.166 HD
ATOM     13  C   UNL A   1      30.216  28.439  23.269  1.00  0.00     0.009 A 
ATOM     14  C   UNL A   1      29.334  30.046  21.625  1.00  0.00     0.027 A 
ATOM     15  C   UNL A   1      28.889  28.164  23.672  1.00  0.00     0.011 A 
ATOM     16  C   UNL A   1      28.035  29.701  22.000  1.00  0.00     0.002 A 
ATOM     17  C   UNL A   1      27.813  28.786  23.022  1.00  0.00     0.001 A 
ENDBRANCH   6   7
BRANCH   6  18
ATOM     18  N   UNL A   1      31.690  25.389  23.826  1.00  0.00    -0.319 N 
ATOM     19  C   UNL A   1      32.678  24.373  24.188  1.00  0.00     0.263 C 
ATOM     20  C   UNL A   1      31.571  25.309  22.376  1.00  0.00     0.263 C 
ATOM     21  H   UNL A   1      30.772  25.207  24.231  1.00  0.00     0.349 HD
ATOM     22  C   UNL A   1      33.670  24.316  23.039  1.00  0.00     0.067 C 
ATOM     23  C   UNL A   1      32.905  24.826  21.829  1.00  0.00     0.067 C 
ENDBRANCH   6  18
ENDBRANCH   4   6
ENDBRANCH   3   4
ENDBRANCH   2   3
ENDBRANCH   1   2
BRANCH   1  24
ATOM     24  O   UNL A   1      32.943  30.326  26.233  1.00  0.00    -0.458 OA
BRANCH  24  25
ATOM     25  C   UNL A   1      33.398  31.299  27.055  1.00  0.00     0.338 C 
ATOM     26  O   UNL A   1      32.802  32.309  27.390  1.00  0.00    -0.246 OA
BRANCH  25  27
ATOM     27  C   UNL A   1      34.741  30.950  27.583  1.00  0.00     0.060 A 
ATOM     28  C   UNL A   1      35.124  29.626  27.786  1.00  0.00     0.016 A 
ATOM     29  C   UNL A   1      35.596  31.973  28.001  1.00  0.00     0.016 A 
ATOM     30  C   UNL A   1      36.286  29.331  28.502  1.00  0.00     0.010 A 
ATOM     31  C   UNL A   1      36.810  31.669  28.635  1.00  0.00     0.010 A 
ATOM     32  C   UNL A   1      37.151  30.341  28.943  1.00  0.00    -0.014 A 
BRANCH  32  33
ATOM     33  C   UNL A   1      38.362  30.015  29.759  1.00  0.00     0.031 A 
ATOM     34  C   UNL A   1      39.479  29.178  29.177  1.00  0.00     0.074 A 
ATOM     35  C   UNL A   1      38.504  30.482  31.016  1.00  0.00     0.049 A 
ATOM     36  N   UNL A   1      40.485  28.597  29.786  1.00  0.00    -0.248 NA
ATOM     37  C   UNL A   1      39.454  28.949  27.724  1.00  0.00     0.031 C 
ATOM     38  C   UNL A   1      37.552  31.344  31.718  1.00  0.00     0.029 A 
ATOM     39  N   UNL A   1      39.522  30.311  31.927  1.00  0.00    -0.354 N 
ATOM     40  C   UNL A   1      41.150  27.862  28.812  1.00  0.00     0.074 A 
ATOM     41  C   UNL A   1      40.452  28.089  27.565  1.00  0.00     0.031 C 
ATOM     42  C   UNL A   1      38.061  31.687  32.909  1.00  0.00     0.029 A 
ATOM     43  C   UNL A   1      39.319  30.977  33.111  1.00  0.00     0.049 A 
ATOM     44  H   UNL A   1      40.319  29.763  31.746  1.00  0.00     0.167 HD
ATOM     45  C   UNL A   1      42.237  27.063  28.951  1.00  0.00     0.037 A 
ATOM     46  C   UNL A   1      40.029  30.984  34.255  1.00  0.00     0.037 A 
ATOM     47  C   UNL A   1      42.996  26.914  30.167  1.00  0.00     0.049 A 
ATOM     48  C   UNL A   1      41.246  30.115  34.378  1.00  0.00     0.074 A 
ATOM     49  C   UNL A   1      44.120  26.137  30.395  1.00  0.00     0.029 A 
ATOM     50  N   UNL A   1      42.733  27.586  31.350  1.00  0.00    -0.354 N 
ATOM     51  N   UNL A   1      41.788  29.321  33.488  1.00  0.00    -0.248 NA
ATOM     52  C   UNL A   1      41.928  30.115  35.680  1.00  0.00     0.031 C 
ATOM     53  C   UNL A   1      44.525  26.323  31.721  1.00  0.00     0.029 A 
ATOM     54  C   UNL A   1      43.675  27.244  32.309  1.00  0.00     0.049 A 
ATOM     55  H   UNL A   1      41.987  28.214  31.489  1.00  0.00     0.167 HD
ATOM     56  C   UNL A   1      42.864  28.719  34.123  1.00  0.00     0.074 A 
ATOM     57  C   UNL A   1      42.922  29.267  35.463  1.00  0.00     0.031 C 
ATOM     58  C   UNL A   1      43.716  27.782  33.643  1.00  0.00     0.037 A 
BRANCH  45  59
ATOM     59  C   UNL A   1      42.664  26.247  27.765  1.00  0.00     0.064 A 
ATOM     60  C   UNL A   1      43.669  26.672  26.887  1.00  0.00     0.173 A 
ATOM     61  C   UNL A   1      42.103  24.976  27.556  1.00  0.00     0.173 A 
ATOM     62  F   UNL A   1      44.228  27.882  27.036  1.00  0.00    -0.203 F 
ATOM     63  C   UNL A   1      44.090  25.860  25.835  1.00  0.00     0.198 A 
ATOM     64  C   UNL A   1      42.544  24.157  26.520  1.00  0.00     0.198 A 
ATOM     65  F   UNL A   1      41.143  24.518  28.375  1.00  0.00    -0.203 F 
ATOM     66  F   UNL A   1      45.032  26.299  24.988  1.00  0.00    -0.200 F 
ATOM     67  C   UNL A   1      43.534  24.601  25.658  1.00  0.00     0.200 A 
ATOM     68  F   UNL A   1      42.015  22.936  26.361  1.00  0.00    -0.200 F 
ATOM     69  F   UNL A   1      43.953  23.816  24.656  1.00  0.00    -0.200 F 
ENDBRANCH  45  59
BRANCH  46  70
ATOM     70  C   UNL A   1      39.566  31.813  35.398  1.00  0.00     0.064 A 
ATOM     71  C   UNL A   1      40.036  33.122  35.572  1.00  0.00     0.173 A 
ATOM     72  C   UNL A   1      38.628  31.326  36.318  1.00  0.00     0.173 A 
ATOM     73  F   UNL A   1      40.960  33.619  34.737  1.00  0.00    -0.203 F 
ATOM     74  C   UNL A   1      39.579  33.914  36.623  1.00  0.00     0.198 A 
ATOM     75  C   UNL A   1      38.147  32.129  37.348  1.00  0.00     0.198 A 
ATOM     76  F   UNL A   1      38.153  30.077  36.196  1.00  0.00    -0.203 F 
ATOM     77  F   UNL A   1      40.066  35.151  36.788  1.00  0.00    -0.200 F 
ATOM     78  C   UNL A   1      38.625  33.421  37.502  1.00  0.00     0.200 A 
ATOM     79  F   UNL A   1      37.215  31.654  38.187  1.00  0.00    -0.200 F 
ATOM     80  F   UNL A   1      38.171  34.190  38.501  1.00  0.00    -0.200 F 
ENDBRANCH  46  70
BRANCH  58  81
ATOM     81  C   UNL A   1      44.785  27.298  34.574  1.00  0.00     0.064 A 
ATOM     82  C   UNL A   1      46.025  27.950  34.663  1.00  0.00     0.173 A 
ATOM     83  C   UNL A   1      44.573  26.171  35.382  1.00  0.00     0.173 A 
ATOM     84  F   UNL A   1      46.279  29.022  33.897  1.00  0.00    -0.203 F 
ATOM     85  C   UNL A   1      47.025  27.472  35.505  1.00  0.00     0.198 A 
ATOM     86  C   UNL A   1      45.568  25.709  36.239  1.00  0.00     0.198 A 
ATOM     87  F   UNL A   1      43.404  25.517  35.335  1.00  0.00    -0.203 F 
ATOM     88  F   UNL A   1      48.218  28.079  35.537  1.00  0.00    -0.200 F 
ATOM     89  C   UNL A   1      46.795  26.355  36.293  1.00  0.00     0.200 A 
ATOM     90  F   UNL A   1      45.344  24.633  37.004  1.00  0.00    -0.200 F 
ATOM     91  F   UNL A   1      47.762  25.890  37.097  1.00  0.00    -0.200 F 
ENDBRANCH  58  81
ENDBRANCH  32  33
ENDBRANCH  25  27
ENDBRANCH  24  25
ENDBRANCH   1  24
TORSDOF 13
ENDMDL
MODEL 3
REMARK VINA RESULT:     -12.3      4.688      9.943
REMARK SMILES Cc1[nH]c2ccccc2c1[C@@H](C(=O)OCCOC(=O)c1ccc(-c2c3nc(c(-c4c(F)c(F)c(F)c(F)c4F)c4ccc([nH]4)c(-c4c(F)c(F)c(F)c(F)c4F)c4nc(c(-c5c(F)c(F)c(F)c(F)c5F)c5ccc2[nH]5)C=C4)C=C3)cc1)[NH+]1CCCC1
REMARK SMILES IDX 16 1 15 2 14 3 12 4 13 5 11 6 10 7 1 8 2 9 3 10 4 11 9 13
REMARK SMILES IDX 5 14 8 15 6 16 7 17 83 18 84 19 87 20 85 22 86 23 17 24
REMARK SMILES IDX 18 25 19 26 20 27 21 28 82 29 22 30 81 31 23 32 24 33 25 34
REMARK SMILES IDX 75 35 26 36 80 37 74 38 76 39 27 40 79 41 73 42 72 43 28 45
REMARK SMILES IDX 60 46 40 47 59 48 41 49 44 50 58 51 77 52 42 53 43 54 57 56
REMARK SMILES IDX 78 57 45 58 29 59 30 60 38 61 31 62 32 63 36 64 39 65 33 66
REMARK SMILES IDX 34 67 37 68 35 69 61 70 62 71 70 72 63 73 64 74 68 75 71 76
REMARK SMILES IDX 65 77 66 78 69 79 67 80 46 81 47 82 55 83 48 84 49 85 53 86
REMARK SMILES IDX 56 87 50 88 51 89 54 90 52 91
REMARK H PARENT 3 12 83 21 76 44 44 55
REMARK Flexibility Score: inf
ROOT
ATOM      1  C   UNL A   1      36.764  21.426  24.251  1.00  0.00     0.275 C 
ENDROOT
BRANCH   1   2
ATOM      2  C   UNL A   1      36.691  22.727  23.453  1.00  0.00     0.274 C 
BRANCH   2   3
ATOM      3  O   UNL A   1      35.647  23.596  23.943  1.00  0.00    -0.457 OA
BRANCH   3   4
ATOM      4  C   UNL A   1      34.381  23.276  23.549  1.00  0.00     0.370 C 
ATOM      5  O   UNL A   1      34.012  23.328  22.376  1.00  0.00    -0.245 OA
BRANCH   4   6
ATOM      6  C   UNL A   1      33.407  23.028  24.714  1.00  0.00     0.328 C 
BRANCH   6   7
ATOM      7  C   UNL A   1      33.350  21.637  25.314  1.00  0.00     0.049 A 
ATOM      8  C   UNL A   1      33.954  22.229  27.806  1.00  0.00     0.065 C 
ATOM      9  C   UNL A   1      33.557  21.360  26.666  1.00  0.00     0.022 A 
ATOM     10  N   UNL A   1      33.278  20.036  26.876  1.00  0.00    -0.358 N 
ATOM     11  C   UNL A   1      32.936  19.420  25.702  1.00  0.00     0.046 A 
ATOM     12  H   UNL A   1      33.318  19.588  27.751  1.00  0.00     0.166 HD
ATOM     13  C   UNL A   1      33.066  20.368  24.684  1.00  0.00     0.009 A 
ATOM     14  C   UNL A   1      32.528  18.099  25.478  1.00  0.00     0.027 A 
ATOM     15  C   UNL A   1      32.854  19.924  23.358  1.00  0.00     0.011 A 
ATOM     16  C   UNL A   1      32.261  17.714  24.164  1.00  0.00     0.002 A 
ATOM     17  C   UNL A   1      32.438  18.607  23.114  1.00  0.00     0.001 A 
ENDBRANCH   6   7
BRANCH   6  18
ATOM     18  N   UNL A   1      32.085  23.678  24.493  1.00  0.00    -0.319 N 
ATOM     19  C   UNL A   1      32.060  25.120  24.734  1.00  0.00     0.263 C 
ATOM     20  C   UNL A   1      30.920  23.151  25.193  1.00  0.00     0.263 C 
ATOM     21  H   UNL A   1      31.994  23.442  23.504  1.00  0.00     0.349 HD
ATOM     22  C   UNL A   1      31.479  25.309  26.125  1.00  0.00     0.067 C 
ATOM     23  C   UNL A   1      30.641  24.066  26.376  1.00  0.00     0.067 C 
ENDBRANCH   6  18
ENDBRANCH   4   6
ENDBRANCH   3   4
ENDBRANCH   2   3
ENDBRANCH   1   2
BRANCH   1  24
ATOM     24  O   UNL A   1      37.167  21.711  25.602  1.00  0.00    -0.458 OA
BRANCH  24  25
ATOM     25  C   UNL A   1      38.472  21.504  25.892  1.00  0.00     0.338 C 
ATOM     26  O   UNL A   1      39.123  20.501  25.650  1.00  0.00    -0.246 OA
BRANCH  25  27
ATOM     27  C   UNL A   1      39.069  22.717  26.507  1.00  0.00     0.060 A 
ATOM     28  C   UNL A   1      38.555  23.988  26.260  1.00  0.00     0.016 A 
ATOM     29  C   UNL A   1      40.245  22.595  27.251  1.00  0.00     0.016 A 
ATOM     30  C   UNL A   1      39.269  25.123  26.648  1.00  0.00     0.010 A 
ATOM     31  C   UNL A   1      40.908  23.738  27.722  1.00  0.00     0.010 A 
ATOM     32  C   UNL A   1      40.458  25.025  27.383  1.00  0.00    -0.014 A 
BRANCH  32  33
ATOM     33  C   UNL A   1      41.243  26.247  27.743  1.00  0.00     0.031 A 
ATOM     34  C   UNL A   1      40.645  27.312  28.635  1.00  0.00     0.074 A 
ATOM     35  C   UNL A   1      42.509  26.417  27.309  1.00  0.00     0.049 A 
ATOM     36  N   UNL A   1      41.064  28.532  28.867  1.00  0.00    -0.248 NA
ATOM     37  C   UNL A   1      39.404  26.966  29.346  1.00  0.00     0.031 C 
ATOM     38  C   UNL A   1      43.262  25.471  26.484  1.00  0.00     0.029 A 
ATOM     39  N   UNL A   1      43.399  27.445  27.521  1.00  0.00    -0.354 N 
ATOM     40  C   UNL A   1      40.096  29.125  29.668  1.00  0.00     0.074 A 
ATOM     41  C   UNL A   1      39.078  28.124  29.905  1.00  0.00     0.031 C 
ATOM     42  C   UNL A   1      44.514  25.921  26.325  1.00  0.00     0.029 A 
ATOM     43  C   UNL A   1      44.624  27.242  26.933  1.00  0.00     0.049 A 
ATOM     44  H   UNL A   1      43.179  28.249  28.044  1.00  0.00     0.167 HD
ATOM     45  C   UNL A   1      40.056  30.391  30.150  1.00  0.00     0.037 A 
ATOM     46  C   UNL A   1      45.705  28.041  26.840  1.00  0.00     0.037 A 
ATOM     47  C   UNL A   1      41.114  31.359  30.002  1.00  0.00     0.049 A 
ATOM     48  C   UNL A   1      45.650  29.429  27.406  1.00  0.00     0.074 A 
ATOM     49  C   UNL A   1      41.166  32.662  30.470  1.00  0.00     0.029 A 
ATOM     50  N   UNL A   1      42.323  31.117  29.371  1.00  0.00    -0.354 N 
ATOM     51  N   UNL A   1      44.675  30.023  28.046  1.00  0.00    -0.248 NA
ATOM     52  C   UNL A   1      46.838  30.272  27.203  1.00  0.00     0.031 C 
ATOM     53  C   UNL A   1      42.398  33.215  30.105  1.00  0.00     0.029 A 
ATOM     54  C   UNL A   1      43.129  32.244  29.441  1.00  0.00     0.049 A 
ATOM     55  H   UNL A   1      42.574  30.270  28.937  1.00  0.00     0.167 HD
ATOM     56  C   UNL A   1      45.122  31.309  28.310  1.00  0.00     0.074 A 
ATOM     57  C   UNL A   1      46.472  31.399  27.795  1.00  0.00     0.031 C 
ATOM     58  C   UNL A   1      44.464  32.329  28.912  1.00  0.00     0.037 A 
BRANCH  45  59
ATOM     59  C   UNL A   1      38.809  30.834  30.859  1.00  0.00     0.064 A 
ATOM     60  C   UNL A   1      38.672  30.755  32.251  1.00  0.00     0.173 A 
ATOM     61  C   UNL A   1      37.762  31.421  30.128  1.00  0.00     0.173 A 
ATOM     62  F   UNL A   1      39.636  30.192  32.993  1.00  0.00    -0.203 F 
ATOM     63  C   UNL A   1      37.528  31.237  32.885  1.00  0.00     0.198 A 
ATOM     64  C   UNL A   1      36.633  31.926  30.767  1.00  0.00     0.198 A 
ATOM     65  F   UNL A   1      37.849  31.529  28.793  1.00  0.00    -0.203 F 
ATOM     66  F   UNL A   1      37.403  31.125  34.215  1.00  0.00    -0.200 F 
ATOM     67  C   UNL A   1      36.515  31.829  32.144  1.00  0.00     0.200 A 
ATOM     68  F   UNL A   1      35.664  32.510  30.050  1.00  0.00    -0.200 F 
ATOM     69  F   UNL A   1      35.424  32.308  32.759  1.00  0.00    -0.200 F 
ENDBRANCH  45  59
BRANCH  46  70
ATOM     70  C   UNL A   1      46.916  27.554  26.132  1.00  0.00     0.064 A 
ATOM     71  C   UNL A   1      47.038  27.686  24.743  1.00  0.00     0.173 A 
ATOM     72  C   UNL A   1      47.985  26.973  26.831  1.00  0.00     0.173 A 
ATOM     73  F   UNL A   1      46.028  28.203  24.028  1.00  0.00    -0.203 F 
ATOM     74  C   UNL A   1      48.187  27.260  24.080  1.00  0.00     0.198 A 
ATOM     75  C   UNL A   1      49.145  26.578  26.172  1.00  0.00     0.198 A 
ATOM     76  F   UNL A   1      47.913  26.820  28.162  1.00  0.00    -0.203 F 
ATOM     77  F   UNL A   1      48.267  27.369  22.747  1.00  0.00    -0.200 F 
ATOM     78  C   UNL A   1      49.244  26.719  24.796  1.00  0.00     0.200 A 
ATOM     79  F   UNL A   1      50.170  26.070  26.870  1.00  0.00    -0.200 F 
ATOM     80  F   UNL A   1      50.357  26.328  24.160  1.00  0.00    -0.200 F 
ENDBRANCH  46  70
BRANCH  58  81
ATOM     81  C   UNL A   1      45.203  33.626  29.046  1.00  0.00     0.064 A 
ATOM     82  C   UNL A   1      46.006  33.895  30.165  1.00  0.00     0.173 A 
ATOM     83  C   UNL A   1      45.105  34.611  28.052  1.00  0.00     0.173 A 
ATOM     84  F   UNL A   1      46.116  32.989  31.149  1.00  0.00    -0.203 F 
ATOM     85  C   UNL A   1      46.661  35.116  30.298  1.00  0.00     0.198 A 
ATOM     86  C   UNL A   1      45.778  35.823  28.178  1.00  0.00     0.198 A 
ATOM     87  F   UNL A   1      44.352  34.399  26.963  1.00  0.00    -0.203 F 
ATOM     88  F   UNL A   1      47.382  35.372  31.397  1.00  0.00    -0.200 F 
ATOM     89  C   UNL A   1      46.548  36.077  29.304  1.00  0.00     0.200 A 
ATOM     90  F   UNL A   1      45.673  36.749  27.216  1.00  0.00    -0.200 F 
ATOM     91  F   UNL A   1      47.171  37.257  29.437  1.00  0.00    -0.200 F 
ENDBRANCH  58  81
ENDBRANCH  32  33
ENDBRANCH  25  27
ENDBRANCH  24  25
ENDBRANCH   1  24
TORSDOF 13
ENDMDL
