MODEL 1
REMARK VINA RESULT:     -10.6      0.000      0.000
REMARK SMILES C#CCN(CC(=O)OCCOC(=O)c1ccc(-c2c3nc(c(-c4c(F)c(F)c(F)c(F)c4F)c4ccc([nH]4)c(-c4c(F)c(F)c(F)c(F)c4F)c4nc(c(-c5c(F)c(F)c(F)c(F)c5F)c5ccc2[nH]5)C=C4)C=C3)cc1)C(=O)/C=C/c1ccnn1C
REMARK SMILES IDX 9 1 8 2 6 3 7 4 5 5 4 6 3 7 2 8 1 9 77 10 78 11 79 12 80 13
REMARK SMILES IDX 81 14 82 15 85 16 83 17 84 18 86 19 10 20 11 21 12 22 13 23
REMARK SMILES IDX 14 24 15 25 76 26 16 27 75 28 17 29 18 30 19 31 69 32 20 33
REMARK SMILES IDX 74 34 68 35 70 36 21 37 73 38 67 39 66 40 22 42 54 43 34 44
REMARK SMILES IDX 53 45 35 46 38 47 52 48 71 49 36 50 37 51 51 53 72 54 39 55
REMARK SMILES IDX 23 56 24 57 32 58 25 59 26 60 30 61 33 62 27 63 28 64 31 65
REMARK SMILES IDX 29 66 55 67 56 68 64 69 57 70 58 71 62 72 65 73 59 74 60 75
REMARK SMILES IDX 63 76 61 77 40 78 41 79 49 80 42 81 43 82 47 83 50 84 44 85
REMARK SMILES IDX 45 86 48 87 46 88
REMARK H PARENT 70 41 38 52
REMARK Flexibility Score: inf
ROOT
ATOM      1  C   UNL A   1      31.615  31.137  26.201  1.00  0.00     0.274 C 
ENDROOT
BRANCH   1   2
ATOM      2  O   UNL A   1      32.729  30.283  26.564  1.00  0.00    -0.461 OA
BRANCH   2   3
ATOM      3  C   UNL A   1      32.592  28.972  26.223  1.00  0.00     0.325 C 
ATOM      4  O   UNL A   1      31.961  28.157  26.893  1.00  0.00    -0.250 OA
BRANCH   3   5
ATOM      5  C   UNL A   1      33.061  28.640  24.794  1.00  0.00     0.243 C 
BRANCH   5   6
ATOM      6  N   UNL A   1      32.158  27.950  23.894  1.00  0.00    -0.317 N 
BRANCH   6   7
ATOM      7  C   UNL A   1      32.784  26.863  23.155  1.00  0.00     0.210 C 
BRANCH   7   8
ATOM      8  C   UNL A   1      33.645  25.963  24.026  1.00  0.00    -0.085 C 
ATOM      9  C   UNL A   1      34.383  25.191  24.773  1.00  0.00     0.006 C 
ENDBRANCH   7   8
ENDBRANCH   6   7
BRANCH   6  10
ATOM     10  C   UNL A   1      30.838  28.263  23.613  1.00  0.00     0.247 C 
ATOM     11  O   UNL A   1      29.920  27.488  23.892  1.00  0.00    -0.270 OA
BRANCH  10  12
ATOM     12  C   UNL A   1      30.425  29.510  22.891  1.00  0.00     0.073 C 
ATOM     13  C   UNL A   1      29.211  30.078  22.979  1.00  0.00     0.033 C 
BRANCH  13  14
ATOM     14  C   UNL A   1      28.689  31.072  22.086  1.00  0.00     0.061 A 
ATOM     15  C   UNL A   1      28.068  30.856  20.864  1.00  0.00     0.050 A 
ATOM     16  N   UNL A   1      28.649  32.451  22.247  1.00  0.00    -0.269 N 
ATOM     17  C   UNL A   1      27.653  32.110  20.403  1.00  0.00     0.136 A 
ATOM     18  N   UNL A   1      27.962  33.077  21.259  1.00  0.00    -0.181 NA
ATOM     19  C   UNL A   1      29.173  33.329  23.263  1.00  0.00     0.174 C 
ENDBRANCH  13  14
ENDBRANCH  10  12
ENDBRANCH   6  10
ENDBRANCH   5   6
ENDBRANCH   3   5
ENDBRANCH   2   3
ENDBRANCH   1   2
BRANCH   1  20
ATOM     20  C   UNL A   1      31.403  32.345  27.147  1.00  0.00     0.275 C 
BRANCH  20  21
ATOM     21  O   UNL A   1      32.255  33.489  26.882  1.00  0.00    -0.458 OA
BRANCH  21  22
ATOM     22  C   UNL A   1      32.947  33.837  27.982  1.00  0.00     0.338 C 
ATOM     23  O   UNL A   1      32.601  34.721  28.750  1.00  0.00    -0.246 OA
BRANCH  22  24
ATOM     24  C   UNL A   1      34.185  33.136  28.319  1.00  0.00     0.060 A 
ATOM     25  C   UNL A   1      34.094  32.004  29.137  1.00  0.00     0.016 A 
ATOM     26  C   UNL A   1      35.365  33.882  28.277  1.00  0.00     0.016 A 
ATOM     27  C   UNL A   1      35.161  31.652  29.962  1.00  0.00     0.010 A 
ATOM     28  C   UNL A   1      36.455  33.497  29.057  1.00  0.00     0.010 A 
ATOM     29  C   UNL A   1      36.360  32.382  29.907  1.00  0.00    -0.014 A 
BRANCH  29  30
ATOM     30  C   UNL A   1      37.602  31.796  30.455  1.00  0.00     0.031 A 
ATOM     31  C   UNL A   1      38.423  30.761  29.752  1.00  0.00     0.074 A 
ATOM     32  C   UNL A   1      37.888  32.166  31.716  1.00  0.00     0.049 A 
ATOM     33  N   UNL A   1      39.451  30.089  30.205  1.00  0.00    -0.248 NA
ATOM     34  C   UNL A   1      38.053  30.432  28.370  1.00  0.00     0.031 C 
ATOM     35  C   UNL A   1      37.117  33.144  32.491  1.00  0.00     0.029 A 
ATOM     36  N   UNL A   1      38.853  31.738  32.583  1.00  0.00    -0.354 N 
ATOM     37  C   UNL A   1      39.852  29.251  29.172  1.00  0.00     0.074 A 
ATOM     38  C   UNL A   1      38.943  29.492  28.067  1.00  0.00     0.031 C 
ATOM     39  C   UNL A   1      37.604  33.202  33.733  1.00  0.00     0.029 A 
ATOM     40  C   UNL A   1      38.696  32.247  33.845  1.00  0.00     0.049 A 
ATOM     41  H   UNL A   1      39.583  31.127  32.328  1.00  0.00     0.167 HD
ATOM     42  C   UNL A   1      40.887  28.374  29.164  1.00  0.00     0.037 A 
ATOM     43  C   UNL A   1      39.332  31.954  34.990  1.00  0.00     0.037 A 
ATOM     44  C   UNL A   1      41.783  28.167  30.280  1.00  0.00     0.049 A 
ATOM     45  C   UNL A   1      40.461  30.985  34.954  1.00  0.00     0.074 A 
ATOM     46  C   UNL A   1      42.924  27.384  30.342  1.00  0.00     0.029 A 
ATOM     47  N   UNL A   1      41.626  28.734  31.539  1.00  0.00    -0.354 N 
ATOM     48  N   UNL A   1      40.884  30.257  33.950  1.00  0.00    -0.248 NA
ATOM     49  C   UNL A   1      41.225  30.822  36.192  1.00  0.00     0.031 C 
ATOM     50  C   UNL A   1      43.432  27.445  31.646  1.00  0.00     0.029 A 
ATOM     51  C   UNL A   1      42.633  28.299  32.387  1.00  0.00     0.049 A 
ATOM     52  H   UNL A   1      40.905  29.356  31.791  1.00  0.00     0.167 HD
ATOM     53  C   UNL A   1      41.982  29.565  34.424  1.00  0.00     0.074 A 
ATOM     54  C   UNL A   1      42.160  29.964  35.808  1.00  0.00     0.031 C 
ATOM     55  C   UNL A   1      42.780  28.689  33.766  1.00  0.00     0.037 A 
BRANCH  42  56
ATOM     56  C   UNL A   1      41.136  27.561  27.924  1.00  0.00     0.064 A 
ATOM     57  C   UNL A   1      41.985  28.015  26.904  1.00  0.00     0.173 A 
ATOM     58  C   UNL A   1      40.624  26.258  27.814  1.00  0.00     0.173 A 
ATOM     59  F   UNL A   1      42.505  29.251  26.959  1.00  0.00    -0.203 F 
ATOM     60  C   UNL A   1      42.309  27.198  25.822  1.00  0.00     0.198 A 
ATOM     61  C   UNL A   1      40.966  25.437  26.741  1.00  0.00     0.198 A 
ATOM     62  F   UNL A   1      39.818  25.766  28.768  1.00  0.00    -0.203 F 
ATOM     63  F   UNL A   1      43.116  27.658  24.855  1.00  0.00    -0.200 F 
ATOM     64  C   UNL A   1      41.807  25.908  25.746  1.00  0.00     0.200 A 
ATOM     65  F   UNL A   1      40.493  24.184  26.680  1.00  0.00    -0.200 F 
ATOM     66  F   UNL A   1      42.141  25.116  24.717  1.00  0.00    -0.200 F 
ENDBRANCH  42  56
BRANCH  43  67
ATOM     67  C   UNL A   1      38.894  32.641  36.224  1.00  0.00     0.064 A 
ATOM     68  C   UNL A   1      38.131  31.964  37.180  1.00  0.00     0.173 A 
ATOM     69  C   UNL A   1      39.370  33.923  36.537  1.00  0.00     0.173 A 
ATOM     70  F   UNL A   1      37.668  30.733  36.918  1.00  0.00    -0.203 F 
ATOM     71  C   UNL A   1      37.861  32.544  38.416  1.00  0.00     0.198 A 
ATOM     72  C   UNL A   1      39.116  34.492  37.781  1.00  0.00     0.198 A 
ATOM     73  F   UNL A   1      40.136  34.589  35.661  1.00  0.00    -0.203 F 
ATOM     74  F   UNL A   1      37.136  31.874  39.321  1.00  0.00    -0.200 F 
ATOM     75  C   UNL A   1      38.364  33.801  38.719  1.00  0.00     0.200 A 
ATOM     76  F   UNL A   1      39.628  35.693  38.083  1.00  0.00    -0.200 F 
ATOM     77  F   UNL A   1      38.136  34.341  39.925  1.00  0.00    -0.200 F 
ENDBRANCH  43  67
BRANCH  55  78
ATOM     78  C   UNL A   1      43.927  28.130  34.548  1.00  0.00     0.064 A 
ATOM     79  C   UNL A   1      45.166  28.786  34.597  1.00  0.00     0.173 A 
ATOM     80  C   UNL A   1      43.796  26.910  35.226  1.00  0.00     0.173 A 
ATOM     81  F   UNL A   1      45.342  29.943  33.941  1.00  0.00    -0.203 F 
ATOM     82  C   UNL A   1      46.244  28.221  35.269  1.00  0.00     0.198 A 
ATOM     83  C   UNL A   1      44.871  26.360  35.916  1.00  0.00     0.198 A 
ATOM     84  F   UNL A   1      42.630  26.246  35.204  1.00  0.00    -0.203 F 
ATOM     85  F   UNL A   1      47.436  28.832  35.252  1.00  0.00    -0.200 F 
ATOM     86  C   UNL A   1      46.096  27.009  35.929  1.00  0.00     0.200 A 
ATOM     87  F   UNL A   1      44.727  25.190  36.554  1.00  0.00    -0.200 F 
ATOM     88  F   UNL A   1      47.141  26.459  36.563  1.00  0.00    -0.200 F 
ENDBRANCH  55  78
ENDBRANCH  29  30
ENDBRANCH  22  24
ENDBRANCH  21  22
ENDBRANCH  20  21
ENDBRANCH   1  20
TORSDOF 17
ENDMDL
MODEL 2
REMARK VINA RESULT:     -10.4      5.315     10.828
REMARK SMILES C#CCN(CC(=O)OCCOC(=O)c1ccc(-c2c3nc(c(-c4c(F)c(F)c(F)c(F)c4F)c4ccc([nH]4)c(-c4c(F)c(F)c(F)c(F)c4F)c4nc(c(-c5c(F)c(F)c(F)c(F)c5F)c5ccc2[nH]5)C=C4)C=C3)cc1)C(=O)/C=C/c1ccnn1C
REMARK SMILES IDX 9 1 8 2 6 3 7 4 5 5 4 6 3 7 2 8 1 9 77 10 78 11 79 12 80 13
REMARK SMILES IDX 81 14 82 15 85 16 83 17 84 18 86 19 10 20 11 21 12 22 13 23
REMARK SMILES IDX 14 24 15 25 76 26 16 27 75 28 17 29 18 30 19 31 69 32 20 33
REMARK SMILES IDX 74 34 68 35 70 36 21 37 73 38 67 39 66 40 22 42 54 43 34 44
REMARK SMILES IDX 53 45 35 46 38 47 52 48 71 49 36 50 37 51 51 53 72 54 39 55
REMARK SMILES IDX 23 56 24 57 32 58 25 59 26 60 30 61 33 62 27 63 28 64 31 65
REMARK SMILES IDX 29 66 55 67 56 68 64 69 57 70 58 71 62 72 65 73 59 74 60 75
REMARK SMILES IDX 63 76 61 77 40 78 41 79 49 80 42 81 43 82 47 83 50 84 44 85
REMARK SMILES IDX 45 86 48 87 46 88
REMARK H PARENT 70 41 38 52
REMARK Flexibility Score: inf
ROOT
ATOM      1  C   UNL A   1      38.048  20.660  25.117  1.00  0.00     0.274 C 
ENDROOT
BRANCH   1   2
ATOM      2  O   UNL A   1      38.357  21.943  25.717  1.00  0.00    -0.461 OA
BRANCH   2   3
ATOM      3  C   UNL A   1      37.425  22.916  25.519  1.00  0.00     0.325 C 
ATOM      4  O   UNL A   1      37.360  23.943  26.193  1.00  0.00    -0.250 OA
BRANCH   3   5
ATOM      5  C   UNL A   1      36.621  22.763  24.215  1.00  0.00     0.243 C 
BRANCH   5   6
ATOM      6  N   UNL A   1      35.172  22.775  24.271  1.00  0.00    -0.317 N 
BRANCH   6   7
ATOM      7  C   UNL A   1      34.612  21.769  25.163  1.00  0.00     0.210 C 
BRANCH   7   8
ATOM      8  C   UNL A   1      33.524  20.930  24.514  1.00  0.00    -0.085 C 
ATOM      9  C   UNL A   1      32.590  20.209  23.958  1.00  0.00     0.006 C 
ENDBRANCH   7   8
ENDBRANCH   6   7
BRANCH   6  10
ATOM     10  C   UNL A   1      34.301  23.553  23.526  1.00  0.00     0.247 C 
ATOM     11  O   UNL A   1      34.195  23.411  22.305  1.00  0.00    -0.270 OA
BRANCH  10  12
ATOM     12  C   UNL A   1      33.486  24.665  24.114  1.00  0.00     0.073 C 
ATOM     13  C   UNL A   1      33.830  25.372  25.202  1.00  0.00     0.033 C 
BRANCH  13  14
ATOM     14  C   UNL A   1      32.951  26.216  25.960  1.00  0.00     0.061 A 
ATOM     15  C   UNL A   1      33.238  27.468  26.484  1.00  0.00     0.050 A 
ATOM     16  N   UNL A   1      31.624  26.000  26.309  1.00  0.00    -0.269 N 
ATOM     17  C   UNL A   1      32.054  27.937  27.063  1.00  0.00     0.136 A 
ATOM     18  N   UNL A   1      31.058  27.071  26.920  1.00  0.00    -0.181 NA
ATOM     19  C   UNL A   1      30.739  24.875  26.128  1.00  0.00     0.174 C 
ENDBRANCH  13  14
ENDBRANCH  10  12
ENDBRANCH   6  10
ENDBRANCH   5   6
ENDBRANCH   3   5
ENDBRANCH   2   3
ENDBRANCH   1   2
BRANCH   1  20
ATOM     20  C   UNL A   1      39.095  19.555  25.403  1.00  0.00     0.275 C 
BRANCH  20  21
ATOM     21  O   UNL A   1      39.884  19.753  26.605  1.00  0.00    -0.458 OA
BRANCH  21  22
ATOM     22  C   UNL A   1      41.183  19.934  26.301  1.00  0.00     0.338 C 
ATOM     23  O   UNL A   1      41.875  19.091  25.754  1.00  0.00    -0.246 OA
BRANCH  22  24
ATOM     24  C   UNL A   1      41.837  21.202  26.619  1.00  0.00     0.060 A 
ATOM     25  C   UNL A   1      42.013  21.527  27.969  1.00  0.00     0.016 A 
ATOM     26  C   UNL A   1      41.762  22.211  25.656  1.00  0.00     0.016 A 
ATOM     27  C   UNL A   1      42.052  22.863  28.366  1.00  0.00     0.010 A 
ATOM     28  C   UNL A   1      41.860  23.547  26.043  1.00  0.00     0.010 A 
ATOM     29  C   UNL A   1      42.002  23.883  27.400  1.00  0.00    -0.014 A 
BRANCH  29  30
ATOM     30  C   UNL A   1      42.439  25.250  27.754  1.00  0.00     0.031 A 
ATOM     31  C   UNL A   1      41.544  26.288  28.354  1.00  0.00     0.074 A 
ATOM     32  C   UNL A   1      43.693  25.555  27.372  1.00  0.00     0.049 A 
ATOM     33  N   UNL A   1      41.796  27.554  28.576  1.00  0.00    -0.248 NA
ATOM     34  C   UNL A   1      40.199  25.864  28.760  1.00  0.00     0.031 C 
ATOM     35  C   UNL A   1      44.623  24.611  26.744  1.00  0.00     0.029 A 
ATOM     36  N   UNL A   1      44.381  26.734  27.402  1.00  0.00    -0.354 N 
ATOM     37  C   UNL A   1      40.643  28.085  29.139  1.00  0.00     0.074 A 
ATOM     38  C   UNL A   1      39.682  27.002  29.216  1.00  0.00     0.031 C 
ATOM     39  C   UNL A   1      45.739  25.258  26.399  1.00  0.00     0.029 A 
ATOM     40  C   UNL A   1      45.587  26.661  26.755  1.00  0.00     0.049 A 
ATOM     41  H   UNL A   1      44.046  27.550  27.841  1.00  0.00     0.167 HD
ATOM     42  C   UNL A   1      40.429  29.359  29.553  1.00  0.00     0.037 A 
ATOM     43  C   UNL A   1      46.467  27.623  26.439  1.00  0.00     0.037 A 
ATOM     44  C   UNL A   1      41.415  30.414  29.474  1.00  0.00     0.049 A 
ATOM     45  C   UNL A   1      46.206  29.014  26.902  1.00  0.00     0.074 A 
ATOM     46  C   UNL A   1      41.340  31.709  29.961  1.00  0.00     0.029 A 
ATOM     47  N   UNL A   1      42.652  30.299  28.852  1.00  0.00    -0.354 N 
ATOM     48  N   UNL A   1      45.146  29.489  27.507  1.00  0.00    -0.248 NA
ATOM     49  C   UNL A   1      47.271  29.991  26.674  1.00  0.00     0.031 C 
ATOM     50  C   UNL A   1      42.510  32.387  29.596  1.00  0.00     0.029 A 
ATOM     51  C   UNL A   1      43.335  31.504  28.920  1.00  0.00     0.049 A 
ATOM     52  H   UNL A   1      42.994  29.480  28.425  1.00  0.00     0.167 HD
ATOM     53  C   UNL A   1      45.422  30.820  27.759  1.00  0.00     0.074 A 
ATOM     54  C   UNL A   1      46.754  31.073  27.240  1.00  0.00     0.031 C 
ATOM     55  C   UNL A   1      44.648  31.744  28.378  1.00  0.00     0.037 A 
BRANCH  42  56
ATOM     56  C   UNL A   1      39.090  29.714  30.138  1.00  0.00     0.064 A 
ATOM     57  C   UNL A   1      38.852  29.661  31.519  1.00  0.00     0.173 A 
ATOM     58  C   UNL A   1      38.075  30.237  29.321  1.00  0.00     0.173 A 
ATOM     59  F   UNL A   1      39.789  29.173  32.347  1.00  0.00    -0.203 F 
ATOM     60  C   UNL A   1      37.650  30.115  32.059  1.00  0.00     0.198 A 
ATOM     61  C   UNL A   1      36.881  30.709  29.866  1.00  0.00     0.198 A 
ATOM     62  F   UNL A   1      38.253  30.325  27.994  1.00  0.00    -0.203 F 
ATOM     63  F   UNL A   1      37.442  30.047  33.382  1.00  0.00    -0.200 F 
ATOM     64  C   UNL A   1      36.670  30.647  31.234  1.00  0.00     0.200 A 
ATOM     65  F   UNL A   1      35.944  31.238  29.068  1.00  0.00    -0.200 F 
ATOM     66  F   UNL A   1      35.525  31.106  31.759  1.00  0.00    -0.200 F 
ENDBRANCH  42  56
BRANCH  43  67
ATOM     67  C   UNL A   1      47.672  27.238  25.674  1.00  0.00     0.064 A 
ATOM     68  C   UNL A   1      47.725  27.430  24.290  1.00  0.00     0.173 A 
ATOM     69  C   UNL A   1      48.840  26.831  26.335  1.00  0.00     0.173 A 
ATOM     70  F   UNL A   1      46.630  27.829  23.627  1.00  0.00    -0.203 F 
ATOM     71  C   UNL A   1      48.911  27.233  23.589  1.00  0.00     0.198 A 
ATOM     72  C   UNL A   1      50.030  26.654  25.635  1.00  0.00     0.198 A 
ATOM     73  F   UNL A   1      48.839  26.672  27.667  1.00  0.00    -0.203 F 
ATOM     74  F   UNL A   1      48.942  27.431  22.265  1.00  0.00    -0.200 F 
ATOM     75  C   UNL A   1      50.064  26.857  24.264  1.00  0.00     0.200 A 
ATOM     76  F   UNL A   1      51.149  26.322  26.293  1.00  0.00    -0.200 F 
ATOM     77  F   UNL A   1      51.214  26.706  23.592  1.00  0.00    -0.200 F 
ENDBRANCH  43  67
BRANCH  55  78
ATOM     78  C   UNL A   1      45.250  33.105  28.538  1.00  0.00     0.064 A 
ATOM     79  C   UNL A   1      46.040  33.427  29.651  1.00  0.00     0.173 A 
ATOM     80  C   UNL A   1      45.003  34.105  27.588  1.00  0.00     0.173 A 
ATOM     81  F   UNL A   1      46.279  32.506  30.598  1.00  0.00    -0.203 F 
ATOM     82  C   UNL A   1      46.535  34.715  29.823  1.00  0.00     0.198 A 
ATOM     83  C   UNL A   1      45.520  35.386  27.752  1.00  0.00     0.198 A 
ATOM     84  F   UNL A   1      44.250  33.843  26.509  1.00  0.00    -0.203 F 
ATOM     85  F   UNL A   1      47.237  35.019  30.923  1.00  0.00    -0.200 F 
ATOM     86  C   UNL A   1      46.276  35.693  28.873  1.00  0.00     0.200 A 
ATOM     87  F   UNL A   1      45.270  36.330  26.834  1.00  0.00    -0.200 F 
ATOM     88  F   UNL A   1      46.740  36.938  29.049  1.00  0.00    -0.200 F 
ENDBRANCH  55  78
ENDBRANCH  29  30
ENDBRANCH  22  24
ENDBRANCH  21  22
ENDBRANCH  20  21
ENDBRANCH   1  20
TORSDOF 17
ENDMDL
MODEL 3
REMARK VINA RESULT:     -10.3      5.686     11.307
REMARK SMILES C#CCN(CC(=O)OCCOC(=O)c1ccc(-c2c3nc(c(-c4c(F)c(F)c(F)c(F)c4F)c4ccc([nH]4)c(-c4c(F)c(F)c(F)c(F)c4F)c4nc(c(-c5c(F)c(F)c(F)c(F)c5F)c5ccc2[nH]5)C=C4)C=C3)cc1)C(=O)/C=C/c1ccnn1C
REMARK SMILES IDX 9 1 8 2 6 3 7 4 5 5 4 6 3 7 2 8 1 9 77 10 78 11 79 12 80 13
REMARK SMILES IDX 81 14 82 15 85 16 83 17 84 18 86 19 10 20 11 21 12 22 13 23
REMARK SMILES IDX 14 24 15 25 76 26 16 27 75 28 17 29 18 30 19 31 69 32 20 33
REMARK SMILES IDX 74 34 68 35 70 36 21 37 73 38 67 39 66 40 22 42 54 43 34 44
REMARK SMILES IDX 53 45 35 46 38 47 52 48 71 49 36 50 37 51 51 53 72 54 39 55
REMARK SMILES IDX 23 56 24 57 32 58 25 59 26 60 30 61 33 62 27 63 28 64 31 65
REMARK SMILES IDX 29 66 55 67 56 68 64 69 57 70 58 71 62 72 65 73 59 74 60 75
REMARK SMILES IDX 63 76 61 77 40 78 41 79 49 80 42 81 43 82 47 83 50 84 44 85
REMARK SMILES IDX 45 86 48 87 46 88
REMARK H PARENT 70 41 38 52
REMARK Flexibility Score: inf
ROOT
ATOM      1  C   UNL A   1      38.726  21.727  25.728  1.00  0.00     0.274 C 
ENDROOT
BRANCH   1   2
ATOM      2  O   UNL A   1      37.280  21.726  25.829  1.00  0.00    -0.461 OA
BRANCH   2   3
ATOM      3  C   UNL A   1      36.649  22.717  25.140  1.00  0.00     0.325 C 
ATOM      4  O   UNL A   1      36.633  22.789  23.913  1.00  0.00    -0.250 OA
BRANCH   3   5
ATOM      5  C   UNL A   1      35.729  23.599  26.005  1.00  0.00     0.243 C 
BRANCH   5   6
ATOM      6  N   UNL A   1      34.336  23.230  26.161  1.00  0.00    -0.317 N 
BRANCH   6   7
ATOM      7  C   UNL A   1      33.423  24.365  26.138  1.00  0.00     0.210 C 
BRANCH   7   8
ATOM      8  C   UNL A   1      33.652  25.295  24.957  1.00  0.00    -0.085 C 
ATOM      9  C   UNL A   1      33.848  26.093  23.945  1.00  0.00     0.006 C 
ENDBRANCH   7   8
ENDBRANCH   6   7
BRANCH   6  10
ATOM     10  C   UNL A   1      33.815  21.971  26.406  1.00  0.00     0.247 C 
ATOM     11  O   UNL A   1      33.815  21.484  27.540  1.00  0.00    -0.270 OA
BRANCH  10  12
ATOM     12  C   UNL A   1      33.288  21.075  25.326  1.00  0.00     0.073 C 
ATOM     13  C   UNL A   1      33.283  19.733  25.381  1.00  0.00     0.033 C 
BRANCH  13  14
ATOM     14  C   UNL A   1      33.078  18.854  24.265  1.00  0.00     0.061 A 
ATOM     15  C   UNL A   1      32.158  19.006  23.237  1.00  0.00     0.050 A 
ATOM     16  N   UNL A   1      33.761  17.689  23.939  1.00  0.00    -0.269 N 
ATOM     17  C   UNL A   1      32.388  17.956  22.342  1.00  0.00     0.136 A 
ATOM     18  N   UNL A   1      33.388  17.179  22.738  1.00  0.00    -0.181 NA
ATOM     19  C   UNL A   1      34.791  16.941  24.615  1.00  0.00     0.174 C 
ENDBRANCH  13  14
ENDBRANCH  10  12
ENDBRANCH   6  10
ENDBRANCH   5   6
ENDBRANCH   3   5
ENDBRANCH   2   3
ENDBRANCH   1   2
BRANCH   1  20
ATOM     20  C   UNL A   1      39.357  20.318  25.595  1.00  0.00     0.275 C 
BRANCH  20  21
ATOM     21  O   UNL A   1      40.351  19.994  26.602  1.00  0.00    -0.458 OA
BRANCH  21  22
ATOM     22  C   UNL A   1      41.588  20.307  26.174  1.00  0.00     0.338 C 
ATOM     23  O   UNL A   1      42.261  19.583  25.459  1.00  0.00    -0.246 OA
BRANCH  22  24
ATOM     24  C   UNL A   1      42.191  21.582  26.556  1.00  0.00     0.060 A 
ATOM     25  C   UNL A   1      42.260  21.891  27.920  1.00  0.00     0.016 A 
ATOM     26  C   UNL A   1      42.168  22.604  25.603  1.00  0.00     0.016 A 
ATOM     27  C   UNL A   1      42.243  23.222  28.336  1.00  0.00     0.010 A 
ATOM     28  C   UNL A   1      42.210  23.936  26.015  1.00  0.00     0.010 A 
ATOM     29  C   UNL A   1      42.244  24.254  27.383  1.00  0.00    -0.014 A 
BRANCH  29  30
ATOM     30  C   UNL A   1      42.627  25.624  27.786  1.00  0.00     0.031 A 
ATOM     31  C   UNL A   1      41.690  26.605  28.417  1.00  0.00     0.074 A 
ATOM     32  C   UNL A   1      43.870  25.990  27.422  1.00  0.00     0.049 A 
ATOM     33  N   UNL A   1      41.892  27.872  28.683  1.00  0.00    -0.248 NA
ATOM     34  C   UNL A   1      40.361  26.117  28.800  1.00  0.00     0.031 C 
ATOM     35  C   UNL A   1      44.838  25.105  26.766  1.00  0.00     0.029 A 
ATOM     36  N   UNL A   1      44.512  27.193  27.496  1.00  0.00    -0.354 N 
ATOM     37  C   UNL A   1      40.718  28.339  29.259  1.00  0.00     0.074 A 
ATOM     38  C   UNL A   1      39.798  27.217  29.292  1.00  0.00     0.031 C 
ATOM     39  C   UNL A   1      45.930  25.806  26.450  1.00  0.00     0.029 A 
ATOM     40  C   UNL A   1      45.722  27.189  26.853  1.00  0.00     0.049 A 
ATOM     41  H   UNL A   1      44.144  27.980  27.961  1.00  0.00     0.167 HD
ATOM     42  C   UNL A   1      40.452  29.588  29.715  1.00  0.00     0.037 A 
ATOM     43  C   UNL A   1      46.566  28.194  26.575  1.00  0.00     0.037 A 
ATOM     44  C   UNL A   1      41.398  30.682  29.678  1.00  0.00     0.049 A 
ATOM     45  C   UNL A   1      46.249  29.557  27.085  1.00  0.00     0.074 A 
ATOM     46  C   UNL A   1      41.270  31.955  30.209  1.00  0.00     0.029 A 
ATOM     47  N   UNL A   1      42.640  30.636  29.059  1.00  0.00    -0.354 N 
ATOM     48  N   UNL A   1      45.169  29.970  27.700  1.00  0.00    -0.248 NA
ATOM     49  C   UNL A   1      47.277  30.582  26.897  1.00  0.00     0.031 C 
ATOM     50  C   UNL A   1      42.415  32.691  29.874  1.00  0.00     0.029 A 
ATOM     51  C   UNL A   1      43.276  31.864  29.172  1.00  0.00     0.049 A 
ATOM     52  H   UNL A   1      43.015  29.846  28.606  1.00  0.00     0.167 HD
ATOM     53  C   UNL A   1      45.393  31.301  28.000  1.00  0.00     0.074 A 
ATOM     54  C   UNL A   1      46.716  31.623  27.497  1.00  0.00     0.031 C 
ATOM     55  C   UNL A   1      44.581  32.172  28.646  1.00  0.00     0.037 A 
BRANCH  42  56
ATOM     56  C   UNL A   1      39.098  29.870  30.304  1.00  0.00     0.064 A 
ATOM     57  C   UNL A   1      38.882  29.861  31.690  1.00  0.00     0.173 A 
ATOM     58  C   UNL A   1      38.038  30.283  29.481  1.00  0.00     0.173 A 
ATOM     59  F   UNL A   1      39.861  29.478  32.524  1.00  0.00    -0.203 F 
ATOM     60  C   UNL A   1      37.656  30.250  32.229  1.00  0.00     0.198 A 
ATOM     61  C   UNL A   1      36.820  30.691  30.024  1.00  0.00     0.198 A 
ATOM     62  F   UNL A   1      38.194  30.326  28.149  1.00  0.00    -0.203 F 
ATOM     63  F   UNL A   1      37.470  30.224  33.556  1.00  0.00    -0.200 F 
ATOM     64  C   UNL A   1      36.630  30.674  31.397  1.00  0.00     0.200 A 
ATOM     65  F   UNL A   1      35.837  31.116  29.218  1.00  0.00    -0.200 F 
ATOM     66  F   UNL A   1      35.461  31.072  31.919  1.00  0.00    -0.200 F 
ENDBRANCH  42  56
BRANCH  43  67
ATOM     67  C   UNL A   1      47.788  27.883  25.804  1.00  0.00     0.064 A 
ATOM     68  C   UNL A   1      48.971  27.529  26.460  1.00  0.00     0.173 A 
ATOM     69  C   UNL A   1      47.744  27.775  24.406  1.00  0.00     0.173 A 
ATOM     70  F   UNL A   1      49.045  27.611  27.796  1.00  0.00    -0.203 F 
ATOM     71  C   UNL A   1      50.072  27.070  25.744  1.00  0.00     0.198 A 
ATOM     72  C   UNL A   1      48.839  27.296  23.693  1.00  0.00     0.198 A 
ATOM     73  F   UNL A   1      46.615  28.069  23.743  1.00  0.00    -0.203 F 
ATOM     74  F   UNL A   1      51.192  26.727  26.392  1.00  0.00    -0.200 F 
ATOM     75  C   UNL A   1      50.000  26.943  24.363  1.00  0.00     0.200 A 
ATOM     76  F   UNL A   1      48.757  27.144  22.365  1.00  0.00    -0.200 F 
ATOM     77  F   UNL A   1      51.049  26.462  23.680  1.00  0.00    -0.200 F 
ENDBRANCH  43  67
BRANCH  55  78
ATOM     78  C   UNL A   1      45.129  33.549  28.856  1.00  0.00     0.064 A 
ATOM     79  C   UNL A   1      45.881  33.869  29.996  1.00  0.00     0.173 A 
ATOM     80  C   UNL A   1      44.869  34.565  27.926  1.00  0.00     0.173 A 
ATOM     81  F   UNL A   1      46.130  32.932  30.924  1.00  0.00    -0.203 F 
ATOM     82  C   UNL A   1      46.325  35.168  30.214  1.00  0.00     0.198 A 
ATOM     83  C   UNL A   1      45.335  35.858  28.137  1.00  0.00     0.198 A 
ATOM     84  F   UNL A   1      44.152  34.305  26.823  1.00  0.00    -0.203 F 
ATOM     85  F   UNL A   1      46.989  35.468  31.339  1.00  0.00    -0.200 F 
ATOM     86  C   UNL A   1      46.053  36.162  29.284  1.00  0.00     0.200 A 
ATOM     87  F   UNL A   1      45.073  36.818  27.238  1.00  0.00    -0.200 F 
ATOM     88  F   UNL A   1      46.468  37.417  29.504  1.00  0.00    -0.200 F 
ENDBRANCH  55  78
ENDBRANCH  29  30
ENDBRANCH  22  24
ENDBRANCH  21  22
ENDBRANCH  20  21
ENDBRANCH   1  20
TORSDOF 17
ENDMDL
