MODEL 1
REMARK VINA RESULT:     -12.9      0.000      0.000
REMARK SMILES Cc1c(C(=O)OCCOC(=O)c2ccc(-c3c4nc(c(-c5c(F)c(F)c(F)c(F)c5F)c5ccc([nH]5)c(-c5c(F)c(F)c(F)c(F)c5F)c5nc(c(-c6c(F)c(F)c(F)c(F)c6F)c6ccc3[nH]6)C=C5)C=C4)cc2)cccc1N1[C@@H](C)C=C(/C=C(\C#N)C(=O)NCCc2c[nH]c3ccccc23)[C@@H]1C
REMARK SMILES IDX 4 1 5 2 3 3 1 4 2 5 78 6 75 7 77 8 76 9 79 10 80 11 102 12
REMARK SMILES IDX 82 13 81 14 83 15 103 16 84 17 85 18 86 19 87 20 88 21 89 22
REMARK SMILES IDX 90 23 91 25 92 26 93 27 94 28 101 29 95 30 96 31 100 32
REMARK SMILES IDX 97 34 99 35 98 36 6 37 7 38 8 39 9 40 10 41 11 42 12 43
REMARK SMILES IDX 13 44 74 45 14 46 73 47 15 48 16 49 17 50 67 51 18 52 72 53
REMARK SMILES IDX 66 54 68 55 19 56 71 57 65 58 64 59 20 61 52 62 32 63 51 64
REMARK SMILES IDX 33 65 36 66 50 67 69 68 34 69 35 70 49 72 70 73 37 74 21 75
REMARK SMILES IDX 22 76 30 77 23 78 24 79 28 80 31 81 25 82 26 83 29 84 27 85
REMARK SMILES IDX 53 86 54 87 62 88 55 89 56 90 60 91 63 92 57 93 58 94 61 95
REMARK SMILES IDX 59 96 38 97 39 98 47 99 40 100 41 101 45 102 48 103 42 104
REMARK SMILES IDX 43 105 46 106 44 107
REMARK H PARENT 90 24 95 33 68 60 36 71
REMARK Flexibility Score: inf
ROOT
ATOM      1  C   UNL A   1      34.162  33.430  28.079  1.00  0.00     0.338 C 
ATOM      2  O   UNL A   1      34.637  34.196  27.251  1.00  0.00    -0.246 OA
ENDROOT
BRANCH   1   3
ATOM      3  C   UNL A   1      34.472  32.000  27.999  1.00  0.00     0.065 A 
ATOM      4  C   UNL A   1      32.108  31.789  27.216  1.00  0.00     0.047 C 
ATOM      5  C   UNL A   1      33.502  31.218  27.354  1.00  0.00    -0.013 A 
ATOM      6  C   UNL A   1      33.860  29.932  26.922  1.00  0.00     0.041 A 
ATOM      7  C   UNL A   1      35.721  31.478  28.350  1.00  0.00     0.016 A 
ATOM      8  C   UNL A   1      35.170  29.467  27.161  1.00  0.00     0.026 A 
ATOM      9  C   UNL A   1      36.083  30.215  27.898  1.00  0.00     0.003 A 
BRANCH   6  10
ATOM     10  N   UNL A   1      32.938  29.016  26.459  1.00  0.00    -0.358 N 
ATOM     11  C   UNL A   1      32.844  28.876  24.992  1.00  0.00     0.103 C 
ATOM     12  C   UNL A   1      32.587  27.782  27.173  1.00  0.00     0.110 C 
ATOM     13  C   UNL A   1      32.573  27.417  24.858  1.00  0.00     0.003 C 
ATOM     14  C   UNL A   1      34.140  29.180  24.220  1.00  0.00     0.035 C 
ATOM     15  C   UNL A   1      32.582  26.785  26.038  1.00  0.00    -0.026 C 
ATOM     16  C   UNL A   1      31.223  27.939  27.842  1.00  0.00     0.036 C 
BRANCH  15  17
ATOM     17  C   UNL A   1      32.609  25.359  26.256  1.00  0.00     0.031 C 
ATOM     18  C   UNL A   1      31.550  24.535  26.425  1.00  0.00     0.117 C 
BRANCH  18  19
ATOM     19  C   UNL A   1      30.204  24.972  26.379  1.00  0.00     0.105 C 
ATOM     20  N   UNL A   1      29.104  25.359  26.329  1.00  0.00    -0.192 NA
ENDBRANCH  18  19
BRANCH  18  21
ATOM     21  C   UNL A   1      31.881  23.176  26.931  1.00  0.00     0.261 C 
ATOM     22  O   UNL A   1      32.375  23.010  28.047  1.00  0.00    -0.268 OA
ATOM     23  N   UNL A   1      31.395  22.088  26.277  1.00  0.00    -0.351 N 
ATOM     24  H   UNL A   1      30.863  21.482  26.842  1.00  0.00     0.163 HD
BRANCH  23  25
ATOM     25  C   UNL A   1      31.519  21.651  24.879  1.00  0.00     0.121 C 
BRANCH  25  26
ATOM     26  C   UNL A   1      32.328  20.336  24.670  1.00  0.00     0.059 C 
BRANCH  26  27
ATOM     27  C   UNL A   1      33.801  20.562  24.327  1.00  0.00    -0.021 A 
ATOM     28  C   UNL A   1      34.834  19.814  24.887  1.00  0.00     0.087 A 
ATOM     29  C   UNL A   1      34.434  21.844  24.244  1.00  0.00     0.003 A 
ATOM     30  N   UNL A   1      35.202  20.654  25.939  1.00  0.00    -0.361 N 
ATOM     31  C   UNL A   1      35.078  21.949  25.478  1.00  0.00     0.046 A 
ATOM     32  C   UNL A   1      34.475  22.946  23.373  1.00  0.00     0.010 A 
ATOM     33  H   UNL A   1      35.495  20.377  26.837  1.00  0.00     0.166 HD
ATOM     34  C   UNL A   1      35.533  23.151  26.009  1.00  0.00     0.026 A 
ATOM     35  C   UNL A   1      35.130  24.109  23.810  1.00  0.00     0.001 A 
ATOM     36  C   UNL A   1      35.577  24.232  25.128  1.00  0.00     0.002 A 
ENDBRANCH  26  27
ENDBRANCH  25  26
ENDBRANCH  23  25
ENDBRANCH  18  21
ENDBRANCH  15  17
ENDBRANCH   6  10
ENDBRANCH   1   3
BRANCH   1  37
ATOM     37  O   UNL A   1      33.249  33.761  29.017  1.00  0.00    -0.458 OA
BRANCH  37  38
ATOM     38  C   UNL A   1      33.408  35.118  29.446  1.00  0.00     0.275 C 
BRANCH  38  39
ATOM     39  C   UNL A   1      33.602  35.247  30.958  1.00  0.00     0.275 C 
BRANCH  39  40
ATOM     40  O   UNL A   1      34.745  34.619  31.611  1.00  0.00    -0.458 OA
BRANCH  40  41
ATOM     41  C   UNL A   1      34.859  33.317  31.973  1.00  0.00     0.338 C 
ATOM     42  O   UNL A   1      33.950  32.699  32.509  1.00  0.00    -0.246 OA
BRANCH  41  43
ATOM     43  C   UNL A   1      36.163  32.677  31.713  1.00  0.00     0.060 A 
ATOM     44  C   UNL A   1      37.124  33.337  30.920  1.00  0.00     0.016 A 
ATOM     45  C   UNL A   1      36.480  31.509  32.390  1.00  0.00     0.016 A 
ATOM     46  C   UNL A   1      38.440  32.901  30.904  1.00  0.00     0.010 A 
ATOM     47  C   UNL A   1      37.798  31.183  32.526  1.00  0.00     0.010 A 
ATOM     48  C   UNL A   1      38.756  31.829  31.728  1.00  0.00    -0.014 A 
BRANCH  48  49
ATOM     49  C   UNL A   1      39.967  31.048  31.596  1.00  0.00     0.031 A 
ATOM     50  C   UNL A   1      39.968  29.804  30.815  1.00  0.00     0.074 A 
ATOM     51  C   UNL A   1      41.004  31.746  32.118  1.00  0.00     0.049 A 
ATOM     52  N   UNL A   1      40.726  28.796  31.068  1.00  0.00    -0.248 NA
ATOM     53  C   UNL A   1      39.055  29.536  29.700  1.00  0.00     0.031 C 
ATOM     54  C   UNL A   1      42.441  31.674  31.973  1.00  0.00     0.029 A 
ATOM     55  N   UNL A   1      40.838  32.774  33.077  1.00  0.00    -0.354 N 
ATOM     56  C   UNL A   1      40.732  28.036  29.913  1.00  0.00     0.074 A 
ATOM     57  C   UNL A   1      39.519  28.375  29.219  1.00  0.00     0.031 C 
ATOM     58  C   UNL A   1      43.003  32.309  33.028  1.00  0.00     0.029 A 
ATOM     59  C   UNL A   1      41.929  32.693  33.939  1.00  0.00     0.049 A 
ATOM     60  H   UNL A   1      40.097  33.420  33.126  1.00  0.00     0.167 HD
ATOM     61  C   UNL A   1      41.908  27.475  29.508  1.00  0.00     0.037 A 
ATOM     62  C   UNL A   1      41.667  32.183  35.182  1.00  0.00     0.037 A 
ATOM     63  C   UNL A   1      42.970  27.888  30.422  1.00  0.00     0.049 A 
ATOM     64  C   UNL A   1      42.271  30.804  35.331  1.00  0.00     0.074 A 
ATOM     65  C   UNL A   1      43.915  28.899  30.371  1.00  0.00     0.029 A 
ATOM     66  N   UNL A   1      42.872  27.532  31.751  1.00  0.00    -0.354 N 
ATOM     67  N   UNL A   1      42.591  30.032  34.328  1.00  0.00    -0.248 NA
ATOM     68  C   UNL A   1      42.526  30.178  36.621  1.00  0.00     0.031 C 
ATOM     69  C   UNL A   1      44.418  29.103  31.688  1.00  0.00     0.029 A 
ATOM     70  C   UNL A   1      43.745  28.248  32.539  1.00  0.00     0.049 A 
ATOM     71  H   UNL A   1      42.253  26.848  32.094  1.00  0.00     0.167 HD
ATOM     72  C   UNL A   1      43.177  28.890  34.793  1.00  0.00     0.074 A 
ATOM     73  C   UNL A   1      43.025  28.989  36.237  1.00  0.00     0.031 C 
ATOM     74  C   UNL A   1      43.758  27.970  33.963  1.00  0.00     0.037 A 
BRANCH  61  75
ATOM     75  C   UNL A   1      42.187  26.856  28.158  1.00  0.00     0.064 A 
ATOM     76  C   UNL A   1      42.346  25.456  28.034  1.00  0.00     0.173 A 
ATOM     77  C   UNL A   1      42.269  27.569  26.946  1.00  0.00     0.173 A 
ATOM     78  F   UNL A   1      42.222  24.637  29.086  1.00  0.00    -0.203 F 
ATOM     79  C   UNL A   1      42.631  24.830  26.821  1.00  0.00     0.198 A 
ATOM     80  C   UNL A   1      42.576  26.940  25.730  1.00  0.00     0.198 A 
ATOM     81  F   UNL A   1      42.012  28.883  26.894  1.00  0.00    -0.203 F 
ATOM     82  F   UNL A   1      42.776  23.497  26.783  1.00  0.00    -0.200 F 
ATOM     83  C   UNL A   1      42.762  25.572  25.670  1.00  0.00     0.200 A 
ATOM     84  F   UNL A   1      42.680  27.668  24.608  1.00  0.00    -0.200 F 
ATOM     85  F   UNL A   1      43.044  24.968  24.506  1.00  0.00    -0.200 F 
ENDBRANCH  61  75
BRANCH  62  86
ATOM     86  C   UNL A   1      40.320  32.601  35.727  1.00  0.00     0.064 A 
ATOM     87  C   UNL A   1      39.314  31.617  35.897  1.00  0.00     0.173 A 
ATOM     88  C   UNL A   1      40.103  33.829  36.365  1.00  0.00     0.173 A 
ATOM     89  F   UNL A   1      39.445  30.413  35.315  1.00  0.00    -0.203 F 
ATOM     90  C   UNL A   1      38.229  31.806  36.756  1.00  0.00     0.198 A 
ATOM     91  C   UNL A   1      38.990  34.031  37.193  1.00  0.00     0.198 A 
ATOM     92  F   UNL A   1      41.004  34.815  36.272  1.00  0.00    -0.203 F 
ATOM     93  F   UNL A   1      37.390  30.791  37.010  1.00  0.00    -0.200 F 
ATOM     94  C   UNL A   1      38.073  33.013  37.409  1.00  0.00     0.200 A 
ATOM     95  F   UNL A   1      38.862  35.182  37.870  1.00  0.00    -0.200 F 
ATOM     96  F   UNL A   1      37.084  33.174  38.301  1.00  0.00    -0.200 F 
ENDBRANCH  62  86
BRANCH  74  97
ATOM     97  C   UNL A   1      44.391  26.685  34.422  1.00  0.00     0.064 A 
ATOM     98  C   UNL A   1      45.775  26.496  34.456  1.00  0.00     0.173 A 
ATOM     99  C   UNL A   1      43.613  25.557  34.784  1.00  0.00     0.173 A 
ATOM    100  F   UNL A   1      46.612  27.413  33.950  1.00  0.00    -0.203 F 
ATOM    101  C   UNL A   1      46.340  25.333  34.977  1.00  0.00     0.198 A 
ATOM    102  C   UNL A   1      44.178  24.374  35.239  1.00  0.00     0.198 A 
ATOM    103  F   UNL A   1      42.275  25.549  34.732  1.00  0.00    -0.203 F 
ATOM    104  F   UNL A   1      47.672  25.240  35.088  1.00  0.00    -0.200 F 
ATOM    105  C   UNL A   1      45.543  24.277  35.377  1.00  0.00     0.200 A 
ATOM    106  F   UNL A   1      43.384  23.342  35.556  1.00  0.00    -0.200 F 
ATOM    107  F   UNL A   1      46.087  23.163  35.882  1.00  0.00    -0.200 F 
ENDBRANCH  74  97
ENDBRANCH  48  49
ENDBRANCH  41  43
ENDBRANCH  40  41
ENDBRANCH  39  40
ENDBRANCH  38  39
ENDBRANCH  37  38
ENDBRANCH   1  37
TORSDOF 18
ENDMDL
MODEL 2
REMARK VINA RESULT:     -12.8      3.483     10.836
REMARK SMILES Cc1c(C(=O)OCCOC(=O)c2ccc(-c3c4nc(c(-c5c(F)c(F)c(F)c(F)c5F)c5ccc([nH]5)c(-c5c(F)c(F)c(F)c(F)c5F)c5nc(c(-c6c(F)c(F)c(F)c(F)c6F)c6ccc3[nH]6)C=C5)C=C4)cc2)cccc1N1[C@@H](C)C=C(/C=C(\C#N)C(=O)NCCc2c[nH]c3ccccc23)[C@@H]1C
REMARK SMILES IDX 4 1 5 2 3 3 1 4 2 5 78 6 75 7 77 8 76 9 79 10 80 11 102 12
REMARK SMILES IDX 82 13 81 14 83 15 103 16 84 17 85 18 86 19 87 20 88 21 89 22
REMARK SMILES IDX 90 23 91 25 92 26 93 27 94 28 101 29 95 30 96 31 100 32
REMARK SMILES IDX 97 34 99 35 98 36 6 37 7 38 8 39 9 40 10 41 11 42 12 43
REMARK SMILES IDX 13 44 74 45 14 46 73 47 15 48 16 49 17 50 67 51 18 52 72 53
REMARK SMILES IDX 66 54 68 55 19 56 71 57 65 58 64 59 20 61 52 62 32 63 51 64
REMARK SMILES IDX 33 65 36 66 50 67 69 68 34 69 35 70 49 72 70 73 37 74 21 75
REMARK SMILES IDX 22 76 30 77 23 78 24 79 28 80 31 81 25 82 26 83 29 84 27 85
REMARK SMILES IDX 53 86 54 87 62 88 55 89 56 90 60 91 63 92 57 93 58 94 61 95
REMARK SMILES IDX 59 96 38 97 39 98 47 99 40 100 41 101 45 102 48 103 42 104
REMARK SMILES IDX 43 105 46 106 44 107
REMARK H PARENT 90 24 95 33 68 60 36 71
REMARK Flexibility Score: inf
ROOT
ATOM      1  C   UNL A   1      35.592  22.766  23.801  1.00  0.00     0.338 C 
ATOM      2  O   UNL A   1      36.351  22.857  22.845  1.00  0.00    -0.246 OA
ENDROOT
BRANCH   1   3
ATOM      3  C   UNL A   1      34.272  23.400  23.737  1.00  0.00     0.065 A 
ATOM      4  C   UNL A   1      35.262  25.038  25.344  1.00  0.00     0.047 C 
ATOM      5  C   UNL A   1      34.191  24.663  24.343  1.00  0.00    -0.013 A 
ATOM      6  C   UNL A   1      33.097  25.484  24.032  1.00  0.00     0.041 A 
ATOM      7  C   UNL A   1      33.226  22.890  22.961  1.00  0.00     0.016 A 
ATOM      8  C   UNL A   1      32.115  25.010  23.137  1.00  0.00     0.026 A 
ATOM      9  C   UNL A   1      32.157  23.714  22.632  1.00  0.00     0.003 A 
BRANCH   6  10
ATOM     10  N   UNL A   1      32.821  26.650  24.715  1.00  0.00    -0.358 N 
ATOM     11  C   UNL A   1      31.922  26.523  25.880  1.00  0.00     0.103 C 
ATOM     12  C   UNL A   1      33.773  27.761  24.848  1.00  0.00     0.110 C 
ATOM     13  C   UNL A   1      32.508  27.530  26.808  1.00  0.00     0.003 C 
ATOM     14  C   UNL A   1      31.963  25.159  26.591  1.00  0.00     0.035 C 
ATOM     15  C   UNL A   1      33.612  28.103  26.311  1.00  0.00    -0.026 C 
ATOM     16  C   UNL A   1      33.374  28.902  23.915  1.00  0.00     0.036 C 
BRANCH  15  17
ATOM     17  C   UNL A   1      34.561  28.920  27.028  1.00  0.00     0.031 C 
ATOM     18  C   UNL A   1      34.426  30.220  27.376  1.00  0.00     0.117 C 
BRANCH  18  19
ATOM     19  C   UNL A   1      33.269  30.987  27.100  1.00  0.00     0.105 C 
ATOM     20  N   UNL A   1      32.305  31.597  26.855  1.00  0.00    -0.192 NA
ENDBRANCH  18  19
BRANCH  18  21
ATOM     21  C   UNL A   1      35.676  30.884  27.834  1.00  0.00     0.261 C 
ATOM     22  O   UNL A   1      36.780  30.372  27.647  1.00  0.00    -0.268 OA
ATOM     23  N   UNL A   1      35.630  32.186  28.223  1.00  0.00    -0.351 N 
ATOM     24  H   UNL A   1      36.244  32.776  27.730  1.00  0.00     0.163 HD
BRANCH  23  25
ATOM     25  C   UNL A   1      34.830  32.872  29.249  1.00  0.00     0.121 C 
BRANCH  25  26
ATOM     26  C   UNL A   1      34.661  34.406  29.034  1.00  0.00     0.059 C 
BRANCH  26  27
ATOM     27  C   UNL A   1      33.457  35.005  29.764  1.00  0.00    -0.021 A 
ATOM     28  C   UNL A   1      32.668  36.017  29.223  1.00  0.00     0.087 A 
ATOM     29  C   UNL A   1      33.445  35.384  31.144  1.00  0.00     0.003 A 
ATOM     30  N   UNL A   1      33.268  37.133  29.806  1.00  0.00    -0.361 N 
ATOM     31  C   UNL A   1      33.638  36.765  31.084  1.00  0.00     0.046 A 
ATOM     32  C   UNL A   1      33.400  34.770  32.407  1.00  0.00     0.010 A 
ATOM     33  H   UNL A   1      33.402  38.014  29.388  1.00  0.00     0.166 HD
ATOM     34  C   UNL A   1      34.047  37.533  32.169  1.00  0.00     0.026 A 
ATOM     35  C   UNL A   1      33.593  35.577  33.542  1.00  0.00     0.001 A 
ATOM     36  C   UNL A   1      33.987  36.912  33.416  1.00  0.00     0.002 A 
ENDBRANCH  26  27
ENDBRANCH  25  26
ENDBRANCH  23  25
ENDBRANCH  18  21
ENDBRANCH  15  17
ENDBRANCH   6  10
ENDBRANCH   1   3
BRANCH   1  37
ATOM     37  O   UNL A   1      35.904  22.227  24.999  1.00  0.00    -0.458 OA
BRANCH  37  38
ATOM     38  C   UNL A   1      36.325  20.865  24.866  1.00  0.00     0.275 C 
BRANCH  38  39
ATOM     39  C   UNL A   1      37.835  20.688  25.026  1.00  0.00     0.275 C 
BRANCH  39  40
ATOM     40  O   UNL A   1      38.641  21.743  25.631  1.00  0.00    -0.458 OA
BRANCH  40  41
ATOM     41  C   UNL A   1      39.744  21.581  26.403  1.00  0.00     0.338 C 
ATOM     42  O   UNL A   1      40.314  20.506  26.522  1.00  0.00    -0.246 OA
BRANCH  41  43
ATOM     43  C   UNL A   1      40.215  22.775  27.130  1.00  0.00     0.060 A 
ATOM     44  C   UNL A   1      41.136  22.637  28.188  1.00  0.00     0.016 A 
ATOM     45  C   UNL A   1      39.864  24.029  26.652  1.00  0.00     0.016 A 
ATOM     46  C   UNL A   1      41.808  23.744  28.684  1.00  0.00     0.010 A 
ATOM     47  C   UNL A   1      40.644  25.092  27.003  1.00  0.00     0.010 A 
ATOM     48  C   UNL A   1      41.554  24.961  28.064  1.00  0.00    -0.014 A 
BRANCH  48  49
ATOM     49  C   UNL A   1      41.899  26.241  28.645  1.00  0.00     0.031 A 
ATOM     50  C   UNL A   1      40.868  27.268  28.845  1.00  0.00     0.074 A 
ATOM     51  C   UNL A   1      43.178  26.197  29.087  1.00  0.00     0.049 A 
ATOM     52  N   UNL A   1      41.094  28.533  28.801  1.00  0.00    -0.248 NA
ATOM     53  C   UNL A   1      39.446  26.972  29.049  1.00  0.00     0.031 C 
ATOM     54  C   UNL A   1      43.946  26.982  30.028  1.00  0.00     0.029 A 
ATOM     55  N   UNL A   1      44.137  25.282  28.589  1.00  0.00    -0.354 N 
ATOM     56  C   UNL A   1      40.015  29.126  29.430  1.00  0.00     0.074 A 
ATOM     57  C   UNL A   1      38.937  28.180  29.329  1.00  0.00     0.031 C 
ATOM     58  C   UNL A   1      45.259  26.781  29.772  1.00  0.00     0.029 A 
ATOM     59  C   UNL A   1      45.357  25.953  28.573  1.00  0.00     0.049 A 
ATOM     60  H   UNL A   1      43.974  24.352  28.310  1.00  0.00     0.167 HD
ATOM     61  C   UNL A   1      40.246  30.185  30.260  1.00  0.00     0.037 A 
ATOM     62  C   UNL A   1      45.813  26.326  27.338  1.00  0.00     0.037 A 
ATOM     63  C   UNL A   1      41.686  30.420  30.339  1.00  0.00     0.049 A 
ATOM     64  C   UNL A   1      45.721  27.826  27.165  1.00  0.00     0.074 A 
ATOM     65  C   UNL A   1      42.655  30.030  31.248  1.00  0.00     0.029 A 
ATOM     66  N   UNL A   1      42.364  30.748  29.184  1.00  0.00    -0.354 N 
ATOM     67  N   UNL A   1      44.935  28.598  27.865  1.00  0.00    -0.248 NA
ATOM     68  C   UNL A   1      46.483  28.564  26.166  1.00  0.00     0.031 C 
ATOM     69  C   UNL A   1      43.930  30.182  30.630  1.00  0.00     0.029 A 
ATOM     70  C   UNL A   1      43.727  30.620  29.336  1.00  0.00     0.049 A 
ATOM     71  H   UNL A   1      41.927  31.040  28.352  1.00  0.00     0.167 HD
ATOM     72  C   UNL A   1      45.140  29.902  27.519  1.00  0.00     0.074 A 
ATOM     73  C   UNL A   1      46.049  29.818  26.385  1.00  0.00     0.031 C 
ATOM     74  C   UNL A   1      44.570  30.943  28.201  1.00  0.00     0.037 A 
BRANCH  61  75
ATOM     75  C   UNL A   1      39.265  30.785  31.240  1.00  0.00     0.064 A 
ATOM     76  C   UNL A   1      39.113  30.226  32.530  1.00  0.00     0.173 A 
ATOM     77  C   UNL A   1      38.478  31.926  30.995  1.00  0.00     0.173 A 
ATOM     78  F   UNL A   1      39.847  29.182  32.937  1.00  0.00    -0.203 F 
ATOM     79  C   UNL A   1      38.205  30.718  33.468  1.00  0.00     0.198 A 
ATOM     80  C   UNL A   1      37.551  32.408  31.932  1.00  0.00     0.198 A 
ATOM     81  F   UNL A   1      38.612  32.634  29.864  1.00  0.00    -0.203 F 
ATOM     82  F   UNL A   1      38.111  30.130  34.669  1.00  0.00    -0.200 F 
ATOM     83  C   UNL A   1      37.412  31.800  33.165  1.00  0.00     0.200 A 
ATOM     84  F   UNL A   1      36.796  33.477  31.636  1.00  0.00    -0.200 F 
ATOM     85  F   UNL A   1      36.535  32.267  34.065  1.00  0.00    -0.200 F 
ENDBRANCH  61  75
BRANCH  62  86
ATOM     86  C   UNL A   1      45.510  25.311  26.259  1.00  0.00     0.064 A 
ATOM     87  C   UNL A   1      46.341  24.169  26.138  1.00  0.00     0.173 A 
ATOM     88  C   UNL A   1      44.287  25.264  25.577  1.00  0.00     0.173 A 
ATOM     89  F   UNL A   1      47.532  24.135  26.760  1.00  0.00    -0.203 F 
ATOM     90  C   UNL A   1      45.918  23.009  25.488  1.00  0.00     0.198 A 
ATOM     91  C   UNL A   1      43.883  24.112  24.888  1.00  0.00     0.198 A 
ATOM     92  F   UNL A   1      43.430  26.292  25.642  1.00  0.00    -0.203 F 
ATOM     93  F   UNL A   1      46.671  21.899  25.537  1.00  0.00    -0.200 F 
ATOM     94  C   UNL A   1      44.684  22.980  24.869  1.00  0.00     0.200 A 
ATOM     95  F   UNL A   1      42.665  24.062  24.330  1.00  0.00    -0.200 F 
ATOM     96  F   UNL A   1      44.232  21.844  24.316  1.00  0.00    -0.200 F 
ENDBRANCH  62  86
BRANCH  74  97
ATOM     97  C   UNL A   1      44.743  32.394  27.843  1.00  0.00     0.064 A 
ATOM     98  C   UNL A   1      45.380  33.309  28.686  1.00  0.00     0.173 A 
ATOM     99  C   UNL A   1      44.202  32.939  26.651  1.00  0.00     0.173 A 
ATOM    100  F   UNL A   1      45.756  32.962  29.925  1.00  0.00    -0.203 F 
ATOM    101  C   UNL A   1      45.614  34.625  28.292  1.00  0.00     0.198 A 
ATOM    102  C   UNL A   1      44.377  34.268  26.290  1.00  0.00     0.198 A 
ATOM    103  F   UNL A   1      43.497  32.213  25.774  1.00  0.00    -0.203 F 
ATOM    104  F   UNL A   1      46.323  35.435  29.089  1.00  0.00    -0.200 F 
ATOM    105  C   UNL A   1      45.122  35.101  27.091  1.00  0.00     0.200 A 
ATOM    106  F   UNL A   1      43.831  34.720  25.153  1.00  0.00    -0.200 F 
ATOM    107  F   UNL A   1      45.351  36.364  26.711  1.00  0.00    -0.200 F 
ENDBRANCH  74  97
ENDBRANCH  48  49
ENDBRANCH  41  43
ENDBRANCH  40  41
ENDBRANCH  39  40
ENDBRANCH  38  39
ENDBRANCH  37  38
ENDBRANCH   1  37
TORSDOF 18
ENDMDL
MODEL 3
REMARK VINA RESULT:     -12.6      3.623     10.250
REMARK SMILES Cc1c(C(=O)OCCOC(=O)c2ccc(-c3c4nc(c(-c5c(F)c(F)c(F)c(F)c5F)c5ccc([nH]5)c(-c5c(F)c(F)c(F)c(F)c5F)c5nc(c(-c6c(F)c(F)c(F)c(F)c6F)c6ccc3[nH]6)C=C5)C=C4)cc2)cccc1N1[C@@H](C)C=C(/C=C(\C#N)C(=O)NCCc2c[nH]c3ccccc23)[C@@H]1C
REMARK SMILES IDX 4 1 5 2 3 3 1 4 2 5 78 6 75 7 77 8 76 9 79 10 80 11 102 12
REMARK SMILES IDX 82 13 81 14 83 15 103 16 84 17 85 18 86 19 87 20 88 21 89 22
REMARK SMILES IDX 90 23 91 25 92 26 93 27 94 28 101 29 95 30 96 31 100 32
REMARK SMILES IDX 97 34 99 35 98 36 6 37 7 38 8 39 9 40 10 41 11 42 12 43
REMARK SMILES IDX 13 44 74 45 14 46 73 47 15 48 16 49 17 50 67 51 18 52 72 53
REMARK SMILES IDX 66 54 68 55 19 56 71 57 65 58 64 59 20 61 52 62 32 63 51 64
REMARK SMILES IDX 33 65 36 66 50 67 69 68 34 69 35 70 49 72 70 73 37 74 21 75
REMARK SMILES IDX 22 76 30 77 23 78 24 79 28 80 31 81 25 82 26 83 29 84 27 85
REMARK SMILES IDX 53 86 54 87 62 88 55 89 56 90 60 91 63 92 57 93 58 94 61 95
REMARK SMILES IDX 59 96 38 97 39 98 47 99 40 100 41 101 45 102 48 103 42 104
REMARK SMILES IDX 43 105 46 106 44 107
REMARK H PARENT 90 24 95 33 68 60 36 71
REMARK Flexibility Score: inf
ROOT
ATOM      1  C   UNL A   1      37.190  21.552  24.965  1.00  0.00     0.338 C 
ATOM      2  O   UNL A   1      37.648  21.860  23.873  1.00  0.00    -0.246 OA
ENDROOT
BRANCH   1   3
ATOM      3  C   UNL A   1      35.758  21.260  25.090  1.00  0.00     0.065 A 
ATOM      4  C   UNL A   1      35.531  23.740  25.306  1.00  0.00     0.047 C 
ATOM      5  C   UNL A   1      34.918  22.383  25.038  1.00  0.00    -0.013 A 
ATOM      6  C   UNL A   1      33.551  22.183  24.795  1.00  0.00     0.041 A 
ATOM      7  C   UNL A   1      35.247  19.959  25.057  1.00  0.00     0.016 A 
ATOM      8  C   UNL A   1      33.069  20.869  24.626  1.00  0.00     0.026 A 
ATOM      9  C   UNL A   1      33.898  19.763  24.790  1.00  0.00     0.003 A 
BRANCH   6  10
ATOM     10  N   UNL A   1      32.616  23.190  24.918  1.00  0.00    -0.358 N 
ATOM     11  C   UNL A   1      31.982  23.327  26.244  1.00  0.00     0.103 C 
ATOM     12  C   UNL A   1      32.687  24.461  24.185  1.00  0.00     0.110 C 
ATOM     13  C   UNL A   1      31.824  24.805  26.337  1.00  0.00     0.003 C 
ATOM     14  C   UNL A   1      32.848  22.878  27.434  1.00  0.00     0.035 C 
ATOM     15  C   UNL A   1      32.345  25.443  25.281  1.00  0.00    -0.026 C 
ATOM     16  C   UNL A   1      31.674  24.458  23.042  1.00  0.00     0.036 C 
BRANCH  15  17
ATOM     17  C   UNL A   1      32.593  26.859  25.161  1.00  0.00     0.031 C 
ATOM     18  C   UNL A   1      31.764  27.796  24.644  1.00  0.00     0.117 C 
BRANCH  18  19
ATOM     19  C   UNL A   1      30.466  27.507  24.157  1.00  0.00     0.105 C 
ATOM     20  N   UNL A   1      29.409  27.264  23.727  1.00  0.00    -0.192 NA
ENDBRANCH  18  19
BRANCH  18  21
ATOM     21  C   UNL A   1      32.393  29.114  24.369  1.00  0.00     0.261 C 
ATOM     22  O   UNL A   1      33.220  29.254  23.466  1.00  0.00    -0.268 OA
ATOM     23  N   UNL A   1      31.865  30.232  24.933  1.00  0.00    -0.351 N 
ATOM     24  H   UNL A   1      31.607  30.928  24.286  1.00  0.00     0.163 HD
BRANCH  23  25
ATOM     25  C   UNL A   1      31.610  30.592  26.336  1.00  0.00     0.121 C 
BRANCH  25  26
ATOM     26  C   UNL A   1      32.688  30.102  27.348  1.00  0.00     0.059 C 
BRANCH  26  27
ATOM     27  C   UNL A   1      33.947  30.971  27.381  1.00  0.00    -0.021 A 
ATOM     28  C   UNL A   1      35.224  30.450  27.568  1.00  0.00     0.087 A 
ATOM     29  C   UNL A   1      34.070  32.204  28.098  1.00  0.00     0.003 A 
ATOM     30  N   UNL A   1      35.362  30.626  28.945  1.00  0.00    -0.361 N 
ATOM     31  C   UNL A   1      34.743  31.819  29.258  1.00  0.00     0.046 A 
ATOM     32  C   UNL A   1      33.637  33.537  27.988  1.00  0.00     0.010 A 
ATOM     33  H   UNL A   1      35.813  30.017  29.573  1.00  0.00     0.166 HD
ATOM     34  C   UNL A   1      34.784  32.589  30.416  1.00  0.00     0.026 A 
ATOM     35  C   UNL A   1      33.870  34.399  29.073  1.00  0.00     0.001 A 
ATOM     36  C   UNL A   1      34.361  33.911  30.287  1.00  0.00     0.002 A 
ENDBRANCH  26  27
ENDBRANCH  25  26
ENDBRANCH  23  25
ENDBRANCH  18  21
ENDBRANCH  15  17
ENDBRANCH   6  10
ENDBRANCH   1   3
BRANCH   1  37
ATOM     37  O   UNL A   1      37.867  21.575  26.133  1.00  0.00    -0.458 OA
BRANCH  37  38
ATOM     38  C   UNL A   1      39.260  21.308  25.935  1.00  0.00     0.275 C 
BRANCH  38  39
ATOM     39  C   UNL A   1      40.161  22.096  26.886  1.00  0.00     0.275 C 
BRANCH  39  40
ATOM     40  O   UNL A   1      39.655  23.286  27.563  1.00  0.00    -0.458 OA
BRANCH  40  41
ATOM     41  C   UNL A   1      39.403  24.494  27.000  1.00  0.00     0.338 C 
ATOM     42  O   UNL A   1      38.924  24.615  25.882  1.00  0.00    -0.246 OA
BRANCH  41  43
ATOM     43  C   UNL A   1      39.769  25.678  27.802  1.00  0.00     0.060 A 
ATOM     44  C   UNL A   1      40.666  25.546  28.882  1.00  0.00     0.016 A 
ATOM     45  C   UNL A   1      39.348  26.928  27.377  1.00  0.00     0.016 A 
ATOM     46  C   UNL A   1      41.245  26.668  29.456  1.00  0.00     0.010 A 
ATOM     47  C   UNL A   1      40.042  28.021  27.806  1.00  0.00     0.010 A 
ATOM     48  C   UNL A   1      40.927  27.896  28.890  1.00  0.00    -0.014 A 
BRANCH  48  49
ATOM     49  C   UNL A   1      41.165  29.164  29.545  1.00  0.00     0.031 A 
ATOM     50  C   UNL A   1      40.038  30.019  29.942  1.00  0.00     0.074 A 
ATOM     51  C   UNL A   1      42.481  29.265  29.849  1.00  0.00     0.049 A 
ATOM     52  N   UNL A   1      40.091  31.303  29.989  1.00  0.00    -0.248 NA
ATOM     53  C   UNL A   1      38.700  29.514  30.262  1.00  0.00     0.031 C 
ATOM     54  C   UNL A   1      43.241  30.076  30.774  1.00  0.00     0.029 A 
ATOM     55  N   UNL A   1      43.488  28.533  29.176  1.00  0.00    -0.354 N 
ATOM     56  C   UNL A   1      39.023  31.691  30.776  1.00  0.00     0.074 A 
ATOM     57  C   UNL A   1      38.073  30.614  30.700  1.00  0.00     0.031 C 
ATOM     58  C   UNL A   1      44.532  30.080  30.369  1.00  0.00     0.029 A 
ATOM     59  C   UNL A   1      44.601  29.367  29.096  1.00  0.00     0.049 A 
ATOM     60  H   UNL A   1      43.417  27.613  28.832  1.00  0.00     0.167 HD
ATOM     61  C   UNL A   1      39.206  32.705  31.670  1.00  0.00     0.037 A 
ATOM     62  C   UNL A   1      44.862  29.892  27.860  1.00  0.00     0.037 A 
ATOM     63  C   UNL A   1      40.603  33.132  31.623  1.00  0.00     0.049 A 
ATOM     64  C   UNL A   1      44.556  31.373  27.833  1.00  0.00     0.074 A 
ATOM     65  C   UNL A   1      41.711  32.813  32.390  1.00  0.00     0.029 A 
ATOM     66  N   UNL A   1      41.098  33.638  30.439  1.00  0.00    -0.354 N 
ATOM     67  N   UNL A   1      43.761  31.972  28.677  1.00  0.00    -0.248 NA
ATOM     68  C   UNL A   1      45.097  32.283  26.833  1.00  0.00     0.031 C 
ATOM     69  C   UNL A   1      42.877  33.188  31.661  1.00  0.00     0.029 A 
ATOM     70  C   UNL A   1      42.474  33.690  30.439  1.00  0.00     0.049 A 
ATOM     71  H   UNL A   1      40.535  33.928  29.685  1.00  0.00     0.167 HD
ATOM     72  C   UNL A   1      43.754  33.315  28.430  1.00  0.00     0.074 A 
ATOM     73  C   UNL A   1      44.532  33.444  27.207  1.00  0.00     0.031 C 
ATOM     74  C   UNL A   1      43.134  34.212  29.258  1.00  0.00     0.037 A 
BRANCH  61  75
ATOM     75  C   UNL A   1      38.273  33.087  32.795  1.00  0.00     0.064 A 
ATOM     76  C   UNL A   1      38.351  32.426  34.043  1.00  0.00     0.173 A 
ATOM     77  C   UNL A   1      37.312  34.114  32.731  1.00  0.00     0.173 A 
ATOM     78  F   UNL A   1      39.265  31.477  34.282  1.00  0.00    -0.203 F 
ATOM     79  C   UNL A   1      37.500  32.715  35.109  1.00  0.00     0.198 A 
ATOM     80  C   UNL A   1      36.442  34.390  33.798  1.00  0.00     0.198 A 
ATOM     81  F   UNL A   1      37.214  34.908  31.655  1.00  0.00    -0.203 F 
ATOM     82  F   UNL A   1      37.630  32.040  36.261  1.00  0.00    -0.200 F 
ATOM     83  C   UNL A   1      36.534  33.687  34.983  1.00  0.00     0.200 A 
ATOM     84  F   UNL A   1      35.517  35.354  33.674  1.00  0.00    -0.200 F 
ATOM     85  F   UNL A   1      35.712  33.958  36.007  1.00  0.00    -0.200 F 
ENDBRANCH  61  75
BRANCH  62  86
ATOM     86  C   UNL A   1      44.574  28.929  26.730  1.00  0.00     0.064 A 
ATOM     87  C   UNL A   1      45.522  27.919  26.430  1.00  0.00     0.173 A 
ATOM     88  C   UNL A   1      43.300  28.772  26.167  1.00  0.00     0.173 A 
ATOM     89  F   UNL A   1      46.767  27.996  26.929  1.00  0.00    -0.203 F 
ATOM     90  C   UNL A   1      45.178  26.765  25.724  1.00  0.00     0.198 A 
ATOM     91  C   UNL A   1      42.970  27.631  25.422  1.00  0.00     0.198 A 
ATOM     92  F   UNL A   1      42.334  29.670  26.404  1.00  0.00    -0.203 F 
ATOM     93  F   UNL A   1      46.064  25.764  25.603  1.00  0.00    -0.200 F 
ATOM     94  C   UNL A   1      43.899  26.619  25.226  1.00  0.00     0.200 A 
ATOM     95  F   UNL A   1      41.715  27.463  24.981  1.00  0.00    -0.200 F 
ATOM     96  F   UNL A   1      43.535  25.478  24.623  1.00  0.00    -0.200 F 
ENDBRANCH  62  86
BRANCH  74  97
ATOM     97  C   UNL A   1      43.074  35.696  29.017  1.00  0.00     0.064 A 
ATOM     98  C   UNL A   1      42.389  36.258  27.936  1.00  0.00     0.173 A 
ATOM     99  C   UNL A   1      43.775  36.615  29.839  1.00  0.00     0.173 A 
ATOM    100  F   UNL A   1      41.856  35.487  26.978  1.00  0.00    -0.203 F 
ATOM    101  C   UNL A   1      42.266  37.639  27.789  1.00  0.00     0.198 A 
ATOM    102  C   UNL A   1      43.707  37.988  29.650  1.00  0.00     0.198 A 
ATOM    103  F   UNL A   1      44.540  36.232  30.868  1.00  0.00    -0.203 F 
ATOM    104  F   UNL A   1      41.510  38.130  26.798  1.00  0.00    -0.200 F 
ATOM    105  C   UNL A   1      42.916  38.502  28.650  1.00  0.00     0.200 A 
ATOM    106  F   UNL A   1      44.402  38.800  30.458  1.00  0.00    -0.200 F 
ATOM    107  F   UNL A   1      42.793  39.828  28.510  1.00  0.00    -0.200 F 
ENDBRANCH  74  97
ENDBRANCH  48  49
ENDBRANCH  41  43
ENDBRANCH  40  41
ENDBRANCH  39  40
ENDBRANCH  38  39
ENDBRANCH  37  38
ENDBRANCH   1  37
TORSDOF 18
ENDMDL
