MODEL 1
REMARK VINA RESULT:     -13.1      0.000      0.000
REMARK SMILES O=C(OCCOC(=O)[C@H]1O[C@@H](Oc2c(-c3cc(O)c(O)c(O)c3)oc3cc(O)cc(O)c3c2=O)[C@H](O)[C@@H](O)[C@@H]1O)c1ccc(-c2c3nc(c(-c4c(F)c(F)c(F)c(F)c4F)c4ccc([nH]4)c(-c4c(F)c(F)c(F)c(F)c4F)c4nc(c(-c5c(F)c(F)c(F)c(F)c5F)c5ccc2[nH]5)C=C4)C=C3)cc1
REMARK SMILES IDX 5 1 4 2 3 3 2 4 1 5 41 6 42 7 103 8 43 9 102 10 44 11 45 12
REMARK SMILES IDX 46 13 96 14 47 15 101 16 95 17 97 18 48 19 100 20 94 21
REMARK SMILES IDX 93 22 49 24 81 25 61 26 80 27 62 28 65 29 79 30 98 31 63 32
REMARK SMILES IDX 64 33 78 35 99 36 66 37 50 38 51 39 59 40 52 41 53 42 57 43
REMARK SMILES IDX 60 44 54 45 55 46 58 47 56 48 82 49 83 50 91 51 84 52 85 53
REMARK SMILES IDX 89 54 92 55 86 56 87 57 90 58 88 59 67 60 68 61 76 62 69 63
REMARK SMILES IDX 70 64 74 65 77 66 71 67 72 68 75 69 73 70 6 71 7 72 8 73
REMARK SMILES IDX 9 74 10 75 39 76 11 77 37 78 35 79 40 80 12 82 13 83 14 84
REMARK SMILES IDX 33 85 24 86 32 87 34 88 25 89 30 90 26 91 29 92 27 93 15 94
REMARK SMILES IDX 16 95 23 96 17 97 21 98 19 99 18 100 22 102 20 104 31 106
REMARK SMILES IDX 28 108 38 110 36 112
REMARK H PARENT 97 23 65 34 40 81 18 101 22 103 20 105 31 107 28 109 38 111
REMARK H PARENT 36 113
REMARK Flexibility Score: inf
ROOT
ATOM      1  C   UNL A   1      35.009  20.795  25.113  1.00  0.00     0.274 C 
ENDROOT
BRANCH   1   2
ATOM      2  C   UNL A   1      36.510  20.524  25.011  1.00  0.00     0.275 C 
BRANCH   2   3
ATOM      3  O   UNL A   1      37.311  21.427  25.789  1.00  0.00    -0.458 OA
BRANCH   3   4
ATOM      4  C   UNL A   1      38.653  21.435  25.972  1.00  0.00     0.338 C 
ATOM      5  O   UNL A   1      39.285  20.402  25.754  1.00  0.00    -0.246 OA
BRANCH   4   6
ATOM      6  C   UNL A   1      39.397  22.591  26.576  1.00  0.00     0.060 A 
ATOM      7  C   UNL A   1      40.448  22.529  27.489  1.00  0.00     0.016 A 
ATOM      8  C   UNL A   1      38.996  23.867  26.144  1.00  0.00     0.016 A 
ATOM      9  C   UNL A   1      41.131  23.685  27.885  1.00  0.00     0.010 A 
ATOM     10  C   UNL A   1      39.725  25.014  26.466  1.00  0.00     0.010 A 
ATOM     11  C   UNL A   1      40.791  24.935  27.363  1.00  0.00    -0.014 A 
BRANCH  11  12
ATOM     12  C   UNL A   1      41.453  26.151  27.895  1.00  0.00     0.031 A 
ATOM     13  C   UNL A   1      42.868  26.438  27.474  1.00  0.00     0.074 A 
ATOM     14  C   UNL A   1      40.773  27.023  28.667  1.00  0.00     0.049 A 
ATOM     15  N   UNL A   1      43.611  27.486  27.720  1.00  0.00    -0.248 NA
ATOM     16  C   UNL A   1      43.547  25.401  26.677  1.00  0.00     0.031 C 
ATOM     17  C   UNL A   1      39.404  26.840  29.152  1.00  0.00     0.029 A 
ATOM     18  N   UNL A   1      41.131  28.254  29.158  1.00  0.00    -0.354 N 
ATOM     19  C   UNL A   1      44.824  27.234  27.095  1.00  0.00     0.074 A 
ATOM     20  C   UNL A   1      44.764  25.899  26.554  1.00  0.00     0.031 C 
ATOM     21  C   UNL A   1      39.028  27.929  29.845  1.00  0.00     0.029 A 
ATOM     22  C   UNL A   1      40.128  28.887  29.856  1.00  0.00     0.049 A 
ATOM     23  H   UNL A   1      42.024  28.649  29.023  1.00  0.00     0.167 HD
ATOM     24  C   UNL A   1      45.879  28.066  26.927  1.00  0.00     0.037 A 
ATOM     25  C   UNL A   1      40.102  30.112  30.417  1.00  0.00     0.037 A 
ATOM     26  C   UNL A   1      45.929  29.401  27.446  1.00  0.00     0.049 A 
ATOM     27  C   UNL A   1      41.309  31.003  30.250  1.00  0.00     0.074 A 
ATOM     28  C   UNL A   1      46.948  30.329  27.351  1.00  0.00     0.029 A 
ATOM     29  N   UNL A   1      44.899  29.998  28.158  1.00  0.00    -0.354 N 
ATOM     30  N   UNL A   1      42.428  30.774  29.603  1.00  0.00    -0.248 NA
ATOM     31  C   UNL A   1      41.241  32.333  30.871  1.00  0.00     0.031 C 
ATOM     32  C   UNL A   1      46.547  31.480  28.038  1.00  0.00     0.029 A 
ATOM     33  C   UNL A   1      45.260  31.284  28.517  1.00  0.00     0.049 A 
ATOM     34  H   UNL A   1      44.039  29.571  28.374  1.00  0.00     0.167 HD
ATOM     35  C   UNL A   1      43.179  31.936  29.712  1.00  0.00     0.074 A 
ATOM     36  C   UNL A   1      42.376  32.880  30.461  1.00  0.00     0.031 C 
ATOM     37  C   UNL A   1      44.426  32.202  29.248  1.00  0.00     0.037 A 
BRANCH  24  38
ATOM     38  C   UNL A   1      47.035  27.537  26.130  1.00  0.00     0.064 A 
ATOM     39  C   UNL A   1      48.124  26.907  26.757  1.00  0.00     0.173 A 
ATOM     40  C   UNL A   1      47.081  27.695  24.739  1.00  0.00     0.173 A 
ATOM     41  F   UNL A   1      48.140  26.757  28.092  1.00  0.00    -0.203 F 
ATOM     42  C   UNL A   1      49.232  26.493  26.025  1.00  0.00     0.198 A 
ATOM     43  C   UNL A   1      48.178  27.250  24.005  1.00  0.00     0.198 A 
ATOM     44  F   UNL A   1      46.070  28.296  24.094  1.00  0.00    -0.203 F 
ATOM     45  F   UNL A   1      50.288  25.960  26.654  1.00  0.00    -0.200 F 
ATOM     46  C   UNL A   1      49.256  26.661  24.649  1.00  0.00     0.200 A 
ATOM     47  F   UNL A   1      48.199  27.409  22.675  1.00  0.00    -0.200 F 
ATOM     48  F   UNL A   1      50.327  26.270  23.945  1.00  0.00    -0.200 F 
ENDBRANCH  24  38
BRANCH  25  49
ATOM     49  C   UNL A   1      38.904  30.592  31.164  1.00  0.00     0.064 A 
ATOM     50  C   UNL A   1      37.893  31.329  30.528  1.00  0.00     0.173 A 
ATOM     51  C   UNL A   1      38.780  30.389  32.547  1.00  0.00     0.173 A 
ATOM     52  F   UNL A   1      37.967  31.570  29.210  1.00  0.00    -0.203 F 
ATOM     53  C   UNL A   1      36.836  31.884  31.251  1.00  0.00     0.198 A 
ATOM     54  C   UNL A   1      37.706  30.916  33.264  1.00  0.00     0.198 A 
ATOM     55  F   UNL A   1      39.716  29.692  33.208  1.00  0.00    -0.203 F 
ATOM     56  F   UNL A   1      35.931  32.652  30.628  1.00  0.00    -0.200 F 
ATOM     57  C   UNL A   1      36.745  31.678  32.619  1.00  0.00     0.200 A 
ATOM     58  F   UNL A   1      37.617  30.709  34.585  1.00  0.00    -0.200 F 
ATOM     59  F   UNL A   1      35.742  32.231  33.316  1.00  0.00    -0.200 F 
ENDBRANCH  25  49
BRANCH  37  60
ATOM     60  C   UNL A   1      44.976  33.573  29.510  1.00  0.00     0.064 A 
ATOM     61  C   UNL A   1      44.745  34.638  28.627  1.00  0.00     0.173 A 
ATOM     62  C   UNL A   1      45.699  33.834  30.684  1.00  0.00     0.173 A 
ATOM     63  F   UNL A   1      44.068  34.436  27.487  1.00  0.00    -0.203 F 
ATOM     64  C   UNL A   1      45.247  35.908  28.895  1.00  0.00     0.198 A 
ATOM     65  C   UNL A   1      46.168  35.113  30.965  1.00  0.00     0.198 A 
ATOM     66  F   UNL A   1      45.937  32.851  31.566  1.00  0.00    -0.203 F 
ATOM     67  F   UNL A   1      45.061  36.898  28.012  1.00  0.00    -0.200 F 
ATOM     68  C   UNL A   1      45.950  36.146  30.066  1.00  0.00     0.200 A 
ATOM     69  F   UNL A   1      46.830  35.346  32.107  1.00  0.00    -0.200 F 
ATOM     70  F   UNL A   1      46.422  37.372  30.327  1.00  0.00    -0.200 F 
ENDBRANCH  37  60
ENDBRANCH  11  12
ENDBRANCH   4   6
ENDBRANCH   3   4
ENDBRANCH   2   3
ENDBRANCH   1   2
BRANCH   1  71
ATOM     71  O   UNL A   1      34.577  21.883  24.284  1.00  0.00    -0.460 OA
BRANCH  71  72
ATOM     72  C   UNL A   1      33.225  22.035  24.126  1.00  0.00     0.338 C 
ATOM     73  O   UNL A   1      32.535  21.420  23.317  1.00  0.00    -0.249 OA
BRANCH  72  74
ATOM     74  C   UNL A   1      32.718  23.138  25.047  1.00  0.00     0.263 C 
ATOM     75  O   UNL A   1      32.964  24.399  24.445  1.00  0.00    -0.322 OA
ATOM     76  C   UNL A   1      31.221  23.050  25.307  1.00  0.00     0.186 C 
ATOM     77  C   UNL A   1      32.584  25.553  25.197  1.00  0.00     0.340 C 
ATOM     78  C   UNL A   1      30.982  23.971  26.501  1.00  0.00     0.181 C 
ATOM     79  C   UNL A   1      31.348  25.404  26.137  1.00  0.00     0.214 C 
BRANCH  76  80
ATOM     80  O   UNL A   1      30.744  21.758  25.610  1.00  0.00    -0.387 OA
ATOM     81  H   UNL A   1      29.854  21.646  25.241  1.00  0.00     0.211 HD
ENDBRANCH  76  80
BRANCH  77  82
ATOM     82  O   UNL A   1      32.323  26.696  24.335  1.00  0.00    -0.454 OA
BRANCH  82  83
ATOM     83  C   UNL A   1      32.464  27.930  24.963  1.00  0.00     0.214 A 
ATOM     84  C   UNL A   1      31.524  28.899  24.927  1.00  0.00     0.181 A 
ATOM     85  C   UNL A   1      33.696  28.164  25.782  1.00  0.00     0.239 A 
ATOM     86  O   UNL A   1      31.654  30.141  25.514  1.00  0.00    -0.452 OA
ATOM     87  C   UNL A   1      33.796  29.474  26.471  1.00  0.00     0.111 A 
ATOM     88  O   UNL A   1      34.551  27.289  25.879  1.00  0.00    -0.285 OA
ATOM     89  C   UNL A   1      32.757  30.389  26.289  1.00  0.00     0.146 A 
ATOM     90  C   UNL A   1      34.863  29.823  27.314  1.00  0.00     0.134 A 
ATOM     91  C   UNL A   1      32.777  31.631  26.928  1.00  0.00     0.094 A 
ATOM     92  C   UNL A   1      34.880  31.060  27.971  1.00  0.00     0.093 A 
ATOM     93  C   UNL A   1      33.830  31.951  27.773  1.00  0.00     0.123 A 
BRANCH  84  94
ATOM     94  C   UNL A   1      30.275  28.763  24.150  1.00  0.00     0.029 A 
ATOM     95  C   UNL A   1      29.614  27.519  24.120  1.00  0.00     0.062 A 
ATOM     96  C   UNL A   1      29.656  29.884  23.573  1.00  0.00     0.062 A 
ATOM     97  C   UNL A   1      28.312  27.437  23.632  1.00  0.00     0.162 A 
ATOM     98  C   UNL A   1      28.365  29.773  23.068  1.00  0.00     0.162 A 
ATOM     99  C   UNL A   1      27.686  28.559  23.103  1.00  0.00     0.200 A 
BRANCH  97 100
ATOM    100  O   UNL A   1      27.638  26.263  23.816  1.00  0.00    -0.504 OA
ATOM    101  H   UNL A   1      28.086  25.446  23.717  1.00  0.00     0.293 HD
ENDBRANCH  97 100
BRANCH  98 102
ATOM    102  O   UNL A   1      27.746  30.893  22.592  1.00  0.00    -0.504 OA
ATOM    103  H   UNL A   1      28.209  31.708  22.565  1.00  0.00     0.293 HD
ENDBRANCH  98 102
BRANCH  99 104
ATOM    104  O   UNL A   1      26.396  28.520  22.654  1.00  0.00    -0.502 OA
ATOM    105  H   UNL A   1      25.747  28.043  23.131  1.00  0.00     0.293 HD
ENDBRANCH  99 104
ENDBRANCH  84  94
BRANCH  90 106
ATOM    106  O   UNL A   1      35.901  28.962  27.526  1.00  0.00    -0.507 OA
ATOM    107  H   UNL A   1      36.625  29.222  28.061  1.00  0.00     0.293 HD
ENDBRANCH  90 106
BRANCH  93 108
ATOM    108  O   UNL A   1      33.787  33.157  28.407  1.00  0.00    -0.508 OA
ATOM    109  H   UNL A   1      34.174  33.910  28.007  1.00  0.00     0.293 HD
ENDBRANCH  93 108
ENDBRANCH  82  83
ENDBRANCH  77  82
BRANCH  78 110
ATOM    110  O   UNL A   1      29.609  23.880  26.929  1.00  0.00    -0.387 OA
ATOM    111  H   UNL A   1      29.455  23.014  27.337  1.00  0.00     0.211 HD
ENDBRANCH  78 110
BRANCH  79 112
ATOM    112  O   UNL A   1      31.522  26.165  27.343  1.00  0.00    -0.384 OA
ATOM    113  H   UNL A   1      30.679  26.208  27.821  1.00  0.00     0.211 HD
ENDBRANCH  79 112
ENDBRANCH  72  74
ENDBRANCH  71  72
ENDBRANCH   1  71
TORSDOF 22
ENDMDL
MODEL 2
REMARK VINA RESULT:     -13.1     10.515     15.686
REMARK SMILES O=C(OCCOC(=O)[C@H]1O[C@@H](Oc2c(-c3cc(O)c(O)c(O)c3)oc3cc(O)cc(O)c3c2=O)[C@H](O)[C@@H](O)[C@@H]1O)c1ccc(-c2c3nc(c(-c4c(F)c(F)c(F)c(F)c4F)c4ccc([nH]4)c(-c4c(F)c(F)c(F)c(F)c4F)c4nc(c(-c5c(F)c(F)c(F)c(F)c5F)c5ccc2[nH]5)C=C4)C=C3)cc1
REMARK SMILES IDX 5 1 4 2 3 3 2 4 1 5 41 6 42 7 103 8 43 9 102 10 44 11 45 12
REMARK SMILES IDX 46 13 96 14 47 15 101 16 95 17 97 18 48 19 100 20 94 21
REMARK SMILES IDX 93 22 49 24 81 25 61 26 80 27 62 28 65 29 79 30 98 31 63 32
REMARK SMILES IDX 64 33 78 35 99 36 66 37 50 38 51 39 59 40 52 41 53 42 57 43
REMARK SMILES IDX 60 44 54 45 55 46 58 47 56 48 82 49 83 50 91 51 84 52 85 53
REMARK SMILES IDX 89 54 92 55 86 56 87 57 90 58 88 59 67 60 68 61 76 62 69 63
REMARK SMILES IDX 70 64 74 65 77 66 71 67 72 68 75 69 73 70 6 71 7 72 8 73
REMARK SMILES IDX 9 74 10 75 39 76 11 77 37 78 35 79 40 80 12 82 13 83 14 84
REMARK SMILES IDX 33 85 24 86 32 87 34 88 25 89 30 90 26 91 29 92 27 93 15 94
REMARK SMILES IDX 16 95 23 96 17 97 21 98 19 99 18 100 22 102 20 104 31 106
REMARK SMILES IDX 28 108 38 110 36 112
REMARK H PARENT 97 23 65 34 40 81 18 101 22 103 20 105 31 107 28 109 38 111
REMARK H PARENT 36 113
REMARK Flexibility Score: inf
ROOT
ATOM      1  C   UNL A   1      46.739  22.931  39.559  1.00  0.00     0.274 C 
ENDROOT
BRANCH   1   2
ATOM      2  C   UNL A   1      45.763  23.469  38.513  1.00  0.00     0.275 C 
BRANCH   2   3
ATOM      3  O   UNL A   1      46.261  23.395  37.169  1.00  0.00    -0.458 OA
BRANCH   3   4
ATOM      4  C   UNL A   1      46.570  24.402  36.316  1.00  0.00     0.338 C 
ATOM      5  O   UNL A   1      47.740  24.773  36.240  1.00  0.00    -0.246 OA
BRANCH   4   6
ATOM      6  C   UNL A   1      45.538  25.197  35.570  1.00  0.00     0.060 A 
ATOM      7  C   UNL A   1      44.195  24.871  35.387  1.00  0.00     0.016 A 
ATOM      8  C   UNL A   1      45.983  26.414  35.024  1.00  0.00     0.016 A 
ATOM      9  C   UNL A   1      43.312  25.761  34.766  1.00  0.00     0.010 A 
ATOM     10  C   UNL A   1      45.094  27.343  34.481  1.00  0.00     0.010 A 
ATOM     11  C   UNL A   1      43.746  27.014  34.325  1.00  0.00    -0.014 A 
BRANCH  11  12
ATOM     12  C   UNL A   1      42.815  27.881  33.564  1.00  0.00     0.031 A 
ATOM     13  C   UNL A   1      42.669  27.648  32.085  1.00  0.00     0.074 A 
ATOM     14  C   UNL A   1      42.054  28.796  34.196  1.00  0.00     0.049 A 
ATOM     15  N   UNL A   1      41.843  28.202  31.235  1.00  0.00    -0.248 NA
ATOM     16  C   UNL A   1      43.582  26.666  31.473  1.00  0.00     0.031 C 
ATOM     17  C   UNL A   1      42.124  29.121  35.622  1.00  0.00     0.029 A 
ATOM     18  N   UNL A   1      41.050  29.606  33.726  1.00  0.00    -0.354 N 
ATOM     19  C   UNL A   1      42.131  27.623  30.007  1.00  0.00     0.074 A 
ATOM     20  C   UNL A   1      43.272  26.761  30.193  1.00  0.00     0.031 C 
ATOM     21  C   UNL A   1      41.185  30.037  35.917  1.00  0.00     0.029 A 
ATOM     22  C   UNL A   1      40.448  30.368  34.702  1.00  0.00     0.049 A 
ATOM     23  H   UNL A   1      40.784  29.639  32.778  1.00  0.00     0.167 HD
ATOM     24  C   UNL A   1      41.465  27.745  28.836  1.00  0.00     0.037 A 
ATOM     25  C   UNL A   1      39.404  31.216  34.619  1.00  0.00     0.037 A 
ATOM     26  C   UNL A   1      40.318  28.586  28.658  1.00  0.00     0.049 A 
ATOM     27  C   UNL A   1      38.706  31.365  33.290  1.00  0.00     0.074 A 
ATOM     28  C   UNL A   1      39.571  28.802  27.516  1.00  0.00     0.029 A 
ATOM     29  N   UNL A   1      39.749  29.350  29.667  1.00  0.00    -0.354 N 
ATOM     30  N   UNL A   1      38.952  30.763  32.150  1.00  0.00    -0.248 NA
ATOM     31  C   UNL A   1      37.569  32.294  33.240  1.00  0.00     0.031 C 
ATOM     32  C   UNL A   1      38.568  29.725  27.826  1.00  0.00     0.029 A 
ATOM     33  C   UNL A   1      38.662  30.047  29.172  1.00  0.00     0.049 A 
ATOM     34  H   UNL A   1      40.071  29.390  30.596  1.00  0.00     0.167 HD
ATOM     35  C   UNL A   1      37.986  31.215  31.261  1.00  0.00     0.074 A 
ATOM     36  C   UNL A   1      37.130  32.118  32.002  1.00  0.00     0.031 C 
ATOM     37  C   UNL A   1      37.821  30.923  29.946  1.00  0.00     0.037 A 
BRANCH  24  38
ATOM     38  C   UNL A   1      41.968  26.927  27.684  1.00  0.00     0.064 A 
ATOM     39  C   UNL A   1      41.487  25.627  27.449  1.00  0.00     0.173 A 
ATOM     40  C   UNL A   1      42.964  27.421  26.832  1.00  0.00     0.173 A 
ATOM     41  F   UNL A   1      40.552  25.097  28.254  1.00  0.00    -0.203 F 
ATOM     42  C   UNL A   1      42.015  24.840  26.430  1.00  0.00     0.198 A 
ATOM     43  C   UNL A   1      43.468  26.642  25.793  1.00  0.00     0.198 A 
ATOM     44  F   UNL A   1      43.461  28.653  27.017  1.00  0.00    -0.203 F 
ATOM     45  F   UNL A   1      41.591  23.579  26.272  1.00  0.00    -0.200 F 
ATOM     46  C   UNL A   1      43.002  25.350  25.601  1.00  0.00     0.200 A 
ATOM     47  F   UNL A   1      44.419  27.136  24.989  1.00  0.00    -0.200 F 
ATOM     48  F   UNL A   1      43.516  24.588  24.625  1.00  0.00    -0.200 F 
ENDBRANCH  24  38
BRANCH  25  49
ATOM     49  C   UNL A   1      38.929  31.971  35.814  1.00  0.00     0.064 A 
ATOM     50  C   UNL A   1      39.307  33.305  36.034  1.00  0.00     0.173 A 
ATOM     51  C   UNL A   1      38.148  31.351  36.802  1.00  0.00     0.173 A 
ATOM     52  F   UNL A   1      40.068  33.942  35.133  1.00  0.00    -0.203 F 
ATOM     53  C   UNL A   1      38.966  33.970  37.212  1.00  0.00     0.198 A 
ATOM     54  C   UNL A   1      37.779  32.028  37.965  1.00  0.00     0.198 A 
ATOM     55  F   UNL A   1      37.756  30.078  36.646  1.00  0.00    -0.203 F 
ATOM     56  F   UNL A   1      39.411  35.215  37.429  1.00  0.00    -0.200 F 
ATOM     57  C   UNL A   1      38.203  33.329  38.178  1.00  0.00     0.200 A 
ATOM     58  F   UNL A   1      37.036  31.408  38.892  1.00  0.00    -0.200 F 
ATOM     59  F   UNL A   1      37.896  33.961  39.319  1.00  0.00    -0.200 F 
ENDBRANCH  25  49
BRANCH  37  60
ATOM     60  C   UNL A   1      36.659  31.561  29.243  1.00  0.00     0.064 A 
ATOM     61  C   UNL A   1      35.531  30.819  28.867  1.00  0.00     0.173 A 
ATOM     62  C   UNL A   1      36.656  32.941  28.989  1.00  0.00     0.173 A 
ATOM     63  F   UNL A   1      35.492  29.494  29.080  1.00  0.00    -0.203 F 
ATOM     64  C   UNL A   1      34.454  31.430  28.233  1.00  0.00     0.198 A 
ATOM     65  C   UNL A   1      35.562  33.554  28.387  1.00  0.00     0.198 A 
ATOM     66  F   UNL A   1      37.707  33.698  29.340  1.00  0.00    -0.203 F 
ATOM     67  F   UNL A   1      33.409  30.692  27.833  1.00  0.00    -0.200 F 
ATOM     68  C   UNL A   1      34.467  32.796  28.001  1.00  0.00     0.200 A 
ATOM     69  F   UNL A   1      35.567  34.879  28.182  1.00  0.00    -0.200 F 
ATOM     70  F   UNL A   1      33.424  33.385  27.400  1.00  0.00    -0.200 F 
ENDBRANCH  37  60
ENDBRANCH  11  12
ENDBRANCH   4   6
ENDBRANCH   3   4
ENDBRANCH   2   3
ENDBRANCH   1   2
BRANCH   1  71
ATOM     71  O   UNL A   1      46.345  21.659  40.093  1.00  0.00    -0.460 OA
BRANCH  71  72
ATOM     72  C   UNL A   1      47.289  20.667  40.077  1.00  0.00     0.338 C 
ATOM     73  O   UNL A   1      48.471  20.812  40.378  1.00  0.00    -0.249 OA
BRANCH  72  74
ATOM     74  C   UNL A   1      46.672  19.376  39.552  1.00  0.00     0.263 C 
ATOM     75  O   UNL A   1      45.668  18.938  40.455  1.00  0.00    -0.322 OA
ATOM     76  C   UNL A   1      46.007  19.548  38.194  1.00  0.00     0.186 C 
ATOM     77  C   UNL A   1      45.009  17.712  40.135  1.00  0.00     0.340 C 
ATOM     78  C   UNL A   1      45.791  18.124  37.688  1.00  0.00     0.181 C 
ATOM     79  C   UNL A   1      44.847  17.376  38.620  1.00  0.00     0.214 C 
BRANCH  76  80
ATOM     80  O   UNL A   1      46.765  20.270  37.248  1.00  0.00    -0.387 OA
ATOM     81  H   UNL A   1      47.177  21.035  37.679  1.00  0.00     0.211 HD
ENDBRANCH  76  80
BRANCH  77  82
ATOM     82  O   UNL A   1      43.681  17.643  40.726  1.00  0.00    -0.454 OA
BRANCH  82  83
ATOM     83  C   UNL A   1      43.417  16.455  41.401  1.00  0.00     0.214 A 
ATOM     84  C   UNL A   1      43.746  16.240  42.693  1.00  0.00     0.181 A 
ATOM     85  C   UNL A   1      42.663  15.386  40.671  1.00  0.00     0.239 A 
ATOM     86  O   UNL A   1      43.524  15.061  43.374  1.00  0.00    -0.452 OA
ATOM     87  C   UNL A   1      42.363  14.149  41.433  1.00  0.00     0.111 A 
ATOM     88  O   UNL A   1      42.304  15.563  39.512  1.00  0.00    -0.285 OA
ATOM     89  C   UNL A   1      42.819  14.064  42.750  1.00  0.00     0.146 A 
ATOM     90  C   UNL A   1      41.622  13.079  40.906  1.00  0.00     0.134 A 
ATOM     91  C   UNL A   1      42.551  12.937  43.529  1.00  0.00     0.094 A 
ATOM     92  C   UNL A   1      41.334  11.954  41.689  1.00  0.00     0.093 A 
ATOM     93  C   UNL A   1      41.800  11.898  42.999  1.00  0.00     0.123 A 
BRANCH  84  94
ATOM     94  C   UNL A   1      44.487  17.232  43.498  1.00  0.00     0.029 A 
ATOM     95  C   UNL A   1      45.842  16.998  43.803  1.00  0.00     0.062 A 
ATOM     96  C   UNL A   1      43.913  18.471  43.829  1.00  0.00     0.062 A 
ATOM     97  C   UNL A   1      46.627  18.030  44.315  1.00  0.00     0.162 A 
ATOM     98  C   UNL A   1      44.709  19.478  44.362  1.00  0.00     0.162 A 
ATOM     99  C   UNL A   1      46.064  19.269  44.597  1.00  0.00     0.200 A 
BRANCH  97 100
ATOM    100  O   UNL A   1      47.974  17.822  44.395  1.00  0.00    -0.504 OA
ATOM    101  H   UNL A   1      48.306  17.075  44.854  1.00  0.00     0.293 HD
ENDBRANCH  97 100
BRANCH  98 102
ATOM    102  O   UNL A   1      44.153  20.703  44.594  1.00  0.00    -0.504 OA
ATOM    103  H   UNL A   1      43.399  20.974  44.108  1.00  0.00     0.293 HD
ENDBRANCH  98 102
BRANCH  99 104
ATOM    104  O   UNL A   1      46.815  20.312  45.062  1.00  0.00    -0.502 OA
ATOM    105  H   UNL A   1      47.054  21.010  44.486  1.00  0.00     0.293 HD
ENDBRANCH  99 104
ENDBRANCH  84  94
BRANCH  90 106
ATOM    106  O   UNL A   1      41.152  13.115  39.624  1.00  0.00    -0.507 OA
ATOM    107  H   UNL A   1      41.747  13.229  38.910  1.00  0.00     0.293 HD
ENDBRANCH  90 106
BRANCH  93 108
ATOM    108  O   UNL A   1      41.528  10.837  43.810  1.00  0.00    -0.508 OA
ATOM    109  H   UNL A   1      41.834   9.982  43.581  1.00  0.00     0.293 HD
ENDBRANCH  93 108
ENDBRANCH  82  83
ENDBRANCH  77  82
BRANCH  78 110
ATOM    110  O   UNL A   1      45.277  18.149  36.343  1.00  0.00    -0.387 OA
ATOM    111  H   UNL A   1      45.402  19.034  35.966  1.00  0.00     0.211 HD
ENDBRANCH  78 110
BRANCH  79 112
ATOM    112  O   UNL A   1      44.979  15.964  38.388  1.00  0.00    -0.384 OA
ATOM    113  H   UNL A   1      45.373  15.544  39.168  1.00  0.00     0.211 HD
ENDBRANCH  79 112
ENDBRANCH  72  74
ENDBRANCH  71  72
ENDBRANCH   1  71
TORSDOF 22
ENDMDL
MODEL 3
REMARK VINA RESULT:     -13.0     10.446     15.599
REMARK SMILES O=C(OCCOC(=O)[C@H]1O[C@@H](Oc2c(-c3cc(O)c(O)c(O)c3)oc3cc(O)cc(O)c3c2=O)[C@H](O)[C@@H](O)[C@@H]1O)c1ccc(-c2c3nc(c(-c4c(F)c(F)c(F)c(F)c4F)c4ccc([nH]4)c(-c4c(F)c(F)c(F)c(F)c4F)c4nc(c(-c5c(F)c(F)c(F)c(F)c5F)c5ccc2[nH]5)C=C4)C=C3)cc1
REMARK SMILES IDX 5 1 4 2 3 3 2 4 1 5 41 6 42 7 103 8 43 9 102 10 44 11 45 12
REMARK SMILES IDX 46 13 96 14 47 15 101 16 95 17 97 18 48 19 100 20 94 21
REMARK SMILES IDX 93 22 49 24 81 25 61 26 80 27 62 28 65 29 79 30 98 31 63 32
REMARK SMILES IDX 64 33 78 35 99 36 66 37 50 38 51 39 59 40 52 41 53 42 57 43
REMARK SMILES IDX 60 44 54 45 55 46 58 47 56 48 82 49 83 50 91 51 84 52 85 53
REMARK SMILES IDX 89 54 92 55 86 56 87 57 90 58 88 59 67 60 68 61 76 62 69 63
REMARK SMILES IDX 70 64 74 65 77 66 71 67 72 68 75 69 73 70 6 71 7 72 8 73
REMARK SMILES IDX 9 74 10 75 39 76 11 77 37 78 35 79 40 80 12 82 13 83 14 84
REMARK SMILES IDX 33 85 24 86 32 87 34 88 25 89 30 90 26 91 29 92 27 93 15 94
REMARK SMILES IDX 16 95 23 96 17 97 21 98 19 99 18 100 22 102 20 104 31 106
REMARK SMILES IDX 28 108 38 110 36 112
REMARK H PARENT 97 23 65 34 40 81 18 101 22 103 20 105 31 107 28 109 38 111
REMARK H PARENT 36 113
REMARK Flexibility Score: inf
ROOT
ATOM      1  C   UNL A   1      47.074  22.462  39.609  1.00  0.00     0.274 C 
ENDROOT
BRANCH   1   2
ATOM      2  C   UNL A   1      46.161  23.239  38.660  1.00  0.00     0.275 C 
BRANCH   2   3
ATOM      3  O   UNL A   1      46.576  23.180  37.287  1.00  0.00    -0.458 OA
BRANCH   3   4
ATOM      4  C   UNL A   1      46.892  24.196  36.447  1.00  0.00     0.338 C 
ATOM      5  O   UNL A   1      48.064  24.564  36.380  1.00  0.00    -0.246 OA
BRANCH   4   6
ATOM      6  C   UNL A   1      45.867  25.004  35.706  1.00  0.00     0.060 A 
ATOM      7  C   UNL A   1      44.522  24.690  35.522  1.00  0.00     0.016 A 
ATOM      8  C   UNL A   1      46.322  26.221  35.167  1.00  0.00     0.016 A 
ATOM      9  C   UNL A   1      43.646  25.591  34.906  1.00  0.00     0.010 A 
ATOM     10  C   UNL A   1      45.440  27.161  34.630  1.00  0.00     0.010 A 
ATOM     11  C   UNL A   1      44.090  26.843  34.473  1.00  0.00    -0.014 A 
BRANCH  11  12
ATOM     12  C   UNL A   1      43.166  27.723  33.717  1.00  0.00     0.031 A 
ATOM     13  C   UNL A   1      43.004  27.489  32.240  1.00  0.00     0.074 A 
ATOM     14  C   UNL A   1      42.424  28.651  34.354  1.00  0.00     0.049 A 
ATOM     15  N   UNL A   1      42.179  28.053  31.396  1.00  0.00    -0.248 NA
ATOM     16  C   UNL A   1      43.897  26.492  31.624  1.00  0.00     0.031 C 
ATOM     17  C   UNL A   1      42.510  28.978  35.778  1.00  0.00     0.029 A 
ATOM     18  N   UNL A   1      41.428  29.475  33.890  1.00  0.00    -0.354 N 
ATOM     19  C   UNL A   1      42.449  27.467  30.167  1.00  0.00     0.074 A 
ATOM     20  C   UNL A   1      43.577  26.588  30.345  1.00  0.00     0.031 C 
ATOM     21  C   UNL A   1      41.588  29.909  36.079  1.00  0.00     0.029 A 
ATOM     22  C   UNL A   1      40.847  30.248  34.869  1.00  0.00     0.049 A 
ATOM     23  H   UNL A   1      41.155  29.510  32.944  1.00  0.00     0.167 HD
ATOM     24  C   UNL A   1      41.775  27.597  29.001  1.00  0.00     0.037 A 
ATOM     25  C   UNL A   1      39.814  31.111  34.792  1.00  0.00     0.037 A 
ATOM     26  C   UNL A   1      40.639  28.454  28.830  1.00  0.00     0.049 A 
ATOM     27  C   UNL A   1      39.108  31.268  33.468  1.00  0.00     0.074 A 
ATOM     28  C   UNL A   1      39.886  28.679  27.694  1.00  0.00     0.029 A 
ATOM     29  N   UNL A   1      40.090  29.229  29.842  1.00  0.00    -0.354 N 
ATOM     30  N   UNL A   1      39.335  30.660  32.328  1.00  0.00    -0.248 NA
ATOM     31  C   UNL A   1      37.985  32.214  33.425  1.00  0.00     0.031 C 
ATOM     32  C   UNL A   1      38.899  29.618  28.010  1.00  0.00     0.029 A 
ATOM     33  C   UNL A   1      39.010  29.941  29.355  1.00  0.00     0.049 A 
ATOM     34  H   UNL A   1      40.420  29.266  30.769  1.00  0.00     0.167 HD
ATOM     35  C   UNL A   1      38.368  31.124  31.446  1.00  0.00     0.074 A 
ATOM     36  C   UNL A   1      37.533  32.042  32.192  1.00  0.00     0.031 C 
ATOM     37  C   UNL A   1      38.189  30.832  30.133  1.00  0.00     0.037 A 
BRANCH  24  38
ATOM     38  C   UNL A   1      42.256  26.768  27.847  1.00  0.00     0.064 A 
ATOM     39  C   UNL A   1      43.249  27.243  26.973  1.00  0.00     0.173 A 
ATOM     40  C   UNL A   1      41.697  25.511  27.583  1.00  0.00     0.173 A 
ATOM     41  F   UNL A   1      43.795  28.454  27.166  1.00  0.00    -0.203 F 
ATOM     42  C   UNL A   1      43.633  26.507  25.856  1.00  0.00     0.198 A 
ATOM     43  C   UNL A   1      42.107  24.762  26.483  1.00  0.00     0.198 A 
ATOM     44  F   UNL A   1      40.742  25.014  28.384  1.00  0.00    -0.203 F 
ATOM     45  F   UNL A   1      44.529  27.013  24.998  1.00  0.00    -0.200 F 
ATOM     46  C   UNL A   1      43.065  25.265  25.615  1.00  0.00     0.200 A 
ATOM     47  F   UNL A   1      41.561  23.560  26.252  1.00  0.00    -0.200 F 
ATOM     48  F   UNL A   1      43.429  24.561  24.534  1.00  0.00    -0.200 F 
ENDBRANCH  24  38
BRANCH  25  49
ATOM     49  C   UNL A   1      39.361  31.877  35.989  1.00  0.00     0.064 A 
ATOM     50  C   UNL A   1      38.361  31.379  36.840  1.00  0.00     0.173 A 
ATOM     51  C   UNL A   1      39.863  33.158  36.266  1.00  0.00     0.173 A 
ATOM     52  F   UNL A   1      37.831  30.168  36.614  1.00  0.00    -0.203 F 
ATOM     53  C   UNL A   1      37.850  32.149  37.885  1.00  0.00     0.198 A 
ATOM     54  C   UNL A   1      39.374  33.914  37.331  1.00  0.00     0.198 A 
ATOM     55  F   UNL A   1      40.819  33.685  35.487  1.00  0.00    -0.203 F 
ATOM     56  F   UNL A   1      36.839  31.678  38.628  1.00  0.00    -0.200 F 
ATOM     57  C   UNL A   1      38.356  33.417  38.128  1.00  0.00     0.200 A 
ATOM     58  F   UNL A   1      39.871  35.136  37.567  1.00  0.00    -0.200 F 
ATOM     59  F   UNL A   1      37.848  34.165  39.118  1.00  0.00    -0.200 F 
ENDBRANCH  25  49
BRANCH  37  60
ATOM     60  C   UNL A   1      37.031  31.486  29.438  1.00  0.00     0.064 A 
ATOM     61  C   UNL A   1      37.053  32.846  29.096  1.00  0.00     0.173 A 
ATOM     62  C   UNL A   1      35.908  30.731  29.067  1.00  0.00     0.173 A 
ATOM     63  F   UNL A   1      38.100  33.612  29.439  1.00  0.00    -0.203 F 
ATOM     64  C   UNL A   1      35.978  33.432  28.436  1.00  0.00     0.198 A 
ATOM     65  C   UNL A   1      34.852  31.313  28.375  1.00  0.00     0.198 A 
ATOM     66  F   UNL A   1      35.844  29.422  29.362  1.00  0.00    -0.203 F 
ATOM     67  F   UNL A   1      35.997  34.745  28.166  1.00  0.00    -0.200 F 
ATOM     68  C   UNL A   1      34.884  32.665  28.068  1.00  0.00     0.200 A 
ATOM     69  F   UNL A   1      33.803  30.565  28.003  1.00  0.00    -0.200 F 
ATOM     70  F   UNL A   1      33.855  33.229  27.422  1.00  0.00    -0.200 F 
ENDBRANCH  37  60
ENDBRANCH  11  12
ENDBRANCH   4   6
ENDBRANCH   3   4
ENDBRANCH   2   3
ENDBRANCH   1   2
BRANCH   1  71
ATOM     71  O   UNL A   1      46.591  21.143  39.899  1.00  0.00    -0.460 OA
BRANCH  71  72
ATOM     72  C   UNL A   1      47.427  20.102  39.591  1.00  0.00     0.338 C 
ATOM     73  O   UNL A   1      48.645  20.103  39.748  1.00  0.00    -0.249 OA
BRANCH  72  74
ATOM     74  C   UNL A   1      46.629  18.973  38.949  1.00  0.00     0.263 C 
ATOM     75  O   UNL A   1      45.668  18.494  39.877  1.00  0.00    -0.322 OA
ATOM     76  C   UNL A   1      45.867  19.418  37.709  1.00  0.00     0.186 C 
ATOM     77  C   UNL A   1      44.854  17.400  39.450  1.00  0.00     0.340 C 
ATOM     78  C   UNL A   1      45.454  18.119  37.023  1.00  0.00     0.181 C 
ATOM     79  C   UNL A   1      44.522  17.324  37.928  1.00  0.00     0.214 C 
BRANCH  76  80
ATOM     80  O   UNL A   1      46.611  20.207  36.806  1.00  0.00    -0.387 OA
ATOM     81  H   UNL A   1      47.087  20.897  37.294  1.00  0.00     0.211 HD
ENDBRANCH  76  80
BRANCH  77  82
ATOM     82  O   UNL A   1      43.585  17.363  40.161  1.00  0.00    -0.454 OA
BRANCH  82  83
ATOM     83  C   UNL A   1      43.442  16.276  41.019  1.00  0.00     0.214 A 
ATOM     84  C   UNL A   1      43.862  16.276  42.303  1.00  0.00     0.181 A 
ATOM     85  C   UNL A   1      42.718  15.069  40.507  1.00  0.00     0.239 A 
ATOM     86  O   UNL A   1      43.762  15.202  43.161  1.00  0.00    -0.452 OA
ATOM     87  C   UNL A   1      42.548  13.944  41.460  1.00  0.00     0.111 A 
ATOM     88  O   UNL A   1      42.279  15.049  39.363  1.00  0.00    -0.285 OA
ATOM     89  C   UNL A   1      43.089  14.085  42.740  1.00  0.00     0.146 A 
ATOM     90  C   UNL A   1      41.850  12.767  41.148  1.00  0.00     0.134 A 
ATOM     91  C   UNL A   1      42.943  13.073  43.692  1.00  0.00     0.094 A 
ATOM     92  C   UNL A   1      41.685  11.758  42.105  1.00  0.00     0.093 A 
ATOM     93  C   UNL A   1      42.233  11.925  43.373  1.00  0.00     0.123 A 
BRANCH  84  94
ATOM     94  C   UNL A   1      44.584  17.418  42.900  1.00  0.00     0.029 A 
ATOM     95  C   UNL A   1      43.988  18.695  42.881  1.00  0.00     0.062 A 
ATOM     96  C   UNL A   1      45.775  17.227  43.619  1.00  0.00     0.062 A 
ATOM     97  C   UNL A   1      44.514  19.718  43.669  1.00  0.00     0.162 A 
ATOM     98  C   UNL A   1      46.296  18.269  44.379  1.00  0.00     0.162 A 
ATOM     99  C   UNL A   1      45.667  19.509  44.416  1.00  0.00     0.200 A 
BRANCH  97 100
ATOM    100  O   UNL A   1      43.786  20.868  43.784  1.00  0.00    -0.504 OA
ATOM    101  H   UNL A   1      43.888  21.412  44.541  1.00  0.00     0.293 HD
ENDBRANCH  97 100
BRANCH  98 102
ATOM    102  O   UNL A   1      47.404  18.037  45.141  1.00  0.00    -0.504 OA
ATOM    103  H   UNL A   1      48.108  17.521  44.799  1.00  0.00     0.293 HD
ENDBRANCH  98 102
BRANCH  99 104
ATOM    104  O   UNL A   1      46.184  20.478  45.229  1.00  0.00    -0.502 OA
ATOM    105  H   UNL A   1      45.981  21.379  45.072  1.00  0.00     0.293 HD
ENDBRANCH  99 104
ENDBRANCH  84  94
BRANCH  90 106
ATOM    106  O   UNL A   1      41.301  12.584  39.911  1.00  0.00    -0.507 OA
ATOM    107  H   UNL A   1      40.874  13.297  39.477  1.00  0.00     0.293 HD
ENDBRANCH  90 106
BRANCH  93 108
ATOM    108  O   UNL A   1      42.082  10.984  44.347  1.00  0.00    -0.508 OA
ATOM    109  H   UNL A   1      42.758  10.353  44.497  1.00  0.00     0.293 HD
ENDBRANCH  93 108
ENDBRANCH  82  83
ENDBRANCH  77  82
BRANCH  78 110
ATOM    110  O   UNL A   1      44.827  18.405  35.758  1.00  0.00    -0.387 OA
ATOM    111  H   UNL A   1      45.269  19.161  35.342  1.00  0.00     0.211 HD
ENDBRANCH  78 110
BRANCH  79 112
ATOM    112  O   UNL A   1      44.479  15.961  37.476  1.00  0.00    -0.384 OA
ATOM    113  H   UNL A   1      45.064  15.856  36.711  1.00  0.00     0.211 HD
ENDBRANCH  79 112
ENDBRANCH  72  74
ENDBRANCH  71  72
ENDBRANCH   1  71
TORSDOF 22
ENDMDL
