MODEL 1
REMARK VINA RESULT:     -12.2      0.000      0.000
REMARK SMILES O=C(OCCOC(=O)c1ccc(-c2c3nc(c(-c4c(F)c(F)c(F)c(F)c4F)c4ccc([nH]4)c(-c4c(F)c(F)c(F)c(F)c4F)c4nc(c(-c5c(F)c(F)c(F)c(F)c5F)c5ccc2[nH]5)C=C4)C=C3)cc1)C1=C([O-])N(c2ccc3c(c2)OCCO3)CC1
REMARK SMILES IDX 5 1 4 2 3 3 2 4 1 5 72 6 73 7 87 8 74 9 75 10 86 11 76 12
REMARK SMILES IDX 77 13 81 14 78 15 80 16 79 17 82 18 85 19 83 20 84 21 6 22
REMARK SMILES IDX 7 23 8 24 9 25 10 26 71 27 11 28 70 29 12 30 13 31 14 32
REMARK SMILES IDX 64 33 15 34 69 35 63 36 65 37 16 38 68 39 62 40 61 41 17 43
REMARK SMILES IDX 49 44 29 45 48 46 30 47 33 48 47 49 66 50 31 51 32 52 46 54
REMARK SMILES IDX 67 55 34 56 18 57 19 58 27 59 20 60 21 61 25 62 28 63 22 64
REMARK SMILES IDX 23 65 26 66 24 67 50 68 51 69 59 70 52 71 53 72 57 73 60 74
REMARK SMILES IDX 54 75 55 76 58 77 56 78 35 79 36 80 44 81 37 82 38 83 42 84
REMARK SMILES IDX 45 85 39 86 40 87 43 88 41 89
REMARK H PARENT 65 42 33 53
REMARK Flexibility Score: inf
ROOT
ATOM      1  C   UNL A   1      36.096  34.886  33.592  1.00  0.00     0.275 C 
ENDROOT
BRANCH   1   2
ATOM      2  C   UNL A   1      34.775  35.433  34.139  1.00  0.00     0.275 C 
BRANCH   2   3
ATOM      3  O   UNL A   1      34.292  36.580  33.414  1.00  0.00    -0.459 OA
BRANCH   3   4
ATOM      4  C   UNL A   1      33.256  36.723  32.553  1.00  0.00     0.335 C 
ATOM      5  O   UNL A   1      32.226  37.231  32.988  1.00  0.00    -0.247 OA
BRANCH   4   6
ATOM      6  C   UNL A   1      33.355  36.307  31.143  1.00  0.00     0.048 C 
ATOM      7  C   UNL A   1      33.503  35.023  30.756  1.00  0.00    -0.026 C 
ATOM      8  C   UNL A   1      33.289  37.160  29.910  1.00  0.00     0.066 C 
ATOM      9  O   UNL A   1      33.609  33.937  31.560  1.00  0.00    -0.860 OA
ATOM     10  N   UNL A   1      33.510  34.862  29.384  1.00  0.00    -0.354 N 
ATOM     11  C   UNL A   1      33.474  36.183  28.738  1.00  0.00     0.126 C 
BRANCH  10  12
ATOM     12  C   UNL A   1      34.290  33.931  28.671  1.00  0.00     0.044 A 
ATOM     13  C   UNL A   1      35.686  33.971  28.701  1.00  0.00     0.030 A 
ATOM     14  C   UNL A   1      33.661  32.832  28.084  1.00  0.00     0.076 A 
ATOM     15  C   UNL A   1      36.426  32.865  28.266  1.00  0.00     0.052 A 
ATOM     16  C   UNL A   1      34.377  31.719  27.683  1.00  0.00     0.163 A 
ATOM     17  C   UNL A   1      35.761  31.716  27.840  1.00  0.00     0.161 A 
ATOM     18  O   UNL A   1      33.640  30.637  27.283  1.00  0.00    -0.486 OA
ATOM     19  O   UNL A   1      36.493  30.560  27.712  1.00  0.00    -0.486 OA
ATOM     20  C   UNL A   1      34.442  29.470  27.066  1.00  0.00     0.271 C 
ATOM     21  C   UNL A   1      35.631  29.450  28.016  1.00  0.00     0.271 C 
ENDBRANCH  10  12
ENDBRANCH   4   6
ENDBRANCH   3   4
ENDBRANCH   2   3
ENDBRANCH   1   2
BRANCH   1  22
ATOM     22  O   UNL A   1      36.038  33.469  33.357  1.00  0.00    -0.458 OA
BRANCH  22  23
ATOM     23  C   UNL A   1      36.933  32.732  34.075  1.00  0.00     0.338 C 
ATOM     24  O   UNL A   1      36.849  32.435  35.247  1.00  0.00    -0.246 OA
BRANCH  23  25
ATOM     25  C   UNL A   1      38.003  32.239  33.175  1.00  0.00     0.060 A 
ATOM     26  C   UNL A   1      37.777  32.241  31.794  1.00  0.00     0.016 A 
ATOM     27  C   UNL A   1      39.217  31.771  33.672  1.00  0.00     0.016 A 
ATOM     28  C   UNL A   1      38.758  31.764  30.908  1.00  0.00     0.010 A 
ATOM     29  C   UNL A   1      40.197  31.317  32.780  1.00  0.00     0.010 A 
ATOM     30  C   UNL A   1      39.992  31.297  31.383  1.00  0.00    -0.014 A 
BRANCH  30  31
ATOM     31  C   UNL A   1      41.052  30.759  30.458  1.00  0.00     0.031 A 
ATOM     32  C   UNL A   1      42.099  31.690  29.885  1.00  0.00     0.074 A 
ATOM     33  C   UNL A   1      41.074  29.468  30.051  1.00  0.00     0.049 A 
ATOM     34  N   UNL A   1      43.086  31.432  29.056  1.00  0.00    -0.248 NA
ATOM     35  C   UNL A   1      42.014  33.107  30.272  1.00  0.00     0.031 C 
ATOM     36  C   UNL A   1      40.111  28.432  30.422  1.00  0.00     0.029 A 
ATOM     37  N   UNL A   1      41.929  28.816  29.184  1.00  0.00    -0.354 N 
ATOM     38  C   UNL A   1      43.745  32.639  28.865  1.00  0.00     0.074 A 
ATOM     39  C   UNL A   1      42.964  33.655  29.531  1.00  0.00     0.031 C 
ATOM     40  C   UNL A   1      40.388  27.303  29.747  1.00  0.00     0.029 A 
ATOM     41  C   UNL A   1      41.565  27.519  28.909  1.00  0.00     0.049 A 
ATOM     42  H   UNL A   1      42.728  29.243  28.797  1.00  0.00     0.167 HD
ATOM     43  C   UNL A   1      44.937  32.886  28.270  1.00  0.00     0.037 A 
ATOM     44  C   UNL A   1      42.111  26.600  28.083  1.00  0.00     0.037 A 
ATOM     45  C   UNL A   1      45.746  31.901  27.604  1.00  0.00     0.049 A 
ATOM     46  C   UNL A   1      43.402  26.902  27.360  1.00  0.00     0.074 A 
ATOM     47  C   UNL A   1      47.005  32.050  27.047  1.00  0.00     0.029 A 
ATOM     48  N   UNL A   1      45.370  30.585  27.394  1.00  0.00    -0.354 N 
ATOM     49  N   UNL A   1      44.097  28.010  27.325  1.00  0.00    -0.248 NA
ATOM     50  C   UNL A   1      44.013  25.796  26.602  1.00  0.00     0.031 C 
ATOM     51  C   UNL A   1      47.369  30.837  26.452  1.00  0.00     0.029 A 
ATOM     52  C   UNL A   1      46.363  29.917  26.692  1.00  0.00     0.049 A 
ATOM     53  H   UNL A   1      44.523  30.183  27.695  1.00  0.00     0.167 HD
ATOM     54  C   UNL A   1      45.250  27.717  26.605  1.00  0.00     0.074 A 
ATOM     55  C   UNL A   1      45.161  26.330  26.212  1.00  0.00     0.031 C 
ATOM     56  C   UNL A   1      46.297  28.530  26.315  1.00  0.00     0.037 A 
BRANCH  43  57
ATOM     57  C   UNL A   1      45.478  34.285  28.384  1.00  0.00     0.064 A 
ATOM     58  C   UNL A   1      46.277  34.662  29.477  1.00  0.00     0.173 A 
ATOM     59  C   UNL A   1      45.231  35.243  27.391  1.00  0.00     0.173 A 
ATOM     60  F   UNL A   1      46.537  33.784  30.458  1.00  0.00    -0.203 F 
ATOM     61  C   UNL A   1      46.771  35.956  29.593  1.00  0.00     0.198 A 
ATOM     62  C   UNL A   1      45.761  36.527  27.492  1.00  0.00     0.198 A 
ATOM     63  F   UNL A   1      44.485  34.934  26.321  1.00  0.00    -0.203 F 
ATOM     64  F   UNL A   1      47.474  36.307  30.679  1.00  0.00    -0.200 F 
ATOM     65  C   UNL A   1      46.520  36.885  28.597  1.00  0.00     0.200 A 
ATOM     66  F   UNL A   1      45.533  37.422  26.521  1.00  0.00    -0.200 F 
ATOM     67  F   UNL A   1      47.003  38.130  28.706  1.00  0.00    -0.200 F 
ENDBRANCH  43  57
BRANCH  44  68
ATOM     68  C   UNL A   1      41.469  25.268  27.906  1.00  0.00     0.064 A 
ATOM     69  C   UNL A   1      42.010  24.114  28.491  1.00  0.00     0.173 A 
ATOM     70  C   UNL A   1      40.350  25.113  27.075  1.00  0.00     0.173 A 
ATOM     71  F   UNL A   1      43.104  24.205  29.262  1.00  0.00    -0.203 F 
ATOM     72  C   UNL A   1      41.482  22.852  28.219  1.00  0.00     0.198 A 
ATOM     73  C   UNL A   1      39.804  23.854  26.828  1.00  0.00     0.198 A 
ATOM     74  F   UNL A   1      39.801  26.181  26.480  1.00  0.00    -0.203 F 
ATOM     75  F   UNL A   1      42.068  21.760  28.729  1.00  0.00    -0.200 F 
ATOM     76  C   UNL A   1      40.379  22.723  27.389  1.00  0.00     0.200 A 
ATOM     77  F   UNL A   1      38.737  23.732  26.027  1.00  0.00    -0.200 F 
ATOM     78  F   UNL A   1      39.884  21.508  27.114  1.00  0.00    -0.200 F 
ENDBRANCH  44  68
BRANCH  56  79
ATOM     79  C   UNL A   1      47.479  27.927  25.605  1.00  0.00     0.064 A 
ATOM     80  C   UNL A   1      47.529  27.801  24.209  1.00  0.00     0.173 A 
ATOM     81  C   UNL A   1      48.592  27.485  26.339  1.00  0.00     0.173 A 
ATOM     82  F   UNL A   1      46.491  28.197  23.457  1.00  0.00    -0.203 F 
ATOM     83  C   UNL A   1      48.629  27.221  23.579  1.00  0.00     0.198 A 
ATOM     84  C   UNL A   1      49.705  26.941  25.704  1.00  0.00     0.198 A 
ATOM     85  F   UNL A   1      48.605  27.590  27.677  1.00  0.00    -0.203 F 
ATOM     86  F   UNL A   1      48.626  27.056  22.250  1.00  0.00    -0.200 F 
ATOM     87  C   UNL A   1      49.718  26.798  24.326  1.00  0.00     0.200 A 
ATOM     88  F   UNL A   1      50.764  26.551  26.428  1.00  0.00    -0.200 F 
ATOM     89  F   UNL A   1      50.776  26.244  23.718  1.00  0.00    -0.200 F 
ENDBRANCH  56  79
ENDBRANCH  30  31
ENDBRANCH  23  25
ENDBRANCH  22  23
ENDBRANCH   1  22
TORSDOF 12
ENDMDL
MODEL 2
REMARK VINA RESULT:     -12.0      4.131      6.846
REMARK SMILES O=C(OCCOC(=O)c1ccc(-c2c3nc(c(-c4c(F)c(F)c(F)c(F)c4F)c4ccc([nH]4)c(-c4c(F)c(F)c(F)c(F)c4F)c4nc(c(-c5c(F)c(F)c(F)c(F)c5F)c5ccc2[nH]5)C=C4)C=C3)cc1)C1=C([O-])N(c2ccc3c(c2)OCCO3)CC1
REMARK SMILES IDX 5 1 4 2 3 3 2 4 1 5 72 6 73 7 87 8 74 9 75 10 86 11 76 12
REMARK SMILES IDX 77 13 81 14 78 15 80 16 79 17 82 18 85 19 83 20 84 21 6 22
REMARK SMILES IDX 7 23 8 24 9 25 10 26 71 27 11 28 70 29 12 30 13 31 14 32
REMARK SMILES IDX 64 33 15 34 69 35 63 36 65 37 16 38 68 39 62 40 61 41 17 43
REMARK SMILES IDX 49 44 29 45 48 46 30 47 33 48 47 49 66 50 31 51 32 52 46 54
REMARK SMILES IDX 67 55 34 56 18 57 19 58 27 59 20 60 21 61 25 62 28 63 22 64
REMARK SMILES IDX 23 65 26 66 24 67 50 68 51 69 59 70 52 71 53 72 57 73 60 74
REMARK SMILES IDX 54 75 55 76 58 77 56 78 35 79 36 80 44 81 37 82 38 83 42 84
REMARK SMILES IDX 45 85 39 86 40 87 43 88 41 89
REMARK H PARENT 65 42 33 53
REMARK Flexibility Score: inf
ROOT
ATOM      1  C   UNL A   1      33.221  33.804  28.031  1.00  0.00     0.275 C 
ENDROOT
BRANCH   1   2
ATOM      2  C   UNL A   1      33.431  35.084  28.844  1.00  0.00     0.275 C 
BRANCH   2   3
ATOM      3  O   UNL A   1      32.696  35.096  30.083  1.00  0.00    -0.459 OA
BRANCH   3   4
ATOM      4  C   UNL A   1      33.085  34.846  31.356  1.00  0.00     0.335 C 
ATOM      5  O   UNL A   1      32.309  35.158  32.255  1.00  0.00    -0.247 OA
BRANCH   4   6
ATOM      6  C   UNL A   1      34.378  34.207  31.661  1.00  0.00     0.048 C 
ATOM      7  C   UNL A   1      35.344  34.799  32.393  1.00  0.00    -0.026 C 
ATOM      8  C   UNL A   1      34.858  32.839  31.276  1.00  0.00     0.066 C 
ATOM      9  O   UNL A   1      35.312  36.043  32.932  1.00  0.00    -0.860 OA
ATOM     10  N   UNL A   1      36.444  33.990  32.605  1.00  0.00    -0.354 N 
ATOM     11  C   UNL A   1      36.280  32.738  31.851  1.00  0.00     0.126 C 
BRANCH  10  12
ATOM     12  C   UNL A   1      37.783  34.422  32.654  1.00  0.00     0.044 A 
ATOM     13  C   UNL A   1      38.480  34.510  33.861  1.00  0.00     0.030 A 
ATOM     14  C   UNL A   1      38.487  34.576  31.458  1.00  0.00     0.076 A 
ATOM     15  C   UNL A   1      39.876  34.620  33.856  1.00  0.00     0.052 A 
ATOM     16  C   UNL A   1      39.867  34.650  31.438  1.00  0.00     0.163 A 
ATOM     17  C   UNL A   1      40.563  34.604  32.643  1.00  0.00     0.161 A 
ATOM     18  O   UNL A   1      40.457  34.626  30.201  1.00  0.00    -0.486 OA
ATOM     19  O   UNL A   1      41.923  34.407  32.678  1.00  0.00    -0.486 OA
ATOM     20  C   UNL A   1      41.883  34.515  30.270  1.00  0.00     0.271 C 
ATOM     21  C   UNL A   1      42.302  33.701  31.484  1.00  0.00     0.271 C 
ENDBRANCH  10  12
ENDBRANCH   4   6
ENDBRANCH   3   4
ENDBRANCH   2   3
ENDBRANCH   1   2
BRANCH   1  22
ATOM     22  O   UNL A   1      34.458  33.113  27.782  1.00  0.00    -0.458 OA
BRANCH  22  23
ATOM     23  C   UNL A   1      34.348  31.757  27.690  1.00  0.00     0.338 C 
ATOM     24  O   UNL A   1      33.432  31.139  27.193  1.00  0.00    -0.246 OA
BRANCH  23  25
ATOM     25  C   UNL A   1      35.587  31.124  28.201  1.00  0.00     0.060 A 
ATOM     26  C   UNL A   1      35.519  29.823  28.710  1.00  0.00     0.016 A 
ATOM     27  C   UNL A   1      36.807  31.796  28.194  1.00  0.00     0.016 A 
ATOM     28  C   UNL A   1      36.667  29.194  29.221  1.00  0.00     0.010 A 
ATOM     29  C   UNL A   1      37.950  31.154  28.687  1.00  0.00     0.010 A 
ATOM     30  C   UNL A   1      37.909  29.846  29.216  1.00  0.00    -0.014 A 
BRANCH  30  31
ATOM     31  C   UNL A   1      39.149  29.205  29.779  1.00  0.00     0.031 A 
ATOM     32  C   UNL A   1      39.798  29.776  31.022  1.00  0.00     0.074 A 
ATOM     33  C   UNL A   1      39.765  28.160  29.177  1.00  0.00     0.049 A 
ATOM     34  N   UNL A   1      40.881  29.385  31.657  1.00  0.00    -0.248 NA
ATOM     35  C   UNL A   1      39.164  30.961  31.620  1.00  0.00     0.031 C 
ATOM     36  C   UNL A   1      39.348  27.517  27.932  1.00  0.00     0.029 A 
ATOM     37  N   UNL A   1      40.918  27.482  29.519  1.00  0.00    -0.354 N 
ATOM     38  C   UNL A   1      41.020  30.249  32.735  1.00  0.00     0.074 A 
ATOM     39  C   UNL A   1      40.014  31.274  32.584  1.00  0.00     0.031 C 
ATOM     40  C   UNL A   1      40.256  26.587  27.584  1.00  0.00     0.029 A 
ATOM     41  C   UNL A   1      41.313  26.545  28.592  1.00  0.00     0.049 A 
ATOM     42  H   UNL A   1      41.414  27.653  30.353  1.00  0.00     0.167 HD
ATOM     43  C   UNL A   1      41.845  30.165  33.807  1.00  0.00     0.037 A 
ATOM     44  C   UNL A   1      42.395  25.739  28.550  1.00  0.00     0.037 A 
ATOM     45  C   UNL A   1      42.852  29.156  33.995  1.00  0.00     0.049 A 
ATOM     46  C   UNL A   1      43.356  25.698  29.713  1.00  0.00     0.074 A 
ATOM     47  C   UNL A   1      43.674  28.949  35.090  1.00  0.00     0.029 A 
ATOM     48  N   UNL A   1      43.185  28.192  33.059  1.00  0.00    -0.354 N 
ATOM     49  N   UNL A   1      43.374  26.421  30.804  1.00  0.00    -0.248 NA
ATOM     50  C   UNL A   1      44.423  24.683  29.659  1.00  0.00     0.031 C 
ATOM     51  C   UNL A   1      44.541  27.892  34.796  1.00  0.00     0.029 A 
ATOM     52  C   UNL A   1      44.218  27.403  33.542  1.00  0.00     0.049 A 
ATOM     53  H   UNL A   1      42.754  28.083  32.180  1.00  0.00     0.167 HD
ATOM     54  C   UNL A   1      44.401  25.907  31.589  1.00  0.00     0.074 A 
ATOM     55  C   UNL A   1      44.991  24.816  30.848  1.00  0.00     0.031 C 
ATOM     56  C   UNL A   1      44.800  26.298  32.824  1.00  0.00     0.037 A 
BRANCH  43  57
ATOM     57  C   UNL A   1      41.631  31.165  34.909  1.00  0.00     0.064 A 
ATOM     58  C   UNL A   1      40.511  31.078  35.754  1.00  0.00     0.173 A 
ATOM     59  C   UNL A   1      42.555  32.191  35.150  1.00  0.00     0.173 A 
ATOM     60  F   UNL A   1      39.593  30.118  35.562  1.00  0.00    -0.203 F 
ATOM     61  C   UNL A   1      40.303  32.005  36.769  1.00  0.00     0.198 A 
ATOM     62  C   UNL A   1      42.362  33.094  36.193  1.00  0.00     0.198 A 
ATOM     63  F   UNL A   1      43.647  32.314  34.382  1.00  0.00    -0.203 F 
ATOM     64  F   UNL A   1      39.193  31.938  37.517  1.00  0.00    -0.200 F 
ATOM     65  C   UNL A   1      41.233  33.008  36.994  1.00  0.00     0.200 A 
ATOM     66  F   UNL A   1      43.270  34.054  36.421  1.00  0.00    -0.200 F 
ATOM     67  F   UNL A   1      41.035  33.896  37.976  1.00  0.00    -0.200 F 
ENDBRANCH  43  57
BRANCH  44  68
ATOM     68  C   UNL A   1      42.632  24.853  27.376  1.00  0.00     0.064 A 
ATOM     69  C   UNL A   1      41.998  23.607  27.263  1.00  0.00     0.173 A 
ATOM     70  C   UNL A   1      43.565  25.201  26.389  1.00  0.00     0.173 A 
ATOM     71  F   UNL A   1      41.126  23.212  28.202  1.00  0.00    -0.203 F 
ATOM     72  C   UNL A   1      42.318  22.727  26.230  1.00  0.00     0.198 A 
ATOM     73  C   UNL A   1      43.862  24.332  25.340  1.00  0.00     0.198 A 
ATOM     74  F   UNL A   1      44.210  26.374  26.456  1.00  0.00    -0.203 F 
ATOM     75  F   UNL A   1      41.754  21.511  26.190  1.00  0.00    -0.200 F 
ATOM     76  C   UNL A   1      43.249  23.090  25.269  1.00  0.00     0.200 A 
ATOM     77  F   UNL A   1      44.761  24.686  24.411  1.00  0.00    -0.200 F 
ATOM     78  F   UNL A   1      43.568  22.235  24.287  1.00  0.00    -0.200 F 
ENDBRANCH  44  68
BRANCH  56  79
ATOM     79  C   UNL A   1      45.877  25.496  33.502  1.00  0.00     0.064 A 
ATOM     80  C   UNL A   1      47.241  25.771  33.322  1.00  0.00     0.173 A 
ATOM     81  C   UNL A   1      45.534  24.443  34.366  1.00  0.00     0.173 A 
ATOM     82  F   UNL A   1      47.628  26.759  32.500  1.00  0.00    -0.203 F 
ATOM     83  C   UNL A   1      48.218  24.999  33.948  1.00  0.00     0.198 A 
ATOM     84  C   UNL A   1      46.513  23.698  35.019  1.00  0.00     0.198 A 
ATOM     85  F   UNL A   1      44.245  24.141  34.586  1.00  0.00    -0.203 F 
ATOM     86  F   UNL A   1      49.515  25.242  33.710  1.00  0.00    -0.200 F 
ATOM     87  C   UNL A   1      47.854  23.969  34.801  1.00  0.00     0.200 A 
ATOM     88  F   UNL A   1      46.155  22.715  35.858  1.00  0.00    -0.200 F 
ATOM     89  F   UNL A   1      48.796  23.230  35.404  1.00  0.00    -0.200 F 
ENDBRANCH  56  79
ENDBRANCH  30  31
ENDBRANCH  23  25
ENDBRANCH  22  23
ENDBRANCH   1  22
TORSDOF 12
ENDMDL
MODEL 3
REMARK VINA RESULT:     -11.9      6.300     11.953
REMARK SMILES O=C(OCCOC(=O)c1ccc(-c2c3nc(c(-c4c(F)c(F)c(F)c(F)c4F)c4ccc([nH]4)c(-c4c(F)c(F)c(F)c(F)c4F)c4nc(c(-c5c(F)c(F)c(F)c(F)c5F)c5ccc2[nH]5)C=C4)C=C3)cc1)C1=C([O-])N(c2ccc3c(c2)OCCO3)CC1
REMARK SMILES IDX 5 1 4 2 3 3 2 4 1 5 72 6 73 7 87 8 74 9 75 10 86 11 76 12
REMARK SMILES IDX 77 13 81 14 78 15 80 16 79 17 82 18 85 19 83 20 84 21 6 22
REMARK SMILES IDX 7 23 8 24 9 25 10 26 71 27 11 28 70 29 12 30 13 31 14 32
REMARK SMILES IDX 64 33 15 34 69 35 63 36 65 37 16 38 68 39 62 40 61 41 17 43
REMARK SMILES IDX 49 44 29 45 48 46 30 47 33 48 47 49 66 50 31 51 32 52 46 54
REMARK SMILES IDX 67 55 34 56 18 57 19 58 27 59 20 60 21 61 25 62 28 63 22 64
REMARK SMILES IDX 23 65 26 66 24 67 50 68 51 69 59 70 52 71 53 72 57 73 60 74
REMARK SMILES IDX 54 75 55 76 58 77 56 78 35 79 36 80 44 81 37 82 38 83 42 84
REMARK SMILES IDX 45 85 39 86 40 87 43 88 41 89
REMARK H PARENT 65 42 33 53
REMARK Flexibility Score: inf
ROOT
ATOM      1  C   UNL A   1      44.171  21.828  25.017  1.00  0.00     0.275 C 
ENDROOT
BRANCH   1   2
ATOM      2  C   UNL A   1      43.162  20.941  25.752  1.00  0.00     0.275 C 
BRANCH   2   3
ATOM      3  O   UNL A   1      41.806  21.415  25.643  1.00  0.00    -0.459 OA
BRANCH   3   4
ATOM      4  C   UNL A   1      40.749  21.300  26.482  1.00  0.00     0.335 C 
ATOM      5  O   UNL A   1      40.792  20.410  27.327  1.00  0.00    -0.247 OA
BRANCH   4   6
ATOM      6  C   UNL A   1      39.594  22.213  26.405  1.00  0.00     0.048 C 
ATOM      7  C   UNL A   1      38.397  21.857  25.897  1.00  0.00    -0.026 C 
ATOM      8  C   UNL A   1      39.496  23.636  26.874  1.00  0.00     0.066 C 
ATOM      9  O   UNL A   1      38.064  20.656  25.363  1.00  0.00    -0.860 OA
ATOM     10  N   UNL A   1      37.446  22.854  25.985  1.00  0.00    -0.354 N 
ATOM     11  C   UNL A   1      38.069  24.078  26.512  1.00  0.00     0.126 C 
BRANCH  10  12
ATOM     12  C   UNL A   1      36.448  23.123  25.029  1.00  0.00     0.044 A 
ATOM     13  C   UNL A   1      36.695  23.003  23.659  1.00  0.00     0.030 A 
ATOM     14  C   UNL A   1      35.135  23.322  25.460  1.00  0.00     0.076 A 
ATOM     15  C   UNL A   1      35.624  22.953  22.758  1.00  0.00     0.052 A 
ATOM     16  C   UNL A   1      34.067  23.241  24.586  1.00  0.00     0.163 A 
ATOM     17  C   UNL A   1      34.316  22.987  23.240  1.00  0.00     0.161 A 
ATOM     18  O   UNL A   1      32.819  23.281  25.149  1.00  0.00    -0.486 OA
ATOM     19  O   UNL A   1      33.305  22.635  22.378  1.00  0.00    -0.486 OA
ATOM     20  C   UNL A   1      31.777  23.002  24.207  1.00  0.00     0.271 C 
ATOM     21  C   UNL A   1      32.258  22.021  23.148  1.00  0.00     0.271 C 
ENDBRANCH  10  12
ENDBRANCH   4   6
ENDBRANCH   3   4
ENDBRANCH   2   3
ENDBRANCH   1   2
BRANCH   1  22
ATOM     22  O   UNL A   1      43.636  23.131  24.730  1.00  0.00    -0.458 OA
BRANCH  22  23
ATOM     23  C   UNL A   1      44.470  24.170  25.022  1.00  0.00     0.338 C 
ATOM     24  O   UNL A   1      45.499  24.453  24.447  1.00  0.00    -0.246 OA
BRANCH  23  25
ATOM     25  C   UNL A   1      43.877  24.993  26.103  1.00  0.00     0.060 A 
ATOM     26  C   UNL A   1      44.314  26.312  26.263  1.00  0.00     0.016 A 
ATOM     27  C   UNL A   1      42.907  24.481  26.961  1.00  0.00     0.016 A 
ATOM     28  C   UNL A   1      43.791  27.119  27.287  1.00  0.00     0.010 A 
ATOM     29  C   UNL A   1      42.377  25.300  27.967  1.00  0.00     0.010 A 
ATOM     30  C   UNL A   1      42.807  26.630  28.158  1.00  0.00    -0.014 A 
BRANCH  30  31
ATOM     31  C   UNL A   1      42.246  27.466  29.279  1.00  0.00     0.031 A 
ATOM     32  C   UNL A   1      42.796  27.316  30.682  1.00  0.00     0.074 A 
ATOM     33  C   UNL A   1      41.206  28.314  29.103  1.00  0.00     0.049 A 
ATOM     34  N   UNL A   1      42.440  27.927  31.791  1.00  0.00    -0.248 NA
ATOM     35  C   UNL A   1      43.873  26.332  30.874  1.00  0.00     0.031 C 
ATOM     36  C   UNL A   1      40.483  28.542  27.853  1.00  0.00     0.029 A 
ATOM     37  N   UNL A   1      40.540  29.116  30.010  1.00  0.00    -0.354 N 
ATOM     38  C   UNL A   1      43.273  27.425  32.782  1.00  0.00     0.074 A 
ATOM     39  C   UNL A   1      44.040  26.356  32.186  1.00  0.00     0.031 C 
ATOM     40  C   UNL A   1      39.447  29.369  28.080  1.00  0.00     0.029 A 
ATOM     41  C   UNL A   1      39.439  29.755  29.489  1.00  0.00     0.049 A 
ATOM     42  H   UNL A   1      40.828  29.221  30.946  1.00  0.00     0.167 HD
ATOM     43  C   UNL A   1      43.461  27.860  34.052  1.00  0.00     0.037 A 
ATOM     44  C   UNL A   1      38.525  30.562  30.069  1.00  0.00     0.037 A 
ATOM     45  C   UNL A   1      42.723  28.925  34.676  1.00  0.00     0.049 A 
ATOM     46  C   UNL A   1      38.693  30.988  31.507  1.00  0.00     0.074 A 
ATOM     47  C   UNL A   1      42.906  29.482  35.930  1.00  0.00     0.029 A 
ATOM     48  N   UNL A   1      41.652  29.585  34.098  1.00  0.00    -0.354 N 
ATOM     49  N   UNL A   1      39.591  30.620  32.385  1.00  0.00    -0.248 NA
ATOM     50  C   UNL A   1      37.742  31.990  32.019  1.00  0.00     0.031 C 
ATOM     51  C   UNL A   1      41.911  30.445  36.133  1.00  0.00     0.029 A 
ATOM     52  C   UNL A   1      41.148  30.528  34.981  1.00  0.00     0.049 A 
ATOM     53  H   UNL A   1      41.300  29.410  33.195  1.00  0.00     0.167 HD
ATOM     54  C   UNL A   1      39.357  31.390  33.520  1.00  0.00     0.074 A 
ATOM     55  C   UNL A   1      38.226  32.240  33.226  1.00  0.00     0.031 C 
ATOM     56  C   UNL A   1      40.037  31.398  34.692  1.00  0.00     0.037 A 
BRANCH  43  57
ATOM     57  C   UNL A   1      44.576  27.220  34.832  1.00  0.00     0.064 A 
ATOM     58  C   UNL A   1      44.334  26.104  35.651  1.00  0.00     0.173 A 
ATOM     59  C   UNL A   1      45.892  27.692  34.740  1.00  0.00     0.173 A 
ATOM     60  F   UNL A   1      43.090  25.617  35.779  1.00  0.00    -0.203 F 
ATOM     61  C   UNL A   1      45.359  25.513  36.383  1.00  0.00     0.198 A 
ATOM     62  C   UNL A   1      46.922  27.073  35.444  1.00  0.00     0.198 A 
ATOM     63  F   UNL A   1      46.181  28.747  33.965  1.00  0.00    -0.203 F 
ATOM     64  F   UNL A   1      45.087  24.492  37.207  1.00  0.00    -0.200 F 
ATOM     65  C   UNL A   1      46.654  25.993  36.272  1.00  0.00     0.200 A 
ATOM     66  F   UNL A   1      48.178  27.526  35.325  1.00  0.00    -0.200 F 
ATOM     67  F   UNL A   1      47.642  25.419  36.971  1.00  0.00    -0.200 F 
ENDBRANCH  43  57
BRANCH  44  68
ATOM     68  C   UNL A   1      37.365  31.073  29.286  1.00  0.00     0.064 A 
ATOM     69  C   UNL A   1      37.284  32.417  28.894  1.00  0.00     0.173 A 
ATOM     70  C   UNL A   1      36.273  30.242  28.992  1.00  0.00     0.173 A 
ATOM     71  F   UNL A   1      38.286  33.260  29.186  1.00  0.00    -0.203 F 
ATOM     72  C   UNL A   1      36.141  32.920  28.275  1.00  0.00     0.198 A 
ATOM     73  C   UNL A   1      35.143  30.740  28.346  1.00  0.00     0.198 A 
ATOM     74  F   UNL A   1      36.292  28.953  29.357  1.00  0.00    -0.203 F 
ATOM     75  F   UNL A   1      36.060  34.226  27.982  1.00  0.00    -0.200 F 
ATOM     76  C   UNL A   1      35.071  32.082  28.001  1.00  0.00     0.200 A 
ATOM     77  F   UNL A   1      34.111  29.927  28.081  1.00  0.00    -0.200 F 
ATOM     78  F   UNL A   1      33.965  32.571  27.422  1.00  0.00    -0.200 F 
ENDBRANCH  44  68
BRANCH  56  79
ATOM     79  C   UNL A   1      39.639  32.413  35.729  1.00  0.00     0.064 A 
ATOM     80  C   UNL A   1      40.230  33.683  35.799  1.00  0.00     0.173 A 
ATOM     81  C   UNL A   1      38.629  32.113  36.658  1.00  0.00     0.173 A 
ATOM     82  F   UNL A   1      41.207  34.022  34.943  1.00  0.00    -0.203 F 
ATOM     83  C   UNL A   1      39.854  34.597  36.782  1.00  0.00     0.198 A 
ATOM     84  C   UNL A   1      38.231  33.042  37.616  1.00  0.00     0.198 A 
ATOM     85  F   UNL A   1      38.020  30.917  36.634  1.00  0.00    -0.203 F 
ATOM     86  F   UNL A   1      40.478  35.780  36.867  1.00  0.00    -0.200 F 
ATOM     87  C   UNL A   1      38.852  34.279  37.684  1.00  0.00     0.200 A 
ATOM     88  F   UNL A   1      37.246  32.738  38.475  1.00  0.00    -0.200 F 
ATOM     89  F   UNL A   1      38.490  35.161  38.627  1.00  0.00    -0.200 F 
ENDBRANCH  56  79
ENDBRANCH  30  31
ENDBRANCH  23  25
ENDBRANCH  22  23
ENDBRANCH   1  22
TORSDOF 12
ENDMDL
