MODEL 1
REMARK VINA RESULT:     -11.5      0.000      0.000
REMARK SMILES CC(C)c1cc(C2CC[NH+](Cc3c[nH]nc3C(=O)OCCOC(=O)c3ccc(-c4c5nc(c(-c6c(F)c(F)c(F)c(F)c6F)c6ccc([nH]6)c(-c6c(F)c(F)c(F)c(F)c6F)c6nc(c(-c7c(F)c(F)c(F)c(F)c7F)c7ccc4[nH]7)C=C6)C=C5)cc3)CC2)n[nH]1
REMARK SMILES IDX 20 1 19 2 17 3 18 4 16 5 12 6 13 7 14 8 15 9 11 11 10 12
REMARK SMILES IDX 7 13 8 14 89 15 9 16 88 17 6 19 4 20 5 21 91 22 90 23 2 25
REMARK SMILES IDX 1 26 3 27 21 28 22 29 23 30 24 31 25 32 26 33 87 34 27 35
REMARK SMILES IDX 86 36 28 37 29 38 30 39 80 40 31 41 85 42 79 43 81 44 32 45
REMARK SMILES IDX 84 46 78 47 77 48 33 50 65 51 45 52 64 53 46 54 49 55 63 56
REMARK SMILES IDX 82 57 47 58 48 59 62 61 83 62 50 63 34 64 35 65 43 66 36 67
REMARK SMILES IDX 37 68 41 69 44 70 38 71 39 72 42 73 40 74 66 75 67 76 75 77
REMARK SMILES IDX 68 78 69 79 73 80 76 81 70 82 71 83 74 84 72 85 51 86 52 87
REMARK SMILES IDX 60 88 53 89 54 90 58 91 61 92 55 93 56 94 59 95 57 96
REMARK H PARENT 14 10 10 18 91 24 81 49 49 60
REMARK Flexibility Score: inf
ROOT
ATOM      1  C   UNL A   1      35.376  33.551  28.355  1.00  0.00     0.275 C 
ENDROOT
BRANCH   1   2
ATOM      2  O   UNL A   1      34.548  34.554  27.736  1.00  0.00    -0.457 OA
BRANCH   2   3
ATOM      3  C   UNL A   1      33.328  34.757  28.327  1.00  0.00     0.359 C 
ATOM      4  O   UNL A   1      32.321  34.146  28.000  1.00  0.00    -0.244 OA
BRANCH   3   5
ATOM      5  C   UNL A   1      33.353  35.742  29.435  1.00  0.00     0.178 A 
ATOM      6  C   UNL A   1      33.516  35.570  30.857  1.00  0.00     0.059 A 
ATOM      7  C   UNL A   1      33.498  36.863  31.353  1.00  0.00     0.115 A 
ATOM      8  N   UNL A   1      33.280  37.690  30.302  1.00  0.00    -0.284 N 
ATOM      9  N   UNL A   1      33.221  37.054  29.133  1.00  0.00    -0.168 NA
ATOM     10  H   UNL A   1      33.176  38.665  30.393  1.00  0.00     0.189 HD
BRANCH   6  11
ATOM     11  C   UNL A   1      33.785  34.317  31.638  1.00  0.00     0.303 C 
BRANCH  11  12
ATOM     12  N   UNL A   1      34.905  34.393  32.587  1.00  0.00    -0.331 N 
ATOM     13  C   UNL A   1      37.236  33.789  34.273  1.00  0.00     0.051 C 
ATOM     14  C   UNL A   1      35.814  33.889  34.834  1.00  0.00     0.071 C 
ATOM     15  C   UNL A   1      37.348  34.559  32.949  1.00  0.00     0.071 C 
ATOM     16  C   UNL A   1      34.749  33.571  33.786  1.00  0.00     0.263 C 
ATOM     17  C   UNL A   1      36.220  34.254  31.957  1.00  0.00     0.263 C 
ATOM     18  H   UNL A   1      34.869  35.353  32.933  1.00  0.00     0.348 HD
BRANCH  13  19
ATOM     19  C   UNL A   1      37.747  32.370  34.190  1.00  0.00     0.066 A 
ATOM     20  C   UNL A   1      38.698  30.441  33.605  1.00  0.00     0.038 A 
ATOM     21  C   UNL A   1      38.427  31.709  33.139  1.00  0.00     0.049 A 
ATOM     22  N   UNL A   1      38.156  30.400  34.859  1.00  0.00    -0.282 N 
ATOM     23  N   UNL A   1      37.572  31.548  35.235  1.00  0.00    -0.180 NA
ATOM     24  H   UNL A   1      38.190  29.601  35.435  1.00  0.00     0.190 HD
BRANCH  20  25
ATOM     25  C   UNL A   1      39.418  29.295  32.967  1.00  0.00     0.031 C 
ATOM     26  C   UNL A   1      40.724  28.969  33.691  1.00  0.00     0.014 C 
ATOM     27  C   UNL A   1      38.520  28.062  32.876  1.00  0.00     0.014 C 
ENDBRANCH  20  25
ENDBRANCH  13  19
ENDBRANCH  11  12
ENDBRANCH   6  11
ENDBRANCH   3   5
ENDBRANCH   2   3
ENDBRANCH   1   2
BRANCH   1  28
ATOM     28  C   UNL A   1      34.601  32.259  28.644  1.00  0.00     0.275 C 
BRANCH  28  29
ATOM     29  O   UNL A   1      34.548  31.385  27.500  1.00  0.00    -0.458 OA
BRANCH  29  30
ATOM     30  C   UNL A   1      34.712  30.069  27.776  1.00  0.00     0.338 C 
ATOM     31  O   UNL A   1      33.889  29.180  27.623  1.00  0.00    -0.246 OA
BRANCH  30  32
ATOM     32  C   UNL A   1      36.105  29.806  28.177  1.00  0.00     0.060 A 
ATOM     33  C   UNL A   1      37.097  29.990  27.212  1.00  0.00     0.016 A 
ATOM     34  C   UNL A   1      36.439  29.325  29.445  1.00  0.00     0.016 A 
ATOM     35  C   UNL A   1      38.426  29.702  27.504  1.00  0.00     0.010 A 
ATOM     36  C   UNL A   1      37.775  29.024  29.738  1.00  0.00     0.010 A 
ATOM     37  C   UNL A   1      38.775  29.203  28.765  1.00  0.00    -0.014 A 
BRANCH  37  38
ATOM     38  C   UNL A   1      40.184  28.819  29.023  1.00  0.00     0.031 A 
ATOM     39  C   UNL A   1      41.087  29.750  29.777  1.00  0.00     0.074 A 
ATOM     40  C   UNL A   1      40.635  27.614  28.631  1.00  0.00     0.049 A 
ATOM     41  N   UNL A   1      42.351  29.611  30.086  1.00  0.00    -0.248 NA
ATOM     42  C   UNL A   1      40.484  31.005  30.251  1.00  0.00     0.031 C 
ATOM     43  C   UNL A   1      39.839  26.605  27.934  1.00  0.00     0.029 A 
ATOM     44  N   UNL A   1      41.871  27.034  28.770  1.00  0.00    -0.354 N 
ATOM     45  C   UNL A   1      42.699  30.761  30.781  1.00  0.00     0.074 A 
ATOM     46  C   UNL A   1      41.518  31.598  30.831  1.00  0.00     0.031 C 
ATOM     47  C   UNL A   1      40.608  25.529  27.702  1.00  0.00     0.029 A 
ATOM     48  C   UNL A   1      41.957  25.787  28.202  1.00  0.00     0.049 A 
ATOM     49  H   UNL A   1      42.623  27.470  29.231  1.00  0.00     0.167 HD
ATOM     50  C   UNL A   1      43.893  31.086  31.333  1.00  0.00     0.037 A 
ATOM     51  C   UNL A   1      43.011  24.957  28.080  1.00  0.00     0.037 A 
ATOM     52  C   UNL A   1      45.067  30.252  31.284  1.00  0.00     0.049 A 
ATOM     53  C   UNL A   1      44.341  25.363  28.654  1.00  0.00     0.074 A 
ATOM     54  C   UNL A   1      46.323  30.497  31.809  1.00  0.00     0.029 A 
ATOM     55  N   UNL A   1      45.124  29.009  30.671  1.00  0.00    -0.354 N 
ATOM     56  N   UNL A   1      44.663  26.455  29.303  1.00  0.00    -0.248 NA
ATOM     57  C   UNL A   1      45.455  24.420  28.478  1.00  0.00     0.031 C 
ATOM     58  C   UNL A   1      47.153  29.417  31.482  1.00  0.00     0.029 A 
ATOM     59  C   UNL A   1      46.401  28.481  30.790  1.00  0.00     0.049 A 
ATOM     60  H   UNL A   1      44.371  28.566  30.218  1.00  0.00     0.167 HD
ATOM     61  C   UNL A   1      46.008  26.329  29.620  1.00  0.00     0.074 A 
ATOM     62  C   UNL A   1      46.438  25.043  29.111  1.00  0.00     0.031 C 
ATOM     63  C   UNL A   1      46.814  27.202  30.273  1.00  0.00     0.037 A 
BRANCH  50  64
ATOM     64  C   UNL A   1      43.994  32.419  32.012  1.00  0.00     0.064 A 
ATOM     65  C   UNL A   1      43.763  32.562  33.389  1.00  0.00     0.173 A 
ATOM     66  C   UNL A   1      44.339  33.564  31.280  1.00  0.00     0.173 A 
ATOM     67  F   UNL A   1      43.414  31.499  34.129  1.00  0.00    -0.203 F 
ATOM     68  C   UNL A   1      43.848  33.809  34.001  1.00  0.00     0.198 A 
ATOM     69  C   UNL A   1      44.448  34.805  31.901  1.00  0.00     0.198 A 
ATOM     70  F   UNL A   1      44.574  33.480  29.962  1.00  0.00    -0.203 F 
ATOM     71  F   UNL A   1      43.576  33.931  35.309  1.00  0.00    -0.200 F 
ATOM     72  C   UNL A   1      44.195  34.928  33.259  1.00  0.00     0.200 A 
ATOM     73  F   UNL A   1      44.791  35.884  31.183  1.00  0.00    -0.200 F 
ATOM     74  F   UNL A   1      44.275  36.128  33.850  1.00  0.00    -0.200 F 
ENDBRANCH  50  64
BRANCH  51  75
ATOM     75  C   UNL A   1      42.848  23.668  27.361  1.00  0.00     0.064 A 
ATOM     76  C   UNL A   1      43.225  23.532  26.020  1.00  0.00     0.173 A 
ATOM     77  C   UNL A   1      42.317  22.543  28.010  1.00  0.00     0.173 A 
ATOM     78  F   UNL A   1      43.711  24.588  25.351  1.00  0.00    -0.203 F 
ATOM     79  C   UNL A   1      43.073  22.319  25.351  1.00  0.00     0.198 A 
ATOM     80  C   UNL A   1      42.189  21.325  27.348  1.00  0.00     0.198 A 
ATOM     81  F   UNL A   1      41.935  22.626  29.293  1.00  0.00    -0.203 F 
ATOM     82  F   UNL A   1      43.410  22.224  24.058  1.00  0.00    -0.200 F 
ATOM     83  C   UNL A   1      42.563  21.215  26.018  1.00  0.00     0.200 A 
ATOM     84  F   UNL A   1      41.704  20.259  27.999  1.00  0.00    -0.200 F 
ATOM     85  F   UNL A   1      42.425  20.047  25.375  1.00  0.00    -0.200 F 
ENDBRANCH  51  75
BRANCH  63  86
ATOM     86  C   UNL A   1      48.242  26.790  30.482  1.00  0.00     0.064 A 
ATOM     87  C   UNL A   1      48.618  25.974  31.559  1.00  0.00     0.173 A 
ATOM     88  C   UNL A   1      49.237  27.183  29.575  1.00  0.00     0.173 A 
ATOM     89  F   UNL A   1      47.705  25.585  32.462  1.00  0.00    -0.203 F 
ATOM     90  C   UNL A   1      49.943  25.583  31.732  1.00  0.00     0.198 A 
ATOM     91  C   UNL A   1      50.557  26.771  29.737  1.00  0.00     0.198 A 
ATOM     92  F   UNL A   1      48.926  27.960  28.525  1.00  0.00    -0.203 F 
ATOM     93  F   UNL A   1      50.287  24.836  32.789  1.00  0.00    -0.200 F 
ATOM     94  C   UNL A   1      50.909  25.976  30.817  1.00  0.00     0.200 A 
ATOM     95  F   UNL A   1      51.488  27.144  28.849  1.00  0.00    -0.200 F 
ATOM     96  F   UNL A   1      52.184  25.595  30.982  1.00  0.00    -0.200 F 
ENDBRANCH  63  86
ENDBRANCH  37  38
ENDBRANCH  30  32
ENDBRANCH  29  30
ENDBRANCH  28  29
ENDBRANCH   1  28
TORSDOF 15
ENDMDL
MODEL 2
REMARK VINA RESULT:     -11.3      0.243      1.945
REMARK SMILES CC(C)c1cc(C2CC[NH+](Cc3c[nH]nc3C(=O)OCCOC(=O)c3ccc(-c4c5nc(c(-c6c(F)c(F)c(F)c(F)c6F)c6ccc([nH]6)c(-c6c(F)c(F)c(F)c(F)c6F)c6nc(c(-c7c(F)c(F)c(F)c(F)c7F)c7ccc4[nH]7)C=C6)C=C5)cc3)CC2)n[nH]1
REMARK SMILES IDX 20 1 19 2 17 3 18 4 16 5 12 6 13 7 14 8 15 9 11 11 10 12
REMARK SMILES IDX 7 13 8 14 89 15 9 16 88 17 6 19 4 20 5 21 91 22 90 23 2 25
REMARK SMILES IDX 1 26 3 27 21 28 22 29 23 30 24 31 25 32 26 33 87 34 27 35
REMARK SMILES IDX 86 36 28 37 29 38 30 39 80 40 31 41 85 42 79 43 81 44 32 45
REMARK SMILES IDX 84 46 78 47 77 48 33 50 65 51 45 52 64 53 46 54 49 55 63 56
REMARK SMILES IDX 82 57 47 58 48 59 62 61 83 62 50 63 34 64 35 65 43 66 36 67
REMARK SMILES IDX 37 68 41 69 44 70 38 71 39 72 42 73 40 74 66 75 67 76 75 77
REMARK SMILES IDX 68 78 69 79 73 80 76 81 70 82 71 83 74 84 72 85 51 86 52 87
REMARK SMILES IDX 60 88 53 89 54 90 58 91 61 92 55 93 56 94 59 95 57 96
REMARK H PARENT 14 10 10 18 91 24 81 49 49 60
REMARK Flexibility Score: inf
ROOT
ATOM      1  C   UNL A   1      35.283  33.520  28.227  1.00  0.00     0.275 C 
ENDROOT
BRANCH   1   2
ATOM      2  O   UNL A   1      34.456  34.575  27.700  1.00  0.00    -0.457 OA
BRANCH   2   3
ATOM      3  C   UNL A   1      33.264  34.769  28.349  1.00  0.00     0.359 C 
ATOM      4  O   UNL A   1      32.232  34.199  28.027  1.00  0.00    -0.244 OA
BRANCH   3   5
ATOM      5  C   UNL A   1      33.354  35.689  29.508  1.00  0.00     0.178 A 
ATOM      6  C   UNL A   1      33.667  35.445  30.893  1.00  0.00     0.059 A 
ATOM      7  C   UNL A   1      33.638  36.704  31.469  1.00  0.00     0.115 A 
ATOM      8  N   UNL A   1      33.276  37.577  30.497  1.00  0.00    -0.284 N 
ATOM      9  N   UNL A   1      33.130  37.007  29.303  1.00  0.00    -0.168 NA
ATOM     10  H   UNL A   1      33.135  38.538  30.659  1.00  0.00     0.189 HD
BRANCH   6  11
ATOM     11  C   UNL A   1      34.072  34.165  31.565  1.00  0.00     0.303 C 
BRANCH  11  12
ATOM     12  N   UNL A   1      35.122  34.294  32.587  1.00  0.00    -0.331 N 
ATOM     13  C   UNL A   1      37.362  33.799  34.424  1.00  0.00     0.051 C 
ATOM     14  C   UNL A   1      35.903  33.828  34.889  1.00  0.00     0.071 C 
ATOM     15  C   UNL A   1      37.524  34.578  33.111  1.00  0.00     0.071 C 
ATOM     16  C   UNL A   1      34.926  33.461  33.773  1.00  0.00     0.263 C 
ATOM     17  C   UNL A   1      36.480  34.221  32.046  1.00  0.00     0.263 C 
ATOM     18  H   UNL A   1      35.015  35.249  32.929  1.00  0.00     0.348 HD
BRANCH  13  19
ATOM     19  C   UNL A   1      37.947  32.408  34.376  1.00  0.00     0.066 A 
ATOM     20  C   UNL A   1      39.156  30.580  33.975  1.00  0.00     0.038 A 
ATOM     21  C   UNL A   1      39.010  31.895  33.594  1.00  0.00     0.049 A 
ATOM     22  N   UNL A   1      38.184  30.370  34.913  1.00  0.00    -0.282 N 
ATOM     23  N   UNL A   1      37.438  31.455  35.170  1.00  0.00    -0.180 NA
ATOM     24  H   UNL A   1      38.044  29.503  35.360  1.00  0.00     0.190 HD
BRANCH  20  25
ATOM     25  C   UNL A   1      40.129  29.532  33.531  1.00  0.00     0.031 C 
ATOM     26  C   UNL A   1      41.011  29.050  34.681  1.00  0.00     0.014 C 
ATOM     27  C   UNL A   1      39.410  28.361  32.863  1.00  0.00     0.014 C 
ENDBRANCH  20  25
ENDBRANCH  13  19
ENDBRANCH  11  12
ENDBRANCH   6  11
ENDBRANCH   3   5
ENDBRANCH   2   3
ENDBRANCH   1   2
BRANCH   1  28
ATOM     28  C   UNL A   1      34.487  32.234  28.483  1.00  0.00     0.275 C 
BRANCH  28  29
ATOM     29  O   UNL A   1      34.567  31.312  27.379  1.00  0.00    -0.458 OA
BRANCH  29  30
ATOM     30  C   UNL A   1      34.721  30.012  27.729  1.00  0.00     0.338 C 
ATOM     31  O   UNL A   1      33.890  29.122  27.625  1.00  0.00    -0.246 OA
BRANCH  30  32
ATOM     32  C   UNL A   1      36.111  29.761  28.144  1.00  0.00     0.060 A 
ATOM     33  C   UNL A   1      37.114  29.973  27.195  1.00  0.00     0.016 A 
ATOM     34  C   UNL A   1      36.435  29.263  29.409  1.00  0.00     0.016 A 
ATOM     35  C   UNL A   1      38.442  29.697  27.501  1.00  0.00     0.010 A 
ATOM     36  C   UNL A   1      37.771  28.974  29.715  1.00  0.00     0.010 A 
ATOM     37  C   UNL A   1      38.781  29.182  28.758  1.00  0.00    -0.014 A 
BRANCH  37  38
ATOM     38  C   UNL A   1      40.191  28.812  29.029  1.00  0.00     0.031 A 
ATOM     39  C   UNL A   1      41.079  29.752  29.790  1.00  0.00     0.074 A 
ATOM     40  C   UNL A   1      40.657  27.611  28.642  1.00  0.00     0.049 A 
ATOM     41  N   UNL A   1      42.341  29.626  30.110  1.00  0.00    -0.248 NA
ATOM     42  C   UNL A   1      40.460  31.002  30.257  1.00  0.00     0.031 C 
ATOM     43  C   UNL A   1      39.878  26.593  27.939  1.00  0.00     0.029 A 
ATOM     44  N   UNL A   1      41.897  27.043  28.792  1.00  0.00    -0.354 N 
ATOM     45  C   UNL A   1      42.671  30.780  30.807  1.00  0.00     0.074 A 
ATOM     46  C   UNL A   1      41.483  31.605  30.846  1.00  0.00     0.031 C 
ATOM     47  C   UNL A   1      40.659  25.524  27.715  1.00  0.00     0.029 A 
ATOM     48  C   UNL A   1      42.001  25.796  28.227  1.00  0.00     0.049 A 
ATOM     49  H   UNL A   1      42.642  27.487  29.260  1.00  0.00     0.167 HD
ATOM     50  C   UNL A   1      43.858  31.117  31.369  1.00  0.00     0.037 A 
ATOM     51  C   UNL A   1      43.064  24.977  28.115  1.00  0.00     0.037 A 
ATOM     52  C   UNL A   1      45.040  30.294  31.332  1.00  0.00     0.049 A 
ATOM     53  C   UNL A   1      44.384  25.396  28.700  1.00  0.00     0.074 A 
ATOM     54  C   UNL A   1      46.289  30.551  31.867  1.00  0.00     0.029 A 
ATOM     55  N   UNL A   1      45.115  29.050  30.720  1.00  0.00    -0.354 N 
ATOM     56  N   UNL A   1      44.690  26.492  29.351  1.00  0.00    -0.248 NA
ATOM     57  C   UNL A   1      45.509  24.463  28.534  1.00  0.00     0.031 C 
ATOM     58  C   UNL A   1      47.132  29.479  31.549  1.00  0.00     0.029 A 
ATOM     59  C   UNL A   1      46.395  28.536  30.851  1.00  0.00     0.049 A 
ATOM     60  H   UNL A   1      44.370  28.600  30.261  1.00  0.00     0.167 HD
ATOM     61  C   UNL A   1      46.034  26.379  29.679  1.00  0.00     0.074 A 
ATOM     62  C   UNL A   1      46.481  25.097  29.176  1.00  0.00     0.031 C 
ATOM     63  C   UNL A   1      46.826  27.260  30.338  1.00  0.00     0.037 A 
BRANCH  50  64
ATOM     64  C   UNL A   1      43.940  32.450  32.048  1.00  0.00     0.064 A 
ATOM     65  C   UNL A   1      44.236  33.622  31.335  1.00  0.00     0.173 A 
ATOM     66  C   UNL A   1      43.706  32.561  33.427  1.00  0.00     0.173 A 
ATOM     67  F   UNL A   1      44.483  33.566  30.017  1.00  0.00    -0.203 F 
ATOM     68  C   UNL A   1      44.322  34.851  31.983  1.00  0.00     0.198 A 
ATOM     69  C   UNL A   1      43.769  33.795  34.067  1.00  0.00     0.198 A 
ATOM     70  F   UNL A   1      43.415  31.471  34.153  1.00  0.00    -0.203 F 
ATOM     71  F   UNL A   1      44.654  35.950  31.291  1.00  0.00    -0.200 F 
ATOM     72  C   UNL A   1      44.083  34.938  33.347  1.00  0.00     0.200 A 
ATOM     73  F   UNL A   1      43.530  33.878  35.383  1.00  0.00    -0.200 F 
ATOM     74  F   UNL A   1      44.167  36.121  33.969  1.00  0.00    -0.200 F 
ENDBRANCH  50  64
BRANCH  51  75
ATOM     75  C   UNL A   1      42.919  23.686  27.396  1.00  0.00     0.064 A 
ATOM     76  C   UNL A   1      42.415  22.549  28.039  1.00  0.00     0.173 A 
ATOM     77  C   UNL A   1      43.276  23.569  26.044  1.00  0.00     0.173 A 
ATOM     78  F   UNL A   1      42.086  22.605  29.338  1.00  0.00    -0.203 F 
ATOM     79  C   UNL A   1      42.277  21.341  27.358  1.00  0.00     0.198 A 
ATOM     80  C   UNL A   1      43.115  22.369  25.358  1.00  0.00     0.198 A 
ATOM     81  F   UNL A   1      43.770  24.629  25.386  1.00  0.00    -0.203 F 
ATOM     82  F   UNL A   1      41.824  20.258  28.005  1.00  0.00    -0.200 F 
ATOM     83  C   UNL A   1      42.620  21.254  26.016  1.00  0.00     0.200 A 
ATOM     84  F   UNL A   1      43.440  22.292  24.060  1.00  0.00    -0.200 F 
ATOM     85  F   UNL A   1      42.481  20.093  25.361  1.00  0.00    -0.200 F 
ENDBRANCH  51  75
BRANCH  63  86
ATOM     86  C   UNL A   1      48.255  26.862  30.561  1.00  0.00     0.064 A 
ATOM     87  C   UNL A   1      49.272  27.264  29.685  1.00  0.00     0.173 A 
ATOM     88  C   UNL A   1      48.615  26.101  31.684  1.00  0.00     0.173 A 
ATOM     89  F   UNL A   1      48.976  27.979  28.589  1.00  0.00    -0.203 F 
ATOM     90  C   UNL A   1      50.598  26.904  29.913  1.00  0.00     0.198 A 
ATOM     91  C   UNL A   1      49.944  25.762  31.922  1.00  0.00     0.198 A 
ATOM     92  F   UNL A   1      47.679  25.696  32.555  1.00  0.00    -0.203 F 
ATOM     93  F   UNL A   1      51.549  27.266  29.042  1.00  0.00    -0.200 F 
ATOM     94  C   UNL A   1      50.933  26.159  31.035  1.00  0.00     0.200 A 
ATOM     95  F   UNL A   1      50.269  25.050  33.010  1.00  0.00    -0.200 F 
ATOM     96  F   UNL A   1      52.210  25.816  31.255  1.00  0.00    -0.200 F 
ENDBRANCH  63  86
ENDBRANCH  37  38
ENDBRANCH  30  32
ENDBRANCH  29  30
ENDBRANCH  28  29
ENDBRANCH   1  28
TORSDOF 15
ENDMDL
MODEL 3
REMARK VINA RESULT:     -11.1      5.062     10.421
REMARK SMILES CC(C)c1cc(C2CC[NH+](Cc3c[nH]nc3C(=O)OCCOC(=O)c3ccc(-c4c5nc(c(-c6c(F)c(F)c(F)c(F)c6F)c6ccc([nH]6)c(-c6c(F)c(F)c(F)c(F)c6F)c6nc(c(-c7c(F)c(F)c(F)c(F)c7F)c7ccc4[nH]7)C=C6)C=C5)cc3)CC2)n[nH]1
REMARK SMILES IDX 20 1 19 2 17 3 18 4 16 5 12 6 13 7 14 8 15 9 11 11 10 12
REMARK SMILES IDX 7 13 8 14 89 15 9 16 88 17 6 19 4 20 5 21 91 22 90 23 2 25
REMARK SMILES IDX 1 26 3 27 21 28 22 29 23 30 24 31 25 32 26 33 87 34 27 35
REMARK SMILES IDX 86 36 28 37 29 38 30 39 80 40 31 41 85 42 79 43 81 44 32 45
REMARK SMILES IDX 84 46 78 47 77 48 33 50 65 51 45 52 64 53 46 54 49 55 63 56
REMARK SMILES IDX 82 57 47 58 48 59 62 61 83 62 50 63 34 64 35 65 43 66 36 67
REMARK SMILES IDX 37 68 41 69 44 70 38 71 39 72 42 73 40 74 66 75 67 76 75 77
REMARK SMILES IDX 68 78 69 79 73 80 76 81 70 82 71 83 74 84 72 85 51 86 52 87
REMARK SMILES IDX 60 88 53 89 54 90 58 91 61 92 55 93 56 94 59 95 57 96
REMARK H PARENT 14 10 10 18 91 24 81 49 49 60
REMARK Flexibility Score: inf
ROOT
ATOM      1  C   UNL A   1      31.694  28.553  26.453  1.00  0.00     0.275 C 
ENDROOT
BRANCH   1   2
ATOM      2  O   UNL A   1      31.015  27.772  25.450  1.00  0.00    -0.457 OA
BRANCH   2   3
ATOM      3  C   UNL A   1      31.020  26.417  25.657  1.00  0.00     0.359 C 
ATOM      4  O   UNL A   1      30.776  25.909  26.742  1.00  0.00    -0.244 OA
BRANCH   3   5
ATOM      5  C   UNL A   1      31.294  25.624  24.435  1.00  0.00     0.178 A 
ATOM      6  C   UNL A   1      32.532  25.275  23.785  1.00  0.00     0.059 A 
ATOM      7  C   UNL A   1      32.138  24.483  22.720  1.00  0.00     0.115 A 
ATOM      8  N   UNL A   1      30.783  24.441  22.734  1.00  0.00    -0.284 N 
ATOM      9  N   UNL A   1      30.246  25.087  23.767  1.00  0.00    -0.168 NA
ATOM     10  H   UNL A   1      30.249  23.979  22.048  1.00  0.00     0.189 HD
BRANCH   6  11
ATOM     11  C   UNL A   1      33.943  25.564  24.209  1.00  0.00     0.303 C 
BRANCH  11  12
ATOM     12  N   UNL A   1      34.626  24.469  24.913  1.00  0.00    -0.331 N 
ATOM     13  C   UNL A   1      35.404  21.855  26.008  1.00  0.00     0.051 C 
ATOM     14  C   UNL A   1      34.723  22.936  26.853  1.00  0.00     0.071 C 
ATOM     15  C   UNL A   1      36.095  22.481  24.789  1.00  0.00     0.071 C 
ATOM     16  C   UNL A   1      33.865  23.881  26.014  1.00  0.00     0.263 C 
ATOM     17  C   UNL A   1      35.215  23.472  24.018  1.00  0.00     0.263 C 
ATOM     18  H   UNL A   1      35.416  24.927  25.369  1.00  0.00     0.348 HD
BRANCH  13  19
ATOM     19  C   UNL A   1      34.488  20.706  25.657  1.00  0.00     0.066 A 
ATOM     20  C   UNL A   1      33.502  18.917  24.768  1.00  0.00     0.038 A 
ATOM     21  C   UNL A   1      34.564  19.776  24.592  1.00  0.00     0.049 A 
ATOM     22  N   UNL A   1      32.848  19.380  25.876  1.00  0.00    -0.282 N 
ATOM     23  N   UNL A   1      33.419  20.460  26.428  1.00  0.00    -0.180 NA
ATOM     24  H   UNL A   1      32.033  18.960  26.235  1.00  0.00     0.190 HD
BRANCH  20  25
ATOM     25  C   UNL A   1      33.072  17.715  23.985  1.00  0.00     0.031 C 
ATOM     26  C   UNL A   1      32.393  18.104  22.673  1.00  0.00     0.014 C 
ATOM     27  C   UNL A   1      34.247  16.772  23.735  1.00  0.00     0.014 C 
ENDBRANCH  20  25
ENDBRANCH  13  19
ENDBRANCH  11  12
ENDBRANCH   6  11
ENDBRANCH   3   5
ENDBRANCH   2   3
ENDBRANCH   1   2
BRANCH   1  28
ATOM     28  C   UNL A   1      31.781  30.036  26.070  1.00  0.00     0.275 C 
BRANCH  28  29
ATOM     29  O   UNL A   1      33.138  30.520  26.058  1.00  0.00    -0.458 OA
BRANCH  29  30
ATOM     30  C   UNL A   1      33.412  31.477  26.976  1.00  0.00     0.338 C 
ATOM     31  O   UNL A   1      32.692  32.409  27.301  1.00  0.00    -0.246 OA
BRANCH  30  32
ATOM     32  C   UNL A   1      34.682  31.176  27.658  1.00  0.00     0.060 A 
ATOM     33  C   UNL A   1      34.894  29.858  28.069  1.00  0.00     0.016 A 
ATOM     34  C   UNL A   1      35.623  32.165  27.956  1.00  0.00     0.016 A 
ATOM     35  C   UNL A   1      36.044  29.516  28.773  1.00  0.00     0.010 A 
ATOM     36  C   UNL A   1      36.777  31.823  28.675  1.00  0.00     0.010 A 
ATOM     37  C   UNL A   1      36.988  30.497  29.094  1.00  0.00    -0.014 A 
BRANCH  37  38
ATOM     38  C   UNL A   1      38.162  30.126  29.921  1.00  0.00     0.031 A 
ATOM     39  C   UNL A   1      39.204  29.199  29.369  1.00  0.00     0.074 A 
ATOM     40  C   UNL A   1      38.319  30.664  31.144  1.00  0.00     0.049 A 
ATOM     41  N   UNL A   1      40.288  28.736  29.937  1.00  0.00    -0.248 NA
ATOM     42  C   UNL A   1      38.999  28.733  27.989  1.00  0.00     0.031 C 
ATOM     43  C   UNL A   1      37.400  31.614  31.769  1.00  0.00     0.029 A 
ATOM     44  N   UNL A   1      39.313  30.493  32.074  1.00  0.00    -0.354 N 
ATOM     45  C   UNL A   1      40.890  27.919  28.991  1.00  0.00     0.074 A 
ATOM     46  C   UNL A   1      40.041  27.932  27.818  1.00  0.00     0.031 C 
ATOM     47  C   UNL A   1      37.871  31.940  32.984  1.00  0.00     0.029 A 
ATOM     48  C   UNL A   1      39.104  31.196  33.235  1.00  0.00     0.049 A 
ATOM     49  H   UNL A   1      40.100  29.920  31.925  1.00  0.00     0.167 HD
ATOM     50  C   UNL A   1      42.051  27.226  29.089  1.00  0.00     0.037 A 
ATOM     51  C   UNL A   1      39.815  31.220  34.378  1.00  0.00     0.037 A 
ATOM     52  C   UNL A   1      42.896  27.215  30.256  1.00  0.00     0.049 A 
ATOM     53  C   UNL A   1      41.072  30.400  34.483  1.00  0.00     0.074 A 
ATOM     54  C   UNL A   1      44.088  26.540  30.453  1.00  0.00     0.029 A 
ATOM     55  N   UNL A   1      42.634  27.914  31.425  1.00  0.00    -0.354 N 
ATOM     56  N   UNL A   1      41.631  29.624  33.587  1.00  0.00    -0.248 NA
ATOM     57  C   UNL A   1      41.797  30.459  35.761  1.00  0.00     0.031 C 
ATOM     58  C   UNL A   1      44.530  26.803  31.756  1.00  0.00     0.029 A 
ATOM     59  C   UNL A   1      43.634  27.674  32.354  1.00  0.00     0.049 A 
ATOM     60  H   UNL A   1      41.854  28.496  31.573  1.00  0.00     0.167 HD
ATOM     61  C   UNL A   1      42.774  29.111  34.185  1.00  0.00     0.074 A 
ATOM     62  C   UNL A   1      42.841  29.680  35.515  1.00  0.00     0.031 C 
ATOM     63  C   UNL A   1      43.684  28.244  33.677  1.00  0.00     0.037 A 
BRANCH  50  64
ATOM     64  C   UNL A   1      42.456  26.396  27.909  1.00  0.00     0.064 A 
ATOM     65  C   UNL A   1      41.990  25.084  27.736  1.00  0.00     0.173 A 
ATOM     66  C   UNL A   1      43.311  26.925  26.930  1.00  0.00     0.173 A 
ATOM     67  F   UNL A   1      41.183  24.528  28.653  1.00  0.00    -0.203 F 
ATOM     68  C   UNL A   1      42.386  24.323  26.640  1.00  0.00     0.198 A 
ATOM     69  C   UNL A   1      43.686  26.168  25.823  1.00  0.00     0.198 A 
ATOM     70  F   UNL A   1      43.781  28.176  27.046  1.00  0.00    -0.203 F 
ATOM     71  F   UNL A   1      41.967  23.055  26.520  1.00  0.00    -0.200 F 
ATOM     72  C   UNL A   1      43.229  24.866  25.682  1.00  0.00     0.200 A 
ATOM     73  F   UNL A   1      44.494  26.699  24.894  1.00  0.00    -0.200 F 
ATOM     74  F   UNL A   1      43.611  24.132  24.629  1.00  0.00    -0.200 F 
ENDBRANCH  50  64
BRANCH  51  75
ATOM     75  C   UNL A   1      39.334  32.035  35.522  1.00  0.00     0.064 A 
ATOM     76  C   UNL A   1      38.486  31.492  36.495  1.00  0.00     0.173 A 
ATOM     77  C   UNL A   1      39.724  33.375  35.667  1.00  0.00     0.173 A 
ATOM     78  F   UNL A   1      38.065  30.224  36.383  1.00  0.00    -0.203 F 
ATOM     79  C   UNL A   1      38.041  32.261  37.568  1.00  0.00     0.198 A 
ATOM     80  C   UNL A   1      39.299  34.135  36.752  1.00  0.00     0.198 A 
ATOM     81  F   UNL A   1      40.531  33.942  34.757  1.00  0.00    -0.203 F 
ATOM     82  F   UNL A   1      37.202  31.729  38.468  1.00  0.00    -0.200 F 
ATOM     83  C   UNL A   1      38.454  33.579  37.700  1.00  0.00     0.200 A 
ATOM     84  F   UNL A   1      39.707  35.405  36.880  1.00  0.00    -0.200 F 
ATOM     85  F   UNL A   1      38.030  34.315  38.737  1.00  0.00    -0.200 F 
ENDBRANCH  51  75
BRANCH  63  86
ATOM     86  C   UNL A   1      44.837  27.866  34.560  1.00  0.00     0.064 A 
ATOM     87  C   UNL A   1      46.012  28.629  34.595  1.00  0.00     0.173 A 
ATOM     88  C   UNL A   1      44.748  26.752  35.407  1.00  0.00     0.173 A 
ATOM     89  F   UNL A   1      46.150  29.695  33.792  1.00  0.00    -0.203 F 
ATOM     90  C   UNL A   1      47.068  28.279  35.433  1.00  0.00     0.198 A 
ATOM     91  C   UNL A   1      45.796  26.418  36.261  1.00  0.00     0.198 A 
ATOM     92  F   UNL A   1      43.642  25.993  35.414  1.00  0.00    -0.203 F 
ATOM     93  F   UNL A   1      48.197  28.999  35.423  1.00  0.00    -0.200 F 
ATOM     94  C   UNL A   1      46.956  27.178  36.270  1.00  0.00     0.200 A 
ATOM     95  F   UNL A   1      45.684  25.360  37.076  1.00  0.00    -0.200 F 
ATOM     96  F   UNL A   1      47.971  26.845  37.079  1.00  0.00    -0.200 F 
ENDBRANCH  63  86
ENDBRANCH  37  38
ENDBRANCH  30  32
ENDBRANCH  29  30
ENDBRANCH  28  29
ENDBRANCH   1  28
TORSDOF 15
ENDMDL
