MODEL 1
REMARK VINA RESULT:     -10.4      0.000      0.000
REMARK SMILES CCCc1cc(-n2ccc(C(=O)OCCOC(=O)c3ccc(-c4c5nc(c(-c6c(F)c(F)c(F)c(F)c6F)c6ccc([nH]6)c(-c6c(F)c(F)c(F)c(F)c6F)c6nc(c(-c7c(F)c(F)c(F)c(F)c7F)c7ccc4[nH]7)C=C6)C=C5)cc3)n2)nc(C(C)C)n1
REMARK SMILES IDX 14 1 13 2 11 3 12 4 10 5 7 6 8 7 82 8 9 9 6 10 4 11 5 12
REMARK SMILES IDX 88 13 84 14 83 15 3 16 2 17 1 18 85 19 86 20 87 21 15 22
REMARK SMILES IDX 16 23 17 24 18 25 19 26 20 27 81 28 21 29 80 30 22 31 23 32
REMARK SMILES IDX 24 33 74 34 25 35 79 36 73 37 75 38 26 39 78 40 72 41 71 42
REMARK SMILES IDX 27 44 59 45 39 46 58 47 40 48 43 49 57 50 76 51 41 52 42 53
REMARK SMILES IDX 56 55 77 56 44 57 28 58 29 59 37 60 30 61 31 62 35 63 38 64
REMARK SMILES IDX 32 65 33 66 36 67 34 68 60 69 61 70 69 71 62 72 63 73 67 74
REMARK SMILES IDX 70 75 64 76 65 77 68 78 66 79 45 80 46 81 54 82 47 83 48 84
REMARK SMILES IDX 52 85 55 86 49 87 50 88 53 89 51 90
REMARK H PARENT 75 43 43 54
REMARK Flexibility Score: inf
ROOT
ATOM      1  C   UNL A   1      41.691  20.032  26.178  1.00  0.00     0.275 C 
ENDROOT
BRANCH   1   2
ATOM      2  O   UNL A   1      43.081  20.288  26.435  1.00  0.00    -0.457 OA
BRANCH   2   3
ATOM      3  C   UNL A   1      43.821  20.772  25.392  1.00  0.00     0.358 C 
ATOM      4  O   UNL A   1      44.157  20.104  24.414  1.00  0.00    -0.244 OA
BRANCH   3   5
ATOM      5  C   UNL A   1      44.026  22.223  25.468  1.00  0.00     0.170 A 
ATOM      6  N   UNL A   1      44.609  24.133  26.250  1.00  0.00    -0.222 N 
ATOM      7  C   UNL A   1      43.745  24.411  25.213  1.00  0.00     0.118 A 
ATOM      8  N   UNL A   1      44.818  22.800  26.384  1.00  0.00    -0.159 NA
ATOM      9  C   UNL A   1      43.404  23.204  24.653  1.00  0.00     0.058 A 
BRANCH   6  10
ATOM     10  C   UNL A   1      45.284  25.058  27.098  1.00  0.00     0.157 A 
ATOM     11  C   UNL A   1      45.931  25.860  29.208  1.00  0.00     0.046 A 
ATOM     12  C   UNL A   1      45.245  24.910  28.472  1.00  0.00     0.073 A 
ATOM     13  N   UNL A   1      46.530  26.913  28.620  1.00  0.00    -0.238 NA
ATOM     14  C   UNL A   1      46.487  26.999  27.280  1.00  0.00     0.133 A 
ATOM     15  N   UNL A   1      45.921  26.084  26.491  1.00  0.00    -0.213 NA
BRANCH  11  16
ATOM     16  C   UNL A   1      45.989  25.758  30.715  1.00  0.00     0.056 C 
BRANCH  16  17
ATOM     17  C   UNL A   1      44.674  25.396  31.420  1.00  0.00     0.003 C 
ATOM     18  C   UNL A   1      44.403  26.202  32.685  1.00  0.00     0.004 C 
ENDBRANCH  16  17
ENDBRANCH  11  16
BRANCH  14  19
ATOM     19  C   UNL A   1      47.005  28.251  26.616  1.00  0.00     0.051 C 
ATOM     20  C   UNL A   1      48.515  28.375  26.824  1.00  0.00     0.016 C 
ATOM     21  C   UNL A   1      46.635  28.278  25.137  1.00  0.00     0.016 C 
ENDBRANCH  14  19
ENDBRANCH   6  10
ENDBRANCH   3   5
ENDBRANCH   2   3
ENDBRANCH   1   2
BRANCH   1  22
ATOM     22  C   UNL A   1      40.822  20.389  27.380  1.00  0.00     0.275 C 
BRANCH  22  23
ATOM     23  O   UNL A   1      40.993  21.757  27.756  1.00  0.00    -0.458 OA
BRANCH  23  24
ATOM     24  C   UNL A   1      40.161  22.637  27.158  1.00  0.00     0.338 C 
ATOM     25  O   UNL A   1      39.167  22.381  26.501  1.00  0.00    -0.246 OA
BRANCH  24  26
ATOM     26  C   UNL A   1      40.730  23.987  27.254  1.00  0.00     0.060 A 
ATOM     27  C   UNL A   1      41.585  24.240  28.333  1.00  0.00     0.016 A 
ATOM     28  C   UNL A   1      40.212  25.025  26.467  1.00  0.00     0.016 A 
ATOM     29  C   UNL A   1      41.761  25.544  28.742  1.00  0.00     0.010 A 
ATOM     30  C   UNL A   1      40.384  26.326  26.879  1.00  0.00     0.010 A 
ATOM     31  C   UNL A   1      41.083  26.561  28.061  1.00  0.00    -0.014 A 
BRANCH  31  32
ATOM     32  C   UNL A   1      41.111  27.889  28.634  1.00  0.00     0.031 A 
ATOM     33  C   UNL A   1      42.287  28.706  28.269  1.00  0.00     0.074 A 
ATOM     34  C   UNL A   1      40.094  28.366  29.373  1.00  0.00     0.049 A 
ATOM     35  N   UNL A   1      43.194  29.191  29.051  1.00  0.00    -0.248 NA
ATOM     36  C   UNL A   1      42.532  28.930  26.838  1.00  0.00     0.031 C 
ATOM     37  C   UNL A   1      38.766  27.784  29.584  1.00  0.00     0.029 A 
ATOM     38  N   UNL A   1      40.023  29.553  30.032  1.00  0.00    -0.354 N 
ATOM     39  C   UNL A   1      44.051  29.914  28.230  1.00  0.00     0.074 A 
ATOM     40  C   UNL A   1      43.672  29.618  26.872  1.00  0.00     0.031 C 
ATOM     41  C   UNL A   1      37.959  28.712  30.147  1.00  0.00     0.029 A 
ATOM     42  C   UNL A   1      38.750  29.893  30.453  1.00  0.00     0.049 A 
ATOM     43  H   UNL A   1      40.810  30.123  30.194  1.00  0.00     0.167 HD
ATOM     44  C   UNL A   1      44.884  30.865  28.730  1.00  0.00     0.037 A 
ATOM     45  C   UNL A   1      38.369  31.092  30.950  1.00  0.00     0.037 A 
ATOM     46  C   UNL A   1      45.094  30.706  30.142  1.00  0.00     0.049 A 
ATOM     47  C   UNL A   1      39.588  31.785  31.437  1.00  0.00     0.074 A 
ATOM     48  C   UNL A   1      45.658  29.725  30.934  1.00  0.00     0.029 A 
ATOM     49  N   UNL A   1      44.391  31.514  31.000  1.00  0.00    -0.354 N 
ATOM     50  N   UNL A   1      40.286  31.392  32.466  1.00  0.00    -0.248 NA
ATOM     51  C   UNL A   1      40.282  32.679  30.520  1.00  0.00     0.031 C 
ATOM     52  C   UNL A   1      44.887  29.722  32.133  1.00  0.00     0.029 A 
ATOM     53  C   UNL A   1      43.915  30.717  32.010  1.00  0.00     0.049 A 
ATOM     54  H   UNL A   1      44.253  32.484  30.908  1.00  0.00     0.167 HD
ATOM     55  C   UNL A   1      41.606  31.644  32.118  1.00  0.00     0.074 A 
ATOM     56  C   UNL A   1      41.534  32.531  30.963  1.00  0.00     0.031 C 
ATOM     57  C   UNL A   1      42.623  30.888  32.629  1.00  0.00     0.037 A 
BRANCH  44  58
ATOM     58  C   UNL A   1      45.237  32.129  27.993  1.00  0.00     0.064 A 
ATOM     59  C   UNL A   1      44.215  33.016  27.607  1.00  0.00     0.173 A 
ATOM     60  C   UNL A   1      46.500  32.354  27.403  1.00  0.00     0.173 A 
ATOM     61  F   UNL A   1      42.970  32.873  28.086  1.00  0.00    -0.203 F 
ATOM     62  C   UNL A   1      44.429  34.012  26.652  1.00  0.00     0.198 A 
ATOM     63  C   UNL A   1      46.723  33.383  26.493  1.00  0.00     0.198 A 
ATOM     64  F   UNL A   1      47.532  31.521  27.593  1.00  0.00    -0.203 F 
ATOM     65  F   UNL A   1      43.399  34.754  26.223  1.00  0.00    -0.200 F 
ATOM     66  C   UNL A   1      45.682  34.193  26.093  1.00  0.00     0.200 A 
ATOM     67  F   UNL A   1      47.940  33.529  25.949  1.00  0.00    -0.200 F 
ATOM     68  F   UNL A   1      45.875  35.108  25.135  1.00  0.00    -0.200 F 
ENDBRANCH  44  58
BRANCH  45  69
ATOM     69  C   UNL A   1      37.075  31.773  30.732  1.00  0.00     0.064 A 
ATOM     70  C   UNL A   1      36.114  31.866  31.748  1.00  0.00     0.173 A 
ATOM     71  C   UNL A   1      36.858  32.564  29.585  1.00  0.00     0.173 A 
ATOM     72  F   UNL A   1      36.275  31.188  32.893  1.00  0.00    -0.203 F 
ATOM     73  C   UNL A   1      35.002  32.707  31.625  1.00  0.00     0.198 A 
ATOM     74  C   UNL A   1      35.746  33.394  29.459  1.00  0.00     0.198 A 
ATOM     75  F   UNL A   1      37.769  32.615  28.602  1.00  0.00    -0.203 F 
ATOM     76  F   UNL A   1      34.128  32.812  32.635  1.00  0.00    -0.200 F 
ATOM     77  C   UNL A   1      34.823  33.474  30.484  1.00  0.00     0.200 A 
ATOM     78  F   UNL A   1      35.607  34.157  28.367  1.00  0.00    -0.200 F 
ATOM     79  F   UNL A   1      33.784  34.317  30.387  1.00  0.00    -0.200 F 
ENDBRANCH  45  69
BRANCH  57  80
ATOM     80  C   UNL A   1      42.286  29.958  33.759  1.00  0.00     0.064 A 
ATOM     81  C   UNL A   1      41.821  28.646  33.563  1.00  0.00     0.173 A 
ATOM     82  C   UNL A   1      42.575  30.352  35.071  1.00  0.00     0.173 A 
ATOM     83  F   UNL A   1      41.627  28.163  32.332  1.00  0.00    -0.203 F 
ATOM     84  C   UNL A   1      41.611  27.784  34.638  1.00  0.00     0.198 A 
ATOM     85  C   UNL A   1      42.397  29.478  36.140  1.00  0.00     0.198 A 
ATOM     86  F   UNL A   1      43.082  31.572  35.310  1.00  0.00    -0.203 F 
ATOM     87  F   UNL A   1      41.159  26.540  34.425  1.00  0.00    -0.200 F 
ATOM     88  C   UNL A   1      41.905  28.200  35.926  1.00  0.00     0.200 A 
ATOM     89  F   UNL A   1      42.732  29.864  37.380  1.00  0.00    -0.200 F 
ATOM     90  F   UNL A   1      41.744  27.358  36.957  1.00  0.00    -0.200 F 
ENDBRANCH  57  80
ENDBRANCH  31  32
ENDBRANCH  24  26
ENDBRANCH  23  24
ENDBRANCH  22  23
ENDBRANCH   1  22
TORSDOF 15
ENDMDL
MODEL 2
REMARK VINA RESULT:     -10.2      3.763      6.592
REMARK SMILES CCCc1cc(-n2ccc(C(=O)OCCOC(=O)c3ccc(-c4c5nc(c(-c6c(F)c(F)c(F)c(F)c6F)c6ccc([nH]6)c(-c6c(F)c(F)c(F)c(F)c6F)c6nc(c(-c7c(F)c(F)c(F)c(F)c7F)c7ccc4[nH]7)C=C6)C=C5)cc3)n2)nc(C(C)C)n1
REMARK SMILES IDX 14 1 13 2 11 3 12 4 10 5 7 6 8 7 82 8 9 9 6 10 4 11 5 12
REMARK SMILES IDX 88 13 84 14 83 15 3 16 2 17 1 18 85 19 86 20 87 21 15 22
REMARK SMILES IDX 16 23 17 24 18 25 19 26 20 27 81 28 21 29 80 30 22 31 23 32
REMARK SMILES IDX 24 33 74 34 25 35 79 36 73 37 75 38 26 39 78 40 72 41 71 42
REMARK SMILES IDX 27 44 59 45 39 46 58 47 40 48 43 49 57 50 76 51 41 52 42 53
REMARK SMILES IDX 56 55 77 56 44 57 28 58 29 59 37 60 30 61 31 62 35 63 38 64
REMARK SMILES IDX 32 65 33 66 36 67 34 68 60 69 61 70 69 71 62 72 63 73 67 74
REMARK SMILES IDX 70 75 64 76 65 77 68 78 66 79 45 80 46 81 54 82 47 83 48 84
REMARK SMILES IDX 52 85 55 86 49 87 50 88 53 89 51 90
REMARK H PARENT 75 43 43 54
REMARK Flexibility Score: inf
ROOT
ATOM      1  C   UNL A   1      41.117  19.498  26.145  1.00  0.00     0.275 C 
ENDROOT
BRANCH   1   2
ATOM      2  O   UNL A   1      40.540  20.714  25.643  1.00  0.00    -0.457 OA
BRANCH   2   3
ATOM      3  C   UNL A   1      40.142  21.636  26.571  1.00  0.00     0.358 C 
ATOM      4  O   UNL A   1      40.854  22.048  27.487  1.00  0.00    -0.244 OA
BRANCH   3   5
ATOM      5  C   UNL A   1      38.832  22.222  26.261  1.00  0.00     0.170 A 
ATOM      6  N   UNL A   1      36.834  22.391  25.499  1.00  0.00    -0.222 N 
ATOM      7  C   UNL A   1      37.243  23.684  25.743  1.00  0.00     0.118 A 
ATOM      8  N   UNL A   1      37.785  21.490  25.853  1.00  0.00    -0.159 NA
ATOM      9  C   UNL A   1      38.499  23.601  26.291  1.00  0.00     0.058 A 
BRANCH   6  10
ATOM     10  C   UNL A   1      35.578  21.952  24.989  1.00  0.00     0.157 A 
ATOM     11  C   UNL A   1      33.983  20.292  24.530  1.00  0.00     0.046 A 
ATOM     12  C   UNL A   1      35.222  20.617  25.052  1.00  0.00     0.073 A 
ATOM     13  N   UNL A   1      33.208  21.210  23.922  1.00  0.00    -0.238 NA
ATOM     14  C   UNL A   1      33.649  22.478  23.872  1.00  0.00     0.133 A 
ATOM     15  N   UNL A   1      34.790  22.893  24.424  1.00  0.00    -0.213 NA
BRANCH  11  16
ATOM     16  C   UNL A   1      33.481  18.866  24.595  1.00  0.00     0.056 C 
BRANCH  16  17
ATOM     17  C   UNL A   1      34.475  17.779  24.161  1.00  0.00     0.003 C 
ATOM     18  C   UNL A   1      33.817  16.493  23.676  1.00  0.00     0.004 C 
ENDBRANCH  16  17
ENDBRANCH  11  16
BRANCH  14  19
ATOM     19  C   UNL A   1      32.877  23.483  23.054  1.00  0.00     0.051 C 
ATOM     20  C   UNL A   1      31.389  23.416  23.399  1.00  0.00     0.016 C 
ATOM     21  C   UNL A   1      33.437  24.888  23.244  1.00  0.00     0.016 C 
ENDBRANCH  14  19
ENDBRANCH   6  10
ENDBRANCH   3   5
ENDBRANCH   2   3
ENDBRANCH   1   2
BRANCH   1  22
ATOM     22  C   UNL A   1      42.641  19.561  26.151  1.00  0.00     0.275 C 
BRANCH  22  23
ATOM     23  O   UNL A   1      43.136  20.248  25.001  1.00  0.00    -0.458 OA
BRANCH  23  24
ATOM     24  C   UNL A   1      44.439  20.599  25.044  1.00  0.00     0.338 C 
ATOM     25  O   UNL A   1      45.401  19.854  25.103  1.00  0.00    -0.246 OA
BRANCH  24  26
ATOM     26  C   UNL A   1      44.546  22.056  25.195  1.00  0.00     0.060 A 
ATOM     27  C   UNL A   1      45.511  22.531  26.091  1.00  0.00     0.016 A 
ATOM     28  C   UNL A   1      43.545  22.891  24.680  1.00  0.00     0.016 A 
ATOM     29  C   UNL A   1      45.351  23.793  26.622  1.00  0.00     0.010 A 
ATOM     30  C   UNL A   1      43.383  24.148  25.216  1.00  0.00     0.010 A 
ATOM     31  C   UNL A   1      44.236  24.547  26.241  1.00  0.00    -0.014 A 
BRANCH  31  32
ATOM     32  C   UNL A   1      43.973  25.771  26.967  1.00  0.00     0.031 A 
ATOM     33  C   UNL A   1      44.956  26.853  26.750  1.00  0.00     0.074 A 
ATOM     34  C   UNL A   1      42.866  25.932  27.713  1.00  0.00     0.049 A 
ATOM     35  N   UNL A   1      45.726  27.416  27.620  1.00  0.00    -0.248 NA
ATOM     36  C   UNL A   1      45.171  27.298  25.366  1.00  0.00     0.031 C 
ATOM     37  C   UNL A   1      41.687  25.065  27.798  1.00  0.00     0.029 A 
ATOM     38  N   UNL A   1      42.534  26.989  28.502  1.00  0.00    -0.354 N 
ATOM     39  C   UNL A   1      46.425  28.397  26.925  1.00  0.00     0.074 A 
ATOM     40  C   UNL A   1      46.139  28.198  25.528  1.00  0.00     0.031 C 
ATOM     41  C   UNL A   1      40.693  25.729  28.431  1.00  0.00     0.029 A 
ATOM     42  C   UNL A   1      41.212  27.003  28.906  1.00  0.00     0.049 A 
ATOM     43  H   UNL A   1      43.181  27.685  28.762  1.00  0.00     0.167 HD
ATOM     44  C   UNL A   1      47.030  29.432  27.567  1.00  0.00     0.037 A 
ATOM     45  C   UNL A   1      40.578  28.026  29.523  1.00  0.00     0.037 A 
ATOM     46  C   UNL A   1      47.246  29.147  28.959  1.00  0.00     0.049 A 
ATOM     47  C   UNL A   1      41.615  28.892  30.138  1.00  0.00     0.074 A 
ATOM     48  C   UNL A   1      47.991  28.215  29.654  1.00  0.00     0.029 A 
ATOM     49  N   UNL A   1      46.374  29.680  29.875  1.00  0.00    -0.354 N 
ATOM     50  N   UNL A   1      42.363  28.528  31.142  1.00  0.00    -0.248 NA
ATOM     51  C   UNL A   1      42.120  30.016  29.362  1.00  0.00     0.031 C 
ATOM     52  C   UNL A   1      47.218  27.904  30.811  1.00  0.00     0.029 A 
ATOM     53  C   UNL A   1      46.060  28.683  30.764  1.00  0.00     0.049 A 
ATOM     54  H   UNL A   1      46.035  30.604  29.891  1.00  0.00     0.167 HD
ATOM     55  C   UNL A   1      43.606  29.090  30.883  1.00  0.00     0.074 A 
ATOM     56  C   UNL A   1      43.367  30.078  29.837  1.00  0.00     0.031 C 
ATOM     57  C   UNL A   1      44.751  28.505  31.344  1.00  0.00     0.037 A 
BRANCH  44  58
ATOM     58  C   UNL A   1      47.120  30.821  26.999  1.00  0.00     0.064 A 
ATOM     59  C   UNL A   1      48.359  31.489  26.990  1.00  0.00     0.173 A 
ATOM     60  C   UNL A   1      45.989  31.625  26.733  1.00  0.00     0.173 A 
ATOM     61  F   UNL A   1      49.494  30.826  27.259  1.00  0.00    -0.203 F 
ATOM     62  C   UNL A   1      48.449  32.869  26.794  1.00  0.00     0.198 A 
ATOM     63  C   UNL A   1      46.088  32.990  26.482  1.00  0.00     0.198 A 
ATOM     64  F   UNL A   1      44.741  31.145  26.819  1.00  0.00    -0.203 F 
ATOM     65  F   UNL A   1      49.634  33.481  26.915  1.00  0.00    -0.200 F 
ATOM     66  C   UNL A   1      47.313  33.618  26.544  1.00  0.00     0.200 A 
ATOM     67  F   UNL A   1      44.973  33.702  26.261  1.00  0.00    -0.200 F 
ATOM     68  F   UNL A   1      47.390  34.949  26.414  1.00  0.00    -0.200 F 
ENDBRANCH  44  58
BRANCH  45  69
ATOM     69  C   UNL A   1      39.173  28.445  29.331  1.00  0.00     0.064 A 
ATOM     70  C   UNL A   1      38.292  28.577  30.413  1.00  0.00     0.173 A 
ATOM     71  C   UNL A   1      38.735  28.964  28.095  1.00  0.00     0.173 A 
ATOM     72  F   UNL A   1      38.656  28.158  31.634  1.00  0.00    -0.203 F 
ATOM     73  C   UNL A   1      37.046  29.196  30.268  1.00  0.00     0.198 A 
ATOM     74  C   UNL A   1      37.491  29.572  27.949  1.00  0.00     0.198 A 
ATOM     75  F   UNL A   1      39.545  28.970  27.027  1.00  0.00    -0.203 F 
ATOM     76  F   UNL A   1      36.248  29.352  31.333  1.00  0.00    -0.200 F 
ATOM     77  C   UNL A   1      36.649  29.699  29.038  1.00  0.00     0.200 A 
ATOM     78  F   UNL A   1      37.138  30.087  26.763  1.00  0.00    -0.200 F 
ATOM     79  F   UNL A   1      35.477  30.337  28.910  1.00  0.00    -0.200 F 
ENDBRANCH  45  69
BRANCH  57  80
ATOM     80  C   UNL A   1      44.599  27.394  32.343  1.00  0.00     0.064 A 
ATOM     81  C   UNL A   1      44.434  26.047  31.976  1.00  0.00     0.173 A 
ATOM     82  C   UNL A   1      44.768  27.677  33.704  1.00  0.00     0.173 A 
ATOM     83  F   UNL A   1      44.375  25.688  30.689  1.00  0.00    -0.203 F 
ATOM     84  C   UNL A   1      44.392  25.035  32.934  1.00  0.00     0.198 A 
ATOM     85  C   UNL A   1      44.760  26.661  34.656  1.00  0.00     0.198 A 
ATOM     86  F   UNL A   1      44.994  28.938  34.105  1.00  0.00    -0.203 F 
ATOM     87  F   UNL A   1      44.225  23.759  32.558  1.00  0.00    -0.200 F 
ATOM     88  C   UNL A   1      44.562  25.343  34.273  1.00  0.00     0.200 A 
ATOM     89  F   UNL A   1      44.977  26.955  35.946  1.00  0.00    -0.200 F 
ATOM     90  F   UNL A   1      44.565  24.367  35.192  1.00  0.00    -0.200 F 
ENDBRANCH  57  80
ENDBRANCH  31  32
ENDBRANCH  24  26
ENDBRANCH  23  24
ENDBRANCH  22  23
ENDBRANCH   1  22
TORSDOF 15
ENDMDL
MODEL 3
REMARK VINA RESULT:     -10.2      3.650      6.779
REMARK SMILES CCCc1cc(-n2ccc(C(=O)OCCOC(=O)c3ccc(-c4c5nc(c(-c6c(F)c(F)c(F)c(F)c6F)c6ccc([nH]6)c(-c6c(F)c(F)c(F)c(F)c6F)c6nc(c(-c7c(F)c(F)c(F)c(F)c7F)c7ccc4[nH]7)C=C6)C=C5)cc3)n2)nc(C(C)C)n1
REMARK SMILES IDX 14 1 13 2 11 3 12 4 10 5 7 6 8 7 82 8 9 9 6 10 4 11 5 12
REMARK SMILES IDX 88 13 84 14 83 15 3 16 2 17 1 18 85 19 86 20 87 21 15 22
REMARK SMILES IDX 16 23 17 24 18 25 19 26 20 27 81 28 21 29 80 30 22 31 23 32
REMARK SMILES IDX 24 33 74 34 25 35 79 36 73 37 75 38 26 39 78 40 72 41 71 42
REMARK SMILES IDX 27 44 59 45 39 46 58 47 40 48 43 49 57 50 76 51 41 52 42 53
REMARK SMILES IDX 56 55 77 56 44 57 28 58 29 59 37 60 30 61 31 62 35 63 38 64
REMARK SMILES IDX 32 65 33 66 36 67 34 68 60 69 61 70 69 71 62 72 63 73 67 74
REMARK SMILES IDX 70 75 64 76 65 77 68 78 66 79 45 80 46 81 54 82 47 83 48 84
REMARK SMILES IDX 52 85 55 86 49 87 50 88 53 89 51 90
REMARK H PARENT 75 43 43 54
REMARK Flexibility Score: inf
ROOT
ATOM      1  C   UNL A   1      41.754  19.626  26.934  1.00  0.00     0.275 C 
ENDROOT
BRANCH   1   2
ATOM      2  O   UNL A   1      41.067  20.652  26.200  1.00  0.00    -0.457 OA
BRANCH   2   3
ATOM      3  C   UNL A   1      39.806  20.357  25.762  1.00  0.00     0.358 C 
ATOM      4  O   UNL A   1      39.431  19.229  25.440  1.00  0.00    -0.244 OA
BRANCH   3   5
ATOM      5  C   UNL A   1      38.884  21.493  25.881  1.00  0.00     0.170 A 
ATOM      6  N   UNL A   1      37.156  22.722  25.562  1.00  0.00    -0.222 N 
ATOM      7  C   UNL A   1      38.094  23.553  26.135  1.00  0.00     0.118 A 
ATOM      8  N   UNL A   1      37.617  21.452  25.443  1.00  0.00    -0.159 NA
ATOM      9  C   UNL A   1      39.192  22.774  26.408  1.00  0.00     0.058 A 
BRANCH   6  10
ATOM     10  C   UNL A   1      35.829  23.049  25.158  1.00  0.00     0.157 A 
ATOM     11  C   UNL A   1      34.088  24.575  24.767  1.00  0.00     0.046 A 
ATOM     12  C   UNL A   1      35.392  24.361  25.176  1.00  0.00     0.073 A 
ATOM     13  N   UNL A   1      33.269  23.554  24.451  1.00  0.00    -0.238 NA
ATOM     14  C   UNL A   1      33.765  22.306  24.497  1.00  0.00     0.133 A 
ATOM     15  N   UNL A   1      35.033  22.018  24.798  1.00  0.00    -0.213 NA
BRANCH  11  16
ATOM     16  C   UNL A   1      33.532  25.980  24.704  1.00  0.00     0.056 C 
BRANCH  16  17
ATOM     17  C   UNL A   1      33.016  26.563  26.028  1.00  0.00     0.003 C 
ATOM     18  C   UNL A   1      31.582  26.173  26.364  1.00  0.00     0.004 C 
ENDBRANCH  16  17
ENDBRANCH  11  16
BRANCH  14  19
ATOM     19  C   UNL A   1      32.823  21.143  24.310  1.00  0.00     0.051 C 
ATOM     20  C   UNL A   1      32.264  21.138  22.886  1.00  0.00     0.016 C 
ATOM     21  C   UNL A   1      33.508  19.825  24.652  1.00  0.00     0.016 C 
ENDBRANCH  14  19
ENDBRANCH   6  10
ENDBRANCH   3   5
ENDBRANCH   2   3
ENDBRANCH   1   2
BRANCH   1  22
ATOM     22  C   UNL A   1      42.771  18.898  26.061  1.00  0.00     0.275 C 
BRANCH  22  23
ATOM     23  O   UNL A   1      43.142  19.686  24.930  1.00  0.00    -0.458 OA
BRANCH  23  24
ATOM     24  C   UNL A   1      44.450  20.013  24.847  1.00  0.00     0.338 C 
ATOM     25  O   UNL A   1      45.398  19.249  24.791  1.00  0.00    -0.246 OA
BRANCH  24  26
ATOM     26  C   UNL A   1      44.602  21.463  25.018  1.00  0.00     0.060 A 
ATOM     27  C   UNL A   1      45.638  21.899  25.852  1.00  0.00     0.016 A 
ATOM     28  C   UNL A   1      43.586  22.331  24.591  1.00  0.00     0.016 A 
ATOM     29  C   UNL A   1      45.545  23.153  26.417  1.00  0.00     0.010 A 
ATOM     30  C   UNL A   1      43.492  23.579  25.161  1.00  0.00     0.010 A 
ATOM     31  C   UNL A   1      44.423  23.939  26.131  1.00  0.00    -0.014 A 
BRANCH  31  32
ATOM     32  C   UNL A   1      44.241  25.153  26.896  1.00  0.00     0.031 A 
ATOM     33  C   UNL A   1      45.303  26.167  26.728  1.00  0.00     0.074 A 
ATOM     34  C   UNL A   1      43.139  25.368  27.636  1.00  0.00     0.049 A 
ATOM     35  N   UNL A   1      46.101  26.641  27.625  1.00  0.00    -0.248 NA
ATOM     36  C   UNL A   1      45.568  26.642  25.363  1.00  0.00     0.031 C 
ATOM     37  C   UNL A   1      41.900  24.588  27.679  1.00  0.00     0.029 A 
ATOM     38  N   UNL A   1      42.875  26.418  28.458  1.00  0.00    -0.354 N 
ATOM     39  C   UNL A   1      46.878  27.592  26.973  1.00  0.00     0.074 A 
ATOM     40  C   UNL A   1      46.597  27.463  25.566  1.00  0.00     0.031 C 
ATOM     41  C   UNL A   1      40.948  25.300  28.324  1.00  0.00     0.029 A 
ATOM     42  C   UNL A   1      41.552  26.515  28.849  1.00  0.00     0.049 A 
ATOM     43  H   UNL A   1      43.567  27.056  28.750  1.00  0.00     0.167 HD
ATOM     44  C   UNL A   1      47.547  28.557  27.657  1.00  0.00     0.037 A 
ATOM     45  C   UNL A   1      40.986  27.560  29.495  1.00  0.00     0.037 A 
ATOM     46  C   UNL A   1      47.724  28.210  29.040  1.00  0.00     0.049 A 
ATOM     47  C   UNL A   1      42.075  28.327  30.151  1.00  0.00     0.074 A 
ATOM     48  C   UNL A   1      48.391  27.202  29.710  1.00  0.00     0.029 A 
ATOM     49  N   UNL A   1      46.881  28.773  29.966  1.00  0.00    -0.354 N 
ATOM     50  N   UNL A   1      42.781  27.875  31.150  1.00  0.00    -0.248 NA
ATOM     51  C   UNL A   1      42.670  29.437  29.420  1.00  0.00     0.031 C 
ATOM     52  C   UNL A   1      47.582  26.909  30.847  1.00  0.00     0.029 A 
ATOM     53  C   UNL A   1      46.485  27.772  30.816  1.00  0.00     0.049 A 
ATOM     54  H   UNL A   1      46.610  29.718  30.011  1.00  0.00     0.167 HD
ATOM     55  C   UNL A   1      44.065  28.353  30.923  1.00  0.00     0.074 A 
ATOM     56  C   UNL A   1      43.912  29.390  29.910  1.00  0.00     0.031 C 
ATOM     57  C   UNL A   1      45.159  27.670  31.375  1.00  0.00     0.037 A 
BRANCH  44  58
ATOM     58  C   UNL A   1      47.746  29.955  27.140  1.00  0.00     0.064 A 
ATOM     59  C   UNL A   1      49.035  30.519  27.138  1.00  0.00     0.173 A 
ATOM     60  C   UNL A   1      46.682  30.858  26.919  1.00  0.00     0.173 A 
ATOM     61  F   UNL A   1      50.115  29.755  27.367  1.00  0.00    -0.203 F 
ATOM     62  C   UNL A   1      49.237  31.893  26.992  1.00  0.00     0.198 A 
ATOM     63  C   UNL A   1      46.891  32.219  26.717  1.00  0.00     0.198 A 
ATOM     64  F   UNL A   1      45.400  30.480  27.005  1.00  0.00    -0.203 F 
ATOM     65  F   UNL A   1      50.469  32.402  27.119  1.00  0.00    -0.200 F 
ATOM     66  C   UNL A   1      48.164  32.742  26.785  1.00  0.00     0.200 A 
ATOM     67  F   UNL A   1      45.836  33.028  26.538  1.00  0.00    -0.200 F 
ATOM     68  F   UNL A   1      48.349  34.066  26.703  1.00  0.00    -0.200 F 
ENDBRANCH  44  58
BRANCH  45  69
ATOM     69  C   UNL A   1      39.618  28.087  29.303  1.00  0.00     0.064 A 
ATOM     70  C   UNL A   1      38.716  28.193  30.371  1.00  0.00     0.173 A 
ATOM     71  C   UNL A   1      39.251  28.730  28.103  1.00  0.00     0.173 A 
ATOM     72  F   UNL A   1      39.015  27.656  31.563  1.00  0.00    -0.203 F 
ATOM     73  C   UNL A   1      37.518  28.905  30.245  1.00  0.00     0.198 A 
ATOM     74  C   UNL A   1      38.054  29.431  27.976  1.00  0.00     0.198 A 
ATOM     75  F   UNL A   1      40.091  28.765  27.058  1.00  0.00    -0.203 F 
ATOM     76  F   UNL A   1      36.701  29.031  31.300  1.00  0.00    -0.200 F 
ATOM     77  C   UNL A   1      37.192  29.528  29.051  1.00  0.00     0.200 A 
ATOM     78  F   UNL A   1      37.772  30.059  26.827  1.00  0.00    -0.200 F 
ATOM     79  F   UNL A   1      36.068  30.252  28.946  1.00  0.00    -0.200 F 
ENDBRANCH  45  69
BRANCH  57  80
ATOM     80  C   UNL A   1      44.913  26.539  32.332  1.00  0.00     0.064 A 
ATOM     81  C   UNL A   1      44.749  26.724  33.716  1.00  0.00     0.173 A 
ATOM     82  C   UNL A   1      44.694  25.254  31.822  1.00  0.00     0.173 A 
ATOM     83  F   UNL A   1      44.834  27.942  34.261  1.00  0.00    -0.203 F 
ATOM     84  C   UNL A   1      44.428  25.659  34.556  1.00  0.00     0.198 A 
ATOM     85  C   UNL A   1      44.340  24.198  32.658  1.00  0.00     0.198 A 
ATOM     86  F   UNL A   1      44.774  25.034  30.500  1.00  0.00    -0.203 F 
ATOM     87  F   UNL A   1      44.286  25.860  35.874  1.00  0.00    -0.200 F 
ATOM     88  C   UNL A   1      44.218  24.397  34.025  1.00  0.00     0.200 A 
ATOM     89  F   UNL A   1      44.085  22.991  32.135  1.00  0.00    -0.200 F 
ATOM     90  F   UNL A   1      43.867  23.381  34.825  1.00  0.00    -0.200 F 
ENDBRANCH  57  80
ENDBRANCH  31  32
ENDBRANCH  24  26
ENDBRANCH  23  24
ENDBRANCH  22  23
ENDBRANCH   1  22
TORSDOF 15
ENDMDL
