MODEL 1
REMARK VINA RESULT:     -13.7      0.000      0.000
REMARK SMILES CC1CC[NH+]([C@H](c2ccc(F)cc2)c2ccc([C@@H](C)C(=O)OCCOC(=O)c3ccc(-c4c5nc(c(-c6c(F)c(F)c(F)c(F)c6F)c6ccc([nH]6)c(-c6c(F)c(F)c(F)c(F)c6F)c6nc(c(-c7c(F)c(F)c(F)c(F)c7F)c7ccc4[nH]7)C=C6)C=C5)cc3)cc2-c2ccc(C(F)(F)F)cc2)CC1
REMARK SMILES IDX 23 1 22 2 20 3 21 4 18 5 19 6 17 7 14 8 15 9 92 10 16 11
REMARK SMILES IDX 91 12 6 13 5 14 1 15 2 16 3 17 104 18 4 19 103 20 7 22 8 23
REMARK SMILES IDX 13 24 9 25 12 26 10 27 11 28 93 29 94 30 102 31 95 32 101 33
REMARK SMILES IDX 96 34 97 35 98 36 99 37 100 38 24 39 25 40 26 41 27 42 28 43
REMARK SMILES IDX 29 44 90 45 30 46 89 47 31 48 32 49 33 50 83 51 34 52 88 53
REMARK SMILES IDX 82 54 84 55 35 56 87 57 81 58 80 59 36 61 68 62 48 63 67 64
REMARK SMILES IDX 49 65 52 66 66 67 85 68 50 69 51 70 65 72 86 73 53 74 37 75
REMARK SMILES IDX 38 76 46 77 39 78 40 79 44 80 47 81 41 82 42 83 45 84 43 85
REMARK SMILES IDX 69 86 70 87 78 88 71 89 72 90 76 91 79 92 73 93 74 94 77 95
REMARK SMILES IDX 75 96 54 97 55 98 63 99 56 100 57 101 61 102 64 103 58 104
REMARK SMILES IDX 59 105 62 106 60 107
REMARK H PARENT 5 21 84 60 52 71
REMARK Flexibility Score: inf
ROOT
ATOM      1  C   UNL A   1      42.353  21.245  26.060  1.00  0.00     0.274 C 
ENDROOT
BRANCH   1   2
ATOM      2  O   UNL A   1      41.066  21.736  25.643  1.00  0.00    -0.462 OA
BRANCH   2   3
ATOM      3  C   UNL A   1      40.172  22.081  26.607  1.00  0.00     0.313 C 
ATOM      4  O   UNL A   1      40.075  21.517  27.692  1.00  0.00    -0.252 OA
BRANCH   3   5
ATOM      5  C   UNL A   1      39.249  23.230  26.193  1.00  0.00     0.126 C 
ATOM      6  C   UNL A   1      39.205  24.282  27.298  1.00  0.00     0.025 C 
BRANCH   5   7
ATOM      7  C   UNL A   1      37.858  22.810  25.738  1.00  0.00    -0.033 A 
ATOM      8  C   UNL A   1      35.270  21.998  24.802  1.00  0.00     0.022 A 
ATOM      9  C   UNL A   1      36.212  21.089  25.324  1.00  0.00     0.011 A 
ATOM     10  C   UNL A   1      35.651  23.370  24.766  1.00  0.00    -0.009 A 
ATOM     11  C   UNL A   1      37.456  21.482  25.806  1.00  0.00     0.005 A 
ATOM     12  C   UNL A   1      36.941  23.742  25.227  1.00  0.00     0.013 A 
BRANCH   8  13
ATOM     13  C   UNL A   1      33.864  21.516  24.338  1.00  0.00     0.247 C 
BRANCH  13  14
ATOM     14  N   UNL A   1      32.660  22.043  25.062  1.00  0.00    -0.325 N 
ATOM     15  C   UNL A   1      30.119  25.254  26.670  1.00  0.00     0.008 C 
ATOM     16  C   UNL A   1      31.190  24.386  26.019  1.00  0.00    -0.003 C 
ATOM     17  C   UNL A   1      30.625  23.558  24.867  1.00  0.00     0.065 C 
ATOM     18  C   UNL A   1      31.798  23.408  27.018  1.00  0.00     0.065 C 
ATOM     19  C   UNL A   1      31.721  22.740  24.177  1.00  0.00     0.263 C 
ATOM     20  C   UNL A   1      32.939  22.615  26.382  1.00  0.00     0.263 C 
ATOM     21  H   UNL A   1      32.107  21.237  25.352  1.00  0.00     0.348 HD
ENDBRANCH  13  14
BRANCH  13  22
ATOM     22  C   UNL A   1      33.751  19.994  24.134  1.00  0.00     0.014 A 
ATOM     23  C   UNL A   1      34.720  19.100  24.626  1.00  0.00     0.013 A 
ATOM     24  C   UNL A   1      32.635  19.469  23.452  1.00  0.00     0.013 A 
ATOM     25  C   UNL A   1      34.573  17.724  24.443  1.00  0.00     0.040 A 
ATOM     26  C   UNL A   1      32.502  18.093  23.252  1.00  0.00     0.040 A 
ATOM     27  C   UNL A   1      33.470  17.234  23.755  1.00  0.00     0.123 A 
ATOM     28  F   UNL A   1      33.338  15.913  23.574  1.00  0.00    -0.207 F 
ENDBRANCH  13  22
ENDBRANCH   8  13
BRANCH  10  29
ATOM     29  C   UNL A   1      34.774  24.443  24.257  1.00  0.00    -0.018 A 
ATOM     30  C   UNL A   1      34.281  24.398  22.941  1.00  0.00     0.009 A 
ATOM     31  C   UNL A   1      34.404  25.528  25.064  1.00  0.00     0.009 A 
ATOM     32  C   UNL A   1      33.410  25.383  22.464  1.00  0.00     0.014 A 
ATOM     33  C   UNL A   1      33.526  26.511  24.593  1.00  0.00     0.014 A 
ATOM     34  C   UNL A   1      33.007  26.439  23.292  1.00  0.00     0.056 A 
BRANCH  34  35
ATOM     35  C   UNL A   1      32.042  27.481  22.779  1.00  0.00     0.416 C 
ATOM     36  F   UNL A   1      32.668  28.631  22.409  1.00  0.00    -0.166 F 
ATOM     37  F   UNL A   1      31.351  27.062  21.682  1.00  0.00    -0.166 F 
ATOM     38  F   UNL A   1      31.100  27.845  23.694  1.00  0.00    -0.166 F 
ENDBRANCH  34  35
ENDBRANCH  10  29
ENDBRANCH   5   7
ENDBRANCH   3   5
ENDBRANCH   2   3
ENDBRANCH   1   2
BRANCH   1  39
ATOM     39  C   UNL A   1      43.469  21.876  25.228  1.00  0.00     0.275 C 
BRANCH  39  40
ATOM     40  O   UNL A   1      43.101  23.209  24.831  1.00  0.00    -0.458 OA
BRANCH  40  41
ATOM     41  C   UNL A   1      43.998  24.177  25.126  1.00  0.00     0.338 C 
ATOM     42  O   UNL A   1      45.071  24.396  24.596  1.00  0.00    -0.246 OA
BRANCH  41  43
ATOM     43  C   UNL A   1      43.419  25.044  26.160  1.00  0.00     0.060 A 
ATOM     44  C   UNL A   1      43.584  26.424  26.032  1.00  0.00     0.016 A 
ATOM     45  C   UNL A   1      42.772  24.503  27.269  1.00  0.00     0.016 A 
ATOM     46  C   UNL A   1      43.108  27.279  27.020  1.00  0.00     0.010 A 
ATOM     47  C   UNL A   1      42.289  25.362  28.260  1.00  0.00     0.010 A 
ATOM     48  C   UNL A   1      42.464  26.752  28.145  1.00  0.00    -0.014 A 
BRANCH  48  49
ATOM     49  C   UNL A   1      42.024  27.659  29.228  1.00  0.00     0.031 A 
ATOM     50  C   UNL A   1      42.812  27.731  30.501  1.00  0.00     0.074 A 
ATOM     51  C   UNL A   1      40.931  28.423  29.059  1.00  0.00     0.049 A 
ATOM     52  N   UNL A   1      42.555  28.398  31.596  1.00  0.00    -0.248 NA
ATOM     53  C   UNL A   1      44.054  26.945  30.548  1.00  0.00     0.031 C 
ATOM     54  C   UNL A   1      40.116  28.468  27.847  1.00  0.00     0.029 A 
ATOM     55  N   UNL A   1      40.319  29.307  29.912  1.00  0.00    -0.354 N 
ATOM     56  C   UNL A   1      43.585  28.093  32.472  1.00  0.00     0.074 A 
ATOM     57  C   UNL A   1      44.467  27.171  31.786  1.00  0.00     0.031 C 
ATOM     58  C   UNL A   1      39.108  29.335  28.032  1.00  0.00     0.029 A 
ATOM     59  C   UNL A   1      39.184  29.872  29.389  1.00  0.00     0.049 A 
ATOM     60  H   UNL A   1      40.662  29.516  30.810  1.00  0.00     0.167 HD
ATOM     61  C   UNL A   1      43.773  28.542  33.734  1.00  0.00     0.037 A 
ATOM     62  C   UNL A   1      38.290  30.707  29.952  1.00  0.00     0.037 A 
ATOM     63  C   UNL A   1      42.904  29.478  34.399  1.00  0.00     0.049 A 
ATOM     64  C   UNL A   1      38.494  31.159  31.370  1.00  0.00     0.074 A 
ATOM     65  C   UNL A   1      43.035  30.029  35.661  1.00  0.00     0.029 A 
ATOM     66  N   UNL A   1      41.739  29.998  33.853  1.00  0.00    -0.354 N 
ATOM     67  N   UNL A   1      39.470  30.866  32.195  1.00  0.00    -0.248 NA
ATOM     68  C   UNL A   1      37.473  32.050  31.939  1.00  0.00     0.031 C 
ATOM     69  C   UNL A   1      41.924  30.845  35.898  1.00  0.00     0.029 A 
ATOM     70  C   UNL A   1      41.124  30.840  34.765  1.00  0.00     0.049 A 
ATOM     71  H   UNL A   1      41.399  29.797  32.950  1.00  0.00     0.167 HD
ATOM     72  C   UNL A   1      39.187  31.538  33.376  1.00  0.00     0.074 A 
ATOM     73  C   UNL A   1      37.954  32.266  33.157  1.00  0.00     0.031 C 
ATOM     74  C   UNL A   1      39.889  31.548  34.537  1.00  0.00     0.037 A 
BRANCH  61  75
ATOM     75  C   UNL A   1      44.948  28.001  34.495  1.00  0.00     0.064 A 
ATOM     76  C   UNL A   1      46.192  28.644  34.420  1.00  0.00     0.173 A 
ATOM     77  C   UNL A   1      44.855  26.836  35.271  1.00  0.00     0.173 A 
ATOM     78  F   UNL A   1      46.332  29.761  33.689  1.00  0.00    -0.203 F 
ATOM     79  C   UNL A   1      47.302  28.139  35.090  1.00  0.00     0.198 A 
ATOM     80  C   UNL A   1      45.961  26.348  35.961  1.00  0.00     0.198 A 
ATOM     81  F   UNL A   1      43.683  26.194  35.387  1.00  0.00    -0.203 F 
ATOM     82  F   UNL A   1      48.485  28.762  34.989  1.00  0.00    -0.200 F 
ATOM     83  C   UNL A   1      47.184  26.996  35.866  1.00  0.00     0.200 A 
ATOM     84  F   UNL A   1      45.842  25.256  36.729  1.00  0.00    -0.200 F 
ATOM     85  F   UNL A   1      48.250  26.521  36.526  1.00  0.00    -0.200 F 
ENDBRANCH  61  75
BRANCH  62  86
ATOM     86  C   UNL A   1      37.120  31.150  29.155  1.00  0.00     0.064 A 
ATOM     87  C   UNL A   1      37.010  32.473  28.702  1.00  0.00     0.173 A 
ATOM     88  C   UNL A   1      36.054  30.279  28.896  1.00  0.00     0.173 A 
ATOM     89  F   UNL A   1      38.005  33.344  28.927  1.00  0.00    -0.203 F 
ATOM     90  C   UNL A   1      35.863  32.917  28.049  1.00  0.00     0.198 A 
ATOM     91  C   UNL A   1      34.916  30.717  28.224  1.00  0.00     0.198 A 
ATOM     92  F   UNL A   1      36.125  28.999  29.292  1.00  0.00    -0.203 F 
ATOM     93  F   UNL A   1      35.764  34.197  27.665  1.00  0.00    -0.200 F 
ATOM     94  C   UNL A   1      34.816  32.039  27.812  1.00  0.00     0.200 A 
ATOM     95  F   UNL A   1      33.912  29.863  27.981  1.00  0.00    -0.200 F 
ATOM     96  F   UNL A   1      33.709  32.466  27.190  1.00  0.00    -0.200 F 
ENDBRANCH  62  86
BRANCH  74  97
ATOM     97  C   UNL A   1      39.347  32.370  35.667  1.00  0.00     0.064 A 
ATOM     98  C   UNL A   1      39.764  33.698  35.846  1.00  0.00     0.173 A 
ATOM     99  C   UNL A   1      38.481  31.817  36.621  1.00  0.00     0.173 A 
ATOM    100  F   UNL A   1      40.598  34.269  34.964  1.00  0.00    -0.203 F 
ATOM    101  C   UNL A   1      39.346  34.437  36.949  1.00  0.00     0.198 A 
ATOM    102  C   UNL A   1      38.046  32.567  37.711  1.00  0.00     0.198 A 
ATOM    103  F   UNL A   1      38.045  30.556  36.485  1.00  0.00    -0.203 F 
ATOM    104  F   UNL A   1      39.784  35.692  37.117  1.00  0.00    -0.200 F 
ATOM    105  C   UNL A   1      38.488  33.871  37.879  1.00  0.00     0.200 A 
ATOM    106  F   UNL A   1      37.200  32.027  38.598  1.00  0.00    -0.200 F 
ATOM    107  F   UNL A   1      38.082  34.585  38.938  1.00  0.00    -0.200 F 
ENDBRANCH  74  97
ENDBRANCH  48  49
ENDBRANCH  41  43
ENDBRANCH  40  41
ENDBRANCH  39  40
ENDBRANCH   1  39
TORSDOF 17
ENDMDL
MODEL 2
REMARK VINA RESULT:     -13.5      1.298      2.757
REMARK SMILES CC1CC[NH+]([C@H](c2ccc(F)cc2)c2ccc([C@@H](C)C(=O)OCCOC(=O)c3ccc(-c4c5nc(c(-c6c(F)c(F)c(F)c(F)c6F)c6ccc([nH]6)c(-c6c(F)c(F)c(F)c(F)c6F)c6nc(c(-c7c(F)c(F)c(F)c(F)c7F)c7ccc4[nH]7)C=C6)C=C5)cc3)cc2-c2ccc(C(F)(F)F)cc2)CC1
REMARK SMILES IDX 23 1 22 2 20 3 21 4 18 5 19 6 17 7 14 8 15 9 92 10 16 11
REMARK SMILES IDX 91 12 6 13 5 14 1 15 2 16 3 17 104 18 4 19 103 20 7 22 8 23
REMARK SMILES IDX 13 24 9 25 12 26 10 27 11 28 93 29 94 30 102 31 95 32 101 33
REMARK SMILES IDX 96 34 97 35 98 36 99 37 100 38 24 39 25 40 26 41 27 42 28 43
REMARK SMILES IDX 29 44 90 45 30 46 89 47 31 48 32 49 33 50 83 51 34 52 88 53
REMARK SMILES IDX 82 54 84 55 35 56 87 57 81 58 80 59 36 61 68 62 48 63 67 64
REMARK SMILES IDX 49 65 52 66 66 67 85 68 50 69 51 70 65 72 86 73 53 74 37 75
REMARK SMILES IDX 38 76 46 77 39 78 40 79 44 80 47 81 41 82 42 83 45 84 43 85
REMARK SMILES IDX 69 86 70 87 78 88 71 89 72 90 76 91 79 92 73 93 74 94 77 95
REMARK SMILES IDX 75 96 54 97 55 98 63 99 56 100 57 101 61 102 64 103 58 104
REMARK SMILES IDX 59 105 62 106 60 107
REMARK H PARENT 5 21 84 60 52 71
REMARK Flexibility Score: inf
ROOT
ATOM      1  C   UNL A   1      42.323  20.992  26.051  1.00  0.00     0.274 C 
ENDROOT
BRANCH   1   2
ATOM      2  O   UNL A   1      41.109  21.715  25.771  1.00  0.00    -0.462 OA
BRANCH   2   3
ATOM      3  C   UNL A   1      40.328  22.081  26.822  1.00  0.00     0.313 C 
ATOM      4  O   UNL A   1      40.347  21.534  27.920  1.00  0.00    -0.252 OA
BRANCH   3   5
ATOM      5  C   UNL A   1      39.374  23.232  26.495  1.00  0.00     0.126 C 
ATOM      6  C   UNL A   1      39.340  24.222  27.656  1.00  0.00     0.025 C 
BRANCH   5   7
ATOM      7  C   UNL A   1      37.980  22.810  26.053  1.00  0.00    -0.033 A 
ATOM      8  C   UNL A   1      35.372  22.036  25.140  1.00  0.00     0.022 A 
ATOM      9  C   UNL A   1      36.485  21.172  25.093  1.00  0.00     0.011 A 
ATOM     10  C   UNL A   1      35.589  23.334  25.682  1.00  0.00    -0.009 A 
ATOM     11  C   UNL A   1      37.743  21.532  25.562  1.00  0.00     0.005 A 
ATOM     12  C   UNL A   1      36.891  23.694  26.118  1.00  0.00     0.013 A 
BRANCH   8  13
ATOM     13  C   UNL A   1      33.968  21.559  24.665  1.00  0.00     0.247 C 
BRANCH  13  14
ATOM     14  N   UNL A   1      33.832  20.151  24.162  1.00  0.00    -0.325 N 
ATOM     15  C   UNL A   1      32.905  15.875  24.613  1.00  0.00     0.008 C 
ATOM     16  C   UNL A   1      33.154  17.371  24.772  1.00  0.00    -0.003 C 
ATOM     17  C   UNL A   1      32.226  18.197  23.885  1.00  0.00     0.065 C 
ATOM     18  C   UNL A   1      34.584  17.740  24.394  1.00  0.00     0.065 C 
ATOM     19  C   UNL A   1      32.438  19.699  24.100  1.00  0.00     0.263 C 
ATOM     20  C   UNL A   1      34.852  19.222  24.654  1.00  0.00     0.263 C 
ATOM     21  H   UNL A   1      34.087  20.160  23.175  1.00  0.00     0.348 HD
ENDBRANCH  13  14
BRANCH  13  22
ATOM     22  C   UNL A   1      33.248  22.543  23.726  1.00  0.00     0.014 A 
ATOM     23  C   UNL A   1      31.948  23.012  23.991  1.00  0.00     0.013 A 
ATOM     24  C   UNL A   1      33.910  23.011  22.573  1.00  0.00     0.013 A 
ATOM     25  C   UNL A   1      31.333  23.924  23.130  1.00  0.00     0.040 A 
ATOM     26  C   UNL A   1      33.284  23.905  21.702  1.00  0.00     0.040 A 
ATOM     27  C   UNL A   1      32.004  24.357  21.993  1.00  0.00     0.123 A 
ATOM     28  F   UNL A   1      31.407  25.225  21.165  1.00  0.00    -0.207 F 
ENDBRANCH  13  22
ENDBRANCH   8  13
BRANCH  10  29
ATOM     29  C   UNL A   1      34.524  24.350  25.807  1.00  0.00    -0.018 A 
ATOM     30  C   UNL A   1      33.468  24.169  26.717  1.00  0.00     0.009 A 
ATOM     31  C   UNL A   1      34.535  25.518  25.031  1.00  0.00     0.009 A 
ATOM     32  C   UNL A   1      32.482  25.147  26.878  1.00  0.00     0.014 A 
ATOM     33  C   UNL A   1      33.553  26.501  25.196  1.00  0.00     0.014 A 
ATOM     34  C   UNL A   1      32.525  26.333  26.134  1.00  0.00     0.056 A 
BRANCH  34  35
ATOM     35  C   UNL A   1      31.473  27.397  26.337  1.00  0.00     0.416 C 
ATOM     36  F   UNL A   1      31.371  27.785  27.637  1.00  0.00    -0.166 F 
ATOM     37  F   UNL A   1      31.729  28.531  25.626  1.00  0.00    -0.166 F 
ATOM     38  F   UNL A   1      30.223  27.002  25.964  1.00  0.00    -0.166 F 
ENDBRANCH  34  35
ENDBRANCH  10  29
ENDBRANCH   5   7
ENDBRANCH   3   5
ENDBRANCH   2   3
ENDBRANCH   1   2
BRANCH   1  39
ATOM     39  C   UNL A   1      43.546  21.877  25.810  1.00  0.00     0.275 C 
BRANCH  39  40
ATOM     40  O   UNL A   1      43.168  23.064  25.091  1.00  0.00    -0.458 OA
BRANCH  40  41
ATOM     41  C   UNL A   1      43.964  24.141  25.279  1.00  0.00     0.338 C 
ATOM     42  O   UNL A   1      44.961  24.457  24.658  1.00  0.00    -0.246 OA
BRANCH  41  43
ATOM     43  C   UNL A   1      43.367  24.982  26.323  1.00  0.00     0.060 A 
ATOM     44  C   UNL A   1      43.430  26.368  26.172  1.00  0.00     0.016 A 
ATOM     45  C   UNL A   1      42.802  24.414  27.464  1.00  0.00     0.016 A 
ATOM     46  C   UNL A   1      42.934  27.203  27.166  1.00  0.00     0.010 A 
ATOM     47  C   UNL A   1      42.298  25.253  28.462  1.00  0.00     0.010 A 
ATOM     48  C   UNL A   1      42.372  26.650  28.322  1.00  0.00    -0.014 A 
BRANCH  48  49
ATOM     49  C   UNL A   1      41.912  27.542  29.410  1.00  0.00     0.031 A 
ATOM     50  C   UNL A   1      42.663  27.579  30.706  1.00  0.00     0.074 A 
ATOM     51  C   UNL A   1      40.833  28.322  29.225  1.00  0.00     0.049 A 
ATOM     52  N   UNL A   1      42.382  28.227  31.807  1.00  0.00    -0.248 NA
ATOM     53  C   UNL A   1      43.893  26.777  30.773  1.00  0.00     0.031 C 
ATOM     54  C   UNL A   1      40.053  28.401  27.991  1.00  0.00     0.029 A 
ATOM     55  N   UNL A   1      40.207  29.196  30.077  1.00  0.00    -0.354 N 
ATOM     56  C   UNL A   1      43.383  27.892  32.705  1.00  0.00     0.074 A 
ATOM     57  C   UNL A   1      44.273  26.974  32.027  1.00  0.00     0.031 C 
ATOM     58  C   UNL A   1      39.051  29.276  28.165  1.00  0.00     0.029 A 
ATOM     59  C   UNL A   1      39.093  29.785  29.534  1.00  0.00     0.049 A 
ATOM     60  H   UNL A   1      40.526  29.383  30.989  1.00  0.00     0.167 HD
ATOM     61  C   UNL A   1      43.540  28.315  33.981  1.00  0.00     0.037 A 
ATOM     62  C   UNL A   1      38.194  30.621  30.087  1.00  0.00     0.037 A 
ATOM     63  C   UNL A   1      42.663  29.248  34.639  1.00  0.00     0.049 A 
ATOM     64  C   UNL A   1      38.362  31.042  31.519  1.00  0.00     0.074 A 
ATOM     65  C   UNL A   1      42.764  29.773  35.915  1.00  0.00     0.029 A 
ATOM     66  N   UNL A   1      41.520  29.793  34.070  1.00  0.00    -0.354 N 
ATOM     67  N   UNL A   1      39.310  30.721  32.366  1.00  0.00    -0.248 NA
ATOM     68  C   UNL A   1      37.335  31.934  32.076  1.00  0.00     0.031 C 
ATOM     69  C   UNL A   1      41.656  30.598  36.136  1.00  0.00     0.029 A 
ATOM     70  C   UNL A   1      40.889  30.624  34.981  1.00  0.00     0.049 A 
ATOM     71  H   UNL A   1      41.204  29.614  33.155  1.00  0.00     0.167 HD
ATOM     72  C   UNL A   1      39.002  31.373  33.551  1.00  0.00     0.074 A 
ATOM     73  C   UNL A   1      37.784  32.120  33.311  1.00  0.00     0.031 C 
ATOM     74  C   UNL A   1      39.670  31.352  34.731  1.00  0.00     0.037 A 
BRANCH  61  75
ATOM     75  C   UNL A   1      44.685  27.745  34.764  1.00  0.00     0.064 A 
ATOM     76  C   UNL A   1      44.514  26.565  35.504  1.00  0.00     0.173 A 
ATOM     77  C   UNL A   1      45.938  28.374  34.810  1.00  0.00     0.173 A 
ATOM     78  F   UNL A   1      43.334  25.926  35.493  1.00  0.00    -0.203 F 
ATOM     79  C   UNL A   1      45.554  26.038  36.264  1.00  0.00     0.198 A 
ATOM     80  C   UNL A   1      46.984  27.830  35.551  1.00  0.00     0.198 A 
ATOM     81  F   UNL A   1      46.156  29.496  34.107  1.00  0.00    -0.203 F 
ATOM     82  F   UNL A   1      45.361  24.919  36.976  1.00  0.00    -0.200 F 
ATOM     83  C   UNL A   1      46.790  26.667  36.281  1.00  0.00     0.200 A 
ATOM     84  F   UNL A   1      48.185  28.425  35.549  1.00  0.00    -0.200 F 
ATOM     85  F   UNL A   1      47.796  26.147  36.999  1.00  0.00    -0.200 F 
ENDBRANCH  61  75
BRANCH  62  86
ATOM     86  C   UNL A   1      37.052  31.093  29.266  1.00  0.00     0.064 A 
ATOM     87  C   UNL A   1      36.980  32.421  28.821  1.00  0.00     0.173 A 
ATOM     88  C   UNL A   1      35.976  30.246  28.975  1.00  0.00     0.173 A 
ATOM     89  F   UNL A   1      37.987  33.270  29.076  1.00  0.00    -0.203 F 
ATOM     90  C   UNL A   1      35.859  32.893  28.144  1.00  0.00     0.198 A 
ATOM     91  C   UNL A   1      34.863  30.713  28.279  1.00  0.00     0.198 A 
ATOM     92  F   UNL A   1      36.011  28.962  29.362  1.00  0.00    -0.203 F 
ATOM     93  F   UNL A   1      35.795  34.178  27.768  1.00  0.00    -0.200 F 
ATOM     94  C   UNL A   1      34.800  32.039  27.875  1.00  0.00     0.200 A 
ATOM     95  F   UNL A   1      33.849  29.881  28.005  1.00  0.00    -0.200 F 
ATOM     96  F   UNL A   1      33.718  32.494  27.230  1.00  0.00    -0.200 F 
ENDBRANCH  62  86
BRANCH  74  97
ATOM     97  C   UNL A   1      39.105  32.159  35.862  1.00  0.00     0.064 A 
ATOM     98  C   UNL A   1      39.521  33.483  36.069  1.00  0.00     0.173 A 
ATOM     99  C   UNL A   1      38.218  31.593  36.789  1.00  0.00     0.173 A 
ATOM    100  F   UNL A   1      40.374  34.065  35.214  1.00  0.00    -0.203 F 
ATOM    101  C   UNL A   1      39.081  34.206  37.174  1.00  0.00     0.198 A 
ATOM    102  C   UNL A   1      37.761  32.328  37.880  1.00  0.00     0.198 A 
ATOM    103  F   UNL A   1      37.782  30.335  36.625  1.00  0.00    -0.203 F 
ATOM    104  F   UNL A   1      39.516  35.458  37.370  1.00  0.00    -0.200 F 
ATOM    105  C   UNL A   1      38.201  33.629  38.077  1.00  0.00     0.200 A 
ATOM    106  F   UNL A   1      36.894  31.776  38.741  1.00  0.00    -0.200 F 
ATOM    107  F   UNL A   1      37.774  34.328  39.138  1.00  0.00    -0.200 F 
ENDBRANCH  74  97
ENDBRANCH  48  49
ENDBRANCH  41  43
ENDBRANCH  40  41
ENDBRANCH  39  40
ENDBRANCH   1  39
TORSDOF 17
ENDMDL
MODEL 3
REMARK VINA RESULT:     -13.5      4.641      6.757
REMARK SMILES CC1CC[NH+]([C@H](c2ccc(F)cc2)c2ccc([C@@H](C)C(=O)OCCOC(=O)c3ccc(-c4c5nc(c(-c6c(F)c(F)c(F)c(F)c6F)c6ccc([nH]6)c(-c6c(F)c(F)c(F)c(F)c6F)c6nc(c(-c7c(F)c(F)c(F)c(F)c7F)c7ccc4[nH]7)C=C6)C=C5)cc3)cc2-c2ccc(C(F)(F)F)cc2)CC1
REMARK SMILES IDX 23 1 22 2 20 3 21 4 18 5 19 6 17 7 14 8 15 9 92 10 16 11
REMARK SMILES IDX 91 12 6 13 5 14 1 15 2 16 3 17 104 18 4 19 103 20 7 22 8 23
REMARK SMILES IDX 13 24 9 25 12 26 10 27 11 28 93 29 94 30 102 31 95 32 101 33
REMARK SMILES IDX 96 34 97 35 98 36 99 37 100 38 24 39 25 40 26 41 27 42 28 43
REMARK SMILES IDX 29 44 90 45 30 46 89 47 31 48 32 49 33 50 83 51 34 52 88 53
REMARK SMILES IDX 82 54 84 55 35 56 87 57 81 58 80 59 36 61 68 62 48 63 67 64
REMARK SMILES IDX 49 65 52 66 66 67 85 68 50 69 51 70 65 72 86 73 53 74 37 75
REMARK SMILES IDX 38 76 46 77 39 78 40 79 44 80 47 81 41 82 42 83 45 84 43 85
REMARK SMILES IDX 69 86 70 87 78 88 71 89 72 90 76 91 79 92 73 93 74 94 77 95
REMARK SMILES IDX 75 96 54 97 55 98 63 99 56 100 57 101 61 102 64 103 58 104
REMARK SMILES IDX 59 105 62 106 60 107
REMARK H PARENT 5 21 84 60 52 71
REMARK Flexibility Score: inf
ROOT
ATOM      1  C   UNL A   1      41.101  19.228  26.118  1.00  0.00     0.274 C 
ENDROOT
BRANCH   1   2
ATOM      2  O   UNL A   1      40.710  20.520  25.617  1.00  0.00    -0.462 OA
BRANCH   2   3
ATOM      3  C   UNL A   1      40.105  21.381  26.477  1.00  0.00     0.313 C 
ATOM      4  O   UNL A   1      40.163  21.291  27.699  1.00  0.00    -0.252 OA
BRANCH   3   5
ATOM      5  C   UNL A   1      39.293  22.470  25.771  1.00  0.00     0.126 C 
ATOM      6  C   UNL A   1      39.405  23.782  26.545  1.00  0.00     0.025 C 
BRANCH   5   7
ATOM      7  C   UNL A   1      37.850  22.102  25.462  1.00  0.00    -0.033 A 
ATOM      8  C   UNL A   1      35.153  21.377  24.803  1.00  0.00     0.022 A 
ATOM      9  C   UNL A   1      36.072  20.467  25.363  1.00  0.00     0.011 A 
ATOM     10  C   UNL A   1      35.615  22.705  24.582  1.00  0.00    -0.009 A 
ATOM     11  C   UNL A   1      37.371  20.822  25.713  1.00  0.00     0.005 A 
ATOM     12  C   UNL A   1      36.957  23.034  24.908  1.00  0.00     0.013 A 
BRANCH   8  13
ATOM     13  C   UNL A   1      33.689  20.946  24.494  1.00  0.00     0.247 C 
BRANCH  13  14
ATOM     14  N   UNL A   1      32.576  21.661  25.203  1.00  0.00    -0.325 N 
ATOM     15  C   UNL A   1      30.411  25.253  26.530  1.00  0.00     0.008 C 
ATOM     16  C   UNL A   1      31.366  24.222  25.940  1.00  0.00    -0.003 C 
ATOM     17  C   UNL A   1      30.670  23.323  24.921  1.00  0.00     0.065 C 
ATOM     18  C   UNL A   1      31.943  23.314  27.020  1.00  0.00     0.065 C 
ATOM     19  C   UNL A   1      31.652  22.334  24.285  1.00  0.00     0.263 C 
ATOM     20  C   UNL A   1      32.975  22.353  26.431  1.00  0.00     0.263 C 
ATOM     21  H   UNL A   1      31.973  20.947  25.611  1.00  0.00     0.348 HD
ENDBRANCH  13  14
BRANCH  13  22
ATOM     22  C   UNL A   1      33.456  19.425  24.515  1.00  0.00     0.014 A 
ATOM     23  C   UNL A   1      33.797  18.602  23.424  1.00  0.00     0.013 A 
ATOM     24  C   UNL A   1      32.906  18.824  25.664  1.00  0.00     0.013 A 
ATOM     25  C   UNL A   1      33.595  17.222  23.486  1.00  0.00     0.040 A 
ATOM     26  C   UNL A   1      32.684  17.446  25.714  1.00  0.00     0.040 A 
ATOM     27  C   UNL A   1      33.036  16.659  24.627  1.00  0.00     0.123 A 
ATOM     28  F   UNL A   1      32.836  15.335  24.679  1.00  0.00    -0.207 F 
ENDBRANCH  13  22
ENDBRANCH   8  13
BRANCH  10  29
ATOM     29  C   UNL A   1      34.772  23.774  24.010  1.00  0.00    -0.018 A 
ATOM     30  C   UNL A   1      34.196  23.625  22.737  1.00  0.00     0.009 A 
ATOM     31  C   UNL A   1      34.517  24.958  24.716  1.00  0.00     0.009 A 
ATOM     32  C   UNL A   1      33.356  24.609  22.207  1.00  0.00     0.014 A 
ATOM     33  C   UNL A   1      33.670  25.941  24.192  1.00  0.00     0.014 A 
ATOM     34  C   UNL A   1      33.068  25.769  22.938  1.00  0.00     0.056 A 
BRANCH  34  35
ATOM     35  C   UNL A   1      32.135  26.812  22.371  1.00  0.00     0.416 C 
ATOM     36  F   UNL A   1      31.166  27.177  23.254  1.00  0.00    -0.166 F 
ATOM     37  F   UNL A   1      32.780  27.962  22.027  1.00  0.00    -0.166 F 
ATOM     38  F   UNL A   1      31.483  26.403  21.246  1.00  0.00    -0.166 F 
ENDBRANCH  34  35
ENDBRANCH  10  29
ENDBRANCH   5   7
ENDBRANCH   3   5
ENDBRANCH   2   3
ENDBRANCH   1   2
BRANCH   1  39
ATOM     39  C   UNL A   1      42.618  19.055  26.042  1.00  0.00     0.275 C 
BRANCH  39  40
ATOM     40  O   UNL A   1      43.078  19.287  24.699  1.00  0.00    -0.458 OA
BRANCH  40  41
ATOM     41  C   UNL A   1      44.406  19.509  24.565  1.00  0.00     0.338 C 
ATOM     42  O   UNL A   1      45.260  18.744  24.160  1.00  0.00    -0.246 OA
BRANCH  41  43
ATOM     43  C   UNL A   1      44.674  20.916  24.891  1.00  0.00     0.060 A 
ATOM     44  C   UNL A   1      45.216  21.212  26.143  1.00  0.00     0.016 A 
ATOM     45  C   UNL A   1      44.344  21.933  23.998  1.00  0.00     0.016 A 
ATOM     46  C   UNL A   1      45.426  22.534  26.518  1.00  0.00     0.010 A 
ATOM     47  C   UNL A   1      44.560  23.262  24.371  1.00  0.00     0.010 A 
ATOM     48  C   UNL A   1      45.091  23.568  25.637  1.00  0.00    -0.014 A 
BRANCH  48  49
ATOM     49  C   UNL A   1      45.249  24.976  26.068  1.00  0.00     0.031 A 
ATOM     50  C   UNL A   1      46.587  25.641  25.952  1.00  0.00     0.074 A 
ATOM     51  C   UNL A   1      44.191  25.652  26.546  1.00  0.00     0.049 A 
ATOM     52  N   UNL A   1      46.954  26.834  26.344  1.00  0.00    -0.248 NA
ATOM     53  C   UNL A   1      47.655  24.858  25.312  1.00  0.00     0.031 C 
ATOM     54  C   UNL A   1      42.834  25.120  26.660  1.00  0.00     0.029 A 
ATOM     55  N   UNL A   1      44.093  26.933  27.026  1.00  0.00    -0.354 N 
ATOM     56  C   UNL A   1      48.299  26.936  26.024  1.00  0.00     0.074 A 
ATOM     57  C   UNL A   1      48.688  25.681  25.416  1.00  0.00     0.031 C 
ATOM     58  C   UNL A   1      42.037  26.068  27.178  1.00  0.00     0.029 A 
ATOM     59  C   UNL A   1      42.836  27.255  27.471  1.00  0.00     0.049 A 
ATOM     60  H   UNL A   1      44.851  27.561  27.048  1.00  0.00     0.167 HD
ATOM     61  C   UNL A   1      49.131  27.985  26.223  1.00  0.00     0.037 A 
ATOM     62  C   UNL A   1      42.386  28.373  28.073  1.00  0.00     0.037 A 
ATOM     63  C   UNL A   1      48.728  29.238  26.807  1.00  0.00     0.049 A 
ATOM     64  C   UNL A   1      43.337  29.509  28.325  1.00  0.00     0.074 A 
ATOM     65  C   UNL A   1      49.487  30.377  27.008  1.00  0.00     0.029 A 
ATOM     66  N   UNL A   1      47.455  29.514  27.284  1.00  0.00    -0.354 N 
ATOM     67  N   UNL A   1      44.609  29.600  28.022  1.00  0.00    -0.248 NA
ATOM     68  C   UNL A   1      42.795  30.692  29.007  1.00  0.00     0.031 C 
ATOM     69  C   UNL A   1      48.686  31.326  27.653  1.00  0.00     0.029 A 
ATOM     70  C   UNL A   1      47.415  30.795  27.810  1.00  0.00     0.049 A 
ATOM     71  H   UNL A   1      46.693  28.890  27.255  1.00  0.00     0.167 HD
ATOM     72  C   UNL A   1      45.020  30.848  28.468  1.00  0.00     0.074 A 
ATOM     73  C   UNL A   1      43.858  31.486  29.052  1.00  0.00     0.031 C 
ATOM     74  C   UNL A   1      46.252  31.411  28.399  1.00  0.00     0.037 A 
BRANCH  61  75
ATOM     75  C   UNL A   1      50.570  27.810  25.839  1.00  0.00     0.064 A 
ATOM     76  C   UNL A   1      50.962  27.945  24.499  1.00  0.00     0.173 A 
ATOM     77  C   UNL A   1      51.555  27.482  26.783  1.00  0.00     0.173 A 
ATOM     78  F   UNL A   1      50.058  28.257  23.558  1.00  0.00    -0.203 F 
ATOM     79  C   UNL A   1      52.287  27.754  24.117  1.00  0.00     0.198 A 
ATOM     80  C   UNL A   1      52.884  27.316  26.401  1.00  0.00     0.198 A 
ATOM     81  F   UNL A   1      51.232  27.358  28.079  1.00  0.00    -0.203 F 
ATOM     82  F   UNL A   1      52.634  27.871  22.827  1.00  0.00    -0.200 F 
ATOM     83  C   UNL A   1      53.247  27.447  25.069  1.00  0.00     0.200 A 
ATOM     84  F   UNL A   1      53.815  27.043  27.324  1.00  0.00    -0.200 F 
ATOM     85  F   UNL A   1      54.526  27.281  24.701  1.00  0.00    -0.200 F 
ENDBRANCH  61  75
BRANCH  62  86
ATOM     86  C   UNL A   1      40.962  28.445  28.480  1.00  0.00     0.064 A 
ATOM     87  C   UNL A   1      39.988  28.973  27.619  1.00  0.00     0.173 A 
ATOM     88  C   UNL A   1      40.560  28.060  29.765  1.00  0.00     0.173 A 
ATOM     89  F   UNL A   1      40.325  29.356  26.378  1.00  0.00    -0.203 F 
ATOM     90  C   UNL A   1      38.671  29.142  28.039  1.00  0.00     0.198 A 
ATOM     91  C   UNL A   1      39.238  28.210  30.178  1.00  0.00     0.198 A 
ATOM     92  F   UNL A   1      41.453  27.531  30.614  1.00  0.00    -0.203 F 
ATOM     93  F   UNL A   1      37.769  29.689  27.213  1.00  0.00    -0.200 F 
ATOM     94  C   UNL A   1      38.298  28.762  29.320  1.00  0.00     0.200 A 
ATOM     95  F   UNL A   1      38.875  27.827  31.410  1.00  0.00    -0.200 F 
ATOM     96  F   UNL A   1      37.033  28.931  29.728  1.00  0.00    -0.200 F 
ENDBRANCH  62  86
BRANCH  74  97
ATOM     97  C   UNL A   1      46.417  32.789  28.968  1.00  0.00     0.064 A 
ATOM     98  C   UNL A   1      46.232  33.920  28.159  1.00  0.00     0.173 A 
ATOM     99  C   UNL A   1      46.839  32.986  30.290  1.00  0.00     0.173 A 
ATOM    100  F   UNL A   1      45.835  33.782  26.885  1.00  0.00    -0.203 F 
ATOM    101  C   UNL A   1      46.482  35.199  28.649  1.00  0.00     0.198 A 
ATOM    102  C   UNL A   1      47.065  34.267  30.785  1.00  0.00     0.198 A 
ATOM    103  F   UNL A   1      47.017  31.935  31.106  1.00  0.00    -0.203 F 
ATOM    104  F   UNL A   1      46.331  36.263  27.849  1.00  0.00    -0.200 F 
ATOM    105  C   UNL A   1      46.896  35.371  29.961  1.00  0.00     0.200 A 
ATOM    106  F   UNL A   1      47.446  34.435  32.059  1.00  0.00    -0.200 F 
ATOM    107  F   UNL A   1      47.132  36.603  30.433  1.00  0.00    -0.200 F 
ENDBRANCH  74  97
ENDBRANCH  48  49
ENDBRANCH  41  43
ENDBRANCH  40  41
ENDBRANCH  39  40
ENDBRANCH   1  39
TORSDOF 17
ENDMDL
