MODEL 1
REMARK VINA RESULT:     -13.2      0.000      0.000
REMARK SMILES Cc1nc(-c2ccc3c(c2)CCN3S(=O)(=O)c2ccc(F)c(C(=O)OCCOC(=O)c3ccc(-c4c5nc(c(-c6c(F)c(F)c(F)c(F)c6F)c6ccc([nH]6)c(-c6c(F)c(F)c(F)c(F)c6F)c6nc(c(-c7c(F)c(F)c(F)c(F)c7F)c7ccc4[nH]7)C=C6)C=C5)cc3)c2)cs1
REMARK SMILES IDX 26 1 25 2 23 3 24 4 22 5 17 6 18 7 94 8 19 9 20 10 21 11
REMARK SMILES IDX 14 12 15 13 16 14 13 15 5 16 6 17 10 18 7 19 9 20 8 21 11 22
REMARK SMILES IDX 12 23 4 24 1 25 2 26 3 27 96 28 95 29 27 30 28 31 29 32
REMARK SMILES IDX 30 33 31 34 32 35 93 36 33 37 92 38 34 39 35 40 36 41 86 42
REMARK SMILES IDX 37 43 91 44 85 45 87 46 38 47 90 48 84 49 83 50 39 52 71 53
REMARK SMILES IDX 51 54 70 55 52 56 55 57 69 58 88 59 53 60 54 61 68 63 89 64
REMARK SMILES IDX 56 65 40 66 41 67 49 68 42 69 43 70 47 71 50 72 44 73 45 74
REMARK SMILES IDX 48 75 46 76 72 77 73 78 81 79 74 80 75 81 79 82 82 83 76 84
REMARK SMILES IDX 77 85 80 86 78 87 57 88 58 89 66 90 59 91 60 92 64 93 67 94
REMARK SMILES IDX 61 95 62 96 65 97 63 98
REMARK H PARENT 87 51 55 62
REMARK Flexibility Score: inf
ROOT
ATOM      1  C   UNL A   1      31.506  28.712  24.670  1.00  0.00     0.275 C 
ENDROOT
BRANCH   1   2
ATOM      2  O   UNL A   1      32.237  27.469  24.686  1.00  0.00    -0.458 OA
BRANCH   2   3
ATOM      3  C   UNL A   1      31.618  26.400  24.135  1.00  0.00     0.341 C 
ATOM      4  O   UNL A   1      31.022  26.372  23.071  1.00  0.00    -0.246 OA
BRANCH   3   5
ATOM      5  C   UNL A   1      31.891  25.174  24.910  1.00  0.00     0.097 A 
ATOM      6  C   UNL A   1      33.249  23.173  25.173  1.00  0.00     0.089 A 
ATOM      7  C   UNL A   1      32.517  22.808  26.305  1.00  0.00     0.025 A 
ATOM      8  C   UNL A   1      32.929  24.342  24.475  1.00  0.00     0.041 A 
ATOM      9  C   UNL A   1      31.435  23.608  26.700  1.00  0.00     0.041 A 
ATOM     10  C   UNL A   1      31.131  24.786  26.007  1.00  0.00     0.137 A 
ATOM     11  F   UNL A   1      30.055  25.492  26.384  1.00  0.00    -0.206 F 
BRANCH   6  12
ATOM     12  S   UNL A   1      34.551  22.150  24.531  1.00  0.00     0.264 S 
ATOM     13  O   UNL A   1      34.863  22.661  23.208  1.00  0.00    -0.201 OA
ATOM     14  O   UNL A   1      34.140  20.773  24.695  1.00  0.00    -0.201 OA
BRANCH  12  15
ATOM     15  N   UNL A   1      35.905  22.391  25.499  1.00  0.00    -0.266 N 
ATOM     16  C   UNL A   1      39.724  20.770  25.881  1.00  0.00     0.001 A 
ATOM     17  C   UNL A   1      38.766  19.987  25.226  1.00  0.00     0.012 A 
ATOM     18  C   UNL A   1      39.442  22.107  26.178  1.00  0.00     0.016 A 
ATOM     19  C   UNL A   1      37.493  20.487  24.964  1.00  0.00     0.028 A 
ATOM     20  C   UNL A   1      38.171  22.597  25.885  1.00  0.00    -0.021 A 
ATOM     21  C   UNL A   1      37.187  21.787  25.318  1.00  0.00     0.055 A 
ATOM     22  C   UNL A   1      37.646  23.967  26.169  1.00  0.00     0.060 C 
ATOM     23  C   UNL A   1      36.142  23.828  25.874  1.00  0.00     0.140 C 
BRANCH  16  24
ATOM     24  C   UNL A   1      40.949  20.111  26.285  1.00  0.00     0.081 A 
ATOM     25  C   UNL A   1      44.135  18.729  25.202  1.00  0.00     0.079 C 
ATOM     26  C   UNL A   1      42.903  19.156  25.915  1.00  0.00     0.090 A 
ATOM     27  N   UNL A   1      41.965  19.901  25.374  1.00  0.00    -0.242 NA
ATOM     28  S   UNL A   1      42.613  18.659  27.534  1.00  0.00    -0.127 S 
ATOM     29  C   UNL A   1      41.117  19.500  27.511  1.00  0.00     0.095 A 
ENDBRANCH  16  24
ENDBRANCH  12  15
ENDBRANCH   6  12
ENDBRANCH   3   5
ENDBRANCH   2   3
ENDBRANCH   1   2
BRANCH   1  30
ATOM     30  C   UNL A   1      31.779  29.517  25.942  1.00  0.00     0.275 C 
BRANCH  30  31
ATOM     31  O   UNL A   1      33.104  30.084  25.910  1.00  0.00    -0.458 OA
BRANCH  31  32
ATOM     32  C   UNL A   1      33.377  30.958  26.900  1.00  0.00     0.338 C 
ATOM     33  O   UNL A   1      32.613  31.751  27.432  1.00  0.00    -0.246 OA
BRANCH  32  34
ATOM     34  C   UNL A   1      34.749  30.763  27.384  1.00  0.00     0.060 A 
ATOM     35  C   UNL A   1      35.150  29.461  27.648  1.00  0.00     0.016 A 
ATOM     36  C   UNL A   1      35.547  31.832  27.781  1.00  0.00     0.016 A 
ATOM     37  C   UNL A   1      36.265  29.222  28.442  1.00  0.00     0.010 A 
ATOM     38  C   UNL A   1      36.749  31.578  28.461  1.00  0.00     0.010 A 
ATOM     39  C   UNL A   1      37.100  30.270  28.850  1.00  0.00    -0.014 A 
BRANCH  39  40
ATOM     40  C   UNL A   1      38.299  29.987  29.700  1.00  0.00     0.031 A 
ATOM     41  C   UNL A   1      39.436  29.146  29.171  1.00  0.00     0.074 A 
ATOM     42  C   UNL A   1      38.404  30.516  30.939  1.00  0.00     0.049 A 
ATOM     43  N   UNL A   1      40.468  28.647  29.809  1.00  0.00    -0.248 NA
ATOM     44  C   UNL A   1      39.406  28.806  27.739  1.00  0.00     0.031 C 
ATOM     45  C   UNL A   1      37.424  31.403  31.568  1.00  0.00     0.029 A 
ATOM     46  N   UNL A   1      39.394  30.402  31.889  1.00  0.00    -0.354 N 
ATOM     47  C   UNL A   1      41.171  27.896  28.874  1.00  0.00     0.074 A 
ATOM     48  C   UNL A   1      40.445  27.990  27.626  1.00  0.00     0.031 C 
ATOM     49  C   UNL A   1      37.887  31.804  32.759  1.00  0.00     0.029 A 
ATOM     50  C   UNL A   1      39.136  31.109  33.040  1.00  0.00     0.049 A 
ATOM     51  H   UNL A   1      40.209  29.866  31.756  1.00  0.00     0.167 HD
ATOM     52  C   UNL A   1      42.320  27.198  29.042  1.00  0.00     0.037 A 
ATOM     53  C   UNL A   1      39.793  31.160  34.215  1.00  0.00     0.037 A 
ATOM     54  C   UNL A   1      43.078  27.164  30.268  1.00  0.00     0.049 A 
ATOM     55  C   UNL A   1      41.030  30.327  34.398  1.00  0.00     0.074 A 
ATOM     56  C   UNL A   1      44.260  26.491  30.530  1.00  0.00     0.029 A 
ATOM     57  N   UNL A   1      42.742  27.847  31.427  1.00  0.00    -0.354 N 
ATOM     58  N   UNL A   1      41.644  29.562  33.530  1.00  0.00    -0.248 NA
ATOM     59  C   UNL A   1      41.652  30.345  35.729  1.00  0.00     0.031 C 
ATOM     60  C   UNL A   1      44.610  26.723  31.863  1.00  0.00     0.029 A 
ATOM     61  C   UNL A   1      43.684  27.594  32.413  1.00  0.00     0.049 A 
ATOM     62  H   UNL A   1      41.953  28.426  31.534  1.00  0.00     0.167 HD
ATOM     63  C   UNL A   1      42.731  29.020  34.202  1.00  0.00     0.074 A 
ATOM     64  C   UNL A   1      42.705  29.561  35.544  1.00  0.00     0.031 C 
ATOM     65  C   UNL A   1      43.659  28.147  33.743  1.00  0.00     0.037 A 
BRANCH  52  66
ATOM     66  C   UNL A   1      42.838  26.385  27.887  1.00  0.00     0.064 A 
ATOM     67  C   UNL A   1      43.665  26.983  26.921  1.00  0.00     0.173 A 
ATOM     68  C   UNL A   1      42.448  25.055  27.679  1.00  0.00     0.173 A 
ATOM     69  F   UNL A   1      44.059  28.258  27.065  1.00  0.00    -0.203 F 
ATOM     70  C   UNL A   1      44.060  26.289  25.782  1.00  0.00     0.198 A 
ATOM     71  C   UNL A   1      42.874  24.351  26.553  1.00  0.00     0.198 A 
ATOM     72  F   UNL A   1      41.667  24.432  28.573  1.00  0.00    -0.203 F 
ATOM     73  F   UNL A   1      44.809  26.898  24.853  1.00  0.00    -0.200 F 
ATOM     74  C   UNL A   1      43.667  24.972  25.601  1.00  0.00     0.200 A 
ATOM     75  F   UNL A   1      42.511  23.071  26.388  1.00  0.00    -0.200 F 
ATOM     76  F   UNL A   1      44.051  24.303  24.505  1.00  0.00    -0.200 F 
ENDBRANCH  52  66
BRANCH  53  77
ATOM     77  C   UNL A   1      39.261  32.000  35.322  1.00  0.00     0.064 A 
ATOM     78  C   UNL A   1      39.551  33.372  35.403  1.00  0.00     0.173 A 
ATOM     79  C   UNL A   1      38.475  31.443  36.339  1.00  0.00     0.173 A 
ATOM     80  F   UNL A   1      40.295  33.960  34.454  1.00  0.00    -0.203 F 
ATOM     81  C   UNL A   1      39.110  34.143  36.475  1.00  0.00     0.198 A 
ATOM     82  C   UNL A   1      38.000  32.224  37.392  1.00  0.00     0.198 A 
ATOM     83  F   UNL A   1      38.143  30.145  36.294  1.00  0.00    -0.203 F 
ATOM     84  F   UNL A   1      39.447  35.437  36.552  1.00  0.00    -0.200 F 
ATOM     85  C   UNL A   1      38.329  33.570  37.467  1.00  0.00     0.200 A 
ATOM     86  F   UNL A   1      37.218  31.674  38.331  1.00  0.00    -0.200 F 
ATOM     87  F   UNL A   1      37.889  34.313  38.490  1.00  0.00    -0.200 F 
ENDBRANCH  53  77
BRANCH  65  88
ATOM     88  C   UNL A   1      44.755  27.740  34.684  1.00  0.00     0.064 A 
ATOM     89  C   UNL A   1      45.954  28.469  34.732  1.00  0.00     0.173 A 
ATOM     90  C   UNL A   1      44.653  26.591  35.482  1.00  0.00     0.173 A 
ATOM     91  F   UNL A   1      46.106  29.573  33.984  1.00  0.00    -0.203 F 
ATOM     92  C   UNL A   1      47.015  28.052  35.530  1.00  0.00     0.198 A 
ATOM     93  C   UNL A   1      45.704  26.196  36.303  1.00  0.00     0.198 A 
ATOM     94  F   UNL A   1      43.522  25.869  35.484  1.00  0.00    -0.203 F 
ATOM     95  F   UNL A   1      48.164  28.742  35.529  1.00  0.00    -0.200 F 
ATOM     96  C   UNL A   1      46.889  26.919  36.318  1.00  0.00     0.200 A 
ATOM     97  F   UNL A   1      45.571  25.116  37.086  1.00  0.00    -0.200 F 
ATOM     98  F   UNL A   1      47.907  26.525  37.095  1.00  0.00    -0.200 F 
ENDBRANCH  65  88
ENDBRANCH  39  40
ENDBRANCH  32  34
ENDBRANCH  31  32
ENDBRANCH  30  31
ENDBRANCH   1  30
TORSDOF 14
ENDMDL
MODEL 2
REMARK VINA RESULT:     -13.1      2.521      3.787
REMARK SMILES Cc1nc(-c2ccc3c(c2)CCN3S(=O)(=O)c2ccc(F)c(C(=O)OCCOC(=O)c3ccc(-c4c5nc(c(-c6c(F)c(F)c(F)c(F)c6F)c6ccc([nH]6)c(-c6c(F)c(F)c(F)c(F)c6F)c6nc(c(-c7c(F)c(F)c(F)c(F)c7F)c7ccc4[nH]7)C=C6)C=C5)cc3)c2)cs1
REMARK SMILES IDX 26 1 25 2 23 3 24 4 22 5 17 6 18 7 94 8 19 9 20 10 21 11
REMARK SMILES IDX 14 12 15 13 16 14 13 15 5 16 6 17 10 18 7 19 9 20 8 21 11 22
REMARK SMILES IDX 12 23 4 24 1 25 2 26 3 27 96 28 95 29 27 30 28 31 29 32
REMARK SMILES IDX 30 33 31 34 32 35 93 36 33 37 92 38 34 39 35 40 36 41 86 42
REMARK SMILES IDX 37 43 91 44 85 45 87 46 38 47 90 48 84 49 83 50 39 52 71 53
REMARK SMILES IDX 51 54 70 55 52 56 55 57 69 58 88 59 53 60 54 61 68 63 89 64
REMARK SMILES IDX 56 65 40 66 41 67 49 68 42 69 43 70 47 71 50 72 44 73 45 74
REMARK SMILES IDX 48 75 46 76 72 77 73 78 81 79 74 80 75 81 79 82 82 83 76 84
REMARK SMILES IDX 77 85 80 86 78 87 57 88 58 89 66 90 59 91 60 92 64 93 67 94
REMARK SMILES IDX 61 95 62 96 65 97 63 98
REMARK H PARENT 87 51 55 62
REMARK Flexibility Score: inf
ROOT
ATOM      1  C   UNL A   1      31.507  30.232  25.140  1.00  0.00     0.275 C 
ENDROOT
BRANCH   1   2
ATOM      2  O   UNL A   1      30.394  30.393  24.239  1.00  0.00    -0.458 OA
BRANCH   2   3
ATOM      3  C   UNL A   1      30.298  29.494  23.233  1.00  0.00     0.341 C 
ATOM      4  O   UNL A   1      30.564  29.684  22.058  1.00  0.00    -0.246 OA
BRANCH   3   5
ATOM      5  C   UNL A   1      29.981  28.150  23.754  1.00  0.00     0.097 A 
ATOM      6  C   UNL A   1      30.767  26.159  24.910  1.00  0.00     0.089 A 
ATOM      7  C   UNL A   1      29.503  25.577  24.798  1.00  0.00     0.025 A 
ATOM      8  C   UNL A   1      31.005  27.432  24.381  1.00  0.00     0.041 A 
ATOM      9  C   UNL A   1      28.497  26.270  24.110  1.00  0.00     0.041 A 
ATOM     10  C   UNL A   1      28.736  27.551  23.598  1.00  0.00     0.137 A 
ATOM     11  F   UNL A   1      27.764  28.155  22.900  1.00  0.00    -0.206 F 
BRANCH   6  12
ATOM     12  S   UNL A   1      32.132  25.297  25.652  1.00  0.00     0.264 S 
ATOM     13  O   UNL A   1      31.623  24.685  26.866  1.00  0.00    -0.201 OA
ATOM     14  O   UNL A   1      33.241  26.223  25.720  1.00  0.00    -0.201 OA
BRANCH  12  15
ATOM     15  N   UNL A   1      32.573  24.056  24.606  1.00  0.00    -0.266 N 
ATOM     16  C   UNL A   1      32.796  19.898  24.711  1.00  0.00     0.001 A 
ATOM     17  C   UNL A   1      32.783  20.563  25.943  1.00  0.00     0.012 A 
ATOM     18  C   UNL A   1      32.523  20.606  23.537  1.00  0.00     0.016 A 
ATOM     19  C   UNL A   1      32.608  21.942  26.007  1.00  0.00     0.028 A 
ATOM     20  C   UNL A   1      32.327  21.983  23.624  1.00  0.00    -0.021 A 
ATOM     21  C   UNL A   1      32.406  22.657  24.843  1.00  0.00     0.055 A 
ATOM     22  C   UNL A   1      32.080  22.931  22.497  1.00  0.00     0.060 C 
ATOM     23  C   UNL A   1      32.210  24.309  23.168  1.00  0.00     0.140 C 
BRANCH  16  24
ATOM     24  C   UNL A   1      33.175  18.499  24.722  1.00  0.00     0.081 A 
ATOM     25  C   UNL A   1      32.255  15.128  25.735  1.00  0.00     0.079 C 
ATOM     26  C   UNL A   1      32.906  16.376  25.256  1.00  0.00     0.090 A 
ATOM     27  N   UNL A   1      32.301  17.540  25.195  1.00  0.00    -0.242 NA
ATOM     28  S   UNL A   1      34.552  16.369  24.764  1.00  0.00    -0.127 S 
ATOM     29  C   UNL A   1      34.452  18.053  24.448  1.00  0.00     0.095 A 
ENDBRANCH  16  24
ENDBRANCH  12  15
ENDBRANCH   6  12
ENDBRANCH   3   5
ENDBRANCH   2   3
ENDBRANCH   1   2
BRANCH   1  30
ATOM     30  C   UNL A   1      31.431  31.248  26.282  1.00  0.00     0.275 C 
BRANCH  30  31
ATOM     31  O   UNL A   1      32.521  31.054  27.207  1.00  0.00    -0.458 OA
BRANCH  31  32
ATOM     32  C   UNL A   1      33.292  32.140  27.418  1.00  0.00     0.338 C 
ATOM     33  O   UNL A   1      32.953  33.315  27.401  1.00  0.00    -0.246 OA
BRANCH  32  34
ATOM     34  C   UNL A   1      34.645  31.731  27.813  1.00  0.00     0.060 A 
ATOM     35  C   UNL A   1      34.839  30.393  28.122  1.00  0.00     0.016 A 
ATOM     36  C   UNL A   1      35.643  32.661  28.090  1.00  0.00     0.016 A 
ATOM     37  C   UNL A   1      35.957  29.999  28.846  1.00  0.00     0.010 A 
ATOM     38  C   UNL A   1      36.835  32.232  28.695  1.00  0.00     0.010 A 
ATOM     39  C   UNL A   1      36.988  30.902  29.133  1.00  0.00    -0.014 A 
BRANCH  39  40
ATOM     40  C   UNL A   1      38.186  30.453  29.910  1.00  0.00     0.031 A 
ATOM     41  C   UNL A   1      39.220  29.553  29.277  1.00  0.00     0.074 A 
ATOM     42  C   UNL A   1      38.385  30.882  31.175  1.00  0.00     0.049 A 
ATOM     43  N   UNL A   1      40.224  28.919  29.835  1.00  0.00    -0.248 NA
ATOM     44  C   UNL A   1      39.106  29.318  27.828  1.00  0.00     0.031 C 
ATOM     45  C   UNL A   1      37.516  31.806  31.904  1.00  0.00     0.029 A 
ATOM     46  N   UNL A   1      39.394  30.613  32.072  1.00  0.00    -0.354 N 
ATOM     47  C   UNL A   1      40.819  28.175  28.822  1.00  0.00     0.074 A 
ATOM     48  C   UNL A   1      40.060  28.422  27.616  1.00  0.00     0.031 C 
ATOM     49  C   UNL A   1      38.057  32.080  33.098  1.00  0.00     0.029 A 
ATOM     50  C   UNL A   1      39.246  31.257  33.278  1.00  0.00     0.049 A 
ATOM     51  H   UNL A   1      40.151  30.016  31.869  1.00  0.00     0.167 HD
ATOM     52  C   UNL A   1      41.904  27.366  28.894  1.00  0.00     0.037 A 
ATOM     53  C   UNL A   1      39.947  31.165  34.424  1.00  0.00     0.037 A 
ATOM     54  C   UNL A   1      42.700  27.178  30.081  1.00  0.00     0.049 A 
ATOM     55  C   UNL A   1      41.108  30.213  34.497  1.00  0.00     0.074 A 
ATOM     56  C   UNL A   1      43.823  26.384  30.247  1.00  0.00     0.029 A 
ATOM     57  N   UNL A   1      42.472  27.805  31.297  1.00  0.00    -0.354 N 
ATOM     58  N   UNL A   1      41.615  29.459  33.555  1.00  0.00    -0.248 NA
ATOM     59  C   UNL A   1      41.777  30.081  35.799  1.00  0.00     0.031 C 
ATOM     60  C   UNL A   1      44.242  26.489  31.575  1.00  0.00     0.029 A 
ATOM     61  C   UNL A   1      43.422  27.398  32.222  1.00  0.00     0.049 A 
ATOM     62  H   UNL A   1      41.745  28.443  31.476  1.00  0.00     0.167 HD
ATOM     63  C   UNL A   1      42.671  28.775  34.141  1.00  0.00     0.074 A 
ATOM     64  C   UNL A   1      42.745  29.220  35.517  1.00  0.00     0.031 C 
ATOM     65  C   UNL A   1      43.497  27.856  33.586  1.00  0.00     0.037 A 
BRANCH  52  66
ATOM     66  C   UNL A   1      42.302  26.593  27.666  1.00  0.00     0.064 A 
ATOM     67  C   UNL A   1      41.749  25.324  27.426  1.00  0.00     0.173 A 
ATOM     68  C   UNL A   1      43.290  27.053  26.785  1.00  0.00     0.173 A 
ATOM     69  F   UNL A   1      40.808  24.830  28.245  1.00  0.00    -0.203 F 
ATOM     70  C   UNL A   1      42.188  24.537  26.364  1.00  0.00     0.198 A 
ATOM     71  C   UNL A   1      43.703  26.276  25.703  1.00  0.00     0.198 A 
ATOM     72  F   UNL A   1      43.845  28.261  26.963  1.00  0.00    -0.203 F 
ATOM     73  F   UNL A   1      41.678  23.311  26.185  1.00  0.00    -0.200 F 
ATOM     74  C   UNL A   1      43.161  25.016  25.502  1.00  0.00     0.200 A 
ATOM     75  F   UNL A   1      44.629  26.747  24.856  1.00  0.00    -0.200 F 
ATOM     76  F   UNL A   1      43.580  24.260  24.478  1.00  0.00    -0.200 F 
ENDBRANCH  52  66
BRANCH  53  77
ATOM     77  C   UNL A   1      39.537  31.970  35.607  1.00  0.00     0.064 A 
ATOM     78  C   UNL A   1      38.568  31.501  36.509  1.00  0.00     0.173 A 
ATOM     79  C   UNL A   1      40.085  33.237  35.845  1.00  0.00     0.173 A 
ATOM     80  F   UNL A   1      38.013  30.293  36.334  1.00  0.00    -0.203 F 
ATOM     81  C   UNL A   1      38.136  32.284  37.577  1.00  0.00     0.198 A 
ATOM     82  C   UNL A   1      39.681  34.003  36.937  1.00  0.00     0.198 A 
ATOM     83  F   UNL A   1      41.036  33.719  35.031  1.00  0.00    -0.203 F 
ATOM     84  F   UNL A   1      37.172  31.831  38.390  1.00  0.00    -0.200 F 
ATOM     85  C   UNL A   1      38.697  33.532  37.794  1.00  0.00     0.200 A 
ATOM     86  F   UNL A   1      40.249  35.196  37.162  1.00  0.00    -0.200 F 
ATOM     87  F   UNL A   1      38.295  34.279  38.831  1.00  0.00    -0.200 F 
ENDBRANCH  53  77
BRANCH  65  88
ATOM     88  C   UNL A   1      44.585  27.287  34.450  1.00  0.00     0.064 A 
ATOM     89  C   UNL A   1      45.844  27.904  34.500  1.00  0.00     0.173 A 
ATOM     90  C   UNL A   1      44.408  26.095  35.166  1.00  0.00     0.173 A 
ATOM     91  F   UNL A   1      46.068  29.044  33.828  1.00  0.00    -0.203 F 
ATOM     92  C   UNL A   1      46.891  27.339  35.222  1.00  0.00     0.198 A 
ATOM     93  C   UNL A   1      45.448  25.550  35.913  1.00  0.00     0.198 A 
ATOM     94  F   UNL A   1      43.218  25.475  35.163  1.00  0.00    -0.203 F 
ATOM     95  F   UNL A   1      48.096  27.925  35.223  1.00  0.00    -0.200 F 
ATOM     96  C   UNL A   1      46.691  26.164  35.932  1.00  0.00     0.200 A 
ATOM     97  F   UNL A   1      45.245  24.430  36.621  1.00  0.00    -0.200 F 
ATOM     98  F   UNL A   1      47.697  25.627  36.636  1.00  0.00    -0.200 F 
ENDBRANCH  65  88
ENDBRANCH  39  40
ENDBRANCH  32  34
ENDBRANCH  31  32
ENDBRANCH  30  31
ENDBRANCH   1  30
TORSDOF 14
ENDMDL
MODEL 3
REMARK VINA RESULT:     -13.1      4.554     10.713
REMARK SMILES Cc1nc(-c2ccc3c(c2)CCN3S(=O)(=O)c2ccc(F)c(C(=O)OCCOC(=O)c3ccc(-c4c5nc(c(-c6c(F)c(F)c(F)c(F)c6F)c6ccc([nH]6)c(-c6c(F)c(F)c(F)c(F)c6F)c6nc(c(-c7c(F)c(F)c(F)c(F)c7F)c7ccc4[nH]7)C=C6)C=C5)cc3)c2)cs1
REMARK SMILES IDX 26 1 25 2 23 3 24 4 22 5 17 6 18 7 94 8 19 9 20 10 21 11
REMARK SMILES IDX 14 12 15 13 16 14 13 15 5 16 6 17 10 18 7 19 9 20 8 21 11 22
REMARK SMILES IDX 12 23 4 24 1 25 2 26 3 27 96 28 95 29 27 30 28 31 29 32
REMARK SMILES IDX 30 33 31 34 32 35 93 36 33 37 92 38 34 39 35 40 36 41 86 42
REMARK SMILES IDX 37 43 91 44 85 45 87 46 38 47 90 48 84 49 83 50 39 52 71 53
REMARK SMILES IDX 51 54 70 55 52 56 55 57 69 58 88 59 53 60 54 61 68 63 89 64
REMARK SMILES IDX 56 65 40 66 41 67 49 68 42 69 43 70 47 71 50 72 44 73 45 74
REMARK SMILES IDX 48 75 46 76 72 77 73 78 81 79 74 80 75 81 79 82 82 83 76 84
REMARK SMILES IDX 77 85 80 86 78 87 57 88 58 89 66 90 59 91 60 92 64 93 67 94
REMARK SMILES IDX 61 95 62 96 65 97 63 98
REMARK H PARENT 87 51 55 62
REMARK Flexibility Score: inf
ROOT
ATOM      1  C   UNL A   1      36.161  20.123  25.007  1.00  0.00     0.275 C 
ENDROOT
BRANCH   1   2
ATOM      2  O   UNL A   1      35.768  21.084  26.008  1.00  0.00    -0.458 OA
BRANCH   2   3
ATOM      3  C   UNL A   1      34.442  21.194  26.249  1.00  0.00     0.341 C 
ATOM      4  O   UNL A   1      33.892  21.133  27.336  1.00  0.00    -0.246 OA
BRANCH   3   5
ATOM      5  C   UNL A   1      33.712  21.577  25.024  1.00  0.00     0.097 A 
ATOM      6  C   UNL A   1      33.168  23.322  23.420  1.00  0.00     0.089 A 
ATOM      7  C   UNL A   1      32.373  22.431  22.697  1.00  0.00     0.025 A 
ATOM      8  C   UNL A   1      33.823  22.899  24.582  1.00  0.00     0.041 A 
ATOM      9  C   UNL A   1      32.209  21.125  23.180  1.00  0.00     0.041 A 
ATOM     10  C   UNL A   1      32.881  20.702  24.334  1.00  0.00     0.137 A 
ATOM     11  F   UNL A   1      32.653  19.463  24.791  1.00  0.00    -0.206 F 
BRANCH   6  12
ATOM     12  S   UNL A   1      33.327  25.028  22.950  1.00  0.00     0.264 S 
ATOM     13  O   UNL A   1      33.261  25.065  21.501  1.00  0.00    -0.201 OA
ATOM     14  O   UNL A   1      34.485  25.559  23.635  1.00  0.00    -0.201 OA
BRANCH  12  15
ATOM     15  N   UNL A   1      31.976  25.840  23.538  1.00  0.00    -0.266 N 
ATOM     16  C   UNL A   1      29.809  29.268  22.585  1.00  0.00     0.001 A 
ATOM     17  C   UNL A   1      31.118  29.189  22.094  1.00  0.00     0.012 A 
ATOM     18  C   UNL A   1      29.218  28.144  23.169  1.00  0.00     0.016 A 
ATOM     19  C   UNL A   1      31.880  28.039  22.277  1.00  0.00     0.028 A 
ATOM     20  C   UNL A   1      29.990  26.993  23.321  1.00  0.00    -0.021 A 
ATOM     21  C   UNL A   1      31.323  26.948  22.915  1.00  0.00     0.055 A 
ATOM     22  C   UNL A   1      29.576  25.710  23.964  1.00  0.00     0.060 C 
ATOM     23  C   UNL A   1      30.901  24.934  24.071  1.00  0.00     0.140 C 
BRANCH  16  24
ATOM     24  C   UNL A   1      29.159  30.561  22.523  1.00  0.00     0.081 A 
ATOM     25  C   UNL A   1      27.573  33.046  20.390  1.00  0.00     0.079 C 
ATOM     26  C   UNL A   1      28.209  32.255  21.476  1.00  0.00     0.090 A 
ATOM     27  N   UNL A   1      28.598  31.007  21.343  1.00  0.00    -0.242 NA
ATOM     28  S   UNL A   1      28.504  32.963  23.014  1.00  0.00    -0.127 S 
ATOM     29  C   UNL A   1      29.211  31.490  23.542  1.00  0.00     0.095 A 
ENDBRANCH  16  24
ENDBRANCH  12  15
ENDBRANCH   6  12
ENDBRANCH   3   5
ENDBRANCH   2   3
ENDBRANCH   1   2
BRANCH   1  30
ATOM     30  C   UNL A   1      37.685  20.036  24.909  1.00  0.00     0.275 C 
BRANCH  30  31
ATOM     31  O   UNL A   1      38.298  21.213  25.473  1.00  0.00    -0.458 OA
BRANCH  31  32
ATOM     32  C   UNL A   1      39.413  20.987  26.198  1.00  0.00     0.338 C 
ATOM     33  O   UNL A   1      40.058  19.951  26.276  1.00  0.00    -0.246 OA
BRANCH  32  34
ATOM     34  C   UNL A   1      39.867  22.231  26.831  1.00  0.00     0.060 A 
ATOM     35  C   UNL A   1      39.355  23.420  26.334  1.00  0.00     0.016 A 
ATOM     36  C   UNL A   1      40.927  22.252  27.732  1.00  0.00     0.016 A 
ATOM     37  C   UNL A   1      39.992  24.623  26.608  1.00  0.00     0.010 A 
ATOM     38  C   UNL A   1      41.477  23.484  28.119  1.00  0.00     0.010 A 
ATOM     39  C   UNL A   1      41.053  24.687  27.520  1.00  0.00    -0.014 A 
BRANCH  39  40
ATOM     40  C   UNL A   1      41.721  25.996  27.805  1.00  0.00     0.031 A 
ATOM     41  C   UNL A   1      41.030  27.046  28.642  1.00  0.00     0.074 A 
ATOM     42  C   UNL A   1      42.971  26.243  27.355  1.00  0.00     0.049 A 
ATOM     43  N   UNL A   1      41.365  28.297  28.850  1.00  0.00    -0.248 NA
ATOM     44  C   UNL A   1      39.790  26.646  29.327  1.00  0.00     0.031 C 
ATOM     45  C   UNL A   1      43.797  25.308  26.591  1.00  0.00     0.029 A 
ATOM     46  N   UNL A   1      43.777  27.351  27.489  1.00  0.00    -0.354 N 
ATOM     47  C   UNL A   1      40.355  28.840  29.636  1.00  0.00     0.074 A 
ATOM     48  C   UNL A   1      39.386  27.790  29.860  1.00  0.00     0.031 C 
ATOM     49  C   UNL A   1      45.006  25.846  26.385  1.00  0.00     0.029 A 
ATOM     50  C   UNL A   1      45.006  27.214  26.888  1.00  0.00     0.049 A 
ATOM     51  H   UNL A   1      43.500  28.164  27.971  1.00  0.00     0.167 HD
ATOM     52  C   UNL A   1      40.252  30.098  30.130  1.00  0.00     0.037 A 
ATOM     53  C   UNL A   1      46.008  28.096  26.707  1.00  0.00     0.037 A 
ATOM     54  C   UNL A   1      41.255  31.120  29.964  1.00  0.00     0.049 A 
ATOM     55  C   UNL A   1      45.843  29.502  27.209  1.00  0.00     0.074 A 
ATOM     56  C   UNL A   1      41.242  32.422  30.436  1.00  0.00     0.029 A 
ATOM     57  N   UNL A   1      42.457  30.951  29.292  1.00  0.00    -0.354 N 
ATOM     58  N   UNL A   1      44.851  30.025  27.886  1.00  0.00    -0.248 NA
ATOM     59  C   UNL A   1      46.924  30.449  26.900  1.00  0.00     0.031 C 
ATOM     60  C   UNL A   1      42.410  33.057  30.005  1.00  0.00     0.029 A 
ATOM     61  C   UNL A   1      43.183  32.133  29.320  1.00  0.00     0.049 A 
ATOM     62  H   UNL A   1      42.751  30.117  28.860  1.00  0.00     0.167 HD
ATOM     63  C   UNL A   1      45.193  31.353  28.099  1.00  0.00     0.074 A 
ATOM     64  C   UNL A   1      46.495  31.552  27.497  1.00  0.00     0.031 C 
ATOM     65  C   UNL A   1      44.484  32.319  28.731  1.00  0.00     0.037 A 
BRANCH  52  66
ATOM     66  C   UNL A   1      39.006  30.469  30.886  1.00  0.00     0.064 A 
ATOM     67  C   UNL A   1      37.930  31.073  30.213  1.00  0.00     0.173 A 
ATOM     68  C   UNL A   1      38.908  30.323  32.276  1.00  0.00     0.173 A 
ATOM     69  F   UNL A   1      37.977  31.248  28.884  1.00  0.00    -0.203 F 
ATOM     70  C   UNL A   1      36.816  31.535  30.907  1.00  0.00     0.198 A 
ATOM     71  C   UNL A   1      37.775  30.757  32.964  1.00  0.00     0.198 A 
ATOM     72  F   UNL A   1      39.902  29.746  32.967  1.00  0.00    -0.203 F 
ATOM     73  F   UNL A   1      35.825  32.150  30.248  1.00  0.00    -0.200 F 
ATOM     74  C   UNL A   1      36.738  31.374  32.281  1.00  0.00     0.200 A 
ATOM     75  F   UNL A   1      37.690  30.582  34.290  1.00  0.00    -0.200 F 
ATOM     76  F   UNL A   1      35.663  31.816  32.948  1.00  0.00    -0.200 F 
ENDBRANCH  52  66
BRANCH  53  77
ATOM     77  C   UNL A   1      47.237  27.678  25.979  1.00  0.00     0.064 A 
ATOM     78  C   UNL A   1      47.323  27.767  24.580  1.00  0.00     0.173 A 
ATOM     79  C   UNL A   1      48.341  27.154  26.664  1.00  0.00     0.173 A 
ATOM     80  F   UNL A   1      46.298  28.266  23.873  1.00  0.00    -0.203 F 
ATOM     81  C   UNL A   1      48.447  27.314  23.894  1.00  0.00     0.198 A 
ATOM     82  C   UNL A   1      49.482  26.737  25.980  1.00  0.00     0.198 A 
ATOM     83  F   UNL A   1      48.322  27.075  28.002  1.00  0.00    -0.203 F 
ATOM     84  F   UNL A   1      48.478  27.364  22.556  1.00  0.00    -0.200 F 
ATOM     85  C   UNL A   1      49.528  26.804  24.595  1.00  0.00     0.200 A 
ATOM     86  F   UNL A   1      50.538  26.275  26.663  1.00  0.00    -0.200 F 
ATOM     87  F   UNL A   1      50.617  26.383  23.938  1.00  0.00    -0.200 F 
ENDBRANCH  53  77
BRANCH  65  88
ATOM     88  C   UNL A   1      45.108  33.679  28.843  1.00  0.00     0.064 A 
ATOM     89  C   UNL A   1      44.907  34.636  27.837  1.00  0.00     0.173 A 
ATOM     90  C   UNL A   1      45.963  34.011  29.904  1.00  0.00     0.173 A 
ATOM     91  F   UNL A   1      44.103  34.367  26.796  1.00  0.00    -0.203 F 
ATOM     92  C   UNL A   1      45.552  35.869  27.880  1.00  0.00     0.198 A 
ATOM     93  C   UNL A   1      46.581  35.257  29.961  1.00  0.00     0.198 A 
ATOM     94  F   UNL A   1      46.176  33.137  30.899  1.00  0.00    -0.203 F 
ATOM     95  F   UNL A   1      45.374  36.751  26.887  1.00  0.00    -0.200 F 
ATOM     96  C   UNL A   1      46.385  36.180  28.944  1.00  0.00     0.200 A 
ATOM     97  F   UNL A   1      47.364  35.567  31.003  1.00  0.00    -0.200 F 
ATOM     98  F   UNL A   1      46.996  37.372  28.990  1.00  0.00    -0.200 F 
ENDBRANCH  65  88
ENDBRANCH  39  40
ENDBRANCH  32  34
ENDBRANCH  31  32
ENDBRANCH  30  31
ENDBRANCH   1  30
TORSDOF 14
ENDMDL
