MODEL 1
REMARK VINA RESULT:     -11.2      0.000      0.000
REMARK SMILES CC[C@H](C)C[C@@H](CC)[N@@H+]1CCO[C@H](CC(=O)OCCOC(=O)c2ccc(-c3c4nc(c(-c5c(F)c(F)c(F)c(F)c5F)c5ccc([nH]5)c(-c5c(F)c(F)c(F)c(F)c5F)c5nc(c(-c6c(F)c(F)c(F)c(F)c6F)c6ccc3[nH]6)C=C5)C=C4)cc2)C1
REMARK SMILES IDX 17 1 15 2 16 3 14 4 13 5 9 6 10 7 86 8 11 10 12 11 6 12 5 13
REMARK SMILES IDX 3 14 4 15 2 16 1 17 7 18 8 19 18 20 19 21 20 22 21 23 22 24
REMARK SMILES IDX 23 25 24 26 85 27 25 28 84 29 26 30 27 31 28 32 78 33 29 34
REMARK SMILES IDX 83 35 77 36 79 37 30 38 82 39 76 40 75 41 31 43 63 44 43 45
REMARK SMILES IDX 62 46 44 47 47 48 61 49 80 50 45 51 46 52 60 54 81 55 48 56
REMARK SMILES IDX 32 57 33 58 41 59 34 60 35 61 39 62 42 63 36 64 37 65 40 66
REMARK SMILES IDX 38 67 64 68 65 69 73 70 66 71 67 72 71 73 74 74 68 75 69 76
REMARK SMILES IDX 72 77 70 78 49 79 50 80 58 81 51 82 52 83 56 84 59 85 53 86
REMARK SMILES IDX 54 87 57 88 55 89
REMARK H PARENT 9 9 79 42 47 53
REMARK Flexibility Score: inf
ROOT
ATOM      1  O   UNL A   1      39.536  21.361  25.653  1.00  0.00    -0.462 OA
ENDROOT
BRANCH   1   2
ATOM      2  C   UNL A   1      38.797  22.399  26.122  1.00  0.00     0.308 C 
ATOM      3  O   UNL A   1      39.274  23.309  26.797  1.00  0.00    -0.252 OA
BRANCH   2   4
ATOM      4  C   UNL A   1      37.300  22.318  25.876  1.00  0.00     0.160 C 
BRANCH   4   5
ATOM      5  C   UNL A   1      36.712  21.853  24.526  1.00  0.00     0.184 C 
ATOM      6  N   UNL A   1      34.265  22.785  24.294  1.00  0.00    -0.328 N 
ATOM      7  C   UNL A   1      33.850  21.360  24.347  1.00  0.00     0.291 C 
ATOM      8  C   UNL A   1      35.653  22.674  23.727  1.00  0.00     0.295 C 
ATOM      9  H   UNL A   1      33.578  23.313  23.756  1.00  0.00     0.348 HD
ATOM     10  C   UNL A   1      34.833  20.347  25.001  1.00  0.00     0.222 C 
ATOM     11  O   UNL A   1      36.221  20.493  24.657  1.00  0.00    -0.366 OA
BRANCH   6  12
ATOM     12  C   UNL A   1      34.250  23.615  25.565  1.00  0.00     0.184 C 
BRANCH  12  13
ATOM     13  C   UNL A   1      34.662  25.457  25.384  1.00  0.00     0.068 C 
BRANCH  13  14
ATOM     14  C   UNL A   1      33.389  27.270  25.353  1.00  0.00    -0.009 C 
ATOM     15  C   UNL A   1      33.320  28.594  24.174  1.00  0.00     0.008 C 
BRANCH  14  16
ATOM     16  C   UNL A   1      31.813  27.681  25.971  1.00  0.00    -0.000 C 
ATOM     17  C   UNL A   1      31.523  27.840  27.447  1.00  0.00     0.004 C 
ENDBRANCH  14  16
ENDBRANCH  13  14
ENDBRANCH  12  13
BRANCH  12  18
ATOM     18  C   UNL A   1      33.159  23.169  26.621  1.00  0.00     0.061 C 
ATOM     19  C   UNL A   1      31.792  23.828  26.690  1.00  0.00     0.010 C 
ENDBRANCH  12  18
ENDBRANCH   6  12
ENDBRANCH   4   5
ENDBRANCH   2   4
ENDBRANCH   1   2
BRANCH   1  20
ATOM     20  C   UNL A   1      40.361  20.673  26.643  1.00  0.00     0.274 C 
BRANCH  20  21
ATOM     21  C   UNL A   1      41.782  20.442  26.132  1.00  0.00     0.275 C 
BRANCH  21  22
ATOM     22  O   UNL A   1      42.132  21.556  25.293  1.00  0.00    -0.458 OA
BRANCH  22  23
ATOM     23  C   UNL A   1      43.256  22.170  25.700  1.00  0.00     0.338 C 
ATOM     24  O   UNL A   1      44.363  21.663  25.751  1.00  0.00    -0.246 OA
BRANCH  23  25
ATOM     25  C   UNL A   1      43.022  23.519  26.215  1.00  0.00     0.060 A 
ATOM     26  C   UNL A   1      43.519  25.091  25.470  1.00  0.00     0.016 A 
ATOM     27  C   UNL A   1      42.339  23.502  27.867  1.00  0.00     0.016 A 
ATOM     28  C   UNL A   1      43.469  26.618  26.506  1.00  0.00     0.010 A 
ATOM     29  C   UNL A   1      42.265  24.986  28.814  1.00  0.00     0.010 A 
ATOM     30  C   UNL A   1      42.844  26.564  28.192  1.00  0.00    -0.014 A 
BRANCH  30  31
ATOM     31  C   UNL A   1      42.723  27.754  29.138  1.00  0.00     0.031 A 
ATOM     32  C   UNL A   1      43.459  27.785  30.474  1.00  0.00     0.074 A 
ATOM     33  C   UNL A   1      41.744  28.663  28.924  1.00  0.00     0.049 A 
ATOM     34  N   UNL A   1      43.247  28.555  31.520  1.00  0.00    -0.248 NA
ATOM     35  C   UNL A   1      44.595  26.867  30.662  1.00  0.00     0.031 C 
ATOM     36  C   UNL A   1      40.982  28.839  27.689  1.00  0.00     0.029 A 
ATOM     37  N   UNL A   1      41.063  29.462  29.818  1.00  0.00    -0.354 N 
ATOM     38  C   UNL A   1      44.238  28.244  32.449  1.00  0.00     0.074 A 
ATOM     39  C   UNL A   1      44.968  27.120  31.910  1.00  0.00     0.031 C 
ATOM     40  C   UNL A   1      39.830  29.463  27.945  1.00  0.00     0.029 A 
ATOM     41  C   UNL A   1      39.833  29.865  29.335  1.00  0.00     0.049 A 
ATOM     42  H   UNL A   1      41.414  29.717  30.702  1.00  0.00     0.167 HD
ATOM     43  C   UNL A   1      44.551  28.884  33.607  1.00  0.00     0.037 A 
ATOM     44  C   UNL A   1      38.807  30.516  29.910  1.00  0.00     0.037 A 
ATOM     45  C   UNL A   1      43.779  29.987  34.129  1.00  0.00     0.049 A 
ATOM     46  C   UNL A   1      39.077  31.142  31.232  1.00  0.00     0.074 A 
ATOM     47  C   UNL A   1      44.015  30.778  35.240  1.00  0.00     0.029 A 
ATOM     48  N   UNL A   1      42.584  30.434  33.573  1.00  0.00    -0.354 N 
ATOM     49  N   UNL A   1      40.097  30.947  32.033  1.00  0.00    -0.248 NA
ATOM     50  C   UNL A   1      38.145  32.185  31.664  1.00  0.00     0.031 C 
ATOM     51  C   UNL A   1      42.922  31.641  35.402  1.00  0.00     0.029 A 
ATOM     52  C   UNL A   1      42.042  31.446  34.348  1.00  0.00     0.049 A 
ATOM     53  H   UNL A   1      42.181  30.081  32.746  1.00  0.00     0.167 HD
ATOM     54  C   UNL A   1      39.980  31.901  33.024  1.00  0.00     0.074 A 
ATOM     55  C   UNL A   1      38.779  32.663  32.724  1.00  0.00     0.031 C 
ATOM     56  C   UNL A   1      40.813  32.149  34.064  1.00  0.00     0.037 A 
BRANCH  43  57
ATOM     57  C   UNL A   1      45.774  28.415  34.368  1.00  0.00     0.064 A 
ATOM     58  C   UNL A   1      45.689  27.437  35.379  1.00  0.00     0.173 A 
ATOM     59  C   UNL A   1      47.049  28.942  34.099  1.00  0.00     0.173 A 
ATOM     60  F   UNL A   1      44.509  26.872  35.673  1.00  0.00    -0.203 F 
ATOM     61  C   UNL A   1      46.804  27.072  36.135  1.00  0.00     0.198 A 
ATOM     62  C   UNL A   1      48.170  28.544  34.831  1.00  0.00     0.198 A 
ATOM     63  F   UNL A   1      47.215  29.852  33.128  1.00  0.00    -0.203 F 
ATOM     64  F   UNL A   1      46.669  26.203  37.147  1.00  0.00    -0.200 F 
ATOM     65  C   UNL A   1      48.043  27.627  35.863  1.00  0.00     0.200 A 
ATOM     66  F   UNL A   1      49.373  29.062  34.549  1.00  0.00    -0.200 F 
ATOM     67  F   UNL A   1      49.109  27.289  36.601  1.00  0.00    -0.200 F 
ENDBRANCH  43  57
BRANCH  44  68
ATOM     68  C   UNL A   1      37.599  30.819  29.097  1.00  0.00     0.064 A 
ATOM     69  C   UNL A   1      36.630  29.825  28.893  1.00  0.00     0.173 A 
ATOM     70  C   UNL A   1      37.307  32.115  28.645  1.00  0.00     0.173 A 
ATOM     71  F   UNL A   1      36.857  28.578  29.328  1.00  0.00    -0.203 F 
ATOM     72  C   UNL A   1      35.423  30.110  28.262  1.00  0.00     0.198 A 
ATOM     73  C   UNL A   1      36.090  32.402  28.022  1.00  0.00     0.198 A 
ATOM     74  F   UNL A   1      38.182  33.113  28.845  1.00  0.00    -0.203 F 
ATOM     75  F   UNL A   1      34.518  29.138  28.089  1.00  0.00    -0.200 F 
ATOM     76  C   UNL A   1      35.149  31.398  27.832  1.00  0.00     0.200 A 
ATOM     77  F   UNL A   1      35.815  33.653  27.627  1.00  0.00    -0.200 F 
ATOM     78  F   UNL A   1      33.975  31.676  27.250  1.00  0.00    -0.200 F 
ENDBRANCH  44  68
BRANCH  56  79
ATOM     79  C   UNL A   1      40.422  33.281  34.962  1.00  0.00     0.064 A 
ATOM     80  C   UNL A   1      39.559  33.083  36.050  1.00  0.00     0.173 A 
ATOM     81  C   UNL A   1      40.905  34.576  34.727  1.00  0.00     0.173 A 
ATOM     82  F   UNL A   1      39.054  31.866  36.300  1.00  0.00    -0.203 F 
ATOM     83  C   UNL A   1      39.157  34.151  36.843  1.00  0.00     0.198 A 
ATOM     84  C   UNL A   1      40.535  35.634  35.550  1.00  0.00     0.198 A 
ATOM     85  F   UNL A   1      41.731  34.817  33.698  1.00  0.00    -0.203 F 
ATOM     86  F   UNL A   1      38.268  33.954  37.827  1.00  0.00    -0.200 F 
ATOM     87  C   UNL A   1      39.652  35.424  36.598  1.00  0.00     0.200 A 
ATOM     88  F   UNL A   1      41.026  36.860  35.323  1.00  0.00    -0.200 F 
ATOM     89  F   UNL A   1      39.265  36.452  37.366  1.00  0.00    -0.200 F 
ENDBRANCH  56  79
ENDBRANCH  30  31
ENDBRANCH  23  25
ENDBRANCH  22  23
ENDBRANCH  21  22
ENDBRANCH  20  21
ENDBRANCH   1  20
TORSDOF 17
ENDMDL
MODEL 2
REMARK VINA RESULT:     -11.2      3.112      8.152
REMARK SMILES CC[C@H](C)C[C@@H](CC)[N@@H+]1CCO[C@H](CC(=O)OCCOC(=O)c2ccc(-c3c4nc(c(-c5c(F)c(F)c(F)c(F)c5F)c5ccc([nH]5)c(-c5c(F)c(F)c(F)c(F)c5F)c5nc(c(-c6c(F)c(F)c(F)c(F)c6F)c6ccc3[nH]6)C=C5)C=C4)cc2)C1
REMARK SMILES IDX 17 1 15 2 16 3 14 4 13 5 9 6 10 7 86 8 11 10 12 11 6 12 5 13
REMARK SMILES IDX 3 14 4 15 2 16 1 17 7 18 8 19 18 20 19 21 20 22 21 23 22 24
REMARK SMILES IDX 23 25 24 26 85 27 25 28 84 29 26 30 27 31 28 32 78 33 29 34
REMARK SMILES IDX 83 35 77 36 79 37 30 38 82 39 76 40 75 41 31 43 63 44 43 45
REMARK SMILES IDX 62 46 44 47 47 48 61 49 80 50 45 51 46 52 60 54 81 55 48 56
REMARK SMILES IDX 32 57 33 58 41 59 34 60 35 61 39 62 42 63 36 64 37 65 40 66
REMARK SMILES IDX 38 67 64 68 65 69 73 70 66 71 67 72 71 73 74 74 68 75 69 76
REMARK SMILES IDX 72 77 70 78 49 79 50 80 58 81 51 82 52 83 56 84 59 85 53 86
REMARK SMILES IDX 54 87 57 88 55 89
REMARK H PARENT 9 9 79 42 47 53
REMARK Flexibility Score: inf
ROOT
ATOM      1  O   UNL A   1      33.173  27.915  26.157  1.00  0.00    -0.462 OA
ENDROOT
BRANCH   1   2
ATOM      2  C   UNL A   1      33.725  27.018  25.301  1.00  0.00     0.308 C 
ATOM      3  O   UNL A   1      34.056  27.306  24.152  1.00  0.00    -0.252 OA
BRANCH   2   4
ATOM      4  C   UNL A   1      33.801  25.583  25.794  1.00  0.00     0.160 C 
BRANCH   4   5
ATOM      5  C   UNL A   1      34.512  24.473  24.990  1.00  0.00     0.184 C 
ATOM      6  N   UNL A   1      32.802  22.534  24.515  1.00  0.00    -0.328 N 
ATOM      7  C   UNL A   1      33.682  21.713  25.387  1.00  0.00     0.291 C 
ATOM      8  C   UNL A   1      33.773  23.546  23.976  1.00  0.00     0.295 C 
ATOM      9  H   UNL A   1      32.336  21.924  23.844  1.00  0.00     0.348 HD
ATOM     10  C   UNL A   1      34.599  22.462  26.396  1.00  0.00     0.222 C 
ATOM     11  O   UNL A   1      35.271  23.632  25.898  1.00  0.00    -0.366 OA
BRANCH   6  12
ATOM     12  C   UNL A   1      31.576  23.203  25.109  1.00  0.00     0.184 C 
BRANCH  12  13
ATOM     13  C   UNL A   1      30.634  24.405  23.986  1.00  0.00     0.068 C 
BRANCH  13  14
ATOM     14  C   UNL A   1      31.313  26.054  22.671  1.00  0.00    -0.009 C 
ATOM     15  C   UNL A   1      32.401  26.020  21.269  1.00  0.00     0.008 C 
BRANCH  14  16
ATOM     16  C   UNL A   1      30.652  27.588  22.176  1.00  0.00    -0.000 C 
ATOM     17  C   UNL A   1      29.577  28.312  22.956  1.00  0.00     0.004 C 
ENDBRANCH  14  16
ENDBRANCH  13  14
ENDBRANCH  12  13
BRANCH  12  18
ATOM     18  C   UNL A   1      30.765  22.296  26.121  1.00  0.00     0.061 C 
ATOM     19  C   UNL A   1      29.751  22.881  27.089  1.00  0.00     0.010 C 
ENDBRANCH  12  18
ENDBRANCH   6  12
ENDBRANCH   4   5
ENDBRANCH   2   4
ENDBRANCH   1   2
BRANCH   1  20
ATOM     20  C   UNL A   1      31.786  28.282  25.882  1.00  0.00     0.274 C 
BRANCH  20  21
ATOM     21  C   UNL A   1      31.622  29.792  25.724  1.00  0.00     0.275 C 
BRANCH  21  22
ATOM     22  O   UNL A   1      32.905  30.398  25.952  1.00  0.00    -0.458 OA
BRANCH  22  23
ATOM     23  C   UNL A   1      32.856  31.366  26.883  1.00  0.00     0.338 C 
ATOM     24  O   UNL A   1      31.951  32.170  27.024  1.00  0.00    -0.246 OA
BRANCH  23  25
ATOM     25  C   UNL A   1      34.082  31.467  27.674  1.00  0.00     0.060 A 
ATOM     26  C   UNL A   1      35.180  32.896  27.839  1.00  0.00     0.016 A 
ATOM     27  C   UNL A   1      34.576  29.892  28.360  1.00  0.00     0.016 A 
ATOM     28  C   UNL A   1      36.861  32.645  28.559  1.00  0.00     0.010 A 
ATOM     29  C   UNL A   1      36.171  29.697  29.081  1.00  0.00     0.010 A 
ATOM     30  C   UNL A   1      37.363  31.032  29.178  1.00  0.00    -0.014 A 
BRANCH  30  31
ATOM     31  C   UNL A   1      38.706  30.700  29.820  1.00  0.00     0.031 A 
ATOM     32  C   UNL A   1      39.547  29.522  29.339  1.00  0.00     0.074 A 
ATOM     33  C   UNL A   1      39.027  31.277  31.001  1.00  0.00     0.049 A 
ATOM     34  N   UNL A   1      40.546  28.916  29.942  1.00  0.00    -0.248 NA
ATOM     35  C   UNL A   1      39.264  28.966  28.005  1.00  0.00     0.031 C 
ATOM     36  C   UNL A   1      38.391  32.455  31.590  1.00  0.00     0.029 A 
ATOM     37  N   UNL A   1      39.820  30.814  32.029  1.00  0.00    -0.354 N 
ATOM     38  C   UNL A   1      41.026  27.957  29.051  1.00  0.00     0.074 A 
ATOM     39  C   UNL A   1      40.125  27.959  27.922  1.00  0.00     0.031 C 
ATOM     40  C   UNL A   1      38.605  32.482  32.907  1.00  0.00     0.029 A 
ATOM     41  C   UNL A   1      39.517  31.408  33.239  1.00  0.00     0.049 A 
ATOM     42  H   UNL A   1      40.524  30.135  31.915  1.00  0.00     0.167 HD
ATOM     43  C   UNL A   1      42.152  27.200  29.138  1.00  0.00     0.037 A 
ATOM     44  C   UNL A   1      39.930  31.163  34.494  1.00  0.00     0.037 A 
ATOM     45  C   UNL A   1      43.013  27.203  30.297  1.00  0.00     0.049 A 
ATOM     46  C   UNL A   1      41.097  30.251  34.641  1.00  0.00     0.074 A 
ATOM     47  C   UNL A   1      44.218  26.553  30.499  1.00  0.00     0.029 A 
ATOM     48  N   UNL A   1      42.728  27.883  31.477  1.00  0.00    -0.354 N 
ATOM     49  N   UNL A   1      41.630  29.460  33.742  1.00  0.00    -0.248 NA
ATOM     50  C   UNL A   1      41.813  30.307  35.916  1.00  0.00     0.031 C 
ATOM     51  C   UNL A   1      44.615  26.771  31.826  1.00  0.00     0.029 A 
ATOM     52  C   UNL A   1      43.701  27.622  32.429  1.00  0.00     0.049 A 
ATOM     53  H   UNL A   1      41.947  28.467  31.617  1.00  0.00     0.167 HD
ATOM     54  C   UNL A   1      42.795  28.984  34.310  1.00  0.00     0.074 A 
ATOM     55  C   UNL A   1      42.878  29.571  35.636  1.00  0.00     0.031 C 
ATOM     56  C   UNL A   1      43.731  28.168  33.765  1.00  0.00     0.037 A 
BRANCH  43  57
ATOM     57  C   UNL A   1      42.512  26.327  27.954  1.00  0.00     0.064 A 
ATOM     58  C   UNL A   1      43.439  26.745  26.979  1.00  0.00     0.173 A 
ATOM     59  C   UNL A   1      41.931  25.060  27.776  1.00  0.00     0.173 A 
ATOM     60  F   UNL A   1      44.053  27.932  27.097  1.00  0.00    -0.203 F 
ATOM     61  C   UNL A   1      43.704  25.974  25.847  1.00  0.00     0.198 A 
ATOM     62  C   UNL A   1      42.229  24.273  26.661  1.00  0.00     0.198 A 
ATOM     63  F   UNL A   1      41.065  24.578  28.679  1.00  0.00    -0.203 F 
ATOM     64  F   UNL A   1      44.525  26.442  24.896  1.00  0.00    -0.200 F 
ATOM     65  C   UNL A   1      43.097  24.740  25.686  1.00  0.00     0.200 A 
ATOM     66  F   UNL A   1      41.660  23.068  26.521  1.00  0.00    -0.200 F 
ATOM     67  F   UNL A   1      43.336  24.008  24.589  1.00  0.00    -0.200 F 
ENDBRANCH  43  57
BRANCH  44  68
ATOM     68  C   UNL A   1      39.415  32.010  35.603  1.00  0.00     0.064 A 
ATOM     69  C   UNL A   1      38.449  31.496  36.480  1.00  0.00     0.173 A 
ATOM     70  C   UNL A   1      39.967  33.265  35.905  1.00  0.00     0.173 A 
ATOM     71  F   UNL A   1      37.910  30.292  36.243  1.00  0.00    -0.203 F 
ATOM     72  C   UNL A   1      38.048  32.202  37.610  1.00  0.00     0.198 A 
ATOM     73  C   UNL A   1      39.572  33.968  37.045  1.00  0.00     0.198 A 
ATOM     74  F   UNL A   1      40.920  33.790  35.119  1.00  0.00    -0.203 F 
ATOM     75  F   UNL A   1      37.128  31.679  38.431  1.00  0.00    -0.200 F 
ATOM     76  C   UNL A   1      38.614  33.435  37.897  1.00  0.00     0.200 A 
ATOM     77  F   UNL A   1      40.135  35.149  37.335  1.00  0.00    -0.200 F 
ATOM     78  F   UNL A   1      38.246  34.101  38.999  1.00  0.00    -0.200 F 
ENDBRANCH  44  68
BRANCH  56  79
ATOM     79  C   UNL A   1      44.909  27.850  34.633  1.00  0.00     0.064 A 
ATOM     80  C   UNL A   1      44.907  26.735  35.484  1.00  0.00     0.173 A 
ATOM     81  C   UNL A   1      46.044  28.674  34.623  1.00  0.00     0.173 A 
ATOM     82  F   UNL A   1      43.834  25.932  35.545  1.00  0.00    -0.203 F 
ATOM     83  C   UNL A   1      45.982  26.482  36.328  1.00  0.00     0.198 A 
ATOM     84  C   UNL A   1      47.136  28.391  35.436  1.00  0.00     0.198 A 
ATOM     85  F   UNL A   1      46.092  29.753  33.828  1.00  0.00    -0.203 F 
ATOM     86  F   UNL A   1      45.925  25.459  37.191  1.00  0.00    -0.200 F 
ATOM     87  C   UNL A   1      47.099  27.305  36.296  1.00  0.00     0.200 A 
ATOM     88  F   UNL A   1      48.220  29.177  35.394  1.00  0.00    -0.200 F 
ATOM     89  F   UNL A   1      48.135  27.057  37.109  1.00  0.00    -0.200 F 
ENDBRANCH  56  79
ENDBRANCH  30  31
ENDBRANCH  23  25
ENDBRANCH  22  23
ENDBRANCH  21  22
ENDBRANCH  20  21
ENDBRANCH   1  20
TORSDOF 17
ENDMDL
MODEL 3
REMARK VINA RESULT:     -11.1      3.355      8.351
REMARK SMILES CC[C@H](C)C[C@@H](CC)[N@@H+]1CCO[C@H](CC(=O)OCCOC(=O)c2ccc(-c3c4nc(c(-c5c(F)c(F)c(F)c(F)c5F)c5ccc([nH]5)c(-c5c(F)c(F)c(F)c(F)c5F)c5nc(c(-c6c(F)c(F)c(F)c(F)c6F)c6ccc3[nH]6)C=C5)C=C4)cc2)C1
REMARK SMILES IDX 17 1 15 2 16 3 14 4 13 5 9 6 10 7 86 8 11 10 12 11 6 12 5 13
REMARK SMILES IDX 3 14 4 15 2 16 1 17 7 18 8 19 18 20 19 21 20 22 21 23 22 24
REMARK SMILES IDX 23 25 24 26 85 27 25 28 84 29 26 30 27 31 28 32 78 33 29 34
REMARK SMILES IDX 83 35 77 36 79 37 30 38 82 39 76 40 75 41 31 43 63 44 43 45
REMARK SMILES IDX 62 46 44 47 47 48 61 49 80 50 45 51 46 52 60 54 81 55 48 56
REMARK SMILES IDX 32 57 33 58 41 59 34 60 35 61 39 62 42 63 36 64 37 65 40 66
REMARK SMILES IDX 38 67 64 68 65 69 73 70 66 71 67 72 71 73 74 74 68 75 69 76
REMARK SMILES IDX 72 77 70 78 49 79 50 80 58 81 51 82 52 83 56 84 59 85 53 86
REMARK SMILES IDX 54 87 57 88 55 89
REMARK H PARENT 9 9 79 42 47 53
REMARK Flexibility Score: inf
ROOT
ATOM      1  O   UNL A   1      32.468  27.358  26.523  1.00  0.00    -0.462 OA
ENDROOT
BRANCH   1   2
ATOM      2  C   UNL A   1      31.651  26.302  26.279  1.00  0.00     0.308 C 
ATOM      3  O   UNL A   1      30.504  26.228  26.718  1.00  0.00    -0.252 OA
BRANCH   2   4
ATOM      4  C   UNL A   1      32.272  25.135  25.530  1.00  0.00     0.160 C 
BRANCH   4   5
ATOM      5  C   UNL A   1      31.803  23.680  25.740  1.00  0.00     0.184 C 
ATOM      6  N   UNL A   1      33.795  22.053  25.195  1.00  0.00    -0.328 N 
ATOM      7  C   UNL A   1      32.946  21.591  24.067  1.00  0.00     0.291 C 
ATOM      8  C   UNL A   1      32.760  22.528  26.176  1.00  0.00     0.295 C 
ATOM      9  H   UNL A   1      34.405  21.291  25.487  1.00  0.00     0.348 HD
ATOM     10  C   UNL A   1      31.837  22.556  23.557  1.00  0.00     0.222 C 
ATOM     11  O   UNL A   1      31.071  23.236  24.566  1.00  0.00    -0.366 OA
BRANCH   6  12
ATOM     12  C   UNL A   1      34.852  23.114  24.948  1.00  0.00     0.184 C 
BRANCH  12  13
ATOM     13  C   UNL A   1      36.094  23.420  26.347  1.00  0.00     0.068 C 
BRANCH  13  14
ATOM     14  C   UNL A   1      38.307  23.550  26.371  1.00  0.00    -0.009 C 
ATOM     15  C   UNL A   1      39.364  24.971  26.474  1.00  0.00     0.008 C 
BRANCH  14  16
ATOM     16  C   UNL A   1      39.598  22.498  26.881  1.00  0.00    -0.000 C 
ATOM     17  C   UNL A   1      40.023  21.276  26.099  1.00  0.00     0.004 C 
ENDBRANCH  14  16
ENDBRANCH  13  14
ENDBRANCH  12  13
BRANCH  12  18
ATOM     18  C   UNL A   1      35.343  23.206  23.447  1.00  0.00     0.061 C 
ATOM     19  C   UNL A   1      36.767  22.859  23.045  1.00  0.00     0.010 C 
ENDBRANCH  12  18
ENDBRANCH   6  12
ENDBRANCH   4   5
ENDBRANCH   2   4
ENDBRANCH   1   2
BRANCH   1  20
ATOM     20  C   UNL A   1      31.806  28.581  26.971  1.00  0.00     0.274 C 
BRANCH  20  21
ATOM     21  C   UNL A   1      31.950  29.708  25.950  1.00  0.00     0.275 C 
BRANCH  21  22
ATOM     22  O   UNL A   1      33.241  30.310  26.141  1.00  0.00    -0.458 OA
BRANCH  22  23
ATOM     23  C   UNL A   1      33.204  31.338  27.005  1.00  0.00     0.338 C 
ATOM     24  O   UNL A   1      32.309  32.160  27.093  1.00  0.00    -0.246 OA
BRANCH  23  25
ATOM     25  C   UNL A   1      34.432  31.477  27.788  1.00  0.00     0.060 A 
ATOM     26  C   UNL A   1      35.553  32.896  27.848  1.00  0.00     0.016 A 
ATOM     27  C   UNL A   1      34.901  29.949  28.588  1.00  0.00     0.016 A 
ATOM     28  C   UNL A   1      37.230  32.671  28.586  1.00  0.00     0.010 A 
ATOM     29  C   UNL A   1      36.493  29.781  29.323  1.00  0.00     0.010 A 
ATOM     30  C   UNL A   1      37.706  31.100  29.322  1.00  0.00    -0.014 A 
BRANCH  30  31
ATOM     31  C   UNL A   1      39.044  30.795  29.988  1.00  0.00     0.031 A 
ATOM     32  C   UNL A   1      39.943  29.670  29.484  1.00  0.00     0.074 A 
ATOM     33  C   UNL A   1      39.311  31.336  31.198  1.00  0.00     0.049 A 
ATOM     34  N   UNL A   1      40.950  29.079  30.091  1.00  0.00    -0.248 NA
ATOM     35  C   UNL A   1      39.717  29.158  28.122  1.00  0.00     0.031 C 
ATOM     36  C   UNL A   1      38.614  32.464  31.815  1.00  0.00     0.029 A 
ATOM     37  N   UNL A   1      40.094  30.863  32.229  1.00  0.00    -0.354 N 
ATOM     38  C   UNL A   1      41.490  28.176  29.177  1.00  0.00     0.074 A 
ATOM     39  C   UNL A   1      40.619  28.189  28.024  1.00  0.00     0.031 C 
ATOM     40  C   UNL A   1      38.792  32.446  33.137  1.00  0.00     0.029 A 
ATOM     41  C   UNL A   1      39.736  31.396  33.453  1.00  0.00     0.049 A 
ATOM     42  H   UNL A   1      40.828  30.217  32.108  1.00  0.00     0.167 HD
ATOM     43  C   UNL A   1      42.642  27.460  29.265  1.00  0.00     0.037 A 
ATOM     44  C   UNL A   1      40.126  31.116  34.708  1.00  0.00     0.037 A 
ATOM     45  C   UNL A   1      43.472  27.449  30.447  1.00  0.00     0.049 A 
ATOM     46  C   UNL A   1      41.324  30.245  34.851  1.00  0.00     0.074 A 
ATOM     47  C   UNL A   1      44.696  26.839  30.657  1.00  0.00     0.029 A 
ATOM     48  N   UNL A   1      43.130  28.070  31.644  1.00  0.00    -0.354 N 
ATOM     49  N   UNL A   1      41.911  29.511  33.938  1.00  0.00    -0.248 NA
ATOM     50  C   UNL A   1      42.003  30.277  36.147  1.00  0.00     0.031 C 
ATOM     51  C   UNL A   1      45.049  27.018  32.001  1.00  0.00     0.029 A 
ATOM     52  C   UNL A   1      44.087  27.809  32.612  1.00  0.00     0.049 A 
ATOM     53  H   UNL A   1      42.323  28.617  31.785  1.00  0.00     0.167 HD
ATOM     54  C   UNL A   1      43.079  29.058  34.518  1.00  0.00     0.074 A 
ATOM     55  C   UNL A   1      43.104  29.594  35.868  1.00  0.00     0.031 C 
ATOM     56  C   UNL A   1      44.060  28.302  33.968  1.00  0.00     0.037 A 
BRANCH  43  57
ATOM     57  C   UNL A   1      43.068  26.649  28.058  1.00  0.00     0.064 A 
ATOM     58  C   UNL A   1      43.817  27.218  27.010  1.00  0.00     0.173 A 
ATOM     59  C   UNL A   1      42.728  25.292  27.932  1.00  0.00     0.173 A 
ATOM     60  F   UNL A   1      44.200  28.502  27.074  1.00  0.00    -0.203 F 
ATOM     61  C   UNL A   1      44.133  26.491  25.862  1.00  0.00     0.198 A 
ATOM     62  C   UNL A   1      43.080  24.556  26.799  1.00  0.00     0.198 A 
ATOM     63  F   UNL A   1      42.044  24.671  28.905  1.00  0.00    -0.203 F 
ATOM     64  F   UNL A   1      44.772  27.089  24.846  1.00  0.00    -0.200 F 
ATOM     65  C   UNL A   1      43.762  25.161  25.755  1.00  0.00     0.200 A 
ATOM     66  F   UNL A   1      42.744  23.261  26.709  1.00  0.00    -0.200 F 
ATOM     67  F   UNL A   1      44.050  24.468  24.644  1.00  0.00    -0.200 F 
ENDBRANCH  43  57
BRANCH  44  68
ATOM     68  C   UNL A   1      39.549  31.898  35.834  1.00  0.00     0.064 A 
ATOM     69  C   UNL A   1      38.459  31.383  36.552  1.00  0.00     0.173 A 
ATOM     70  C   UNL A   1      40.147  33.074  36.313  1.00  0.00     0.173 A 
ATOM     71  F   UNL A   1      37.870  30.250  36.144  1.00  0.00    -0.203 F 
ATOM     72  C   UNL A   1      37.984  32.014  37.698  1.00  0.00     0.198 A 
ATOM     73  C   UNL A   1      39.676  33.701  37.469  1.00  0.00     0.198 A 
ATOM     74  F   UNL A   1      41.214  33.592  35.686  1.00  0.00    -0.203 F 
ATOM     75  F   UNL A   1      36.945  31.492  38.363  1.00  0.00    -0.200 F 
ATOM     76  C   UNL A   1      38.595  33.169  38.160  1.00  0.00     0.200 A 
ATOM     77  F   UNL A   1      40.281  34.804  37.930  1.00  0.00    -0.200 F 
ATOM     78  F   UNL A   1      38.153  33.759  39.278  1.00  0.00    -0.200 F 
ENDBRANCH  44  68
BRANCH  56  79
ATOM     79  C   UNL A   1      45.226  27.995  34.855  1.00  0.00     0.064 A 
ATOM     80  C   UNL A   1      45.242  26.852  35.669  1.00  0.00     0.173 A 
ATOM     81  C   UNL A   1      46.332  28.856  34.902  1.00  0.00     0.173 A 
ATOM     82  F   UNL A   1      44.197  26.011  35.675  1.00  0.00    -0.203 F 
ATOM     83  C   UNL A   1      46.305  26.606  36.531  1.00  0.00     0.198 A 
ATOM     84  C   UNL A   1      47.412  28.583  35.733  1.00  0.00     0.198 A 
ATOM     85  F   UNL A   1      46.362  29.963  34.145  1.00  0.00    -0.203 F 
ATOM     86  F   UNL A   1      46.262  25.553  37.358  1.00  0.00    -0.200 F 
ATOM     87  C   UNL A   1      47.392  27.467  36.556  1.00  0.00     0.200 A 
ATOM     88  F   UNL A   1      48.470  29.407  35.746  1.00  0.00    -0.200 F 
ATOM     89  F   UNL A   1      48.416  27.228  37.386  1.00  0.00    -0.200 F 
ENDBRANCH  56  79
ENDBRANCH  30  31
ENDBRANCH  23  25
ENDBRANCH  22  23
ENDBRANCH  21  22
ENDBRANCH  20  21
ENDBRANCH   1  20
TORSDOF 17
ENDMDL
