MODEL 1
REMARK VINA RESULT:     -12.5      0.000      0.000
REMARK SMILES O=C(OCCOC(=O)[C@H]1CSCN1C(=O)c1cccc2cccnc12)c1ccc(-c2c3nc(c(-c4c(F)c(F)c(F)c(F)c4F)c4ccc([nH]4)c(-c4c(F)c(F)c(F)c(F)c4F)c4nc(c(-c5c(F)c(F)c(F)c(F)c5F)c5ccc2[nH]5)C=C4)C=C3)cc1
REMARK SMILES IDX 4 1 3 2 2 3 1 4 26 5 27 6 88 7 28 8 87 9 29 10 30 11 31 12
REMARK SMILES IDX 81 13 32 14 86 15 80 16 82 17 33 18 85 19 79 20 78 21 34 23
REMARK SMILES IDX 66 24 46 25 65 26 47 27 50 28 64 29 83 30 48 31 49 32 63 34
REMARK SMILES IDX 84 35 51 36 35 37 36 38 44 39 37 40 38 41 42 42 45 43 39 44
REMARK SMILES IDX 40 45 43 46 41 47 67 48 68 49 76 50 69 51 70 52 74 53 77 54
REMARK SMILES IDX 71 55 72 56 75 57 73 58 52 59 53 60 61 61 54 62 55 63 59 64
REMARK SMILES IDX 62 65 56 66 57 67 60 68 58 69 5 70 6 71 7 72 8 73 9 74 10 75
REMARK SMILES IDX 13 76 11 77 12 78 14 79 15 80 16 81 17 82 25 83 18 84 20 85
REMARK SMILES IDX 24 86 19 87 21 88 23 89 22 90
REMARK H PARENT 82 22 50 33
REMARK Flexibility Score: inf
ROOT
ATOM      1  C   UNL A   1      32.494  29.598  25.486  1.00  0.00     0.275 C 
ENDROOT
BRANCH   1   2
ATOM      2  O   UNL A   1      32.248  30.867  26.140  1.00  0.00    -0.458 OA
BRANCH   2   3
ATOM      3  C   UNL A   1      32.952  31.606  27.035  1.00  0.00     0.338 C 
ATOM      4  O   UNL A   1      32.525  32.731  27.300  1.00  0.00    -0.246 OA
BRANCH   3   5
ATOM      5  C   UNL A   1      34.273  31.229  27.664  1.00  0.00     0.060 A 
ATOM      6  C   UNL A   1      34.659  29.962  28.058  1.00  0.00     0.016 A 
ATOM      7  C   UNL A   1      35.186  32.263  27.980  1.00  0.00     0.016 A 
ATOM      8  C   UNL A   1      35.943  29.746  28.629  1.00  0.00     0.010 A 
ATOM      9  C   UNL A   1      36.504  32.016  28.477  1.00  0.00     0.010 A 
ATOM     10  C   UNL A   1      36.969  30.716  28.699  1.00  0.00    -0.014 A 
BRANCH  10  11
ATOM     11  C   UNL A   1      38.365  30.348  29.269  1.00  0.00     0.031 A 
ATOM     12  C   UNL A   1      38.568  30.792  30.679  1.00  0.00     0.074 A 
ATOM     13  C   UNL A   1      39.403  29.621  28.734  1.00  0.00     0.049 A 
ATOM     14  N   UNL A   1      39.420  30.354  31.564  1.00  0.00    -0.248 NA
ATOM     15  C   UNL A   1      37.663  31.847  31.160  1.00  0.00     0.031 C 
ATOM     16  C   UNL A   1      39.438  29.061  27.415  1.00  0.00     0.029 A 
ATOM     17  N   UNL A   1      40.608  29.100  29.231  1.00  0.00    -0.354 N 
ATOM     18  C   UNL A   1      39.167  31.093  32.701  1.00  0.00     0.074 A 
ATOM     19  C   UNL A   1      38.057  31.975  32.412  1.00  0.00     0.031 C 
ATOM     20  C   UNL A   1      40.482  28.278  27.163  1.00  0.00     0.029 A 
ATOM     21  C   UNL A   1      41.237  28.174  28.374  1.00  0.00     0.049 A 
ATOM     22  H   UNL A   1      40.982  29.359  30.104  1.00  0.00     0.167 HD
ATOM     23  C   UNL A   1      39.832  31.067  33.873  1.00  0.00     0.037 A 
ATOM     24  C   UNL A   1      42.194  27.224  28.525  1.00  0.00     0.037 A 
ATOM     25  C   UNL A   1      40.985  30.258  34.140  1.00  0.00     0.049 A 
ATOM     26  C   UNL A   1      42.804  27.136  29.885  1.00  0.00     0.074 A 
ATOM     27  C   UNL A   1      41.789  30.261  35.264  1.00  0.00     0.029 A 
ATOM     28  N   UNL A   1      41.514  29.316  33.270  1.00  0.00    -0.354 N 
ATOM     29  N   UNL A   1      42.397  27.694  30.995  1.00  0.00    -0.248 NA
ATOM     30  C   UNL A   1      43.978  26.265  30.031  1.00  0.00     0.031 C 
ATOM     31  C   UNL A   1      42.827  29.348  35.063  1.00  0.00     0.029 A 
ATOM     32  C   UNL A   1      42.643  28.740  33.833  1.00  0.00     0.049 A 
ATOM     33  H   UNL A   1      41.144  29.089  32.386  1.00  0.00     0.167 HD
ATOM     34  C   UNL A   1      43.271  27.249  31.963  1.00  0.00     0.074 A 
ATOM     35  C   UNL A   1      44.111  26.243  31.347  1.00  0.00     0.031 C 
ATOM     36  C   UNL A   1      43.437  27.711  33.223  1.00  0.00     0.037 A 
BRANCH  23  37
ATOM     37  C   UNL A   1      39.365  32.038  34.904  1.00  0.00     0.064 A 
ATOM     38  C   UNL A   1      39.788  33.374  34.895  1.00  0.00     0.173 A 
ATOM     39  C   UNL A   1      38.529  31.607  35.942  1.00  0.00     0.173 A 
ATOM     40  F   UNL A   1      40.636  33.808  33.951  1.00  0.00    -0.203 F 
ATOM     41  C   UNL A   1      39.395  34.246  35.904  1.00  0.00     0.198 A 
ATOM     42  C   UNL A   1      38.116  32.489  36.933  1.00  0.00     0.198 A 
ATOM     43  F   UNL A   1      38.131  30.328  36.003  1.00  0.00    -0.203 F 
ATOM     44  F   UNL A   1      39.854  35.505  35.913  1.00  0.00    -0.200 F 
ATOM     45  C   UNL A   1      38.553  33.805  36.915  1.00  0.00     0.200 A 
ATOM     46  F   UNL A   1      37.309  32.061  37.912  1.00  0.00    -0.200 F 
ATOM     47  F   UNL A   1      38.175  34.648  37.887  1.00  0.00    -0.200 F 
ENDBRANCH  23  37
BRANCH  24  48
ATOM     48  C   UNL A   1      42.528  26.166  27.475  1.00  0.00     0.064 A 
ATOM     49  C   UNL A   1      41.770  24.977  27.386  1.00  0.00     0.173 A 
ATOM     50  C   UNL A   1      43.575  26.277  26.543  1.00  0.00     0.173 A 
ATOM     51  F   UNL A   1      40.739  24.768  28.220  1.00  0.00    -0.203 F 
ATOM     52  C   UNL A   1      42.034  23.979  26.441  1.00  0.00     0.198 A 
ATOM     53  C   UNL A   1      43.797  25.307  25.552  1.00  0.00     0.198 A 
ATOM     54  F   UNL A   1      44.391  27.341  26.566  1.00  0.00    -0.203 F 
ATOM     55  F   UNL A   1      41.289  22.863  26.425  1.00  0.00    -0.200 F 
ATOM     56  C   UNL A   1      43.031  24.155  25.507  1.00  0.00     0.200 A 
ATOM     57  F   UNL A   1      44.756  25.496  24.633  1.00  0.00    -0.200 F 
ATOM     58  F   UNL A   1      43.246  23.227  24.563  1.00  0.00    -0.200 F 
ENDBRANCH  24  48
BRANCH  36  59
ATOM     59  C   UNL A   1      44.593  27.142  33.983  1.00  0.00     0.064 A 
ATOM     60  C   UNL A   1      44.426  26.031  34.828  1.00  0.00     0.173 A 
ATOM     61  C   UNL A   1      45.867  27.710  33.882  1.00  0.00     0.173 A 
ATOM     62  F   UNL A   1      43.218  25.461  34.967  1.00  0.00    -0.203 F 
ATOM     63  C   UNL A   1      45.480  25.550  35.593  1.00  0.00     0.198 A 
ATOM     64  C   UNL A   1      46.933  27.195  34.615  1.00  0.00     0.198 A 
ATOM     65  F   UNL A   1      46.078  28.767  33.083  1.00  0.00    -0.203 F 
ATOM     66  F   UNL A   1      45.272  24.551  36.461  1.00  0.00    -0.200 F 
ATOM     67  C   UNL A   1      46.734  26.128  35.480  1.00  0.00     0.200 A 
ATOM     68  F   UNL A   1      48.150  27.742  34.494  1.00  0.00    -0.200 F 
ATOM     69  F   UNL A   1      47.752  25.665  36.218  1.00  0.00    -0.200 F 
ENDBRANCH  36  59
ENDBRANCH  10  11
ENDBRANCH   3   5
ENDBRANCH   2   3
ENDBRANCH   1   2
BRANCH   1  70
ATOM     70  C   UNL A   1      31.618  28.474  26.009  1.00  0.00     0.274 C 
BRANCH  70  71
ATOM     71  O   UNL A   1      30.994  27.823  24.909  1.00  0.00    -0.461 OA
BRANCH  71  72
ATOM     72  C   UNL A   1      30.854  26.485  25.038  1.00  0.00     0.329 C 
ATOM     73  O   UNL A   1      30.049  25.921  25.790  1.00  0.00    -0.250 OA
BRANCH  72  74
ATOM     74  C   UNL A   1      31.666  25.710  24.028  1.00  0.00     0.206 C 
ATOM     75  C   UNL A   1      31.114  26.249  22.694  1.00  0.00     0.108 C 
ATOM     76  N   UNL A   1      33.139  25.773  24.025  1.00  0.00    -0.315 N 
ATOM     77  S   UNL A   1      32.295  25.796  21.447  1.00  0.00    -0.138 SA
ATOM     78  C   UNL A   1      33.589  25.536  22.655  1.00  0.00     0.191 C 
BRANCH  76  79
ATOM     79  C   UNL A   1      33.791  25.529  25.297  1.00  0.00     0.257 C 
ATOM     80  O   UNL A   1      34.258  26.491  25.923  1.00  0.00    -0.269 OA
BRANCH  79  81
ATOM     81  C   UNL A   1      34.075  24.231  26.028  1.00  0.00     0.066 A 
ATOM     82  C   UNL A   1      33.079  23.599  26.801  1.00  0.00     0.016 A 
ATOM     83  C   UNL A   1      35.126  23.413  25.609  1.00  0.00     0.083 A 
ATOM     84  C   UNL A   1      33.234  22.344  27.413  1.00  0.00     0.002 A 
ATOM     85  C   UNL A   1      35.183  22.059  26.082  1.00  0.00     0.001 A 
ATOM     86  N   UNL A   1      36.042  23.861  24.733  1.00  0.00    -0.255 NA
ATOM     87  C   UNL A   1      34.309  21.566  27.052  1.00  0.00     0.010 A 
ATOM     88  C   UNL A   1      36.100  21.180  25.513  1.00  0.00     0.012 A 
ATOM     89  C   UNL A   1      36.908  22.975  24.197  1.00  0.00     0.112 A 
ATOM     90  C   UNL A   1      36.962  21.637  24.533  1.00  0.00     0.021 A 
ENDBRANCH  79  81
ENDBRANCH  76  79
ENDBRANCH  72  74
ENDBRANCH  71  72
ENDBRANCH  70  71
ENDBRANCH   1  70
TORSDOF 13
ENDMDL
MODEL 2
REMARK VINA RESULT:     -12.4      0.159      1.607
REMARK SMILES O=C(OCCOC(=O)[C@H]1CSCN1C(=O)c1cccc2cccnc12)c1ccc(-c2c3nc(c(-c4c(F)c(F)c(F)c(F)c4F)c4ccc([nH]4)c(-c4c(F)c(F)c(F)c(F)c4F)c4nc(c(-c5c(F)c(F)c(F)c(F)c5F)c5ccc2[nH]5)C=C4)C=C3)cc1
REMARK SMILES IDX 4 1 3 2 2 3 1 4 26 5 27 6 88 7 28 8 87 9 29 10 30 11 31 12
REMARK SMILES IDX 81 13 32 14 86 15 80 16 82 17 33 18 85 19 79 20 78 21 34 23
REMARK SMILES IDX 66 24 46 25 65 26 47 27 50 28 64 29 83 30 48 31 49 32 63 34
REMARK SMILES IDX 84 35 51 36 35 37 36 38 44 39 37 40 38 41 42 42 45 43 39 44
REMARK SMILES IDX 40 45 43 46 41 47 67 48 68 49 76 50 69 51 70 52 74 53 77 54
REMARK SMILES IDX 71 55 72 56 75 57 73 58 52 59 53 60 61 61 54 62 55 63 59 64
REMARK SMILES IDX 62 65 56 66 57 67 60 68 58 69 5 70 6 71 7 72 8 73 9 74 10 75
REMARK SMILES IDX 13 76 11 77 12 78 14 79 15 80 16 81 17 82 25 83 18 84 20 85
REMARK SMILES IDX 24 86 19 87 21 88 23 89 22 90
REMARK H PARENT 82 22 50 33
REMARK Flexibility Score: inf
ROOT
ATOM      1  C   UNL A   1      32.464  29.661  25.501  1.00  0.00     0.275 C 
ENDROOT
BRANCH   1   2
ATOM      2  O   UNL A   1      32.212  30.916  26.180  1.00  0.00    -0.458 OA
BRANCH   2   3
ATOM      3  C   UNL A   1      32.921  31.650  27.074  1.00  0.00     0.338 C 
ATOM      4  O   UNL A   1      32.496  32.774  27.347  1.00  0.00    -0.246 OA
BRANCH   3   5
ATOM      5  C   UNL A   1      34.245  31.271  27.693  1.00  0.00     0.060 A 
ATOM      6  C   UNL A   1      34.621  30.008  28.111  1.00  0.00     0.016 A 
ATOM      7  C   UNL A   1      35.176  32.300  27.973  1.00  0.00     0.016 A 
ATOM      8  C   UNL A   1      35.910  29.788  28.670  1.00  0.00     0.010 A 
ATOM      9  C   UNL A   1      36.498  32.047  28.458  1.00  0.00     0.010 A 
ATOM     10  C   UNL A   1      36.949  30.746  28.703  1.00  0.00    -0.014 A 
BRANCH  10  11
ATOM     11  C   UNL A   1      38.348  30.373  29.263  1.00  0.00     0.031 A 
ATOM     12  C   UNL A   1      38.553  30.792  30.680  1.00  0.00     0.074 A 
ATOM     13  C   UNL A   1      39.387  29.659  28.712  1.00  0.00     0.049 A 
ATOM     14  N   UNL A   1      39.410  30.342  31.554  1.00  0.00    -0.248 NA
ATOM     15  C   UNL A   1      37.646  31.836  31.182  1.00  0.00     0.031 C 
ATOM     16  C   UNL A   1      39.419  29.122  27.384  1.00  0.00     0.029 A 
ATOM     17  N   UNL A   1      40.595  29.133  29.196  1.00  0.00    -0.354 N 
ATOM     18  C   UNL A   1      39.158  31.060  32.705  1.00  0.00     0.074 A 
ATOM     19  C   UNL A   1      38.044  31.943  32.435  1.00  0.00     0.031 C 
ATOM     20  C   UNL A   1      40.466  28.348  27.115  1.00  0.00     0.029 A 
ATOM     21  C   UNL A   1      41.225  28.225  28.321  1.00  0.00     0.049 A 
ATOM     22  H   UNL A   1      40.971  29.378  30.072  1.00  0.00     0.167 HD
ATOM     23  C   UNL A   1      39.826  31.015  33.875  1.00  0.00     0.037 A 
ATOM     24  C   UNL A   1      42.185  27.276  28.452  1.00  0.00     0.037 A 
ATOM     25  C   UNL A   1      40.982  30.205  34.124  1.00  0.00     0.049 A 
ATOM     26  C   UNL A   1      42.800  27.165  29.809  1.00  0.00     0.074 A 
ATOM     27  C   UNL A   1      41.790  30.191  35.246  1.00  0.00     0.029 A 
ATOM     28  N   UNL A   1      41.513  29.281  33.236  1.00  0.00    -0.354 N 
ATOM     29  N   UNL A   1      42.394  27.703  30.930  1.00  0.00    -0.248 NA
ATOM     30  C   UNL A   1      43.977  26.296  29.936  1.00  0.00     0.031 C 
ATOM     31  C   UNL A   1      42.830  29.286  35.025  1.00  0.00     0.029 A 
ATOM     32  C   UNL A   1      42.645  28.699  33.785  1.00  0.00     0.049 A 
ATOM     33  H   UNL A   1      41.140  29.068  32.349  1.00  0.00     0.167 HD
ATOM     34  C   UNL A   1      43.273  27.244  31.887  1.00  0.00     0.074 A 
ATOM     35  C   UNL A   1      44.114  26.252  31.251  1.00  0.00     0.031 C 
ATOM     36  C   UNL A   1      43.440  27.684  33.155  1.00  0.00     0.037 A 
BRANCH  23  37
ATOM     37  C   UNL A   1      39.359  31.966  34.924  1.00  0.00     0.064 A 
ATOM     38  C   UNL A   1      39.757  33.309  34.924  1.00  0.00     0.173 A 
ATOM     39  C   UNL A   1      38.548  31.509  35.971  1.00  0.00     0.173 A 
ATOM     40  F   UNL A   1      40.582  33.769  33.970  1.00  0.00    -0.203 F 
ATOM     41  C   UNL A   1      39.365  34.163  35.948  1.00  0.00     0.198 A 
ATOM     42  C   UNL A   1      38.136  32.372  36.978  1.00  0.00     0.198 A 
ATOM     43  F   UNL A   1      38.174  30.222  36.024  1.00  0.00    -0.203 F 
ATOM     44  F   UNL A   1      39.802  35.430  35.964  1.00  0.00    -0.200 F 
ATOM     45  C   UNL A   1      38.549  33.696  36.968  1.00  0.00     0.200 A 
ATOM     46  F   UNL A   1      37.353  31.919  37.965  1.00  0.00    -0.200 F 
ATOM     47  F   UNL A   1      38.171  34.521  37.955  1.00  0.00    -0.200 F 
ENDBRANCH  23  37
BRANCH  24  48
ATOM     48  C   UNL A   1      42.520  26.238  27.383  1.00  0.00     0.064 A 
ATOM     49  C   UNL A   1      43.583  26.454  26.477  1.00  0.00     0.173 A 
ATOM     50  C   UNL A   1      41.829  25.024  27.213  1.00  0.00     0.173 A 
ATOM     51  F   UNL A   1      44.318  27.575  26.553  1.00  0.00    -0.203 F 
ATOM     52  C   UNL A   1      43.931  25.534  25.483  1.00  0.00     0.198 A 
ATOM     53  C   UNL A   1      42.221  24.072  26.259  1.00  0.00     0.198 A 
ATOM     54  F   UNL A   1      40.771  24.735  27.984  1.00  0.00    -0.203 F 
ATOM     55  F   UNL A   1      44.937  25.811  24.641  1.00  0.00    -0.200 F 
ATOM     56  C   UNL A   1      43.266  24.330  25.390  1.00  0.00     0.200 A 
ATOM     57  F   UNL A   1      41.583  22.894  26.189  1.00  0.00    -0.200 F 
ATOM     58  F   UNL A   1      43.638  23.422  24.476  1.00  0.00    -0.200 F 
ENDBRANCH  24  48
BRANCH  36  59
ATOM     59  C   UNL A   1      44.601  27.105  33.901  1.00  0.00     0.064 A 
ATOM     60  C   UNL A   1      45.874  27.696  33.826  1.00  0.00     0.173 A 
ATOM     61  C   UNL A   1      44.451  25.953  34.680  1.00  0.00     0.173 A 
ATOM     62  F   UNL A   1      46.069  28.795  33.080  1.00  0.00    -0.203 F 
ATOM     63  C   UNL A   1      46.969  27.116  34.454  1.00  0.00     0.198 A 
ATOM     64  C   UNL A   1      45.541  25.402  35.347  1.00  0.00     0.198 A 
ATOM     65  F   UNL A   1      43.254  25.357  34.787  1.00  0.00    -0.203 F 
ATOM     66  F   UNL A   1      48.189  27.645  34.291  1.00  0.00    -0.200 F 
ATOM     67  C   UNL A   1      46.799  25.974  35.220  1.00  0.00     0.200 A 
ATOM     68  F   UNL A   1      45.376  24.307  36.101  1.00  0.00    -0.200 F 
ATOM     69  F   UNL A   1      47.855  25.414  35.826  1.00  0.00    -0.200 F 
ENDBRANCH  36  59
ENDBRANCH  10  11
ENDBRANCH   3   5
ENDBRANCH   2   3
ENDBRANCH   1   2
BRANCH   1  70
ATOM     70  C   UNL A   1      31.680  28.498  26.081  1.00  0.00     0.274 C 
BRANCH  70  71
ATOM     71  O   UNL A   1      30.989  27.834  25.030  1.00  0.00    -0.461 OA
BRANCH  71  72
ATOM     72  C   UNL A   1      30.898  26.492  25.160  1.00  0.00     0.329 C 
ATOM     73  O   UNL A   1      30.147  25.901  25.948  1.00  0.00    -0.250 OA
BRANCH  72  74
ATOM     74  C   UNL A   1      31.683  25.746  24.109  1.00  0.00     0.206 C 
ATOM     75  C   UNL A   1      31.113  26.336  22.805  1.00  0.00     0.108 C 
ATOM     76  N   UNL A   1      33.156  25.794  24.081  1.00  0.00    -0.315 N 
ATOM     77  S   UNL A   1      32.266  25.916  21.521  1.00  0.00    -0.138 SA
ATOM     78  C   UNL A   1      33.578  25.601  22.696  1.00  0.00     0.191 C 
BRANCH  76  79
ATOM     79  C   UNL A   1      33.828  25.498  25.331  1.00  0.00     0.257 C 
ATOM     80  O   UNL A   1      34.339  26.430  25.969  1.00  0.00    -0.269 OA
BRANCH  79  81
ATOM     81  C   UNL A   1      34.086  24.174  26.025  1.00  0.00     0.066 A 
ATOM     82  C   UNL A   1      33.077  23.539  26.777  1.00  0.00     0.016 A 
ATOM     83  C   UNL A   1      35.124  23.351  25.584  1.00  0.00     0.083 A 
ATOM     84  C   UNL A   1      33.208  22.264  27.352  1.00  0.00     0.002 A 
ATOM     85  C   UNL A   1      35.155  21.982  26.018  1.00  0.00     0.001 A 
ATOM     86  N   UNL A   1      36.050  23.807  24.723  1.00  0.00    -0.255 NA
ATOM     87  C   UNL A   1      34.269  21.477  26.971  1.00  0.00     0.010 A 
ATOM     88  C   UNL A   1      36.057  21.103  25.425  1.00  0.00     0.012 A 
ATOM     89  C   UNL A   1      36.901  22.921  24.164  1.00  0.00     0.112 A 
ATOM     90  C   UNL A   1      36.930  21.573  24.460  1.00  0.00     0.021 A 
ENDBRANCH  79  81
ENDBRANCH  76  79
ENDBRANCH  72  74
ENDBRANCH  71  72
ENDBRANCH  70  71
ENDBRANCH   1  70
TORSDOF 13
ENDMDL
MODEL 3
REMARK VINA RESULT:     -12.4      1.793      3.567
REMARK SMILES O=C(OCCOC(=O)[C@H]1CSCN1C(=O)c1cccc2cccnc12)c1ccc(-c2c3nc(c(-c4c(F)c(F)c(F)c(F)c4F)c4ccc([nH]4)c(-c4c(F)c(F)c(F)c(F)c4F)c4nc(c(-c5c(F)c(F)c(F)c(F)c5F)c5ccc2[nH]5)C=C4)C=C3)cc1
REMARK SMILES IDX 4 1 3 2 2 3 1 4 26 5 27 6 88 7 28 8 87 9 29 10 30 11 31 12
REMARK SMILES IDX 81 13 32 14 86 15 80 16 82 17 33 18 85 19 79 20 78 21 34 23
REMARK SMILES IDX 66 24 46 25 65 26 47 27 50 28 64 29 83 30 48 31 49 32 63 34
REMARK SMILES IDX 84 35 51 36 35 37 36 38 44 39 37 40 38 41 42 42 45 43 39 44
REMARK SMILES IDX 40 45 43 46 41 47 67 48 68 49 76 50 69 51 70 52 74 53 77 54
REMARK SMILES IDX 71 55 72 56 75 57 73 58 52 59 53 60 61 61 54 62 55 63 59 64
REMARK SMILES IDX 62 65 56 66 57 67 60 68 58 69 5 70 6 71 7 72 8 73 9 74 10 75
REMARK SMILES IDX 13 76 11 77 12 78 14 79 15 80 16 81 17 82 25 83 18 84 20 85
REMARK SMILES IDX 24 86 19 87 21 88 23 89 22 90
REMARK H PARENT 82 22 50 33
REMARK Flexibility Score: inf
ROOT
ATOM      1  C   UNL A   1      31.468  31.104  25.703  1.00  0.00     0.275 C 
ENDROOT
BRANCH   1   2
ATOM      2  O   UNL A   1      31.953  31.403  27.035  1.00  0.00    -0.458 OA
BRANCH   2   3
ATOM      3  C   UNL A   1      32.887  32.261  27.516  1.00  0.00     0.338 C 
ATOM      4  O   UNL A   1      32.616  33.462  27.497  1.00  0.00    -0.246 OA
BRANCH   3   5
ATOM      5  C   UNL A   1      34.280  31.900  27.978  1.00  0.00     0.060 A 
ATOM      6  C   UNL A   1      35.298  32.786  28.277  1.00  0.00     0.016 A 
ATOM      7  C   UNL A   1      34.639  30.532  28.027  1.00  0.00     0.016 A 
ATOM      8  C   UNL A   1      36.564  32.309  28.713  1.00  0.00     0.010 A 
ATOM      9  C   UNL A   1      35.888  30.070  28.548  1.00  0.00     0.010 A 
ATOM     10  C   UNL A   1      36.852  30.962  29.031  1.00  0.00    -0.014 A 
BRANCH  10  11
ATOM     11  C   UNL A   1      38.248  30.562  29.579  1.00  0.00     0.031 A 
ATOM     12  C   UNL A   1      38.464  30.957  31.002  1.00  0.00     0.074 A 
ATOM     13  C   UNL A   1      39.274  29.842  29.014  1.00  0.00     0.049 A 
ATOM     14  N   UNL A   1      39.318  30.483  31.866  1.00  0.00    -0.248 NA
ATOM     15  C   UNL A   1      37.573  32.006  31.522  1.00  0.00     0.031 C 
ATOM     16  C   UNL A   1      39.295  29.324  27.678  1.00  0.00     0.029 A 
ATOM     17  N   UNL A   1      40.477  29.293  29.486  1.00  0.00    -0.354 N 
ATOM     18  C   UNL A   1      39.080  31.188  33.028  1.00  0.00     0.074 A 
ATOM     19  C   UNL A   1      37.977  32.089  32.776  1.00  0.00     0.031 C 
ATOM     20  C   UNL A   1      40.330  28.540  27.394  1.00  0.00     0.029 A 
ATOM     21  C   UNL A   1      41.091  28.390  28.596  1.00  0.00     0.049 A 
ATOM     22  H   UNL A   1      40.860  29.520  30.364  1.00  0.00     0.167 HD
ATOM     23  C   UNL A   1      39.752  31.117  34.195  1.00  0.00     0.037 A 
ATOM     24  C   UNL A   1      42.040  27.426  28.709  1.00  0.00     0.037 A 
ATOM     25  C   UNL A   1      40.898  30.288  34.427  1.00  0.00     0.049 A 
ATOM     26  C   UNL A   1      42.658  27.287  30.061  1.00  0.00     0.074 A 
ATOM     27  C   UNL A   1      41.710  30.247  35.545  1.00  0.00     0.029 A 
ATOM     28  N   UNL A   1      41.413  29.370  33.524  1.00  0.00    -0.354 N 
ATOM     29  N   UNL A   1      42.264  27.814  31.191  1.00  0.00    -0.248 NA
ATOM     30  C   UNL A   1      43.824  26.401  30.171  1.00  0.00     0.031 C 
ATOM     31  C   UNL A   1      42.737  29.331  35.307  1.00  0.00     0.029 A 
ATOM     32  C   UNL A   1      42.539  28.765  34.060  1.00  0.00     0.049 A 
ATOM     33  H   UNL A   1      41.034  29.175  32.635  1.00  0.00     0.167 HD
ATOM     34  C   UNL A   1      43.140  27.329  32.139  1.00  0.00     0.074 A 
ATOM     35  C   UNL A   1      43.965  26.335  31.485  1.00  0.00     0.031 C 
ATOM     36  C   UNL A   1      43.318  27.748  33.411  1.00  0.00     0.037 A 
BRANCH  23  37
ATOM     37  C   UNL A   1      39.302  32.059  35.259  1.00  0.00     0.064 A 
ATOM     38  C   UNL A   1      39.771  33.378  35.316  1.00  0.00     0.173 A 
ATOM     39  C   UNL A   1      38.434  31.614  36.264  1.00  0.00     0.173 A 
ATOM     40  F   UNL A   1      40.650  33.822  34.404  1.00  0.00    -0.203 F 
ATOM     41  C   UNL A   1      39.392  34.219  36.355  1.00  0.00     0.198 A 
ATOM     42  C   UNL A   1      38.035  32.466  37.286  1.00  0.00     0.198 A 
ATOM     43  F   UNL A   1      37.990  30.348  36.263  1.00  0.00    -0.203 F 
ATOM     44  F   UNL A   1      39.894  35.459  36.426  1.00  0.00    -0.200 F 
ATOM     45  C   UNL A   1      38.518  33.766  37.333  1.00  0.00     0.200 A 
ATOM     46  F   UNL A   1      37.197  32.025  38.233  1.00  0.00    -0.200 F 
ATOM     47  F   UNL A   1      38.153  34.579  38.334  1.00  0.00    -0.200 F 
ENDBRANCH  23  37
BRANCH  24  48
ATOM     48  C   UNL A   1      42.356  26.399  27.624  1.00  0.00     0.064 A 
ATOM     49  C   UNL A   1      41.608  25.204  27.523  1.00  0.00     0.173 A 
ATOM     50  C   UNL A   1      43.377  26.545  26.666  1.00  0.00     0.173 A 
ATOM     51  F   UNL A   1      40.602  24.963  28.379  1.00  0.00    -0.203 F 
ATOM     52  C   UNL A   1      41.856  24.234  26.546  1.00  0.00     0.198 A 
ATOM     53  C   UNL A   1      43.582  25.604  25.646  1.00  0.00     0.198 A 
ATOM     54  F   UNL A   1      44.182  27.617  26.696  1.00  0.00    -0.203 F 
ATOM     55  F   UNL A   1      41.123  23.111  26.520  1.00  0.00    -0.200 F 
ATOM     56  C   UNL A   1      42.827  24.445  25.590  1.00  0.00     0.200 A 
ATOM     57  F   UNL A   1      44.514  25.827  24.707  1.00  0.00    -0.200 F 
ATOM     58  F   UNL A   1      43.025  23.544  24.618  1.00  0.00    -0.200 F 
ENDBRANCH  24  48
BRANCH  36  59
ATOM     59  C   UNL A   1      44.474  27.143  34.144  1.00  0.00     0.064 A 
ATOM     60  C   UNL A   1      44.302  26.007  34.953  1.00  0.00     0.173 A 
ATOM     61  C   UNL A   1      45.753  27.703  34.055  1.00  0.00     0.173 A 
ATOM     62  F   UNL A   1      43.089  25.443  35.080  1.00  0.00    -0.203 F 
ATOM     63  C   UNL A   1      45.356  25.491  35.695  1.00  0.00     0.198 A 
ATOM     64  C   UNL A   1      46.818  27.154  34.763  1.00  0.00     0.198 A 
ATOM     65  F   UNL A   1      45.968  28.785  33.291  1.00  0.00    -0.203 F 
ATOM     66  F   UNL A   1      45.144  24.465  36.530  1.00  0.00    -0.200 F 
ATOM     67  C   UNL A   1      46.614  26.061  35.593  1.00  0.00     0.200 A 
ATOM     68  F   UNL A   1      48.039  27.694  34.653  1.00  0.00    -0.200 F 
ATOM     69  F   UNL A   1      47.632  25.564  36.309  1.00  0.00    -0.200 F 
ENDBRANCH  36  59
ENDBRANCH  10  11
ENDBRANCH   3   5
ENDBRANCH   2   3
ENDBRANCH   1   2
BRANCH   1  70
ATOM     70  C   UNL A   1      31.489  29.622  25.375  1.00  0.00     0.274 C 
BRANCH  70  71
ATOM     71  O   UNL A   1      32.838  29.206  25.198  1.00  0.00    -0.461 OA
BRANCH  71  72
ATOM     72  C   UNL A   1      33.101  28.598  24.019  1.00  0.00     0.329 C 
ATOM     73  O   UNL A   1      33.457  29.175  22.984  1.00  0.00    -0.250 OA
BRANCH  72  74
ATOM     74  C   UNL A   1      33.096  27.092  24.122  1.00  0.00     0.206 C 
ATOM     75  C   UNL A   1      33.834  26.860  25.455  1.00  0.00     0.108 C 
ATOM     76  N   UNL A   1      31.834  26.332  24.107  1.00  0.00    -0.315 N 
ATOM     77  S   UNL A   1      33.478  25.188  25.937  1.00  0.00    -0.138 SA
ATOM     78  C   UNL A   1      32.051  25.099  24.862  1.00  0.00     0.191 C 
BRANCH  76  79
ATOM     79  C   UNL A   1      30.917  26.636  23.026  1.00  0.00     0.257 C 
ATOM     80  O   UNL A   1      31.323  26.554  21.858  1.00  0.00    -0.269 OA
BRANCH  79  81
ATOM     81  C   UNL A   1      29.479  27.117  23.056  1.00  0.00     0.066 A 
ATOM     82  C   UNL A   1      28.519  26.489  23.876  1.00  0.00     0.016 A 
ATOM     83  C   UNL A   1      29.173  28.419  22.654  1.00  0.00     0.083 A 
ATOM     84  C   UNL A   1      27.201  26.947  24.040  1.00  0.00     0.002 A 
ATOM     85  C   UNL A   1      27.889  28.966  22.989  1.00  0.00     0.001 A 
ATOM     86  N   UNL A   1      30.082  29.175  22.012  1.00  0.00    -0.255 NA
ATOM     87  C   UNL A   1      26.881  28.203  23.581  1.00  0.00     0.010 A 
ATOM     88  C   UNL A   1      27.653  30.321  22.779  1.00  0.00     0.012 A 
ATOM     89  C   UNL A   1      29.819  30.487  21.835  1.00  0.00     0.112 A 
ATOM     90  C   UNL A   1      28.644  31.105  22.216  1.00  0.00     0.021 A 
ENDBRANCH  79  81
ENDBRANCH  76  79
ENDBRANCH  72  74
ENDBRANCH  71  72
ENDBRANCH  70  71
ENDBRANCH   1  70
TORSDOF 13
ENDMDL
