MODEL 1
REMARK VINA RESULT:     -11.4      0.000      0.000
REMARK SMILES C[C@H](NC(=O)OC(C)(C)C)C(=O)N[C@@H](C)C(=O)N1CCC[C@H]1C(=O)OCCOC(=O)c1ccc(-c2c3nc(c(-c4c(F)c(F)c(F)c(F)c4F)c4ccc([nH]4)c(-c4c(F)c(F)c(F)c(F)c4F)c4nc(c(-c5c(F)c(F)c(F)c(F)c5F)c5ccc2[nH]5)C=C4)C=C3)cc1
REMARK SMILES IDX 23 1 24 2 22 3 18 4 19 5 20 6 21 7 16 8 17 9 14 10 15 11
REMARK SMILES IDX 13 12 11 13 12 14 2 16 1 17 3 18 4 19 5 21 6 22 7 23 8 24
REMARK SMILES IDX 9 25 10 26 25 27 26 28 27 29 28 30 29 31 30 32 31 33 32 34
REMARK SMILES IDX 93 35 33 36 92 37 34 38 35 39 36 40 86 41 37 42 91 43 85 44
REMARK SMILES IDX 87 45 38 46 90 47 84 48 83 49 39 51 71 52 51 53 70 54 52 55
REMARK SMILES IDX 55 56 69 57 88 58 53 59 54 60 68 62 89 63 56 64 40 65 41 66
REMARK SMILES IDX 49 67 42 68 43 69 47 70 50 71 44 72 45 73 48 74 46 75 72 76
REMARK SMILES IDX 73 77 81 78 74 79 75 80 79 81 82 82 76 83 77 84 80 85 78 86
REMARK SMILES IDX 57 87 58 88 66 89 59 90 60 91 64 92 67 93 61 94 62 95 65 96
REMARK SMILES IDX 63 97
REMARK H PARENT 13 15 3 20 87 50 55 61
REMARK Flexibility Score: inf
ROOT
ATOM      1  C   UNL A   1      36.482  22.244  25.625  1.00  0.00     0.328 C 
ATOM      2  O   UNL A   1      36.801  23.311  26.148  1.00  0.00    -0.250 OA
ENDROOT
BRANCH   1   3
ATOM      3  C   UNL A   1      35.058  21.691  25.769  1.00  0.00     0.195 C 
ATOM      4  N   UNL A   1      33.856  22.430  25.331  1.00  0.00    -0.327 N 
ATOM      5  C   UNL A   1      33.197  21.721  24.257  1.00  0.00     0.120 C 
ATOM      6  C   UNL A   1      33.569  20.274  24.519  1.00  0.00     0.024 C 
ATOM      7  C   UNL A   1      35.010  20.371  24.984  1.00  0.00     0.039 C 
BRANCH   4   8
ATOM      8  C   UNL A   1      33.359  23.416  26.155  1.00  0.00     0.245 C 
ATOM      9  O   UNL A   1      32.951  23.083  27.274  1.00  0.00    -0.272 OA
BRANCH   8  10
ATOM     10  C   UNL A   1      32.967  24.839  25.660  1.00  0.00     0.168 C 
ATOM     11  C   UNL A   1      34.208  25.430  24.978  1.00  0.00     0.041 C 
BRANCH  10  12
ATOM     12  N   UNL A   1      32.374  25.814  26.565  1.00  0.00    -0.343 N 
ATOM     13  C   UNL A   1      31.400  26.743  26.367  1.00  0.00     0.243 C 
ATOM     14  O   UNL A   1      31.105  27.436  27.349  1.00  0.00    -0.273 OA
ATOM     15  H   UNL A   1      32.742  25.799  27.478  1.00  0.00     0.164 HD
BRANCH  13  16
ATOM     16  C   UNL A   1      30.622  26.919  25.047  1.00  0.00     0.171 C 
ATOM     17  C   UNL A   1      29.788  25.676  24.743  1.00  0.00     0.042 C 
BRANCH  16  18
ATOM     18  N   UNL A   1      31.451  27.491  23.983  1.00  0.00    -0.310 N 
ATOM     19  C   UNL A   1      31.371  28.698  23.378  1.00  0.00     0.408 C 
ATOM     20  H   UNL A   1      32.178  26.909  23.662  1.00  0.00     0.167 HD
ATOM     21  O   UNL A   1      32.134  29.019  22.473  1.00  0.00    -0.225 OA
BRANCH  19  22
ATOM     22  O   UNL A   1      30.353  29.433  23.849  1.00  0.00    -0.444 OA
BRANCH  22  23
ATOM     23  C   UNL A   1      29.264  29.818  22.997  1.00  0.00     0.106 C 
ATOM     24  C   UNL A   1      29.805  30.211  21.624  1.00  0.00     0.056 C 
ATOM     25  C   UNL A   1      28.219  28.702  23.011  1.00  0.00     0.056 C 
ATOM     26  C   UNL A   1      28.665  31.069  23.644  1.00  0.00     0.056 C 
ENDBRANCH  22  23
ENDBRANCH  19  22
ENDBRANCH  16  18
ENDBRANCH  13  16
ENDBRANCH  10  12
ENDBRANCH   8  10
ENDBRANCH   4   8
ENDBRANCH   1   3
BRANCH   1  27
ATOM     27  O   UNL A   1      37.353  21.404  25.008  1.00  0.00    -0.461 OA
BRANCH  27  28
ATOM     28  C   UNL A   1      38.657  21.324  25.628  1.00  0.00     0.274 C 
BRANCH  28  29
ATOM     29  C   UNL A   1      39.266  19.937  25.443  1.00  0.00     0.275 C 
BRANCH  29  30
ATOM     30  O   UNL A   1      40.127  19.619  26.556  1.00  0.00    -0.458 OA
BRANCH  30  31
ATOM     31  C   UNL A   1      41.423  19.431  26.215  1.00  0.00     0.338 C 
ATOM     32  O   UNL A   1      41.904  18.413  25.742  1.00  0.00    -0.246 OA
BRANCH  31  33
ATOM     33  C   UNL A   1      42.250  20.617  26.527  1.00  0.00     0.060 A 
ATOM     34  C   UNL A   1      42.287  21.136  27.817  1.00  0.00     0.016 A 
ATOM     35  C   UNL A   1      42.767  21.369  25.473  1.00  0.00     0.016 A 
ATOM     36  C   UNL A   1      42.663  22.468  28.023  1.00  0.00     0.010 A 
ATOM     37  C   UNL A   1      43.264  22.661  25.705  1.00  0.00     0.010 A 
ATOM     38  C   UNL A   1      43.149  23.263  26.967  1.00  0.00    -0.014 A 
BRANCH  38  39
ATOM     39  C   UNL A   1      43.553  24.683  27.221  1.00  0.00     0.031 A 
ATOM     40  C   UNL A   1      42.588  25.800  27.573  1.00  0.00     0.074 A 
ATOM     41  C   UNL A   1      44.856  25.002  27.144  1.00  0.00     0.049 A 
ATOM     42  N   UNL A   1      42.825  26.945  28.177  1.00  0.00    -0.248 NA
ATOM     43  C   UNL A   1      41.173  25.612  27.249  1.00  0.00     0.031 C 
ATOM     44  C   UNL A   1      45.940  24.087  26.787  1.00  0.00     0.029 A 
ATOM     45  N   UNL A   1      45.474  26.211  27.313  1.00  0.00    -0.354 N 
ATOM     46  C   UNL A   1      41.576  27.492  28.466  1.00  0.00     0.074 A 
ATOM     47  C   UNL A   1      40.595  26.613  27.897  1.00  0.00     0.031 C 
ATOM     48  C   UNL A   1      47.083  24.781  26.713  1.00  0.00     0.029 A 
ATOM     49  C   UNL A   1      46.796  26.188  26.967  1.00  0.00     0.049 A 
ATOM     50  H   UNL A   1      45.014  27.014  27.649  1.00  0.00     0.167 HD
ATOM     51  C   UNL A   1      41.248  28.655  29.078  1.00  0.00     0.037 A 
ATOM     52  C   UNL A   1      47.661  27.204  26.805  1.00  0.00     0.037 A 
ATOM     53  C   UNL A   1      42.155  29.762  29.165  1.00  0.00     0.049 A 
ATOM     54  C   UNL A   1      47.219  28.604  27.117  1.00  0.00     0.074 A 
ATOM     55  C   UNL A   1      41.894  31.072  29.523  1.00  0.00     0.029 A 
ATOM     56  N   UNL A   1      43.462  29.716  28.712  1.00  0.00    -0.354 N 
ATOM     57  N   UNL A   1      46.077  29.029  27.599  1.00  0.00    -0.248 NA
ATOM     58  C   UNL A   1      48.200  29.667  26.867  1.00  0.00     0.031 C 
ATOM     59  C   UNL A   1      42.996  31.844  29.135  1.00  0.00     0.029 A 
ATOM     60  C   UNL A   1      43.984  30.995  28.660  1.00  0.00     0.049 A 
ATOM     61  H   UNL A   1      43.948  28.896  28.464  1.00  0.00     0.167 HD
ATOM     62  C   UNL A   1      46.208  30.406  27.735  1.00  0.00     0.074 A 
ATOM     63  C   UNL A   1      47.548  30.738  27.296  1.00  0.00     0.031 C 
ATOM     64  C   UNL A   1      45.307  31.311  28.193  1.00  0.00     0.037 A 
BRANCH  51  65
ATOM     65  C   UNL A   1      39.818  28.856  29.503  1.00  0.00     0.064 A 
ATOM     66  C   UNL A   1      39.402  28.567  30.814  1.00  0.00     0.173 A 
ATOM     67  C   UNL A   1      38.868  29.386  28.619  1.00  0.00     0.173 A 
ATOM     68  F   UNL A   1      40.275  28.075  31.705  1.00  0.00    -0.203 F 
ATOM     69  C   UNL A   1      38.086  28.798  31.218  1.00  0.00     0.198 A 
ATOM     70  C   UNL A   1      37.557  29.624  29.028  1.00  0.00     0.198 A 
ATOM     71  F   UNL A   1      39.212  29.678  27.356  1.00  0.00    -0.203 F 
ATOM     72  F   UNL A   1      37.706  28.520  32.473  1.00  0.00    -0.200 F 
ATOM     73  C   UNL A   1      37.167  29.329  30.325  1.00  0.00     0.200 A 
ATOM     74  F   UNL A   1      36.673  30.146  28.166  1.00  0.00    -0.200 F 
ATOM     75  F   UNL A   1      35.903  29.559  30.713  1.00  0.00    -0.200 F 
ENDBRANCH  51  65
BRANCH  52  76
ATOM     76  C   UNL A   1      49.007  26.904  26.264  1.00  0.00     0.064 A 
ATOM     77  C   UNL A   1      50.039  26.460  27.096  1.00  0.00     0.173 A 
ATOM     78  C   UNL A   1      49.271  27.015  24.887  1.00  0.00     0.173 A 
ATOM     79  F   UNL A   1      49.834  26.354  28.416  1.00  0.00    -0.203 F 
ATOM     80  C   UNL A   1      51.290  26.144  26.575  1.00  0.00     0.198 A 
ATOM     81  C   UNL A   1      50.511  26.664  24.364  1.00  0.00     0.198 A 
ATOM     82  F   UNL A   1      48.311  27.430  24.048  1.00  0.00    -0.203 F 
ATOM     83  F   UNL A   1      52.273  25.752  27.396  1.00  0.00    -0.200 F 
ATOM     84  C   UNL A   1      51.522  26.234  25.209  1.00  0.00     0.200 A 
ATOM     85  F   UNL A   1      50.721  26.730  23.042  1.00  0.00    -0.200 F 
ATOM     86  F   UNL A   1      52.720  25.910  24.708  1.00  0.00    -0.200 F 
ENDBRANCH  52  76
BRANCH  64  87
ATOM     87  C   UNL A   1      45.739  32.746  28.258  1.00  0.00     0.064 A 
ATOM     88  C   UNL A   1      45.492  33.645  27.211  1.00  0.00     0.173 A 
ATOM     89  C   UNL A   1      46.376  33.235  29.410  1.00  0.00     0.173 A 
ATOM     90  F   UNL A   1      44.890  33.226  26.087  1.00  0.00    -0.203 F 
ATOM     91  C   UNL A   1      45.905  34.970  27.297  1.00  0.00     0.198 A 
ATOM     92  C   UNL A   1      46.750  34.570  29.508  1.00  0.00     0.198 A 
ATOM     93  F   UNL A   1      46.622  32.418  30.446  1.00  0.00    -0.203 F 
ATOM     94  F   UNL A   1      45.716  35.797  26.260  1.00  0.00    -0.200 F 
ATOM     95  C   UNL A   1      46.527  35.433  28.448  1.00  0.00     0.200 A 
ATOM     96  F   UNL A   1      47.330  35.019  30.630  1.00  0.00    -0.200 F 
ATOM     97  F   UNL A   1      46.917  36.712  28.531  1.00  0.00    -0.200 F 
ENDBRANCH  64  87
ENDBRANCH  38  39
ENDBRANCH  31  33
ENDBRANCH  30  31
ENDBRANCH  29  30
ENDBRANCH  28  29
ENDBRANCH  27  28
ENDBRANCH   1  27
TORSDOF 18
ENDMDL
MODEL 2
REMARK VINA RESULT:     -11.3      4.738     10.653
REMARK SMILES C[C@H](NC(=O)OC(C)(C)C)C(=O)N[C@@H](C)C(=O)N1CCC[C@H]1C(=O)OCCOC(=O)c1ccc(-c2c3nc(c(-c4c(F)c(F)c(F)c(F)c4F)c4ccc([nH]4)c(-c4c(F)c(F)c(F)c(F)c4F)c4nc(c(-c5c(F)c(F)c(F)c(F)c5F)c5ccc2[nH]5)C=C4)C=C3)cc1
REMARK SMILES IDX 23 1 24 2 22 3 18 4 19 5 20 6 21 7 16 8 17 9 14 10 15 11
REMARK SMILES IDX 13 12 11 13 12 14 2 16 1 17 3 18 4 19 5 21 6 22 7 23 8 24
REMARK SMILES IDX 9 25 10 26 25 27 26 28 27 29 28 30 29 31 30 32 31 33 32 34
REMARK SMILES IDX 93 35 33 36 92 37 34 38 35 39 36 40 86 41 37 42 91 43 85 44
REMARK SMILES IDX 87 45 38 46 90 47 84 48 83 49 39 51 71 52 51 53 70 54 52 55
REMARK SMILES IDX 55 56 69 57 88 58 53 59 54 60 68 62 89 63 56 64 40 65 41 66
REMARK SMILES IDX 49 67 42 68 43 69 47 70 50 71 44 72 45 73 48 74 46 75 72 76
REMARK SMILES IDX 73 77 81 78 74 79 75 80 79 81 82 82 76 83 77 84 80 85 78 86
REMARK SMILES IDX 57 87 58 88 66 89 59 90 60 91 64 92 67 93 61 94 62 95 65 96
REMARK SMILES IDX 63 97
REMARK H PARENT 13 15 3 20 87 50 55 61
REMARK Flexibility Score: inf
ROOT
ATOM      1  C   UNL A   1      31.978  28.827  26.271  1.00  0.00     0.328 C 
ATOM      2  O   UNL A   1      31.418  28.380  27.271  1.00  0.00    -0.250 OA
ENDROOT
BRANCH   1   3
ATOM      3  C   UNL A   1      32.388  27.902  25.118  1.00  0.00     0.195 C 
ATOM      4  N   UNL A   1      31.495  27.577  23.986  1.00  0.00    -0.327 N 
ATOM      5  C   UNL A   1      32.046  28.089  22.753  1.00  0.00     0.120 C 
ATOM      6  C   UNL A   1      33.540  28.090  23.014  1.00  0.00     0.024 C 
ATOM      7  C   UNL A   1      33.630  28.525  24.465  1.00  0.00     0.039 C 
BRANCH   4   8
ATOM      8  C   UNL A   1      30.528  26.613  24.173  1.00  0.00     0.245 C 
ATOM      9  O   UNL A   1      29.366  26.989  24.369  1.00  0.00    -0.272 OA
BRANCH   8  10
ATOM     10  C   UNL A   1      30.845  25.122  24.486  1.00  0.00     0.168 C 
ATOM     11  C   UNL A   1      30.473  24.315  23.236  1.00  0.00     0.041 C 
BRANCH  10  12
ATOM     12  N   UNL A   1      30.320  24.475  25.681  1.00  0.00    -0.343 N 
ATOM     13  C   UNL A   1      30.902  23.624  26.568  1.00  0.00     0.243 C 
ATOM     14  O   UNL A   1      30.185  23.240  27.501  1.00  0.00    -0.273 OA
ATOM     15  H   UNL A   1      29.381  24.692  25.882  1.00  0.00     0.164 HD
BRANCH  13  16
ATOM     16  C   UNL A   1      32.380  23.186  26.511  1.00  0.00     0.171 C 
ATOM     17  C   UNL A   1      32.789  22.498  27.812  1.00  0.00     0.042 C 
BRANCH  16  18
ATOM     18  N   UNL A   1      33.249  24.227  25.958  1.00  0.00    -0.310 N 
ATOM     19  C   UNL A   1      34.226  24.135  25.027  1.00  0.00     0.408 C 
ATOM     20  H   UNL A   1      33.097  25.131  26.316  1.00  0.00     0.167 HD
ATOM     21  O   UNL A   1      34.889  25.109  24.688  1.00  0.00    -0.225 OA
BRANCH  19  22
ATOM     22  O   UNL A   1      34.393  22.876  24.592  1.00  0.00    -0.444 OA
BRANCH  22  23
ATOM     23  C   UNL A   1      35.665  22.222  24.698  1.00  0.00     0.106 C 
ATOM     24  C   UNL A   1      35.455  20.719  24.866  1.00  0.00     0.056 C 
ATOM     25  C   UNL A   1      36.531  22.649  23.512  1.00  0.00     0.056 C 
ATOM     26  C   UNL A   1      36.290  22.758  25.989  1.00  0.00     0.056 C 
ENDBRANCH  22  23
ENDBRANCH  19  22
ENDBRANCH  16  18
ENDBRANCH  13  16
ENDBRANCH  10  12
ENDBRANCH   8  10
ENDBRANCH   4   8
ENDBRANCH   1   3
BRANCH   1  27
ATOM     27  O   UNL A   1      32.405  30.110  26.143  1.00  0.00    -0.461 OA
BRANCH  27  28
ATOM     28  C   UNL A   1      31.351  31.086  25.984  1.00  0.00     0.274 C 
BRANCH  28  29
ATOM     29  C   UNL A   1      31.532  32.250  26.955  1.00  0.00     0.275 C 
BRANCH  29  30
ATOM     30  O   UNL A   1      32.807  32.889  26.733  1.00  0.00    -0.458 OA
BRANCH  30  31
ATOM     31  C   UNL A   1      33.384  33.373  27.857  1.00  0.00     0.338 C 
ATOM     32  O   UNL A   1      32.963  34.291  28.545  1.00  0.00    -0.246 OA
BRANCH  31  33
ATOM     33  C   UNL A   1      34.656  32.684  28.162  1.00  0.00     0.060 A 
ATOM     34  C   UNL A   1      34.671  31.326  28.466  1.00  0.00     0.016 A 
ATOM     35  C   UNL A   1      35.790  33.452  28.415  1.00  0.00     0.016 A 
ATOM     36  C   UNL A   1      35.740  30.784  29.187  1.00  0.00     0.010 A 
ATOM     37  C   UNL A   1      36.914  32.873  29.024  1.00  0.00     0.010 A 
ATOM     38  C   UNL A   1      36.881  31.551  29.493  1.00  0.00    -0.014 A 
BRANCH  38  39
ATOM     39  C   UNL A   1      38.014  30.939  30.258  1.00  0.00     0.031 A 
ATOM     40  C   UNL A   1      38.869  29.792  29.753  1.00  0.00     0.074 A 
ATOM     41  C   UNL A   1      38.309  31.435  31.471  1.00  0.00     0.049 A 
ATOM     42  N   UNL A   1      40.080  29.431  30.123  1.00  0.00    -0.248 NA
ATOM     43  C   UNL A   1      38.332  28.959  28.676  1.00  0.00     0.031 C 
ATOM     44  C   UNL A   1      37.591  32.511  32.154  1.00  0.00     0.029 A 
ATOM     45  N   UNL A   1      39.271  31.049  32.366  1.00  0.00    -0.354 N 
ATOM     46  C   UNL A   1      40.496  28.478  29.195  1.00  0.00     0.074 A 
ATOM     47  C   UNL A   1      39.390  28.248  28.309  1.00  0.00     0.031 C 
ATOM     48  C   UNL A   1      38.105  32.663  33.381  1.00  0.00     0.029 A 
ATOM     49  C   UNL A   1      39.148  31.663  33.580  1.00  0.00     0.049 A 
ATOM     50  H   UNL A   1      39.978  30.396  32.155  1.00  0.00     0.167 HD
ATOM     51  C   UNL A   1      41.656  27.785  29.109  1.00  0.00     0.037 A 
ATOM     52  C   UNL A   1      39.762  31.397  34.746  1.00  0.00     0.037 A 
ATOM     53  C   UNL A   1      42.525  27.596  30.234  1.00  0.00     0.049 A 
ATOM     54  C   UNL A   1      40.827  30.339  34.792  1.00  0.00     0.074 A 
ATOM     55  C   UNL A   1      43.590  26.724  30.372  1.00  0.00     0.029 A 
ATOM     56  N   UNL A   1      42.303  28.167  31.475  1.00  0.00    -0.354 N 
ATOM     57  N   UNL A   1      41.328  29.618  33.818  1.00  0.00    -0.248 NA
ATOM     58  C   UNL A   1      41.416  30.066  36.108  1.00  0.00     0.031 C 
ATOM     59  C   UNL A   1      43.905  26.655  31.735  1.00  0.00     0.029 A 
ATOM     60  C   UNL A   1      43.126  27.577  32.416  1.00  0.00     0.049 A 
ATOM     61  H   UNL A   1      41.656  28.886  31.661  1.00  0.00     0.167 HD
ATOM     62  C   UNL A   1      42.310  28.824  34.398  1.00  0.00     0.074 A 
ATOM     63  C   UNL A   1      42.339  29.165  35.805  1.00  0.00     0.031 C 
ATOM     64  C   UNL A   1      43.122  27.906  33.816  1.00  0.00     0.037 A 
BRANCH  51  65
ATOM     65  C   UNL A   1      41.939  27.025  27.841  1.00  0.00     0.064 A 
ATOM     66  C   UNL A   1      42.706  27.592  26.810  1.00  0.00     0.173 A 
ATOM     67  C   UNL A   1      41.489  25.708  27.671  1.00  0.00     0.173 A 
ATOM     68  F   UNL A   1      43.176  28.842  26.929  1.00  0.00    -0.203 F 
ATOM     69  C   UNL A   1      43.005  26.868  25.654  1.00  0.00     0.198 A 
ATOM     70  C   UNL A   1      41.797  24.984  26.521  1.00  0.00     0.198 A 
ATOM     71  F   UNL A   1      40.752  25.119  28.624  1.00  0.00    -0.203 F 
ATOM     72  F   UNL A   1      43.740  27.423  24.680  1.00  0.00    -0.200 F 
ATOM     73  C   UNL A   1      42.553  25.564  25.513  1.00  0.00     0.200 A 
ATOM     74  F   UNL A   1      41.367  23.722  26.391  1.00  0.00    -0.200 F 
ATOM     75  F   UNL A   1      42.845  24.863  24.408  1.00  0.00    -0.200 F 
ENDBRANCH  51  65
BRANCH  52  76
ATOM     76  C   UNL A   1      39.318  32.121  35.959  1.00  0.00     0.064 A 
ATOM     77  C   UNL A   1      39.821  33.389  36.268  1.00  0.00     0.173 A 
ATOM     78  C   UNL A   1      38.343  31.573  36.809  1.00  0.00     0.173 A 
ATOM     79  F   UNL A   1      40.763  33.943  35.492  1.00  0.00    -0.203 F 
ATOM     80  C   UNL A   1      39.371  34.081  37.389  1.00  0.00     0.198 A 
ATOM     81  C   UNL A   1      37.868  32.281  37.908  1.00  0.00     0.198 A 
ATOM     82  F   UNL A   1      37.825  30.363  36.550  1.00  0.00    -0.203 F 
ATOM     83  F   UNL A   1      39.891  35.280  37.684  1.00  0.00    -0.200 F 
ATOM     84  C   UNL A   1      38.388  33.532  38.201  1.00  0.00     0.200 A 
ATOM     85  F   UNL A   1      36.902  31.757  38.674  1.00  0.00    -0.200 F 
ATOM     86  F   UNL A   1      37.942  34.210  39.267  1.00  0.00    -0.200 F 
ENDBRANCH  52  76
BRANCH  64  87
ATOM     87  C   UNL A   1      44.122  27.212  34.692  1.00  0.00     0.064 A 
ATOM     88  C   UNL A   1      45.391  27.752  34.944  1.00  0.00     0.173 A 
ATOM     89  C   UNL A   1      43.784  26.003  35.322  1.00  0.00     0.173 A 
ATOM     90  F   UNL A   1      45.764  28.903  34.362  1.00  0.00    -0.203 F 
ATOM     91  C   UNL A   1      46.300  27.087  35.759  1.00  0.00     0.198 A 
ATOM     92  C   UNL A   1      44.681  25.363  36.169  1.00  0.00     0.198 A 
ATOM     93  F   UNL A   1      42.576  25.452  35.126  1.00  0.00    -0.203 F 
ATOM     94  F   UNL A   1      47.530  27.589  35.935  1.00  0.00    -0.200 F 
ATOM     95  C   UNL A   1      45.942  25.897  36.377  1.00  0.00     0.200 A 
ATOM     96  F   UNL A   1      44.323  24.225  36.782  1.00  0.00    -0.200 F 
ATOM     97  F   UNL A   1      46.817  25.262  37.167  1.00  0.00    -0.200 F 
ENDBRANCH  64  87
ENDBRANCH  38  39
ENDBRANCH  31  33
ENDBRANCH  30  31
ENDBRANCH  29  30
ENDBRANCH  28  29
ENDBRANCH  27  28
ENDBRANCH   1  27
TORSDOF 18
ENDMDL
MODEL 3
REMARK VINA RESULT:     -11.2      1.504      7.388
REMARK SMILES C[C@H](NC(=O)OC(C)(C)C)C(=O)N[C@@H](C)C(=O)N1CCC[C@H]1C(=O)OCCOC(=O)c1ccc(-c2c3nc(c(-c4c(F)c(F)c(F)c(F)c4F)c4ccc([nH]4)c(-c4c(F)c(F)c(F)c(F)c4F)c4nc(c(-c5c(F)c(F)c(F)c(F)c5F)c5ccc2[nH]5)C=C4)C=C3)cc1
REMARK SMILES IDX 23 1 24 2 22 3 18 4 19 5 20 6 21 7 16 8 17 9 14 10 15 11
REMARK SMILES IDX 13 12 11 13 12 14 2 16 1 17 3 18 4 19 5 21 6 22 7 23 8 24
REMARK SMILES IDX 9 25 10 26 25 27 26 28 27 29 28 30 29 31 30 32 31 33 32 34
REMARK SMILES IDX 93 35 33 36 92 37 34 38 35 39 36 40 86 41 37 42 91 43 85 44
REMARK SMILES IDX 87 45 38 46 90 47 84 48 83 49 39 51 71 52 51 53 70 54 52 55
REMARK SMILES IDX 55 56 69 57 88 58 53 59 54 60 68 62 89 63 56 64 40 65 41 66
REMARK SMILES IDX 49 67 42 68 43 69 47 70 50 71 44 72 45 73 48 74 46 75 72 76
REMARK SMILES IDX 73 77 81 78 74 79 75 80 79 81 82 82 76 83 77 84 80 85 78 86
REMARK SMILES IDX 57 87 58 88 66 89 59 90 60 91 64 92 67 93 61 94 62 95 65 96
REMARK SMILES IDX 63 97
REMARK H PARENT 13 15 3 20 87 50 55 61
REMARK Flexibility Score: inf
ROOT
ATOM      1  C   UNL A   1      35.558  21.765  24.334  1.00  0.00     0.328 C 
ATOM      2  O   UNL A   1      35.927  22.870  23.940  1.00  0.00    -0.250 OA
ENDROOT
BRANCH   1   3
ATOM      3  C   UNL A   1      34.072  21.474  24.584  1.00  0.00     0.195 C 
ATOM      4  N   UNL A   1      33.049  21.519  23.518  1.00  0.00    -0.327 N 
ATOM      5  C   UNL A   1      32.482  20.206  23.315  1.00  0.00     0.120 C 
ATOM      6  C   UNL A   1      32.631  19.549  24.674  1.00  0.00     0.024 C 
ATOM      7  C   UNL A   1      33.985  20.047  25.145  1.00  0.00     0.039 C 
BRANCH   4   8
ATOM      8  C   UNL A   1      32.556  22.748  23.139  1.00  0.00     0.245 C 
ATOM      9  O   UNL A   1      33.340  23.550  22.617  1.00  0.00    -0.272 OA
BRANCH   8  10
ATOM     10  C   UNL A   1      31.188  23.315  23.619  1.00  0.00     0.168 C 
ATOM     11  C   UNL A   1      31.137  24.784  23.182  1.00  0.00     0.041 C 
BRANCH  10  12
ATOM     12  N   UNL A   1      30.764  23.184  25.006  1.00  0.00    -0.343 N 
ATOM     13  C   UNL A   1      31.117  23.880  26.120  1.00  0.00     0.243 C 
ATOM     14  O   UNL A   1      30.573  23.528  27.174  1.00  0.00    -0.273 OA
ATOM     15  H   UNL A   1      30.108  22.467  25.165  1.00  0.00     0.164 HD
BRANCH  13  16
ATOM     16  C   UNL A   1      32.074  25.089  26.121  1.00  0.00     0.171 C 
ATOM     17  C   UNL A   1      33.529  24.625  26.126  1.00  0.00     0.042 C 
BRANCH  16  18
ATOM     18  N   UNL A   1      31.661  26.127  27.068  1.00  0.00    -0.310 N 
ATOM     19  C   UNL A   1      31.495  27.457  26.879  1.00  0.00     0.408 C 
ATOM     20  H   UNL A   1      31.473  25.809  27.981  1.00  0.00     0.167 HD
ATOM     21  O   UNL A   1      31.167  28.203  27.793  1.00  0.00    -0.225 OA
BRANCH  19  22
ATOM     22  O   UNL A   1      31.782  27.827  25.621  1.00  0.00    -0.444 OA
BRANCH  22  23
ATOM     23  C   UNL A   1      32.731  28.870  25.358  1.00  0.00     0.106 C 
ATOM     24  C   UNL A   1      33.133  28.836  23.886  1.00  0.00     0.056 C 
ATOM     25  C   UNL A   1      32.152  30.192  25.865  1.00  0.00     0.056 C 
ATOM     26  C   UNL A   1      33.965  28.514  26.192  1.00  0.00     0.056 C 
ENDBRANCH  22  23
ENDBRANCH  19  22
ENDBRANCH  16  18
ENDBRANCH  13  16
ENDBRANCH  10  12
ENDBRANCH   8  10
ENDBRANCH   4   8
ENDBRANCH   1   3
BRANCH   1  27
ATOM     27  O   UNL A   1      36.399  20.767  24.710  1.00  0.00    -0.461 OA
BRANCH  27  28
ATOM     28  C   UNL A   1      37.725  21.203  25.084  1.00  0.00     0.274 C 
BRANCH  28  29
ATOM     29  C   UNL A   1      38.695  20.025  25.129  1.00  0.00     0.275 C 
BRANCH  29  30
ATOM     30  O   UNL A   1      39.493  20.083  26.330  1.00  0.00    -0.458 OA
BRANCH  30  31
ATOM     31  C   UNL A   1      40.812  19.857  26.128  1.00  0.00     0.338 C 
ATOM     32  O   UNL A   1      41.313  18.808  25.752  1.00  0.00    -0.246 OA
BRANCH  31  33
ATOM     33  C   UNL A   1      41.631  21.041  26.466  1.00  0.00     0.060 A 
ATOM     34  C   UNL A   1      41.651  21.542  27.764  1.00  0.00     0.016 A 
ATOM     35  C   UNL A   1      42.157  21.809  25.430  1.00  0.00     0.016 A 
ATOM     36  C   UNL A   1      42.020  22.872  27.993  1.00  0.00     0.010 A 
ATOM     37  C   UNL A   1      42.646  23.100  25.685  1.00  0.00     0.010 A 
ATOM     38  C   UNL A   1      42.514  23.684  26.954  1.00  0.00    -0.014 A 
BRANCH  38  39
ATOM     39  C   UNL A   1      42.910  25.101  27.233  1.00  0.00     0.031 A 
ATOM     40  C   UNL A   1      44.326  25.635  27.115  1.00  0.00     0.074 A 
ATOM     41  C   UNL A   1      41.957  25.971  27.606  1.00  0.00     0.049 A 
ATOM     42  N   UNL A   1      44.737  26.875  26.954  1.00  0.00    -0.248 NA
ATOM     43  C   UNL A   1      45.427  24.671  27.142  1.00  0.00     0.031 C 
ATOM     44  C   UNL A   1      40.544  25.656  27.812  1.00  0.00     0.029 A 
ATOM     45  N   UNL A   1      42.059  27.298  27.930  1.00  0.00    -0.354 N 
ATOM     46  C   UNL A   1      46.098  26.793  26.669  1.00  0.00     0.074 A 
ATOM     47  C   UNL A   1      46.463  25.409  26.769  1.00  0.00     0.031 C 
ATOM     48  C   UNL A   1      39.921  26.746  28.278  1.00  0.00     0.029 A 
ATOM     49  C   UNL A   1      40.903  27.811  28.448  1.00  0.00     0.049 A 
ATOM     50  H   UNL A   1      42.881  27.826  27.803  1.00  0.00     0.167 HD
ATOM     51  C   UNL A   1      47.003  27.771  26.420  1.00  0.00     0.037 A 
ATOM     52  C   UNL A   1      40.681  28.988  29.057  1.00  0.00     0.037 A 
ATOM     53  C   UNL A   1      46.802  29.129  26.831  1.00  0.00     0.049 A 
ATOM     54  C   UNL A   1      41.794  29.992  29.147  1.00  0.00     0.074 A 
ATOM     55  C   UNL A   1      47.715  30.167  26.877  1.00  0.00     0.029 A 
ATOM     56  N   UNL A   1      45.643  29.579  27.439  1.00  0.00    -0.354 N 
ATOM     57  N   UNL A   1      43.009  29.934  28.659  1.00  0.00    -0.248 NA
ATOM     58  C   UNL A   1      41.495  31.232  29.871  1.00  0.00     0.031 C 
ATOM     59  C   UNL A   1      47.156  31.188  27.655  1.00  0.00     0.029 A 
ATOM     60  C   UNL A   1      45.854  30.834  27.978  1.00  0.00     0.049 A 
ATOM     61  H   UNL A   1      44.795  29.081  27.483  1.00  0.00     0.167 HD
ATOM     62  C   UNL A   1      43.613  31.140  28.993  1.00  0.00     0.074 A 
ATOM     63  C   UNL A   1      42.622  31.912  29.714  1.00  0.00     0.031 C 
ATOM     64  C   UNL A   1      44.868  31.575  28.718  1.00  0.00     0.037 A 
BRANCH  51  65
ATOM     65  C   UNL A   1      48.346  27.373  25.869  1.00  0.00     0.064 A 
ATOM     66  C   UNL A   1      48.581  27.333  24.484  1.00  0.00     0.173 A 
ATOM     67  C   UNL A   1      49.420  27.079  26.721  1.00  0.00     0.173 A 
ATOM     68  F   UNL A   1      47.593  27.623  23.625  1.00  0.00    -0.203 F 
ATOM     69  C   UNL A   1      49.841  27.009  23.977  1.00  0.00     0.198 A 
ATOM     70  C   UNL A   1      50.679  26.765  26.212  1.00  0.00     0.198 A 
ATOM     71  F   UNL A   1      49.250  27.101  28.051  1.00  0.00    -0.203 F 
ATOM     72  F   UNL A   1      50.049  26.979  22.654  1.00  0.00    -0.200 F 
ATOM     73  C   UNL A   1      50.888  26.728  24.842  1.00  0.00     0.200 A 
ATOM     74  F   UNL A   1      51.691  26.503  27.050  1.00  0.00    -0.200 F 
ATOM     75  F   UNL A   1      52.101  26.423  24.358  1.00  0.00    -0.200 F 
ENDBRANCH  51  65
BRANCH  52  76
ATOM     76  C   UNL A   1      39.355  29.225  29.672  1.00  0.00     0.064 A 
ATOM     77  C   UNL A   1      39.123  28.944  31.022  1.00  0.00     0.173 A 
ATOM     78  C   UNL A   1      38.304  29.785  28.924  1.00  0.00     0.173 A 
ATOM     79  F   UNL A   1      40.093  28.396  31.767  1.00  0.00    -0.203 F 
ATOM     80  C   UNL A   1      37.885  29.206  31.603  1.00  0.00     0.198 A 
ATOM     81  C   UNL A   1      37.080  30.080  29.516  1.00  0.00     0.198 A 
ATOM     82  F   UNL A   1      38.481  30.079  27.628  1.00  0.00    -0.203 F 
ATOM     83  F   UNL A   1      37.675  28.897  32.889  1.00  0.00    -0.200 F 
ATOM     84  C   UNL A   1      36.870  29.783  30.853  1.00  0.00     0.200 A 
ATOM     85  F   UNL A   1      36.112  30.660  28.794  1.00  0.00    -0.200 F 
ATOM     86  F   UNL A   1      35.687  30.053  31.420  1.00  0.00    -0.200 F 
ENDBRANCH  52  76
BRANCH  64  87
ATOM     87  C   UNL A   1      45.242  32.951  29.183  1.00  0.00     0.064 A 
ATOM     88  C   UNL A   1      45.018  34.088  28.395  1.00  0.00     0.173 A 
ATOM     89  C   UNL A   1      45.798  33.134  30.459  1.00  0.00     0.173 A 
ATOM     90  F   UNL A   1      44.493  33.967  27.165  1.00  0.00    -0.203 F 
ATOM     91  C   UNL A   1      45.376  35.353  28.849  1.00  0.00     0.198 A 
ATOM     92  C   UNL A   1      46.116  34.404  30.926  1.00  0.00     0.198 A 
ATOM     93  F   UNL A   1      46.018  32.079  31.259  1.00  0.00    -0.203 F 
ATOM     94  F   UNL A   1      45.212  36.420  28.054  1.00  0.00    -0.200 F 
ATOM     95  C   UNL A   1      45.917  35.510  30.117  1.00  0.00     0.200 A 
ATOM     96  F   UNL A   1      46.618  34.554  32.160  1.00  0.00    -0.200 F 
ATOM     97  F   UNL A   1      46.255  36.730  30.556  1.00  0.00    -0.200 F 
ENDBRANCH  64  87
ENDBRANCH  38  39
ENDBRANCH  31  33
ENDBRANCH  30  31
ENDBRANCH  29  30
ENDBRANCH  28  29
ENDBRANCH  27  28
ENDBRANCH   1  27
TORSDOF 18
ENDMDL
