MODEL 1
REMARK VINA RESULT:     -10.8      0.000      0.000
REMARK SMILES COC(=O)CCS(=O)(=O)Nc1ccc(C(=O)OCCOC(=O)c2ccc(-c3c4nc(c(-c5c(F)c(F)c(F)c(F)c5F)c5ccc([nH]5)c(-c5c(F)c(F)c(F)c(F)c5F)c5nc(c(-c6c(F)c(F)c(F)c(F)c6F)c6ccc3[nH]6)C=C5)C=C4)cc2)cc1
REMARK SMILES IDX 15 1 16 2 14 3 11 4 12 5 87 6 13 7 86 8 10 9 7 11 8 12 9 13
REMARK SMILES IDX 6 14 5 15 3 16 4 17 2 18 1 19 17 20 18 21 19 22 20 23 21 24
REMARK SMILES IDX 22 25 23 26 24 27 85 28 25 29 84 30 26 31 27 32 28 33 78 34
REMARK SMILES IDX 29 35 83 36 77 37 79 38 30 39 82 40 76 41 75 42 31 44 63 45
REMARK SMILES IDX 43 46 62 47 44 48 47 49 61 50 80 51 45 52 46 53 60 55 81 56
REMARK SMILES IDX 48 57 32 58 33 59 41 60 34 61 35 62 39 63 42 64 36 65 37 66
REMARK SMILES IDX 40 67 38 68 64 69 65 70 73 71 66 72 67 73 71 74 74 75 68 76
REMARK SMILES IDX 69 77 72 78 70 79 49 80 50 81 58 82 51 83 52 84 56 85 59 86
REMARK SMILES IDX 53 87 54 88 57 89 55 90
REMARK H PARENT 10 10 79 43 47 54
REMARK Flexibility Score: inf
ROOT
ATOM      1  C   UNL A   1      32.370  27.211  25.399  1.00  0.00     0.338 C 
ATOM      2  O   UNL A   1      32.952  27.723  24.453  1.00  0.00    -0.246 OA
ENDROOT
BRANCH   1   3
ATOM      3  C   UNL A   1      32.663  25.850  25.893  1.00  0.00     0.060 A 
ATOM      4  C   UNL A   1      33.264  23.191  26.570  1.00  0.00     0.049 A 
ATOM      5  C   UNL A   1      31.988  23.700  26.797  1.00  0.00     0.027 A 
ATOM      6  C   UNL A   1      34.254  24.068  26.130  1.00  0.00     0.027 A 
ATOM      7  C   UNL A   1      31.702  25.036  26.502  1.00  0.00     0.018 A 
ATOM      8  C   UNL A   1      33.954  25.373  25.748  1.00  0.00     0.018 A 
BRANCH   4   9
ATOM      9  N   UNL A   1      33.369  21.780  26.462  1.00  0.00    -0.284 N 
ATOM     10  H   UNL A   1      33.752  21.327  27.248  1.00  0.00     0.180 HD
BRANCH   9  11
ATOM     11  S   UNL A   1      32.949  20.789  25.217  1.00  0.00     0.233 S 
ATOM     12  O   UNL A   1      31.501  20.805  25.195  1.00  0.00    -0.207 OA
ATOM     13  O   UNL A   1      33.661  19.541  25.390  1.00  0.00    -0.207 OA
BRANCH  11  14
ATOM     14  C   UNL A   1      33.500  21.509  23.686  1.00  0.00     0.171 C 
BRANCH  14  15
ATOM     15  C   UNL A   1      32.540  22.396  22.916  1.00  0.00     0.141 C 
BRANCH  15  16
ATOM     16  C   UNL A   1      32.930  23.828  22.648  1.00  0.00     0.306 C 
ATOM     17  O   UNL A   1      34.067  24.168  22.347  1.00  0.00    -0.252 OA
BRANCH  16  18
ATOM     18  O   UNL A   1      31.868  24.665  22.762  1.00  0.00    -0.469 OA
ATOM     19  C   UNL A   1      30.651  24.033  23.175  1.00  0.00     0.282 C 
ENDBRANCH  16  18
ENDBRANCH  15  16
ENDBRANCH  14  15
ENDBRANCH  11  14
ENDBRANCH   9  11
ENDBRANCH   4   9
ENDBRANCH   1   3
BRANCH   1  20
ATOM     20  O   UNL A   1      31.407  27.767  26.176  1.00  0.00    -0.458 OA
BRANCH  20  21
ATOM     21  C   UNL A   1      31.848  28.626  27.247  1.00  0.00     0.275 C 
BRANCH  21  22
ATOM     22  C   UNL A   1      31.782  30.110  26.877  1.00  0.00     0.275 C 
BRANCH  22  23
ATOM     23  O   UNL A   1      33.083  30.592  26.501  1.00  0.00    -0.458 OA
BRANCH  23  24
ATOM     24  C   UNL A   1      33.544  31.629  27.237  1.00  0.00     0.338 C 
ATOM     25  O   UNL A   1      32.925  32.601  27.634  1.00  0.00    -0.246 OA
BRANCH  24  26
ATOM     26  C   UNL A   1      34.912  31.347  27.687  1.00  0.00     0.060 A 
ATOM     27  C   UNL A   1      35.180  30.032  28.023  1.00  0.00     0.016 A 
ATOM     28  C   UNL A   1      35.831  32.339  28.000  1.00  0.00     0.016 A 
ATOM     29  C   UNL A   1      36.278  29.701  28.798  1.00  0.00     0.010 A 
ATOM     30  C   UNL A   1      37.023  31.983  28.653  1.00  0.00     0.010 A 
ATOM     31  C   UNL A   1      37.241  30.663  29.102  1.00  0.00    -0.014 A 
BRANCH  31  32
ATOM     32  C   UNL A   1      38.424  30.275  29.925  1.00  0.00     0.031 A 
ATOM     33  C   UNL A   1      39.491  29.387  29.342  1.00  0.00     0.074 A 
ATOM     34  C   UNL A   1      38.583  30.763  31.175  1.00  0.00     0.049 A 
ATOM     35  N   UNL A   1      40.483  28.777  29.939  1.00  0.00    -0.248 NA
ATOM     36  C   UNL A   1      39.426  29.140  27.892  1.00  0.00     0.031 C 
ATOM     37  C   UNL A   1      37.678  31.703  31.844  1.00  0.00     0.029 A 
ATOM     38  N   UNL A   1      39.575  30.555  32.104  1.00  0.00    -0.354 N 
ATOM     39  C   UNL A   1      41.107  28.016  28.960  1.00  0.00     0.074 A 
ATOM     40  C   UNL A   1      40.386  28.243  27.726  1.00  0.00     0.031 C 
ATOM     41  C   UNL A   1      38.182  32.034  33.039  1.00  0.00     0.029 A 
ATOM     42  C   UNL A   1      39.367  31.227  33.286  1.00  0.00     0.049 A 
ATOM     43  H   UNL A   1      40.356  29.981  31.939  1.00  0.00     0.167 HD
ATOM     44  C   UNL A   1      42.180  27.197  29.086  1.00  0.00     0.037 A 
ATOM     45  C   UNL A   1      40.011  31.152  34.467  1.00  0.00     0.037 A 
ATOM     46  C   UNL A   1      42.923  27.031  30.309  1.00  0.00     0.049 A 
ATOM     47  C   UNL A   1      41.157  30.191  34.602  1.00  0.00     0.074 A 
ATOM     48  C   UNL A   1      44.029  26.235  30.546  1.00  0.00     0.029 A 
ATOM     49  N   UNL A   1      42.642  27.688  31.500  1.00  0.00    -0.354 N 
ATOM     50  N   UNL A   1      41.691  29.410  33.695  1.00  0.00    -0.248 NA
ATOM     51  C   UNL A   1      41.773  30.082  35.930  1.00  0.00     0.031 C 
ATOM     52  C   UNL A   1      44.383  26.367  31.894  1.00  0.00     0.029 A 
ATOM     53  C   UNL A   1      43.539  27.296  32.481  1.00  0.00     0.049 A 
ATOM     54  H   UNL A   1      41.913  28.337  31.628  1.00  0.00     0.167 HD
ATOM     55  C   UNL A   1      42.713  28.727  34.335  1.00  0.00     0.074 A 
ATOM     56  C   UNL A   1      42.740  29.204  35.703  1.00  0.00     0.031 C 
ATOM     57  C   UNL A   1      43.552  27.787  33.837  1.00  0.00     0.037 A 
BRANCH  44  58
ATOM     58  C   UNL A   1      42.574  26.373  27.893  1.00  0.00     0.064 A 
ATOM     59  C   UNL A   1      43.562  26.783  26.986  1.00  0.00     0.173 A 
ATOM     60  C   UNL A   1      41.955  25.132  27.666  1.00  0.00     0.173 A 
ATOM     61  F   UNL A   1      44.175  27.966  27.144  1.00  0.00    -0.203 F 
ATOM     62  C   UNL A   1      43.890  26.001  25.880  1.00  0.00     0.198 A 
ATOM     63  C   UNL A   1      42.311  24.336  26.579  1.00  0.00     0.198 A 
ATOM     64  F   UNL A   1      41.006  24.686  28.503  1.00  0.00    -0.203 F 
ATOM     65  F   UNL A   1      44.795  26.441  24.994  1.00  0.00    -0.200 F 
ATOM     66  C   UNL A   1      43.270  24.776  25.682  1.00  0.00     0.200 A 
ATOM     67  F   UNL A   1      41.719  23.148  26.399  1.00  0.00    -0.200 F 
ATOM     68  F   UNL A   1      43.590  24.024  24.619  1.00  0.00    -0.200 F 
ENDBRANCH  44  58
BRANCH  45  69
ATOM     69  C   UNL A   1      39.532  31.953  35.628  1.00  0.00     0.064 A 
ATOM     70  C   UNL A   1      40.046  33.229  35.890  1.00  0.00     0.173 A 
ATOM     71  C   UNL A   1      38.541  31.461  36.494  1.00  0.00     0.173 A 
ATOM     72  F   UNL A   1      41.014  33.735  35.112  1.00  0.00    -0.203 F 
ATOM     73  C   UNL A   1      39.595  33.979  36.976  1.00  0.00     0.198 A 
ATOM     74  C   UNL A   1      38.062  32.227  37.554  1.00  0.00     0.198 A 
ATOM     75  F   UNL A   1      38.016  30.244  36.293  1.00  0.00    -0.203 F 
ATOM     76  F   UNL A   1      40.136  35.178  37.231  1.00  0.00    -0.200 F 
ATOM     77  C   UNL A   1      38.595  33.483  37.800  1.00  0.00     0.200 A 
ATOM     78  F   UNL A   1      37.083  31.749  38.334  1.00  0.00    -0.200 F 
ATOM     79  F   UNL A   1      38.152  34.209  38.834  1.00  0.00    -0.200 F 
ENDBRANCH  45  69
BRANCH  57  80
ATOM     80  C   UNL A   1      44.598  27.246  34.767  1.00  0.00     0.064 A 
ATOM     81  C   UNL A   1      44.345  26.152  35.608  1.00  0.00     0.173 A 
ATOM     82  C   UNL A   1      45.881  27.817  34.796  1.00  0.00     0.173 A 
ATOM     83  F   UNL A   1      43.130  25.585  35.631  1.00  0.00    -0.203 F 
ATOM     84  C   UNL A   1      45.330  25.669  36.465  1.00  0.00     0.198 A 
ATOM     85  C   UNL A   1      46.871  27.309  35.629  1.00  0.00     0.198 A 
ATOM     86  F   UNL A   1      46.174  28.862  34.007  1.00  0.00    -0.203 F 
ATOM     87  F   UNL A   1      45.050  24.659  37.301  1.00  0.00    -0.200 F 
ATOM     88  C   UNL A   1      46.593  26.241  36.470  1.00  0.00     0.200 A 
ATOM     89  F   UNL A   1      48.096  27.853  35.620  1.00  0.00    -0.200 F 
ATOM     90  F   UNL A   1      47.541  25.770  37.290  1.00  0.00    -0.200 F 
ENDBRANCH  57  80
ENDBRANCH  31  32
ENDBRANCH  24  26
ENDBRANCH  23  24
ENDBRANCH  22  23
ENDBRANCH  21  22
ENDBRANCH  20  21
ENDBRANCH   1  20
TORSDOF 17
ENDMDL
MODEL 2
REMARK VINA RESULT:     -10.4      4.450      9.840
REMARK SMILES COC(=O)CCS(=O)(=O)Nc1ccc(C(=O)OCCOC(=O)c2ccc(-c3c4nc(c(-c5c(F)c(F)c(F)c(F)c5F)c5ccc([nH]5)c(-c5c(F)c(F)c(F)c(F)c5F)c5nc(c(-c6c(F)c(F)c(F)c(F)c6F)c6ccc3[nH]6)C=C5)C=C4)cc2)cc1
REMARK SMILES IDX 15 1 16 2 14 3 11 4 12 5 87 6 13 7 86 8 10 9 7 11 8 12 9 13
REMARK SMILES IDX 6 14 5 15 3 16 4 17 2 18 1 19 17 20 18 21 19 22 20 23 21 24
REMARK SMILES IDX 22 25 23 26 24 27 85 28 25 29 84 30 26 31 27 32 28 33 78 34
REMARK SMILES IDX 29 35 83 36 77 37 79 38 30 39 82 40 76 41 75 42 31 44 63 45
REMARK SMILES IDX 43 46 62 47 44 48 47 49 61 50 80 51 45 52 46 53 60 55 81 56
REMARK SMILES IDX 48 57 32 58 33 59 41 60 34 61 35 62 39 63 42 64 36 65 37 66
REMARK SMILES IDX 40 67 38 68 64 69 65 70 73 71 66 72 67 73 71 74 74 75 68 76
REMARK SMILES IDX 69 77 72 78 70 79 49 80 50 81 58 82 51 83 52 84 56 85 59 86
REMARK SMILES IDX 53 87 54 88 57 89 55 90
REMARK H PARENT 10 10 79 43 47 54
REMARK Flexibility Score: inf
ROOT
ATOM      1  C   UNL A   1      33.685  21.517  24.344  1.00  0.00     0.338 C 
ATOM      2  O   UNL A   1      33.099  20.551  23.876  1.00  0.00    -0.246 OA
ENDROOT
BRANCH   1   3
ATOM      3  C   UNL A   1      33.591  22.877  23.777  1.00  0.00     0.060 A 
ATOM      4  C   UNL A   1      33.209  25.511  22.877  1.00  0.00     0.049 A 
ATOM      5  C   UNL A   1      32.962  24.437  22.025  1.00  0.00     0.027 A 
ATOM      6  C   UNL A   1      33.771  25.246  24.125  1.00  0.00     0.027 A 
ATOM      7  C   UNL A   1      33.196  23.129  22.458  1.00  0.00     0.018 A 
ATOM      8  C   UNL A   1      33.920  23.943  24.595  1.00  0.00     0.018 A 
BRANCH   4   9
ATOM      9  N   UNL A   1      32.553  26.729  22.562  1.00  0.00    -0.284 N 
ATOM     10  H   UNL A   1      33.011  27.292  21.897  1.00  0.00     0.180 HD
BRANCH   9  11
ATOM     11  S   UNL A   1      31.140  27.340  23.144  1.00  0.00     0.233 S 
ATOM     12  O   UNL A   1      30.507  27.976  22.006  1.00  0.00    -0.207 OA
ATOM     13  O   UNL A   1      31.450  28.111  24.329  1.00  0.00    -0.207 OA
BRANCH  11  14
ATOM     14  C   UNL A   1      30.084  25.998  23.643  1.00  0.00     0.171 C 
BRANCH  14  15
ATOM     15  C   UNL A   1      29.721  25.871  25.111  1.00  0.00     0.141 C 
BRANCH  15  16
ATOM     16  C   UNL A   1      30.664  25.138  26.032  1.00  0.00     0.306 C 
ATOM     17  O   UNL A   1      31.396  25.706  26.832  1.00  0.00    -0.252 OA
BRANCH  16  18
ATOM     18  O   UNL A   1      30.576  23.794  25.870  1.00  0.00    -0.469 OA
ATOM     19  C   UNL A   1      31.244  23.026  26.878  1.00  0.00     0.282 C 
ENDBRANCH  16  18
ENDBRANCH  15  16
ENDBRANCH  14  15
ENDBRANCH  11  14
ENDBRANCH   9  11
ENDBRANCH   4   9
ENDBRANCH   1   3
BRANCH   1  20
ATOM     20  O   UNL A   1      34.476  21.550  25.445  1.00  0.00    -0.458 OA
BRANCH  20  21
ATOM     21  C   UNL A   1      35.826  21.065  25.295  1.00  0.00     0.275 C 
BRANCH  21  22
ATOM     22  C   UNL A   1      36.868  22.047  25.836  1.00  0.00     0.275 C 
BRANCH  22  23
ATOM     23  O   UNL A   1      38.139  21.834  25.199  1.00  0.00    -0.458 OA
BRANCH  23  24
ATOM     24  C   UNL A   1      39.141  21.468  26.030  1.00  0.00     0.338 C 
ATOM     25  O   UNL A   1      39.674  20.376  26.129  1.00  0.00    -0.246 OA
BRANCH  24  26
ATOM     26  C   UNL A   1      39.675  22.653  26.713  1.00  0.00     0.060 A 
ATOM     27  C   UNL A   1      39.273  23.876  26.207  1.00  0.00     0.016 A 
ATOM     28  C   UNL A   1      40.700  22.597  27.648  1.00  0.00     0.016 A 
ATOM     29  C   UNL A   1      39.971  25.036  26.499  1.00  0.00     0.010 A 
ATOM     30  C   UNL A   1      41.309  23.792  28.064  1.00  0.00     0.010 A 
ATOM     31  C   UNL A   1      40.983  25.024  27.460  1.00  0.00    -0.014 A 
BRANCH  31  32
ATOM     32  C   UNL A   1      41.708  26.292  27.767  1.00  0.00     0.031 A 
ATOM     33  C   UNL A   1      41.050  27.351  28.612  1.00  0.00     0.074 A 
ATOM     34  C   UNL A   1      42.978  26.478  27.348  1.00  0.00     0.049 A 
ATOM     35  N   UNL A   1      41.419  28.589  28.829  1.00  0.00    -0.248 NA
ATOM     36  C   UNL A   1      39.803  26.973  29.295  1.00  0.00     0.031 C 
ATOM     37  C   UNL A   1      43.777  25.507  26.595  1.00  0.00     0.029 A 
ATOM     38  N   UNL A   1      43.834  27.542  27.511  1.00  0.00    -0.354 N 
ATOM     39  C   UNL A   1      40.413  29.154  29.602  1.00  0.00     0.074 A 
ATOM     40  C   UNL A   1      39.420  28.125  29.822  1.00  0.00     0.031 C 
ATOM     41  C   UNL A   1      45.014  25.989  26.415  1.00  0.00     0.029 A 
ATOM     42  C   UNL A   1      45.058  27.356  26.911  1.00  0.00     0.049 A 
ATOM     43  H   UNL A   1      43.595  28.356  28.007  1.00  0.00     0.167 HD
ATOM     44  C   UNL A   1      40.328  30.422  30.076  1.00  0.00     0.037 A 
ATOM     45  C   UNL A   1      46.081  28.210  26.712  1.00  0.00     0.037 A 
ATOM     46  C   UNL A   1      41.356  31.416  29.899  1.00  0.00     0.049 A 
ATOM     47  C   UNL A   1      45.939  29.626  27.190  1.00  0.00     0.074 A 
ATOM     48  C   UNL A   1      41.377  32.725  30.343  1.00  0.00     0.029 A 
ATOM     49  N   UNL A   1      42.557  31.201  29.234  1.00  0.00    -0.354 N 
ATOM     50  N   UNL A   1      44.949  30.181  27.847  1.00  0.00    -0.248 NA
ATOM     51  C   UNL A   1      47.042  30.542  26.876  1.00  0.00     0.031 C 
ATOM     52  C   UNL A   1      42.564  33.320  29.899  1.00  0.00     0.029 A 
ATOM     53  C   UNL A   1      43.314  32.362  29.235  1.00  0.00     0.049 A 
ATOM     54  H   UNL A   1      42.829  30.350  28.822  1.00  0.00     0.167 HD
ATOM     55  C   UNL A   1      45.314  31.504  28.039  1.00  0.00     0.074 A 
ATOM     56  C   UNL A   1      46.628  31.664  27.448  1.00  0.00     0.031 C 
ATOM     57  C   UNL A   1      44.622  32.499  28.646  1.00  0.00     0.037 A 
BRANCH  44  58
ATOM     58  C   UNL A   1      39.059  30.823  30.773  1.00  0.00     0.064 A 
ATOM     59  C   UNL A   1      37.947  31.328  30.083  1.00  0.00     0.173 A 
ATOM     60  C   UNL A   1      38.951  30.680  32.166  1.00  0.00     0.173 A 
ATOM     61  F   UNL A   1      37.998  31.501  28.754  1.00  0.00    -0.203 F 
ATOM     62  C   UNL A   1      36.791  31.707  30.764  1.00  0.00     0.198 A 
ATOM     63  C   UNL A   1      37.782  31.027  32.840  1.00  0.00     0.198 A 
ATOM     64  F   UNL A   1      39.982  30.198  32.878  1.00  0.00    -0.203 F 
ATOM     65  F   UNL A   1      35.764  32.243  30.090  1.00  0.00    -0.200 F 
ATOM     66  C   UNL A   1      36.708  31.550  32.139  1.00  0.00     0.200 A 
ATOM     67  F   UNL A   1      37.701  30.860  34.166  1.00  0.00    -0.200 F 
ATOM     68  F   UNL A   1      35.594  31.912  32.791  1.00  0.00    -0.200 F 
ENDBRANCH  44  58
BRANCH  45  69
ATOM     69  C   UNL A   1      47.287  27.764  25.961  1.00  0.00     0.064 A 
ATOM     70  C   UNL A   1      48.431  27.308  26.629  1.00  0.00     0.173 A 
ATOM     71  C   UNL A   1      47.317  27.776  24.556  1.00  0.00     0.173 A 
ATOM     72  F   UNL A   1      48.466  27.303  27.970  1.00  0.00    -0.203 F 
ATOM     73  C   UNL A   1      49.558  26.889  25.924  1.00  0.00     0.198 A 
ATOM     74  C   UNL A   1      48.429  27.319  23.853  1.00  0.00     0.198 A 
ATOM     75  F   UNL A   1      46.252  28.206  23.865  1.00  0.00    -0.203 F 
ATOM     76  F   UNL A   1      50.655  26.501  26.589  1.00  0.00    -0.200 F 
ATOM     77  C   UNL A   1      49.553  26.884  24.537  1.00  0.00     0.200 A 
ATOM     78  F   UNL A   1      48.410  27.299  22.513  1.00  0.00    -0.200 F 
ATOM     79  F   UNL A   1      50.631  26.467  23.861  1.00  0.00    -0.200 F 
ENDBRANCH  45  69
BRANCH  57  80
ATOM     80  C   UNL A   1      45.296  33.837  28.740  1.00  0.00     0.064 A 
ATOM     81  C   UNL A   1      45.107  34.830  27.766  1.00  0.00     0.173 A 
ATOM     82  C   UNL A   1      46.121  34.137  29.835  1.00  0.00     0.173 A 
ATOM     83  F   UNL A   1      44.343  34.584  26.692  1.00  0.00    -0.203 F 
ATOM     84  C   UNL A   1      45.744  36.062  27.872  1.00  0.00     0.198 A 
ATOM     85  C   UNL A   1      46.728  35.382  29.954  1.00  0.00     0.198 A 
ATOM     86  F   UNL A   1      46.329  33.223  30.795  1.00  0.00    -0.203 F 
ATOM     87  F   UNL A   1      45.595  36.976  26.903  1.00  0.00    -0.200 F 
ATOM     88  C   UNL A   1      46.547  36.341  28.969  1.00  0.00     0.200 A 
ATOM     89  F   UNL A   1      47.491  35.655  31.022  1.00  0.00    -0.200 F 
ATOM     90  F   UNL A   1      47.153  37.531  29.072  1.00  0.00    -0.200 F 
ENDBRANCH  57  80
ENDBRANCH  31  32
ENDBRANCH  24  26
ENDBRANCH  23  24
ENDBRANCH  22  23
ENDBRANCH  21  22
ENDBRANCH  20  21
ENDBRANCH   1  20
TORSDOF 17
ENDMDL
MODEL 3
REMARK VINA RESULT:     -10.3      0.740      7.452
REMARK SMILES COC(=O)CCS(=O)(=O)Nc1ccc(C(=O)OCCOC(=O)c2ccc(-c3c4nc(c(-c5c(F)c(F)c(F)c(F)c5F)c5ccc([nH]5)c(-c5c(F)c(F)c(F)c(F)c5F)c5nc(c(-c6c(F)c(F)c(F)c(F)c6F)c6ccc3[nH]6)C=C5)C=C4)cc2)cc1
REMARK SMILES IDX 15 1 16 2 14 3 11 4 12 5 87 6 13 7 86 8 10 9 7 11 8 12 9 13
REMARK SMILES IDX 6 14 5 15 3 16 4 17 2 18 1 19 17 20 18 21 19 22 20 23 21 24
REMARK SMILES IDX 22 25 23 26 24 27 85 28 25 29 84 30 26 31 27 32 28 33 78 34
REMARK SMILES IDX 29 35 83 36 77 37 79 38 30 39 82 40 76 41 75 42 31 44 63 45
REMARK SMILES IDX 43 46 62 47 44 48 47 49 61 50 80 51 45 52 46 53 60 55 81 56
REMARK SMILES IDX 48 57 32 58 33 59 41 60 34 61 35 62 39 63 42 64 36 65 37 66
REMARK SMILES IDX 40 67 38 68 64 69 65 70 73 71 66 72 67 73 71 74 74 75 68 76
REMARK SMILES IDX 69 77 72 78 70 79 49 80 50 81 58 82 51 83 52 84 56 85 59 86
REMARK SMILES IDX 53 87 54 88 57 89 55 90
REMARK H PARENT 10 10 79 43 47 54
REMARK Flexibility Score: inf
ROOT
ATOM      1  C   UNL A   1      32.149  27.690  25.300  1.00  0.00     0.338 C 
ATOM      2  O   UNL A   1      32.657  28.254  24.341  1.00  0.00    -0.246 OA
ENDROOT
BRANCH   1   3
ATOM      3  C   UNL A   1      32.483  26.309  25.701  1.00  0.00     0.060 A 
ATOM      4  C   UNL A   1      33.191  23.637  26.203  1.00  0.00     0.049 A 
ATOM      5  C   UNL A   1      31.868  24.050  26.345  1.00  0.00     0.027 A 
ATOM      6  C   UNL A   1      34.158  24.606  25.939  1.00  0.00     0.027 A 
ATOM      7  C   UNL A   1      31.524  25.389  26.140  1.00  0.00     0.018 A 
ATOM      8  C   UNL A   1      33.810  25.922  25.644  1.00  0.00     0.018 A 
BRANCH   4   9
ATOM      9  N   UNL A   1      33.397  22.251  25.984  1.00  0.00    -0.284 N 
ATOM     10  H   UNL A   1      33.909  21.788  26.686  1.00  0.00     0.180 HD
BRANCH   9  11
ATOM     11  S   UNL A   1      32.911  21.302  24.730  1.00  0.00     0.233 S 
ATOM     12  O   UNL A   1      31.745  20.596  25.221  1.00  0.00    -0.207 OA
ATOM     13  O   UNL A   1      34.065  20.565  24.263  1.00  0.00    -0.207 OA
BRANCH  11  14
ATOM     14  C   UNL A   1      32.365  22.339  23.391  1.00  0.00     0.171 C 
BRANCH  14  15
ATOM     15  C   UNL A   1      33.393  23.191  22.670  1.00  0.00     0.141 C 
BRANCH  15  16
ATOM     16  C   UNL A   1      32.994  24.568  22.201  1.00  0.00     0.306 C 
ATOM     17  O   UNL A   1      33.735  25.295  21.551  1.00  0.00    -0.252 OA
BRANCH  16  18
ATOM     18  O   UNL A   1      31.725  24.874  22.570  1.00  0.00    -0.469 OA
ATOM     19  C   UNL A   1      31.245  26.130  22.077  1.00  0.00     0.282 C 
ENDBRANCH  16  18
ENDBRANCH  15  16
ENDBRANCH  14  15
ENDBRANCH  11  14
ENDBRANCH   9  11
ENDBRANCH   4   9
ENDBRANCH   1   3
BRANCH   1  20
ATOM     20  O   UNL A   1      31.243  28.199  26.173  1.00  0.00    -0.458 OA
BRANCH  20  21
ATOM     21  C   UNL A   1      31.759  28.999  27.257  1.00  0.00     0.275 C 
BRANCH  21  22
ATOM     22  C   UNL A   1      31.801  30.491  26.918  1.00  0.00     0.275 C 
BRANCH  22  23
ATOM     23  O   UNL A   1      33.133  30.887  26.552  1.00  0.00    -0.458 OA
BRANCH  23  24
ATOM     24  C   UNL A   1      33.681  31.845  27.332  1.00  0.00     0.338 C 
ATOM     25  O   UNL A   1      33.148  32.845  27.780  1.00  0.00    -0.246 OA
BRANCH  24  26
ATOM     26  C   UNL A   1      35.024  31.429  27.757  1.00  0.00     0.060 A 
ATOM     27  C   UNL A   1      35.179  30.083  28.040  1.00  0.00     0.016 A 
ATOM     28  C   UNL A   1      36.027  32.325  28.098  1.00  0.00     0.016 A 
ATOM     29  C   UNL A   1      36.250  29.629  28.791  1.00  0.00     0.010 A 
ATOM     30  C   UNL A   1      37.188  31.843  28.725  1.00  0.00     0.010 A 
ATOM     31  C   UNL A   1      37.295  30.493  29.120  1.00  0.00    -0.014 A 
BRANCH  31  32
ATOM     32  C   UNL A   1      38.445  29.972  29.916  1.00  0.00     0.031 A 
ATOM     33  C   UNL A   1      38.617  30.386  31.353  1.00  0.00     0.074 A 
ATOM     34  C   UNL A   1      39.305  29.079  29.380  1.00  0.00     0.049 A 
ATOM     35  N   UNL A   1      39.639  30.212  32.152  1.00  0.00    -0.248 NA
ATOM     36  C   UNL A   1      37.493  31.106  31.974  1.00  0.00     0.031 C 
ATOM     37  C   UNL A   1      39.217  28.517  28.029  1.00  0.00     0.029 A 
ATOM     38  N   UNL A   1      40.415  28.466  29.911  1.00  0.00    -0.354 N 
ATOM     39  C   UNL A   1      39.315  30.865  33.334  1.00  0.00     0.074 A 
ATOM     40  C   UNL A   1      37.998  31.437  33.152  1.00  0.00     0.031 C 
ATOM     41  C   UNL A   1      40.184  27.607  27.860  1.00  0.00     0.029 A 
ATOM     42  C   UNL A   1      41.048  27.620  29.031  1.00  0.00     0.049 A 
ATOM     43  H   UNL A   1      40.727  28.619  30.832  1.00  0.00     0.167 HD
ATOM     44  C   UNL A   1      40.057  30.982  34.462  1.00  0.00     0.037 A 
ATOM     45  C   UNL A   1      42.229  26.978  29.118  1.00  0.00     0.037 A 
ATOM     46  C   UNL A   1      41.340  30.354  34.648  1.00  0.00     0.049 A 
ATOM     47  C   UNL A   1      43.063  27.172  30.352  1.00  0.00     0.074 A 
ATOM     48  C   UNL A   1      42.172  30.398  35.751  1.00  0.00     0.029 A 
ATOM     49  N   UNL A   1      41.970  29.551  33.706  1.00  0.00    -0.354 N 
ATOM     50  N   UNL A   1      42.789  27.861  31.433  1.00  0.00    -0.248 NA
ATOM     51  C   UNL A   1      44.378  26.523  30.368  1.00  0.00     0.031 C 
ATOM     52  C   UNL A   1      43.331  29.670  35.457  1.00  0.00     0.029 A 
ATOM     53  C   UNL A   1      43.192  29.115  34.195  1.00  0.00     0.049 A 
ATOM     54  H   UNL A   1      41.604  29.325  32.821  1.00  0.00     0.167 HD
ATOM     55  C   UNL A   1      43.890  27.717  32.264  1.00  0.00     0.074 A 
ATOM     56  C   UNL A   1      44.826  26.856  31.570  1.00  0.00     0.031 C 
ATOM     57  C   UNL A   1      44.108  28.253  33.490  1.00  0.00     0.037 A 
BRANCH  44  58
ATOM     58  C   UNL A   1      39.531  31.868  35.556  1.00  0.00     0.064 A 
ATOM     59  C   UNL A   1      38.627  31.411  36.528  1.00  0.00     0.173 A 
ATOM     60  C   UNL A   1      39.959  33.203  35.640  1.00  0.00     0.173 A 
ATOM     61  F   UNL A   1      38.173  30.150  36.487  1.00  0.00    -0.203 F 
ATOM     62  C   UNL A   1      38.146  32.266  37.518  1.00  0.00     0.198 A 
ATOM     63  C   UNL A   1      39.503  34.045  36.653  1.00  0.00     0.198 A 
ATOM     64  F   UNL A   1      40.826  33.694  34.741  1.00  0.00    -0.203 F 
ATOM     65  F   UNL A   1      37.238  31.824  38.399  1.00  0.00    -0.200 F 
ATOM     66  C   UNL A   1      38.589  33.579  37.583  1.00  0.00     0.200 A 
ATOM     67  F   UNL A   1      39.944  35.308  36.720  1.00  0.00    -0.200 F 
ATOM     68  F   UNL A   1      38.128  34.398  38.539  1.00  0.00    -0.200 F 
ENDBRANCH  44  58
BRANCH  45  69
ATOM     69  C   UNL A   1      42.720  26.162  27.974  1.00  0.00     0.064 A 
ATOM     70  C   UNL A   1      43.543  26.719  26.986  1.00  0.00     0.173 A 
ATOM     71  C   UNL A   1      42.383  24.804  27.849  1.00  0.00     0.173 A 
ATOM     72  F   UNL A   1      43.871  28.017  27.041  1.00  0.00    -0.203 F 
ATOM     73  C   UNL A   1      44.003  25.952  25.916  1.00  0.00     0.198 A 
ATOM     74  C   UNL A   1      42.877  24.030  26.802  1.00  0.00     0.198 A 
ATOM     75  F   UNL A   1      41.595  24.220  28.764  1.00  0.00    -0.203 F 
ATOM     76  F   UNL A   1      44.752  26.521  24.961  1.00  0.00    -0.200 F 
ATOM     77  C   UNL A   1      43.680  24.606  25.831  1.00  0.00     0.200 A 
ATOM     78  F   UNL A   1      42.576  22.725  26.737  1.00  0.00    -0.200 F 
ATOM     79  F   UNL A   1      44.135  23.867  24.811  1.00  0.00    -0.200 F 
ENDBRANCH  45  69
BRANCH  57  80
ATOM     80  C   UNL A   1      45.391  27.885  34.175  1.00  0.00     0.064 A 
ATOM     81  C   UNL A   1      45.489  26.759  35.006  1.00  0.00     0.173 A 
ATOM     82  C   UNL A   1      46.545  28.658  33.975  1.00  0.00     0.173 A 
ATOM     83  F   UNL A   1      44.409  26.000  35.244  1.00  0.00    -0.203 F 
ATOM     84  C   UNL A   1      46.688  26.439  35.634  1.00  0.00     0.198 A 
ATOM     85  C   UNL A   1      47.751  28.314  34.577  1.00  0.00     0.198 A 
ATOM     86  F   UNL A   1      46.505  29.742  33.185  1.00  0.00    -0.203 F 
ATOM     87  F   UNL A   1      46.746  25.391  36.469  1.00  0.00    -0.200 F 
ATOM     88  C   UNL A   1      47.820  27.210  35.414  1.00  0.00     0.200 A 
ATOM     89  F   UNL A   1      48.846  29.052  34.350  1.00  0.00    -0.200 F 
ATOM     90  F   UNL A   1      48.975  26.895  36.014  1.00  0.00    -0.200 F 
ENDBRANCH  57  80
ENDBRANCH  31  32
ENDBRANCH  24  26
ENDBRANCH  23  24
ENDBRANCH  22  23
ENDBRANCH  21  22
ENDBRANCH  20  21
ENDBRANCH   1  20
TORSDOF 17
ENDMDL
