MODEL 1
REMARK VINA RESULT:      -9.9      0.000      0.000
REMARK SMILES CO[C@H]1CC[C@@H]([NH2+]CC(=O)OCCOC(=O)c2ccc(-c3c4nc(c(-c5c(F)c(F)c(F)c(F)c5F)c5ccc([nH]5)c(-c5c(F)c(F)c(F)c(F)c5F)c5nc(c(-c6c(F)c(F)c(F)c(F)c6F)c6ccc3[nH]6)C=C5)C=C4)cc2)CC1
REMARK SMILES IDX 12 1 11 2 9 3 10 4 8 5 7 6 6 9 3 10 81 11 4 12 80 13 5 14
REMARK SMILES IDX 2 15 1 16 13 17 14 18 15 19 16 20 17 21 18 22 79 23 19 24
REMARK SMILES IDX 78 25 20 26 21 27 22 28 72 29 23 30 77 31 71 32 73 33 24 34
REMARK SMILES IDX 76 35 70 36 69 37 25 39 57 40 37 41 56 42 38 43 41 44 55 45
REMARK SMILES IDX 74 46 39 47 40 48 54 50 75 51 42 52 26 53 27 54 35 55 28 56
REMARK SMILES IDX 29 57 33 58 36 59 30 60 31 61 34 62 32 63 58 64 59 65 67 66
REMARK SMILES IDX 60 67 61 68 65 69 68 70 62 71 63 72 66 73 64 74 43 75 44 76
REMARK SMILES IDX 52 77 45 78 46 79 50 80 53 81 47 82 48 83 51 84 49 85
REMARK H PARENT 7 7 7 8 73 38 41 49
REMARK Flexibility Score: inf
ROOT
ATOM      1  C   UNL A   1      33.794  33.970  28.056  1.00  0.00     0.274 C 
ENDROOT
BRANCH   1   2
ATOM      2  O   UNL A   1      33.242  34.204  29.363  1.00  0.00    -0.458 OA
BRANCH   2   3
ATOM      3  C   UNL A   1      32.980  35.491  29.710  1.00  0.00     0.361 C 
ATOM      4  O   UNL A   1      32.493  36.331  28.962  1.00  0.00    -0.245 OA
BRANCH   3   5
ATOM      5  C   UNL A   1      33.383  35.779  31.154  1.00  0.00     0.385 C 
BRANCH   5   6
ATOM      6  N   UNL A   1      34.584  35.046  31.591  1.00  0.00    -0.335 N 
ATOM      7  H   UNL A   1      34.973  34.569  30.777  1.00  0.00     0.347 HD
ATOM      8  H   UNL A   1      35.207  35.746  31.995  1.00  0.00     0.347 HD
BRANCH   6   9
ATOM      9  C   UNL A   1      34.366  34.047  32.638  1.00  0.00     0.183 C 
ATOM     10  C   UNL A   1      37.112  32.967  33.270  1.00  0.00     0.118 C 
ATOM     11  C   UNL A   1      36.593  34.266  33.896  1.00  0.00     0.038 C 
ATOM     12  C   UNL A   1      36.389  32.639  31.959  1.00  0.00     0.038 C 
ATOM     13  C   UNL A   1      35.070  34.339  33.972  1.00  0.00     0.067 C 
ATOM     14  C   UNL A   1      34.869  32.693  32.108  1.00  0.00     0.067 C 
BRANCH  10  15
ATOM     15  O   UNL A   1      38.519  33.143  33.064  1.00  0.00    -0.381 OA
ATOM     16  C   UNL A   1      39.299  33.021  34.244  1.00  0.00     0.195 C 
ENDBRANCH  10  15
ENDBRANCH   6   9
ENDBRANCH   5   6
ENDBRANCH   3   5
ENDBRANCH   2   3
ENDBRANCH   1   2
BRANCH   1  17
ATOM     17  C   UNL A   1      34.848  32.860  28.102  1.00  0.00     0.275 C 
BRANCH  17  18
ATOM     18  O   UNL A   1      34.317  31.645  28.664  1.00  0.00    -0.458 OA
BRANCH  18  19
ATOM     19  C   UNL A   1      34.670  30.507  28.029  1.00  0.00     0.338 C 
ATOM     20  O   UNL A   1      34.052  29.916  27.157  1.00  0.00    -0.246 OA
BRANCH  19  21
ATOM     21  C   UNL A   1      36.020  30.104  28.428  1.00  0.00     0.060 A 
ATOM     22  C   UNL A   1      37.026  30.144  27.456  1.00  0.00     0.016 A 
ATOM     23  C   UNL A   1      36.279  29.642  29.719  1.00  0.00     0.016 A 
ATOM     24  C   UNL A   1      38.312  29.733  27.782  1.00  0.00     0.010 A 
ATOM     25  C   UNL A   1      37.570  29.231  30.044  1.00  0.00     0.010 A 
ATOM     26  C   UNL A   1      38.589  29.277  29.078  1.00  0.00    -0.014 A 
BRANCH  26  27
ATOM     27  C   UNL A   1      39.963  28.871  29.435  1.00  0.00     0.031 A 
ATOM     28  C   UNL A   1      40.825  29.780  30.253  1.00  0.00     0.074 A 
ATOM     29  C   UNL A   1      40.420  27.686  28.995  1.00  0.00     0.049 A 
ATOM     30  N   UNL A   1      42.077  29.636  30.602  1.00  0.00    -0.248 NA
ATOM     31  C   UNL A   1      40.200  31.017  30.744  1.00  0.00     0.031 C 
ATOM     32  C   UNL A   1      39.644  26.726  28.208  1.00  0.00     0.029 A 
ATOM     33  N   UNL A   1      41.647  27.092  29.135  1.00  0.00    -0.354 N 
ATOM     34  C   UNL A   1      42.396  30.768  31.340  1.00  0.00     0.074 A 
ATOM     35  C   UNL A   1      41.209  31.596  31.379  1.00  0.00     0.031 C 
ATOM     36  C   UNL A   1      40.415  25.663  27.931  1.00  0.00     0.029 A 
ATOM     37  C   UNL A   1      41.747  25.887  28.485  1.00  0.00     0.049 A 
ATOM     38  H   UNL A   1      42.384  27.490  29.651  1.00  0.00     0.167 HD
ATOM     39  C   UNL A   1      43.574  31.076  31.928  1.00  0.00     0.037 A 
ATOM     40  C   UNL A   1      42.807  25.071  28.337  1.00  0.00     0.037 A 
ATOM     41  C   UNL A   1      44.742  30.235  31.883  1.00  0.00     0.049 A 
ATOM     42  C   UNL A   1      44.113  25.461  28.971  1.00  0.00     0.074 A 
ATOM     43  C   UNL A   1      45.980  30.442  32.465  1.00  0.00     0.029 A 
ATOM     44  N   UNL A   1      44.812  29.022  31.212  1.00  0.00    -0.354 N 
ATOM     45  N   UNL A   1      44.400  26.520  29.687  1.00  0.00    -0.248 NA
ATOM     46  C   UNL A   1      45.243  24.544  28.774  1.00  0.00     0.031 C 
ATOM     47  C   UNL A   1      46.812  29.373  32.113  1.00  0.00     0.029 A 
ATOM     48  C   UNL A   1      46.079  28.479  31.346  1.00  0.00     0.049 A 
ATOM     49  H   UNL A   1      44.070  28.609  30.712  1.00  0.00     0.167 HD
ATOM     50  C   UNL A   1      45.732  26.389  30.047  1.00  0.00     0.074 A 
ATOM     51  C   UNL A   1      46.194  25.138  29.481  1.00  0.00     0.031 C 
ATOM     52  C   UNL A   1      46.508  27.227  30.778  1.00  0.00     0.037 A 
BRANCH  39  53
ATOM     53  C   UNL A   1      43.673  32.387  32.649  1.00  0.00     0.064 A 
ATOM     54  C   UNL A   1      44.135  33.546  32.009  1.00  0.00     0.173 A 
ATOM     55  C   UNL A   1      43.249  32.496  33.981  1.00  0.00     0.173 A 
ATOM     56  F   UNL A   1      44.563  33.492  30.739  1.00  0.00    -0.203 F 
ATOM     57  C   UNL A   1      44.183  34.764  32.683  1.00  0.00     0.198 A 
ATOM     58  C   UNL A   1      43.277  33.719  34.645  1.00  0.00     0.198 A 
ATOM     59  F   UNL A   1      42.796  31.417  34.637  1.00  0.00    -0.203 F 
ATOM     60  F   UNL A   1      44.656  35.854  32.062  1.00  0.00    -0.200 F 
ATOM     61  C   UNL A   1      43.747  34.852  33.997  1.00  0.00     0.200 A 
ATOM     62  F   UNL A   1      42.847  33.804  35.912  1.00  0.00    -0.200 F 
ATOM     63  F   UNL A   1      43.783  36.027  34.641  1.00  0.00    -0.200 F 
ENDBRANCH  39  53
BRANCH  40  64
ATOM     64  C   UNL A   1      42.675  23.817  27.553  1.00  0.00     0.064 A 
ATOM     65  C   UNL A   1      42.205  22.639  28.150  1.00  0.00     0.173 A 
ATOM     66  C   UNL A   1      43.020  23.768  26.194  1.00  0.00     0.173 A 
ATOM     67  F   UNL A   1      41.882  22.631  29.452  1.00  0.00    -0.203 F 
ATOM     68  C   UNL A   1      42.103  21.456  27.421  1.00  0.00     0.198 A 
ATOM     69  C   UNL A   1      42.892  22.591  25.460  1.00  0.00     0.198 A 
ATOM     70  F   UNL A   1      43.475  24.869  25.577  1.00  0.00    -0.203 F 
ATOM     71  F   UNL A   1      41.694  20.332  28.027  1.00  0.00    -0.200 F 
ATOM     72  C   UNL A   1      42.441  21.434  26.077  1.00  0.00     0.200 A 
ATOM     73  F   UNL A   1      43.209  22.578  24.159  1.00  0.00    -0.200 F 
ATOM     74  F   UNL A   1      42.342  20.295  25.377  1.00  0.00    -0.200 F 
ENDBRANCH  40  64
BRANCH  52  75
ATOM     75  C   UNL A   1      47.921  26.797  31.029  1.00  0.00     0.064 A 
ATOM     76  C   UNL A   1      48.252  25.955  32.100  1.00  0.00     0.173 A 
ATOM     77  C   UNL A   1      48.949  27.208  30.168  1.00  0.00     0.173 A 
ATOM     78  F   UNL A   1      47.303  25.553  32.960  1.00  0.00    -0.203 F 
ATOM     79  C   UNL A   1      49.568  25.558  32.315  1.00  0.00     0.198 A 
ATOM     80  C   UNL A   1      50.261  26.787  30.371  1.00  0.00     0.198 A 
ATOM     81  F   UNL A   1      48.680  28.009  29.127  1.00  0.00    -0.203 F 
ATOM     82  F   UNL A   1      49.870  24.790  33.370  1.00  0.00    -0.200 F 
ATOM     83  C   UNL A   1      50.569  25.969  31.446  1.00  0.00     0.200 A 
ATOM     84  F   UNL A   1      51.225  27.176  29.526  1.00  0.00    -0.200 F 
ATOM     85  F   UNL A   1      51.836  25.581  31.652  1.00  0.00    -0.200 F 
ENDBRANCH  52  75
ENDBRANCH  26  27
ENDBRANCH  19  21
ENDBRANCH  18  19
ENDBRANCH  17  18
ENDBRANCH   1  17
TORSDOF 14
ENDMDL
MODEL 2
REMARK VINA RESULT:      -9.8      4.605     11.199
REMARK SMILES CO[C@H]1CC[C@@H]([NH2+]CC(=O)OCCOC(=O)c2ccc(-c3c4nc(c(-c5c(F)c(F)c(F)c(F)c5F)c5ccc([nH]5)c(-c5c(F)c(F)c(F)c(F)c5F)c5nc(c(-c6c(F)c(F)c(F)c(F)c6F)c6ccc3[nH]6)C=C5)C=C4)cc2)CC1
REMARK SMILES IDX 12 1 11 2 9 3 10 4 8 5 7 6 6 9 3 10 81 11 4 12 80 13 5 14
REMARK SMILES IDX 2 15 1 16 13 17 14 18 15 19 16 20 17 21 18 22 79 23 19 24
REMARK SMILES IDX 78 25 20 26 21 27 22 28 72 29 23 30 77 31 71 32 73 33 24 34
REMARK SMILES IDX 76 35 70 36 69 37 25 39 57 40 37 41 56 42 38 43 41 44 55 45
REMARK SMILES IDX 74 46 39 47 40 48 54 50 75 51 42 52 26 53 27 54 35 55 28 56
REMARK SMILES IDX 29 57 33 58 36 59 30 60 31 61 34 62 32 63 58 64 59 65 67 66
REMARK SMILES IDX 60 67 61 68 65 69 68 70 62 71 63 72 66 73 64 74 43 75 44 76
REMARK SMILES IDX 52 77 45 78 46 79 50 80 53 81 47 82 48 83 51 84 49 85
REMARK H PARENT 7 7 7 8 73 38 41 49
REMARK Flexibility Score: inf
ROOT
ATOM      1  C   UNL A   1      41.803  19.226  26.499  1.00  0.00     0.274 C 
ENDROOT
BRANCH   1   2
ATOM      2  O   UNL A   1      42.624  19.170  25.320  1.00  0.00    -0.458 OA
BRANCH   2   3
ATOM      3  C   UNL A   1      43.877  18.662  25.454  1.00  0.00     0.361 C 
ATOM      4  O   UNL A   1      44.171  17.704  26.160  1.00  0.00    -0.245 OA
BRANCH   3   5
ATOM      5  C   UNL A   1      44.895  19.443  24.626  1.00  0.00     0.385 C 
BRANCH   5   6
ATOM      6  N   UNL A   1      45.355  20.684  25.272  1.00  0.00    -0.335 N 
ATOM      7  H   UNL A   1      45.317  20.545  26.282  1.00  0.00     0.347 HD
ATOM      8  H   UNL A   1      46.296  20.853  24.915  1.00  0.00     0.347 HD
BRANCH   6   9
ATOM      9  C   UNL A   1      44.582  21.885  24.953  1.00  0.00     0.183 C 
ATOM     10  C   UNL A   1      46.301  24.188  25.874  1.00  0.00     0.118 C 
ATOM     11  C   UNL A   1      46.511  23.521  24.511  1.00  0.00     0.038 C 
ATOM     12  C   UNL A   1      45.591  23.255  26.862  1.00  0.00     0.038 C 
ATOM     13  C   UNL A   1      45.255  22.848  23.962  1.00  0.00     0.067 C 
ATOM     14  C   UNL A   1      44.323  22.642  26.267  1.00  0.00     0.067 C 
BRANCH  10  15
ATOM     15  O   UNL A   1      47.597  24.569  26.350  1.00  0.00    -0.381 OA
ATOM     16  C   UNL A   1      47.687  24.677  27.763  1.00  0.00     0.195 C 
ENDBRANCH  10  15
ENDBRANCH   6   9
ENDBRANCH   5   6
ENDBRANCH   3   5
ENDBRANCH   2   3
ENDBRANCH   1   2
BRANCH   1  17
ATOM     17  C   UNL A   1      40.481  19.940  26.205  1.00  0.00     0.275 C 
BRANCH  17  18
ATOM     18  O   UNL A   1      40.319  21.116  27.021  1.00  0.00    -0.458 OA
BRANCH  18  19
ATOM     19  C   UNL A   1      39.497  22.064  26.521  1.00  0.00     0.338 C 
ATOM     20  O   UNL A   1      38.428  21.900  25.951  1.00  0.00    -0.246 OA
BRANCH  19  21
ATOM     21  C   UNL A   1      39.987  23.397  26.874  1.00  0.00     0.060 A 
ATOM     22  C   UNL A   1      40.794  23.515  28.011  1.00  0.00     0.016 A 
ATOM     23  C   UNL A   1      39.615  24.518  26.131  1.00  0.00     0.016 A 
ATOM     24  C   UNL A   1      41.248  24.768  28.404  1.00  0.00     0.010 A 
ATOM     25  C   UNL A   1      40.074  25.774  26.526  1.00  0.00     0.010 A 
ATOM     26  C   UNL A   1      40.892  25.901  27.661  1.00  0.00    -0.014 A 
BRANCH  26  27
ATOM     27  C   UNL A   1      41.401  27.229  28.058  1.00  0.00     0.031 A 
ATOM     28  C   UNL A   1      42.860  27.541  27.934  1.00  0.00     0.074 A 
ATOM     29  C   UNL A   1      40.534  28.133  28.548  1.00  0.00     0.049 A 
ATOM     30  N   UNL A   1      43.507  28.616  28.300  1.00  0.00    -0.248 NA
ATOM     31  C   UNL A   1      43.705  26.506  27.318  1.00  0.00     0.031 C 
ATOM     32  C   UNL A   1      39.092  27.924  28.687  1.00  0.00     0.029 A 
ATOM     33  N   UNL A   1      40.738  29.399  29.028  1.00  0.00    -0.354 N 
ATOM     34  C   UNL A   1      44.837  28.385  27.974  1.00  0.00     0.074 A 
ATOM     35  C   UNL A   1      44.906  27.062  27.390  1.00  0.00     0.031 C 
ATOM     36  C   UNL A   1      38.540  29.024  29.221  1.00  0.00     0.029 A 
ATOM     37  C   UNL A   1      39.595  29.995  29.497  1.00  0.00     0.049 A 
ATOM     38  H   UNL A   1      41.619  29.839  29.034  1.00  0.00     0.167 HD
ATOM     39  C   UNL A   1      45.894  29.211  28.148  1.00  0.00     0.037 A 
ATOM     40  C   UNL A   1      39.427  31.184  30.105  1.00  0.00     0.037 A 
ATOM     41  C   UNL A   1      45.803  30.527  28.725  1.00  0.00     0.049 A 
ATOM     42  C   UNL A   1      40.629  32.062  30.319  1.00  0.00     0.074 A 
ATOM     43  C   UNL A   1      46.809  31.455  28.925  1.00  0.00     0.029 A 
ATOM     44  N   UNL A   1      44.629  31.099  29.196  1.00  0.00    -0.354 N 
ATOM     45  N   UNL A   1      41.878  31.848  29.985  1.00  0.00    -0.248 NA
ATOM     46  C   UNL A   1      40.398  33.345  30.994  1.00  0.00     0.031 C 
ATOM     47  C   UNL A   1      46.251  32.574  29.555  1.00  0.00     0.029 A 
ATOM     48  C   UNL A   1      44.890  32.360  29.708  1.00  0.00     0.049 A 
ATOM     49  H   UNL A   1      43.742  30.672  29.171  1.00  0.00     0.167 HD
ATOM     50  C   UNL A   1      42.579  32.974  30.387  1.00  0.00     0.074 A 
ATOM     51  C   UNL A   1      41.612  33.877  30.977  1.00  0.00     0.031 C 
ATOM     52  C   UNL A   1      43.904  33.240  30.281  1.00  0.00     0.037 A 
BRANCH  39  53
ATOM     53  C   UNL A   1      47.246  28.710  27.736  1.00  0.00     0.064 A 
ATOM     54  C   UNL A   1      48.182  28.260  28.678  1.00  0.00     0.173 A 
ATOM     55  C   UNL A   1      47.588  28.630  26.379  1.00  0.00     0.173 A 
ATOM     56  F   UNL A   1      47.908  28.327  29.989  1.00  0.00    -0.203 F 
ATOM     57  C   UNL A   1      49.419  27.761  28.274  1.00  0.00     0.198 A 
ATOM     58  C   UNL A   1      48.815  28.110  25.978  1.00  0.00     0.198 A 
ATOM     59  F   UNL A   1      46.726  29.045  25.438  1.00  0.00    -0.203 F 
ATOM     60  F   UNL A   1      50.311  27.363  29.192  1.00  0.00    -0.200 F 
ATOM     61  C   UNL A   1      49.731  27.679  26.926  1.00  0.00     0.200 A 
ATOM     62  F   UNL A   1      49.112  28.023  24.673  1.00  0.00    -0.200 F 
ATOM     63  F   UNL A   1      50.918  27.188  26.539  1.00  0.00    -0.200 F 
ENDBRANCH  39  53
BRANCH  40  64
ATOM     64  C   UNL A   1      38.076  31.603  30.558  1.00  0.00     0.064 A 
ATOM     65  C   UNL A   1      37.684  31.452  31.894  1.00  0.00     0.173 A 
ATOM     66  C   UNL A   1      37.148  32.157  29.663  1.00  0.00     0.173 A 
ATOM     67  F   UNL A   1      38.529  30.908  32.782  1.00  0.00    -0.203 F 
ATOM     68  C   UNL A   1      36.409  31.823  32.315  1.00  0.00     0.198 A 
ATOM     69  C   UNL A   1      35.883  32.553  30.091  1.00  0.00     0.198 A 
ATOM     70  F   UNL A   1      37.475  32.322  28.372  1.00  0.00    -0.203 F 
ATOM     71  F   UNL A   1      36.044  31.626  33.590  1.00  0.00    -0.200 F 
ATOM     72  C   UNL A   1      35.512  32.378  31.415  1.00  0.00     0.200 A 
ATOM     73  F   UNL A   1      35.024  33.099  29.220  1.00  0.00    -0.200 F 
ATOM     74  F   UNL A   1      34.286  32.735  31.822  1.00  0.00    -0.200 F 
ENDBRANCH  40  64
BRANCH  52  75
ATOM     75  C   UNL A   1      44.372  34.571  30.786  1.00  0.00     0.064 A 
ATOM     76  C   UNL A   1      44.353  35.712  29.971  1.00  0.00     0.173 A 
ATOM     77  C   UNL A   1      44.812  34.711  32.110  1.00  0.00     0.173 A 
ATOM     78  F   UNL A   1      43.956  35.621  28.692  1.00  0.00    -0.203 F 
ATOM     79  C   UNL A   1      44.781  36.943  30.457  1.00  0.00     0.198 A 
ATOM     80  C   UNL A   1      45.216  35.950  32.601  1.00  0.00     0.198 A 
ATOM     81  F   UNL A   1      44.844  33.650  32.929  1.00  0.00    -0.203 F 
ATOM     82  F   UNL A   1      44.798  38.011  29.649  1.00  0.00    -0.200 F 
ATOM     83  C   UNL A   1      45.206  37.062  31.773  1.00  0.00     0.200 A 
ATOM     84  F   UNL A   1      45.617  36.065  33.874  1.00  0.00    -0.200 F 
ATOM     85  F   UNL A   1      45.615  38.250  32.241  1.00  0.00    -0.200 F 
ENDBRANCH  52  75
ENDBRANCH  26  27
ENDBRANCH  19  21
ENDBRANCH  18  19
ENDBRANCH  17  18
ENDBRANCH   1  17
TORSDOF 14
ENDMDL
MODEL 3
REMARK VINA RESULT:      -9.8      4.285     11.198
REMARK SMILES CO[C@H]1CC[C@@H]([NH2+]CC(=O)OCCOC(=O)c2ccc(-c3c4nc(c(-c5c(F)c(F)c(F)c(F)c5F)c5ccc([nH]5)c(-c5c(F)c(F)c(F)c(F)c5F)c5nc(c(-c6c(F)c(F)c(F)c(F)c6F)c6ccc3[nH]6)C=C5)C=C4)cc2)CC1
REMARK SMILES IDX 12 1 11 2 9 3 10 4 8 5 7 6 6 9 3 10 81 11 4 12 80 13 5 14
REMARK SMILES IDX 2 15 1 16 13 17 14 18 15 19 16 20 17 21 18 22 79 23 19 24
REMARK SMILES IDX 78 25 20 26 21 27 22 28 72 29 23 30 77 31 71 32 73 33 24 34
REMARK SMILES IDX 76 35 70 36 69 37 25 39 57 40 37 41 56 42 38 43 41 44 55 45
REMARK SMILES IDX 74 46 39 47 40 48 54 50 75 51 42 52 26 53 27 54 35 55 28 56
REMARK SMILES IDX 29 57 33 58 36 59 30 60 31 61 34 62 32 63 58 64 59 65 67 66
REMARK SMILES IDX 60 67 61 68 65 69 68 70 62 71 63 72 66 73 64 74 43 75 44 76
REMARK SMILES IDX 52 77 45 78 46 79 50 80 53 81 47 82 48 83 51 84 49 85
REMARK H PARENT 7 7 7 8 73 38 41 49
REMARK Flexibility Score: inf
ROOT
ATOM      1  C   UNL A   1      41.018  19.982  26.722  1.00  0.00     0.274 C 
ENDROOT
BRANCH   1   2
ATOM      2  O   UNL A   1      41.595  19.175  25.682  1.00  0.00    -0.458 OA
BRANCH   2   3
ATOM      3  C   UNL A   1      42.818  18.631  25.918  1.00  0.00     0.361 C 
ATOM      4  O   UNL A   1      43.031  17.696  26.681  1.00  0.00    -0.245 OA
BRANCH   3   5
ATOM      5  C   UNL A   1      43.913  19.341  25.126  1.00  0.00     0.385 C 
BRANCH   5   6
ATOM      6  N   UNL A   1      44.384  20.587  25.754  1.00  0.00    -0.335 N 
ATOM      7  H   UNL A   1      44.044  20.601  26.716  1.00  0.00     0.347 HD
ATOM      8  H   UNL A   1      45.402  20.571  25.678  1.00  0.00     0.347 HD
BRANCH   6   9
ATOM      9  C   UNL A   1      43.950  21.824  25.103  1.00  0.00     0.183 C 
ATOM     10  C   UNL A   1      45.987  23.894  25.922  1.00  0.00     0.118 C 
ATOM     11  C   UNL A   1      46.237  22.938  24.752  1.00  0.00     0.038 C 
ATOM     12  C   UNL A   1      44.954  23.333  26.907  1.00  0.00     0.038 C 
ATOM     13  C   UNL A   1      44.954  22.420  24.104  1.00  0.00     0.067 C 
ATOM     14  C   UNL A   1      43.681  22.865  26.203  1.00  0.00     0.067 C 
BRANCH  10  15
ATOM     15  O   UNL A   1      47.254  24.109  26.557  1.00  0.00    -0.381 OA
ATOM     16  C   UNL A   1      47.165  24.698  27.845  1.00  0.00     0.195 C 
ENDBRANCH  10  15
ENDBRANCH   6   9
ENDBRANCH   5   6
ENDBRANCH   3   5
ENDBRANCH   2   3
ENDBRANCH   1   2
BRANCH   1  17
ATOM     17  C   UNL A   1      39.875  20.840  26.173  1.00  0.00     0.275 C 
BRANCH  17  18
ATOM     18  O   UNL A   1      40.222  22.238  26.152  1.00  0.00    -0.458 OA
BRANCH  18  19
ATOM     19  C   UNL A   1      39.187  23.097  26.268  1.00  0.00     0.338 C 
ATOM     20  O   UNL A   1      38.007  22.881  26.032  1.00  0.00    -0.246 OA
BRANCH  19  21
ATOM     21  C   UNL A   1      39.636  24.353  26.871  1.00  0.00     0.060 A 
ATOM     22  C   UNL A   1      39.242  24.622  28.186  1.00  0.00     0.016 A 
ATOM     23  C   UNL A   1      40.386  25.273  26.137  1.00  0.00     0.016 A 
ATOM     24  C   UNL A   1      39.615  25.821  28.783  1.00  0.00     0.010 A 
ATOM     25  C   UNL A   1      40.759  26.474  26.738  1.00  0.00     0.010 A 
ATOM     26  C   UNL A   1      40.377  26.749  28.061  1.00  0.00    -0.014 A 
BRANCH  26  27
ATOM     27  C   UNL A   1      40.801  28.008  28.705  1.00  0.00     0.031 A 
ATOM     28  C   UNL A   1      42.217  28.178  29.161  1.00  0.00     0.074 A 
ATOM     29  C   UNL A   1      39.889  28.980  28.887  1.00  0.00     0.049 A 
ATOM     30  N   UNL A   1      42.759  29.173  29.812  1.00  0.00    -0.248 NA
ATOM     31  C   UNL A   1      43.146  27.083  28.845  1.00  0.00     0.031 C 
ATOM     32  C   UNL A   1      38.492  28.910  28.457  1.00  0.00     0.029 A 
ATOM     33  N   UNL A   1      39.996  30.206  29.487  1.00  0.00    -0.354 N 
ATOM     34  C   UNL A   1      44.089  28.822  29.998  1.00  0.00     0.074 A 
ATOM     35  C   UNL A   1      44.270  27.515  29.402  1.00  0.00     0.031 C 
ATOM     36  C   UNL A   1      37.868  30.044  28.812  1.00  0.00     0.029 A 
ATOM     37  C   UNL A   1      38.811  30.898  29.527  1.00  0.00     0.049 A 
ATOM     38  H   UNL A   1      40.839  30.556  29.854  1.00  0.00     0.167 HD
ATOM     39  C   UNL A   1      45.062  29.534  30.611  1.00  0.00     0.037 A 
ATOM     40  C   UNL A   1      38.521  32.081  30.100  1.00  0.00     0.037 A 
ATOM     41  C   UNL A   1      44.865  30.836  31.193  1.00  0.00     0.049 A 
ATOM     42  C   UNL A   1      39.617  32.829  30.808  1.00  0.00     0.074 A 
ATOM     43  C   UNL A   1      45.789  31.654  31.817  1.00  0.00     0.029 A 
ATOM     44  N   UNL A   1      43.650  31.508  31.221  1.00  0.00    -0.354 N 
ATOM     45  N   UNL A   1      40.877  32.502  30.958  1.00  0.00    -0.248 NA
ATOM     46  C   UNL A   1      39.249  34.110  31.426  1.00  0.00     0.031 C 
ATOM     47  C   UNL A   1      45.125  32.804  32.259  1.00  0.00     0.029 A 
ATOM     48  C   UNL A   1      43.796  32.722  31.872  1.00  0.00     0.049 A 
ATOM     49  H   UNL A   1      42.808  31.171  30.836  1.00  0.00     0.167 HD
ATOM     50  C   UNL A   1      41.459  33.542  31.666  1.00  0.00     0.074 A 
ATOM     51  C   UNL A   1      40.417  34.519  31.903  1.00  0.00     0.031 C 
ATOM     52  C   UNL A   1      42.741  33.679  32.085  1.00  0.00     0.037 A 
BRANCH  39  53
ATOM     53  C   UNL A   1      46.424  28.913  30.710  1.00  0.00     0.064 A 
ATOM     54  C   UNL A   1      46.789  28.107  31.798  1.00  0.00     0.173 A 
ATOM     55  C   UNL A   1      47.357  29.084  29.677  1.00  0.00     0.173 A 
ATOM     56  F   UNL A   1      45.936  27.922  32.817  1.00  0.00    -0.203 F 
ATOM     57  C   UNL A   1      48.044  27.506  31.853  1.00  0.00     0.198 A 
ATOM     58  C   UNL A   1      48.602  28.465  29.725  1.00  0.00     0.198 A 
ATOM     59  F   UNL A   1      47.056  29.844  28.613  1.00  0.00    -0.203 F 
ATOM     60  F   UNL A   1      48.383  26.763  32.917  1.00  0.00    -0.200 F 
ATOM     61  C   UNL A   1      48.947  27.679  30.815  1.00  0.00     0.200 A 
ATOM     62  F   UNL A   1      49.470  28.626  28.716  1.00  0.00    -0.200 F 
ATOM     63  F   UNL A   1      50.151  27.092  30.865  1.00  0.00    -0.200 F 
ENDBRANCH  39  53
BRANCH  40  64
ATOM     64  C   UNL A   1      37.138  32.619  30.034  1.00  0.00     0.064 A 
ATOM     65  C   UNL A   1      36.714  33.387  28.942  1.00  0.00     0.173 A 
ATOM     66  C   UNL A   1      36.215  32.382  31.064  1.00  0.00     0.173 A 
ATOM     67  F   UNL A   1      37.567  33.658  27.943  1.00  0.00    -0.203 F 
ATOM     68  C   UNL A   1      35.425  33.912  28.890  1.00  0.00     0.198 A 
ATOM     69  C   UNL A   1      34.918  32.884  30.998  1.00  0.00     0.198 A 
ATOM     70  F   UNL A   1      36.573  31.653  32.132  1.00  0.00    -0.203 F 
ATOM     71  F   UNL A   1      35.059  34.681  27.855  1.00  0.00    -0.200 F 
ATOM     72  C   UNL A   1      34.526  33.656  29.915  1.00  0.00     0.200 A 
ATOM     73  F   UNL A   1      34.050  32.626  31.985  1.00  0.00    -0.200 F 
ATOM     74  F   UNL A   1      33.286  34.161  29.863  1.00  0.00    -0.200 F 
ENDBRANCH  40  64
BRANCH  52  75
ATOM     75  C   UNL A   1      43.086  34.943  32.812  1.00  0.00     0.064 A 
ATOM     76  C   UNL A   1      43.468  36.103  32.125  1.00  0.00     0.173 A 
ATOM     77  C   UNL A   1      43.000  35.000  34.211  1.00  0.00     0.173 A 
ATOM     78  F   UNL A   1      43.581  36.088  30.787  1.00  0.00    -0.203 F 
ATOM     79  C   UNL A   1      43.777  37.271  32.814  1.00  0.00     0.198 A 
ATOM     80  C   UNL A   1      43.285  36.178  34.896  1.00  0.00     0.198 A 
ATOM     81  F   UNL A   1      42.634  33.917  34.912  1.00  0.00    -0.203 F 
ATOM     82  F   UNL A   1      44.184  38.356  32.141  1.00  0.00    -0.200 F 
ATOM     83  C   UNL A   1      43.678  37.310  34.198  1.00  0.00     0.200 A 
ATOM     84  F   UNL A   1      43.180  36.217  36.231  1.00  0.00    -0.200 F 
ATOM     85  F   UNL A   1      43.971  38.438  34.859  1.00  0.00    -0.200 F 
ENDBRANCH  52  75
ENDBRANCH  26  27
ENDBRANCH  19  21
ENDBRANCH  18  19
ENDBRANCH  17  18
ENDBRANCH   1  17
TORSDOF 14
ENDMDL
