MODEL 1
REMARK VINA RESULT:     -11.7      0.000      0.000
REMARK SMILES CC(C)C[C@H](CNC(=O)N[C@@H](C)C1CCCCC1)C(=O)OCCOC(=O)c1ccc(-c2c3nc(c(-c4c(F)c(F)c(F)c(F)c4F)c4ccc([nH]4)c(-c4c(F)c(F)c(F)c(F)c4F)c4nc(c(-c5c(F)c(F)c(F)c(F)c5F)c5ccc2[nH]5)C=C4)C=C3)cc1
REMARK SMILES IDX 22 1 21 2 19 3 20 4 5 5 4 6 2 7 1 8 3 9 6 10 7 11 8 12 9 14
REMARK SMILES IDX 10 15 11 17 12 18 13 19 14 20 18 21 15 22 17 23 16 24 23 25
REMARK SMILES IDX 24 26 25 27 26 28 27 29 28 30 89 31 29 32 88 33 30 34 31 35
REMARK SMILES IDX 32 36 82 37 33 38 87 39 81 40 83 41 34 42 86 43 80 44 79 45
REMARK SMILES IDX 35 47 67 48 47 49 66 50 48 51 51 52 65 53 84 54 49 55 50 56
REMARK SMILES IDX 64 58 85 59 52 60 36 61 37 62 45 63 38 64 39 65 43 66 46 67
REMARK SMILES IDX 40 68 41 69 44 70 42 71 68 72 69 73 77 74 70 75 71 76 75 77
REMARK SMILES IDX 78 78 72 79 73 80 76 81 74 82 53 83 54 84 62 85 55 86 56 87
REMARK SMILES IDX 60 88 63 89 57 90 58 91 61 92 59 93
REMARK H PARENT 7 13 10 16 83 46 51 57
REMARK Flexibility Score: inf
ROOT
ATOM      1  C   UNL A   1      31.758  28.121  26.695  1.00  0.00     0.274 C 
ENDROOT
BRANCH   1   2
ATOM      2  O   UNL A   1      32.534  27.297  25.801  1.00  0.00    -0.462 OA
BRANCH   2   3
ATOM      3  C   UNL A   1      32.441  25.958  25.998  1.00  0.00     0.310 C 
ATOM      4  O   UNL A   1      31.730  25.445  26.855  1.00  0.00    -0.252 OA
BRANCH   3   5
ATOM      5  C   UNL A   1      33.324  25.138  25.061  1.00  0.00     0.119 C 
BRANCH   5   6
ATOM      6  C   UNL A   1      34.314  24.241  25.837  1.00  0.00     0.020 C 
BRANCH   6   7
ATOM      7  C   UNL A   1      35.575  23.756  25.086  1.00  0.00    -0.017 C 
ATOM      8  C   UNL A   1      36.845  23.705  25.939  1.00  0.00     0.007 C 
ATOM      9  C   UNL A   1      35.317  22.363  24.500  1.00  0.00     0.007 C 
ENDBRANCH   6   7
ENDBRANCH   5   6
BRANCH   5  10
ATOM     10  C   UNL A   1      33.973  26.031  23.973  1.00  0.00     0.133 C 
BRANCH  10  11
ATOM     11  N   UNL A   1      33.706  25.617  22.607  1.00  0.00    -0.337 N 
ATOM     12  C   UNL A   1      32.907  25.989  21.614  1.00  0.00     0.315 C 
ATOM     13  H   UNL A   1      34.273  24.855  22.346  1.00  0.00     0.165 HD
ATOM     14  O   UNL A   1      33.018  25.382  20.545  1.00  0.00    -0.249 OA
ATOM     15  N   UNL A   1      31.996  26.956  21.673  1.00  0.00    -0.335 N 
ATOM     16  H   UNL A   1      31.498  27.032  20.827  1.00  0.00     0.165 HD
BRANCH  15  17
ATOM     17  C   UNL A   1      31.537  27.935  22.654  1.00  0.00     0.083 C 
ATOM     18  C   UNL A   1      32.577  29.054  22.743  1.00  0.00     0.031 C 
BRANCH  17  19
ATOM     19  C   UNL A   1      30.099  28.416  22.303  1.00  0.00     0.011 C 
ATOM     20  C   UNL A   1      29.096  28.096  23.429  1.00  0.00     0.006 C 
ATOM     21  C   UNL A   1      30.005  29.908  21.924  1.00  0.00     0.006 C 
ATOM     22  C   UNL A   1      27.671  28.505  23.060  1.00  0.00     0.000 C 
ATOM     23  C   UNL A   1      28.578  30.309  21.556  1.00  0.00     0.000 C 
ATOM     24  C   UNL A   1      27.595  29.978  22.672  1.00  0.00     0.000 C 
ENDBRANCH  17  19
ENDBRANCH  15  17
ENDBRANCH  10  11
ENDBRANCH   5  10
ENDBRANCH   3   5
ENDBRANCH   2   3
ENDBRANCH   1   2
BRANCH   1  25
ATOM     25  C   UNL A   1      31.758  29.598  26.273  1.00  0.00     0.275 C 
BRANCH  25  26
ATOM     26  O   UNL A   1      33.088  30.136  26.130  1.00  0.00    -0.458 OA
BRANCH  26  27
ATOM     27  C   UNL A   1      33.397  31.159  26.958  1.00  0.00     0.338 C 
ATOM     28  O   UNL A   1      32.670  32.098  27.267  1.00  0.00    -0.246 OA
BRANCH  27  29
ATOM     29  C   UNL A   1      34.704  30.937  27.600  1.00  0.00     0.060 A 
ATOM     30  C   UNL A   1      35.060  29.622  27.922  1.00  0.00     0.016 A 
ATOM     31  C   UNL A   1      35.540  31.998  27.951  1.00  0.00     0.016 A 
ATOM     32  C   UNL A   1      36.247  29.357  28.597  1.00  0.00     0.010 A 
ATOM     33  C   UNL A   1      36.730  31.732  28.640  1.00  0.00     0.010 A 
ATOM     34  C   UNL A   1      37.084  30.413  28.977  1.00  0.00    -0.014 A 
BRANCH  34  35
ATOM     35  C   UNL A   1      38.290  30.135  29.790  1.00  0.00     0.031 A 
ATOM     36  C   UNL A   1      39.372  29.258  29.233  1.00  0.00     0.074 A 
ATOM     37  C   UNL A   1      38.426  30.689  31.009  1.00  0.00     0.049 A 
ATOM     38  N   UNL A   1      40.461  28.816  29.808  1.00  0.00    -0.248 NA
ATOM     39  C   UNL A   1      39.205  28.821  27.838  1.00  0.00     0.031 C 
ATOM     40  C   UNL A   1      37.474  31.606  31.631  1.00  0.00     0.029 A 
ATOM     41  N   UNL A   1      39.424  30.554  31.943  1.00  0.00    -0.354 N 
ATOM     42  C   UNL A   1      41.098  28.033  28.855  1.00  0.00     0.074 A 
ATOM     43  C   UNL A   1      40.271  28.051  27.668  1.00  0.00     0.031 C 
ATOM     44  C   UNL A   1      37.926  31.946  32.849  1.00  0.00     0.029 A 
ATOM     45  C   UNL A   1      39.175  31.235  33.108  1.00  0.00     0.049 A 
ATOM     46  H   UNL A   1      40.237  30.021  31.791  1.00  0.00     0.167 HD
ATOM     47  C   UNL A   1      42.270  27.362  28.965  1.00  0.00     0.037 A 
ATOM     48  C   UNL A   1      39.865  31.255  34.265  1.00  0.00     0.037 A 
ATOM     49  C   UNL A   1      43.095  27.358  30.144  1.00  0.00     0.049 A 
ATOM     50  C   UNL A   1      41.130  30.447  34.384  1.00  0.00     0.074 A 
ATOM     51  C   UNL A   1      44.301  26.711  30.352  1.00  0.00     0.029 A 
ATOM     52  N   UNL A   1      42.797  28.035  31.317  1.00  0.00    -0.354 N 
ATOM     53  N   UNL A   1      41.720  29.698  33.484  1.00  0.00    -0.248 NA
ATOM     54  C   UNL A   1      41.820  30.483  35.681  1.00  0.00     0.031 C 
ATOM     55  C   UNL A   1      44.713  26.966  31.665  1.00  0.00     0.029 A 
ATOM     56  C   UNL A   1      43.787  27.808  32.260  1.00  0.00     0.049 A 
ATOM     57  H   UNL A   1      42.000  28.595  31.460  1.00  0.00     0.167 HD
ATOM     58  C   UNL A   1      42.860  29.194  34.096  1.00  0.00     0.074 A 
ATOM     59  C   UNL A   1      42.885  29.732  35.441  1.00  0.00     0.031 C 
ATOM     60  C   UNL A   1      43.801  28.359  33.590  1.00  0.00     0.037 A 
BRANCH  47  61
ATOM     61  C   UNL A   1      42.712  26.546  27.787  1.00  0.00     0.064 A 
ATOM     62  C   UNL A   1      43.578  27.064  26.813  1.00  0.00     0.173 A 
ATOM     63  C   UNL A   1      42.290  25.214  27.652  1.00  0.00     0.173 A 
ATOM     64  F   UNL A   1      43.996  28.336  26.890  1.00  0.00    -0.203 F 
ATOM     65  C   UNL A   1      43.988  26.284  25.734  1.00  0.00     0.198 A 
ATOM     66  C   UNL A   1      42.723  24.431  26.586  1.00  0.00     0.198 A 
ATOM     67  F   UNL A   1      41.464  24.671  28.558  1.00  0.00    -0.203 F 
ATOM     68  F   UNL A   1      44.783  26.812  24.793  1.00  0.00    -0.200 F 
ATOM     69  C   UNL A   1      43.566  24.967  25.625  1.00  0.00     0.200 A 
ATOM     70  F   UNL A   1      42.321  23.156  26.486  1.00  0.00    -0.200 F 
ATOM     71  F   UNL A   1      43.966  24.217  24.589  1.00  0.00    -0.200 F 
ENDBRANCH  47  61
BRANCH  48  72
ATOM     72  C   UNL A   1      39.358  32.047  35.415  1.00  0.00     0.064 A 
ATOM     73  C   UNL A   1      38.534  31.466  36.388  1.00  0.00     0.173 A 
ATOM     74  C   UNL A   1      39.678  33.406  35.558  1.00  0.00     0.173 A 
ATOM     75  F   UNL A   1      38.178  30.177  36.279  1.00  0.00    -0.203 F 
ATOM     76  C   UNL A   1      38.039  32.215  37.453  1.00  0.00     0.198 A 
ATOM     77  C   UNL A   1      39.205  34.148  36.638  1.00  0.00     0.198 A 
ATOM     78  F   UNL A   1      40.459  34.011  34.652  1.00  0.00    -0.203 F 
ATOM     79  F   UNL A   1      37.218  31.645  38.345  1.00  0.00    -0.200 F 
ATOM     80  C   UNL A   1      38.380  33.554  37.581  1.00  0.00     0.200 A 
ATOM     81  F   UNL A   1      39.544  35.438  36.762  1.00  0.00    -0.200 F 
ATOM     82  F   UNL A   1      37.906  34.273  38.607  1.00  0.00    -0.200 F 
ENDBRANCH  48  72
BRANCH  60  83
ATOM     83  C   UNL A   1      44.958  28.007  34.478  1.00  0.00     0.064 A 
ATOM     84  C   UNL A   1      44.936  26.868  35.295  1.00  0.00     0.173 A 
ATOM     85  C   UNL A   1      46.117  28.797  34.479  1.00  0.00     0.173 A 
ATOM     86  F   UNL A   1      43.844  26.090  35.340  1.00  0.00    -0.203 F 
ATOM     87  C   UNL A   1      46.027  26.544  36.098  1.00  0.00     0.198 A 
ATOM     88  C   UNL A   1      47.215  28.456  35.262  1.00  0.00     0.198 A 
ATOM     89  F   UNL A   1      46.188  29.894  33.709  1.00  0.00    -0.203 F 
ATOM     90  F   UNL A   1      45.970  25.473  36.902  1.00  0.00    -0.200 F 
ATOM     91  C   UNL A   1      47.168  27.334  36.075  1.00  0.00     0.200 A 
ATOM     92  F   UNL A   1      48.320  29.213  35.230  1.00  0.00    -0.200 F 
ATOM     93  F   UNL A   1      48.219  27.016  36.842  1.00  0.00    -0.200 F 
ENDBRANCH  60  83
ENDBRANCH  34  35
ENDBRANCH  27  29
ENDBRANCH  26  27
ENDBRANCH  25  26
ENDBRANCH   1  25
TORSDOF 17
ENDMDL
MODEL 2
REMARK VINA RESULT:     -11.7      4.107      9.069
REMARK SMILES CC(C)C[C@H](CNC(=O)N[C@@H](C)C1CCCCC1)C(=O)OCCOC(=O)c1ccc(-c2c3nc(c(-c4c(F)c(F)c(F)c(F)c4F)c4ccc([nH]4)c(-c4c(F)c(F)c(F)c(F)c4F)c4nc(c(-c5c(F)c(F)c(F)c(F)c5F)c5ccc2[nH]5)C=C4)C=C3)cc1
REMARK SMILES IDX 22 1 21 2 19 3 20 4 5 5 4 6 2 7 1 8 3 9 6 10 7 11 8 12 9 14
REMARK SMILES IDX 10 15 11 17 12 18 13 19 14 20 18 21 15 22 17 23 16 24 23 25
REMARK SMILES IDX 24 26 25 27 26 28 27 29 28 30 89 31 29 32 88 33 30 34 31 35
REMARK SMILES IDX 32 36 82 37 33 38 87 39 81 40 83 41 34 42 86 43 80 44 79 45
REMARK SMILES IDX 35 47 67 48 47 49 66 50 48 51 51 52 65 53 84 54 49 55 50 56
REMARK SMILES IDX 64 58 85 59 52 60 36 61 37 62 45 63 38 64 39 65 43 66 46 67
REMARK SMILES IDX 40 68 41 69 44 70 42 71 68 72 69 73 77 74 70 75 71 76 75 77
REMARK SMILES IDX 78 78 72 79 73 80 76 81 74 82 53 83 54 84 62 85 55 86 56 87
REMARK SMILES IDX 60 88 63 89 57 90 58 91 61 92 59 93
REMARK H PARENT 7 13 10 16 83 46 51 57
REMARK Flexibility Score: inf
ROOT
ATOM      1  C   UNL A   1      35.050  21.223  24.849  1.00  0.00     0.274 C 
ENDROOT
BRANCH   1   2
ATOM      2  O   UNL A   1      34.884  22.650  24.961  1.00  0.00    -0.462 OA
BRANCH   2   3
ATOM      3  C   UNL A   1      34.414  23.282  23.856  1.00  0.00     0.310 C 
ATOM      4  O   UNL A   1      34.990  23.272  22.773  1.00  0.00    -0.252 OA
BRANCH   3   5
ATOM      5  C   UNL A   1      33.104  24.029  24.086  1.00  0.00     0.119 C 
BRANCH   5   6
ATOM      6  C   UNL A   1      32.521  23.756  25.490  1.00  0.00     0.020 C 
BRANCH   6   7
ATOM      7  C   UNL A   1      31.038  24.119  25.728  1.00  0.00    -0.017 C 
ATOM      8  C   UNL A   1      30.344  23.287  26.810  1.00  0.00     0.007 C 
ATOM      9  C   UNL A   1      30.927  25.603  26.099  1.00  0.00     0.007 C 
ENDBRANCH   6   7
ENDBRANCH   5   6
BRANCH   5  10
ATOM     10  C   UNL A   1      32.113  23.802  22.916  1.00  0.00     0.133 C 
BRANCH  10  11
ATOM     11  N   UNL A   1      32.558  24.316  21.632  1.00  0.00    -0.337 N 
ATOM     12  C   UNL A   1      32.609  25.491  21.017  1.00  0.00     0.315 C 
ATOM     13  H   UNL A   1      32.922  23.597  21.065  1.00  0.00     0.165 HD
ATOM     14  O   UNL A   1      33.123  25.517  19.895  1.00  0.00    -0.249 OA
ATOM     15  N   UNL A   1      32.154  26.641  21.504  1.00  0.00    -0.335 N 
ATOM     16  H   UNL A   1      32.270  27.376  20.859  1.00  0.00     0.165 HD
BRANCH  15  17
ATOM     17  C   UNL A   1      31.530  27.108  22.739  1.00  0.00     0.083 C 
ATOM     18  C   UNL A   1      32.568  27.905  23.534  1.00  0.00     0.031 C 
BRANCH  17  19
ATOM     19  C   UNL A   1      30.222  27.889  22.421  1.00  0.00     0.011 C 
ATOM     20  C   UNL A   1      29.115  27.599  23.453  1.00  0.00     0.006 C 
ATOM     21  C   UNL A   1      30.415  29.412  22.270  1.00  0.00     0.006 C 
ATOM     22  C   UNL A   1      27.808  28.310  23.106  1.00  0.00     0.000 C 
ATOM     23  C   UNL A   1      29.103  30.116  21.922  1.00  0.00     0.000 C 
ATOM     24  C   UNL A   1      28.014  29.812  22.944  1.00  0.00     0.000 C 
ENDBRANCH  17  19
ENDBRANCH  15  17
ENDBRANCH  10  11
ENDBRANCH   5  10
ENDBRANCH   3   5
ENDBRANCH   2   3
ENDBRANCH   1   2
BRANCH   1  25
ATOM     25  C   UNL A   1      36.517  20.792  25.004  1.00  0.00     0.275 C 
BRANCH  25  26
ATOM     26  O   UNL A   1      37.376  21.880  25.404  1.00  0.00    -0.458 OA
BRANCH  26  27
ATOM     27  C   UNL A   1      38.566  21.519  25.935  1.00  0.00     0.338 C 
ATOM     28  O   UNL A   1      39.088  20.411  25.878  1.00  0.00    -0.246 OA
BRANCH  27  29
ATOM     29  C   UNL A   1      39.271  22.690  26.483  1.00  0.00     0.060 A 
ATOM     30  C   UNL A   1      38.821  23.962  26.106  1.00  0.00     0.016 A 
ATOM     31  C   UNL A   1      40.400  22.556  27.293  1.00  0.00     0.016 A 
ATOM     32  C   UNL A   1      39.493  25.103  26.530  1.00  0.00     0.010 A 
ATOM     33  C   UNL A   1      41.083  23.705  27.711  1.00  0.00     0.010 A 
ATOM     34  C   UNL A   1      40.640  24.983  27.322  1.00  0.00    -0.014 A 
BRANCH  34  35
ATOM     35  C   UNL A   1      41.414  26.194  27.679  1.00  0.00     0.031 A 
ATOM     36  C   UNL A   1      40.760  27.279  28.483  1.00  0.00     0.074 A 
ATOM     37  C   UNL A   1      42.702  26.308  27.308  1.00  0.00     0.049 A 
ATOM     38  N   UNL A   1      41.224  28.454  28.824  1.00  0.00    -0.248 NA
ATOM     39  C   UNL A   1      39.400  27.002  28.970  1.00  0.00     0.031 C 
ATOM     40  C   UNL A   1      43.463  25.295  26.580  1.00  0.00     0.029 A 
ATOM     41  N   UNL A   1      43.596  27.334  27.493  1.00  0.00    -0.354 N 
ATOM     42  C   UNL A   1      40.207  29.064  29.547  1.00  0.00     0.074 A 
ATOM     43  C   UNL A   1      39.098  28.136  29.587  1.00  0.00     0.031 C 
ATOM     44  C   UNL A   1      44.709  25.753  26.370  1.00  0.00     0.029 A 
ATOM     45  C   UNL A   1      44.817  27.106  26.909  1.00  0.00     0.049 A 
ATOM     46  H   UNL A   1      43.382  28.153  27.996  1.00  0.00     0.167 HD
ATOM     47  C   UNL A   1      40.205  30.290  30.124  1.00  0.00     0.037 A 
ATOM     48  C   UNL A   1      45.889  27.913  26.795  1.00  0.00     0.037 A 
ATOM     49  C   UNL A   1      41.316  31.204  30.092  1.00  0.00     0.049 A 
ATOM     50  C   UNL A   1      45.837  29.296  27.388  1.00  0.00     0.074 A 
ATOM     51  C   UNL A   1      41.412  32.467  30.650  1.00  0.00     0.029 A 
ATOM     52  N   UNL A   1      42.527  30.952  29.464  1.00  0.00    -0.354 N 
ATOM     53  N   UNL A   1      44.868  29.873  28.059  1.00  0.00    -0.248 NA
ATOM     54  C   UNL A   1      47.024  30.142  27.204  1.00  0.00     0.031 C 
ATOM     55  C   UNL A   1      42.667  32.994  30.327  1.00  0.00     0.029 A 
ATOM     56  C   UNL A   1      43.370  32.042  29.606  1.00  0.00     0.049 A 
ATOM     57  H   UNL A   1      42.754  30.120  28.989  1.00  0.00     0.167 HD
ATOM     58  C   UNL A   1      45.336  31.136  28.395  1.00  0.00     0.074 A 
ATOM     59  C   UNL A   1      46.680  31.238  27.866  1.00  0.00     0.031 C 
ATOM     60  C   UNL A   1      44.708  32.123  29.081  1.00  0.00     0.037 A 
BRANCH  47  61
ATOM     61  C   UNL A   1      38.947  30.727  30.813  1.00  0.00     0.064 A 
ATOM     62  C   UNL A   1      37.872  31.283  30.104  1.00  0.00     0.173 A 
ATOM     63  C   UNL A   1      38.803  30.555  32.198  1.00  0.00     0.173 A 
ATOM     64  F   UNL A   1      37.967  31.482  28.781  1.00  0.00    -0.203 F 
ATOM     65  C   UNL A   1      36.706  31.670  30.762  1.00  0.00     0.198 A 
ATOM     66  C   UNL A   1      37.627  30.920  32.847  1.00  0.00     0.198 A 
ATOM     67  F   UNL A   1      39.801  30.026  32.921  1.00  0.00    -0.203 F 
ATOM     68  F   UNL A   1      35.707  32.237  30.071  1.00  0.00    -0.200 F 
ATOM     69  C   UNL A   1      36.583  31.482  32.130  1.00  0.00     0.200 A 
ATOM     70  F   UNL A   1      37.505  30.730  34.169  1.00  0.00    -0.200 F 
ATOM     71  F   UNL A   1      35.458  31.851  32.760  1.00  0.00    -0.200 F 
ENDBRANCH  47  61
BRANCH  48  72
ATOM     72  C   UNL A   1      47.095  27.445  26.065  1.00  0.00     0.064 A 
ATOM     73  C   UNL A   1      48.175  26.869  26.746  1.00  0.00     0.173 A 
ATOM     74  C   UNL A   1      47.195  27.575  24.672  1.00  0.00     0.173 A 
ATOM     75  F   UNL A   1      48.137  26.749  28.082  1.00  0.00    -0.203 F 
ATOM     76  C   UNL A   1      49.316  26.452  26.065  1.00  0.00     0.198 A 
ATOM     77  C   UNL A   1      48.325  27.133  23.987  1.00  0.00     0.198 A 
ATOM     78  F   UNL A   1      46.191  28.124  23.974  1.00  0.00    -0.203 F 
ATOM     79  F   UNL A   1      50.353  25.945  26.745  1.00  0.00    -0.200 F 
ATOM     80  C   UNL A   1      49.388  26.579  24.685  1.00  0.00     0.200 A 
ATOM     81  F   UNL A   1      48.386  27.248  22.654  1.00  0.00    -0.200 F 
ATOM     82  F   UNL A   1      50.485  26.175  24.029  1.00  0.00    -0.200 F 
ENDBRANCH  48  72
BRANCH  60  83
ATOM     83  C   UNL A   1      45.481  33.384  29.333  1.00  0.00     0.064 A 
ATOM     84  C   UNL A   1      46.304  33.529  30.459  1.00  0.00     0.173 A 
ATOM     85  C   UNL A   1      45.428  34.442  28.414  1.00  0.00     0.173 A 
ATOM     86  F   UNL A   1      46.375  32.550  31.374  1.00  0.00    -0.203 F 
ATOM     87  C   UNL A   1      47.030  34.698  30.666  1.00  0.00     0.198 A 
ATOM     88  C   UNL A   1      46.176  35.599  28.611  1.00  0.00     0.198 A 
ATOM     89  F   UNL A   1      44.659  34.349  27.318  1.00  0.00    -0.203 F 
ATOM     90  F   UNL A   1      47.780  34.832  31.769  1.00  0.00    -0.200 F 
ATOM     91  C   UNL A   1      46.972  35.729  29.739  1.00  0.00     0.200 A 
ATOM     92  F   UNL A   1      46.127  36.589  27.709  1.00  0.00    -0.200 F 
ATOM     93  F   UNL A   1      47.678  36.850  29.936  1.00  0.00    -0.200 F 
ENDBRANCH  60  83
ENDBRANCH  34  35
ENDBRANCH  27  29
ENDBRANCH  26  27
ENDBRANCH  25  26
ENDBRANCH   1  25
TORSDOF 17
ENDMDL
MODEL 3
REMARK VINA RESULT:     -11.6      4.348      9.305
REMARK SMILES CC(C)C[C@H](CNC(=O)N[C@@H](C)C1CCCCC1)C(=O)OCCOC(=O)c1ccc(-c2c3nc(c(-c4c(F)c(F)c(F)c(F)c4F)c4ccc([nH]4)c(-c4c(F)c(F)c(F)c(F)c4F)c4nc(c(-c5c(F)c(F)c(F)c(F)c5F)c5ccc2[nH]5)C=C4)C=C3)cc1
REMARK SMILES IDX 22 1 21 2 19 3 20 4 5 5 4 6 2 7 1 8 3 9 6 10 7 11 8 12 9 14
REMARK SMILES IDX 10 15 11 17 12 18 13 19 14 20 18 21 15 22 17 23 16 24 23 25
REMARK SMILES IDX 24 26 25 27 26 28 27 29 28 30 89 31 29 32 88 33 30 34 31 35
REMARK SMILES IDX 32 36 82 37 33 38 87 39 81 40 83 41 34 42 86 43 80 44 79 45
REMARK SMILES IDX 35 47 67 48 47 49 66 50 48 51 51 52 65 53 84 54 49 55 50 56
REMARK SMILES IDX 64 58 85 59 52 60 36 61 37 62 45 63 38 64 39 65 43 66 46 67
REMARK SMILES IDX 40 68 41 69 44 70 42 71 68 72 69 73 77 74 70 75 71 76 75 77
REMARK SMILES IDX 78 78 72 79 73 80 76 81 74 82 53 83 54 84 62 85 55 86 56 87
REMARK SMILES IDX 60 88 63 89 57 90 58 91 61 92 59 93
REMARK H PARENT 7 13 10 16 83 46 51 57
REMARK Flexibility Score: inf
ROOT
ATOM      1  C   UNL A   1      35.417  20.077  25.122  1.00  0.00     0.274 C 
ENDROOT
BRANCH   1   2
ATOM      2  O   UNL A   1      34.266  20.322  24.289  1.00  0.00    -0.462 OA
BRANCH   2   3
ATOM      3  C   UNL A   1      33.060  20.263  24.909  1.00  0.00     0.310 C 
ATOM      4  O   UNL A   1      32.675  19.294  25.554  1.00  0.00    -0.252 OA
BRANCH   3   5
ATOM      5  C   UNL A   1      32.210  21.516  24.717  1.00  0.00     0.119 C 
BRANCH   5   6
ATOM      6  C   UNL A   1      32.489  22.202  23.362  1.00  0.00     0.020 C 
BRANCH   6   7
ATOM      7  C   UNL A   1      33.091  23.625  23.394  1.00  0.00    -0.017 C 
ATOM      8  C   UNL A   1      34.616  23.674  23.273  1.00  0.00     0.007 C 
ATOM      9  C   UNL A   1      32.478  24.466  22.268  1.00  0.00     0.007 C 
ENDBRANCH   6   7
ENDBRANCH   5   6
BRANCH   5  10
ATOM     10  C   UNL A   1      32.299  22.452  25.949  1.00  0.00     0.133 C 
BRANCH  10  11
ATOM     11  N   UNL A   1      31.090  22.519  26.751  1.00  0.00    -0.337 N 
ATOM     12  C   UNL A   1      30.093  23.375  26.943  1.00  0.00     0.315 C 
ATOM     13  H   UNL A   1      30.979  21.709  27.301  1.00  0.00     0.165 HD
ATOM     14  O   UNL A   1      29.192  23.027  27.712  1.00  0.00    -0.249 OA
ATOM     15  N   UNL A   1      29.982  24.574  26.380  1.00  0.00    -0.335 N 
ATOM     16  H   UNL A   1      29.177  25.045  26.694  1.00  0.00     0.165 HD
BRANCH  15  17
ATOM     17  C   UNL A   1      30.732  25.379  25.420  1.00  0.00     0.083 C 
ATOM     18  C   UNL A   1      29.735  26.168  24.568  1.00  0.00     0.031 C 
BRANCH  17  19
ATOM     19  C   UNL A   1      31.787  26.254  26.157  1.00  0.00     0.011 C 
ATOM     20  C   UNL A   1      32.945  26.661  25.226  1.00  0.00     0.006 C 
ATOM     21  C   UNL A   1      31.202  27.503  26.848  1.00  0.00     0.006 C 
ATOM     22  C   UNL A   1      34.017  27.463  25.963  1.00  0.00     0.000 C 
ATOM     23  C   UNL A   1      32.280  28.298  27.583  1.00  0.00     0.000 C 
ATOM     24  C   UNL A   1      33.425  28.686  26.655  1.00  0.00     0.000 C 
ENDBRANCH  17  19
ENDBRANCH  15  17
ENDBRANCH  10  11
ENDBRANCH   5  10
ENDBRANCH   3   5
ENDBRANCH   2   3
ENDBRANCH   1   2
BRANCH   1  25
ATOM     25  C   UNL A   1      35.916  21.355  25.814  1.00  0.00     0.275 C 
BRANCH  25  26
ATOM     26  O   UNL A   1      37.117  21.881  25.212  1.00  0.00    -0.458 OA
BRANCH  26  27
ATOM     27  C   UNL A   1      38.277  21.493  25.787  1.00  0.00     0.338 C 
ATOM     28  O   UNL A   1      38.774  20.372  25.752  1.00  0.00    -0.246 OA
BRANCH  27  29
ATOM     29  C   UNL A   1      38.990  22.648  26.358  1.00  0.00     0.060 A 
ATOM     30  C   UNL A   1      38.552  23.930  26.002  1.00  0.00     0.016 A 
ATOM     31  C   UNL A   1      40.114  22.491  27.170  1.00  0.00     0.016 A 
ATOM     32  C   UNL A   1      39.232  25.058  26.448  1.00  0.00     0.010 A 
ATOM     33  C   UNL A   1      40.805  23.626  27.611  1.00  0.00     0.010 A 
ATOM     34  C   UNL A   1      40.375  24.914  27.243  1.00  0.00    -0.014 A 
BRANCH  34  35
ATOM     35  C   UNL A   1      41.157  26.113  27.624  1.00  0.00     0.031 A 
ATOM     36  C   UNL A   1      40.498  27.208  28.409  1.00  0.00     0.074 A 
ATOM     37  C   UNL A   1      42.458  26.205  27.292  1.00  0.00     0.049 A 
ATOM     38  N   UNL A   1      40.970  28.375  28.765  1.00  0.00    -0.248 NA
ATOM     39  C   UNL A   1      39.119  26.953  28.854  1.00  0.00     0.031 C 
ATOM     40  C   UNL A   1      43.224  25.180  26.587  1.00  0.00     0.029 A 
ATOM     41  N   UNL A   1      43.363  27.216  27.505  1.00  0.00    -0.354 N 
ATOM     42  C   UNL A   1      39.943  29.001  29.457  1.00  0.00     0.074 A 
ATOM     43  C   UNL A   1      38.817  28.091  29.463  1.00  0.00     0.031 C 
ATOM     44  C   UNL A   1      44.483  25.617  26.415  1.00  0.00     0.029 A 
ATOM     45  C   UNL A   1      44.597  26.968  26.958  1.00  0.00     0.049 A 
ATOM     46  H   UNL A   1      43.147  28.038  28.001  1.00  0.00     0.167 HD
ATOM     47  C   UNL A   1      39.943  30.227  30.035  1.00  0.00     0.037 A 
ATOM     48  C   UNL A   1      45.685  27.758  26.877  1.00  0.00     0.037 A 
ATOM     49  C   UNL A   1      41.070  31.123  30.037  1.00  0.00     0.049 A 
ATOM     50  C   UNL A   1      45.638  29.141  27.469  1.00  0.00     0.074 A 
ATOM     51  C   UNL A   1      41.170  32.384  30.599  1.00  0.00     0.029 A 
ATOM     52  N   UNL A   1      42.295  30.850  29.446  1.00  0.00    -0.354 N 
ATOM     53  N   UNL A   1      44.659  29.733  28.111  1.00  0.00    -0.248 NA
ATOM     54  C   UNL A   1      46.844  29.967  27.321  1.00  0.00     0.031 C 
ATOM     55  C   UNL A   1      42.442  32.890  30.314  1.00  0.00     0.029 A 
ATOM     56  C   UNL A   1      43.151  31.927  29.613  1.00  0.00     0.049 A 
ATOM     57  H   UNL A   1      42.523  30.015  28.977  1.00  0.00     0.167 HD
ATOM     58  C   UNL A   1      45.138  30.988  28.462  1.00  0.00     0.074 A 
ATOM     59  C   UNL A   1      46.499  31.069  27.974  1.00  0.00     0.031 C 
ATOM     60  C   UNL A   1      44.506  31.985  29.129  1.00  0.00     0.037 A 
BRANCH  47  61
ATOM     61  C   UNL A   1      38.672  30.685  30.686  1.00  0.00     0.064 A 
ATOM     62  C   UNL A   1      38.486  30.615  32.074  1.00  0.00     0.173 A 
ATOM     63  C   UNL A   1      37.639  31.234  29.910  1.00  0.00     0.173 A 
ATOM     64  F   UNL A   1      39.437  30.084  32.856  1.00  0.00    -0.203 F 
ATOM     65  C   UNL A   1      37.303  31.059  32.659  1.00  0.00     0.198 A 
ATOM     66  C   UNL A   1      36.469  31.699  30.501  1.00  0.00     0.198 A 
ATOM     67  F   UNL A   1      37.769  31.325  28.578  1.00  0.00    -0.203 F 
ATOM     68  F   UNL A   1      37.130  30.946  33.983  1.00  0.00    -0.200 F 
ATOM     69  C   UNL A   1      36.299  31.607  31.874  1.00  0.00     0.200 A 
ATOM     70  F   UNL A   1      35.503  32.236  29.742  1.00  0.00    -0.200 F 
ATOM     71  F   UNL A   1      35.163  32.038  32.441  1.00  0.00    -0.200 F 
ENDBRANCH  47  61
BRANCH  48  72
ATOM     72  C   UNL A   1      46.904  27.269  26.184  1.00  0.00     0.064 A 
ATOM     73  C   UNL A   1      47.909  26.585  26.880  1.00  0.00     0.173 A 
ATOM     74  C   UNL A   1      47.095  27.489  24.811  1.00  0.00     0.173 A 
ATOM     75  F   UNL A   1      47.784  26.376  28.199  1.00  0.00    -0.203 F 
ATOM     76  C   UNL A   1      49.063  26.149  26.235  1.00  0.00     0.198 A 
ATOM     77  C   UNL A   1      48.238  27.029  24.160  1.00  0.00     0.198 A 
ATOM     78  F   UNL A   1      46.166  28.143  24.100  1.00  0.00    -0.203 F 
ATOM     79  F   UNL A   1      50.028  25.535  26.934  1.00  0.00    -0.200 F 
ATOM     80  C   UNL A   1      49.224  26.365  24.874  1.00  0.00     0.200 A 
ATOM     81  F   UNL A   1      48.385  27.231  22.844  1.00  0.00    -0.200 F 
ATOM     82  F   UNL A   1      50.334  25.943  24.252  1.00  0.00    -0.200 F 
ENDBRANCH  48  72
BRANCH  60  83
ATOM     83  C   UNL A   1      45.291  33.233  29.405  1.00  0.00     0.064 A 
ATOM     84  C   UNL A   1      46.085  33.363  30.554  1.00  0.00     0.173 A 
ATOM     85  C   UNL A   1      45.281  34.294  28.488  1.00  0.00     0.173 A 
ATOM     86  F   UNL A   1      46.116  32.381  31.468  1.00  0.00    -0.203 F 
ATOM     87  C   UNL A   1      46.824  34.520  30.784  1.00  0.00     0.198 A 
ATOM     88  C   UNL A   1      46.041  35.439  28.709  1.00  0.00     0.198 A 
ATOM     89  F   UNL A   1      44.541  34.216  27.371  1.00  0.00    -0.203 F 
ATOM     90  F   UNL A   1      47.545  34.640  31.908  1.00  0.00    -0.200 F 
ATOM     91  C   UNL A   1      46.808  35.554  29.858  1.00  0.00     0.200 A 
ATOM     92  F   UNL A   1      46.033  36.431  27.808  1.00  0.00    -0.200 F 
ATOM     93  F   UNL A   1      47.526  36.663  30.078  1.00  0.00    -0.200 F 
ENDBRANCH  60  83
ENDBRANCH  34  35
ENDBRANCH  27  29
ENDBRANCH  26  27
ENDBRANCH  25  26
ENDBRANCH   1  25
TORSDOF 17
ENDMDL
