MODEL 1
REMARK VINA RESULT:     -11.4      0.000      0.000
REMARK SMILES C[C@H](CC#N)[N@@H+](C)Cc1cc(F)cc(/C=C/C(=O)OCCOC(=O)c2ccc(-c3c4nc(c(-c5c(F)c(F)c(F)c(F)c5F)c5ccc([nH]5)c(-c5c(F)c(F)c(F)c(F)c5F)c5nc(c(-c6c(F)c(F)c(F)c(F)c6F)c6ccc3[nH]6)C=C5)C=C4)cc2)c1
REMARK SMILES IDX 17 1 18 2 16 3 15 4 14 5 9 6 10 7 88 8 11 9 12 10 13 11 8 12
REMARK SMILES IDX 6 13 7 14 2 16 1 17 3 18 4 19 5 20 19 21 20 22 21 23 22 24
REMARK SMILES IDX 23 25 24 26 25 27 26 28 87 29 27 30 86 31 28 32 29 33 30 34
REMARK SMILES IDX 80 35 31 36 85 37 79 38 81 39 32 40 84 41 78 42 77 43 33 45
REMARK SMILES IDX 65 46 45 47 64 48 46 49 49 50 63 51 82 52 47 53 48 54 62 56
REMARK SMILES IDX 83 57 50 58 34 59 35 60 43 61 36 62 37 63 41 64 44 65 38 66
REMARK SMILES IDX 39 67 42 68 40 69 66 70 67 71 75 72 68 73 69 74 73 75 76 76
REMARK SMILES IDX 70 77 71 78 74 79 72 80 51 81 52 82 60 83 53 84 54 85 58 86
REMARK SMILES IDX 61 87 55 88 56 89 59 90 57 91
REMARK H PARENT 6 15 81 44 49 55
REMARK Flexibility Score: inf
ROOT
ATOM      1  C   UNL A   1      40.258  21.412  26.458  1.00  0.00     0.330 C 
ATOM      2  O   UNL A   1      40.369  21.528  27.669  1.00  0.00    -0.247 OA
ENDROOT
BRANCH   1   3
ATOM      3  C   UNL A   1      38.943  21.482  25.796  1.00  0.00     0.094 C 
ATOM      4  C   UNL A   1      38.186  22.589  25.767  1.00  0.00     0.016 C 
BRANCH   4   5
ATOM      5  C   UNL A   1      36.801  22.592  25.295  1.00  0.00    -0.022 A 
ATOM      6  C   UNL A   1      34.691  21.389  24.980  1.00  0.00     0.010 A 
ATOM      7  C   UNL A   1      34.212  22.519  24.302  1.00  0.00     0.048 A 
ATOM      8  C   UNL A   1      36.007  21.448  25.471  1.00  0.00     0.018 A 
ATOM      9  C   UNL A   1      35.001  23.640  24.105  1.00  0.00     0.124 A 
ATOM     10  F   UNL A   1      34.509  24.687  23.428  1.00  0.00    -0.207 F 
ATOM     11  C   UNL A   1      36.288  23.688  24.596  1.00  0.00     0.047 A 
BRANCH   6  12
ATOM     12  C   UNL A   1      33.826  20.182  25.302  1.00  0.00     0.299 C 
BRANCH  12  13
ATOM     13  N   UNL A   1      33.511  19.205  24.242  1.00  0.00    -0.331 N 
ATOM     14  C   UNL A   1      32.269  19.569  23.558  1.00  0.00     0.333 C 
ATOM     15  H   UNL A   1      34.329  19.324  23.645  1.00  0.00     0.348 HD
BRANCH  13  16
ATOM     16  C   UNL A   1      33.686  17.744  24.429  1.00  0.00     0.195 C 
ATOM     17  C   UNL A   1      34.026  16.958  23.146  1.00  0.00     0.076 C 
BRANCH  16  18
ATOM     18  C   UNL A   1      32.689  16.955  25.348  1.00  0.00     0.184 C 
BRANCH  18  19
ATOM     19  C   UNL A   1      33.011  15.469  25.369  1.00  0.00     0.068 C 
ATOM     20  N   UNL A   1      33.278  14.237  25.385  1.00  0.00    -0.198 NA
ENDBRANCH  18  19
ENDBRANCH  16  18
ENDBRANCH  13  16
ENDBRANCH  12  13
ENDBRANCH   6  12
ENDBRANCH   4   5
ENDBRANCH   1   3
BRANCH   1  21
ATOM     21  O   UNL A   1      41.263  21.307  25.560  1.00  0.00    -0.459 OA
BRANCH  21  22
ATOM     22  C   UNL A   1      42.572  21.085  26.102  1.00  0.00     0.275 C 
BRANCH  22  23
ATOM     23  C   UNL A   1      43.603  21.956  25.379  1.00  0.00     0.275 C 
BRANCH  23  24
ATOM     24  O   UNL A   1      43.037  23.205  24.931  1.00  0.00    -0.458 OA
BRANCH  24  25
ATOM     25  C   UNL A   1      43.795  24.304  25.166  1.00  0.00     0.338 C 
ATOM     26  O   UNL A   1      44.771  24.671  24.533  1.00  0.00    -0.246 OA
BRANCH  25  27
ATOM     27  C   UNL A   1      43.220  25.099  26.270  1.00  0.00     0.060 A 
ATOM     28  C   UNL A   1      43.732  26.381  26.490  1.00  0.00     0.016 A 
ATOM     29  C   UNL A   1      42.249  24.579  27.130  1.00  0.00     0.016 A 
ATOM     30  C   UNL A   1      43.280  27.149  27.563  1.00  0.00     0.010 A 
ATOM     31  C   UNL A   1      41.794  25.350  28.208  1.00  0.00     0.010 A 
ATOM     32  C   UNL A   1      42.311  26.638  28.438  1.00  0.00    -0.014 A 
BRANCH  32  33
ATOM     33  C   UNL A   1      41.858  27.448  29.598  1.00  0.00     0.031 A 
ATOM     34  C   UNL A   1      40.646  28.328  29.485  1.00  0.00     0.074 A 
ATOM     35  C   UNL A   1      42.522  27.373  30.767  1.00  0.00     0.049 A 
ATOM     36  N   UNL A   1      40.122  29.135  30.374  1.00  0.00    -0.248 NA
ATOM     37  C   UNL A   1      39.925  28.298  28.203  1.00  0.00     0.031 C 
ATOM     38  C   UNL A   1      43.691  26.531  31.016  1.00  0.00     0.029 A 
ATOM     39  N   UNL A   1      42.309  28.014  31.963  1.00  0.00    -0.354 N 
ATOM     40  C   UNL A   1      39.017  29.710  29.760  1.00  0.00     0.074 A 
ATOM     41  C   UNL A   1      38.958  29.181  28.414  1.00  0.00     0.031 C 
ATOM     42  C   UNL A   1      44.086  26.698  32.289  1.00  0.00     0.029 A 
ATOM     43  C   UNL A   1      43.226  27.690  32.932  1.00  0.00     0.049 A 
ATOM     44  H   UNL A   1      41.569  28.647  32.112  1.00  0.00     0.167 HD
ATOM     45  C   UNL A   1      38.128  30.592  30.279  1.00  0.00     0.037 A 
ATOM     46  C   UNL A   1      43.371  28.152  34.190  1.00  0.00     0.037 A 
ATOM     47  C   UNL A   1      38.178  31.108  31.623  1.00  0.00     0.049 A 
ATOM     48  C   UNL A   1      42.407  29.180  34.719  1.00  0.00     0.074 A 
ATOM     49  C   UNL A   1      37.308  31.993  32.237  1.00  0.00     0.029 A 
ATOM     50  N   UNL A   1      39.149  30.790  32.559  1.00  0.00    -0.354 N 
ATOM     51  N   UNL A   1      41.365  29.714  34.133  1.00  0.00    -0.248 NA
ATOM     52  C   UNL A   1      42.643  29.673  36.084  1.00  0.00     0.031 C 
ATOM     53  C   UNL A   1      37.779  32.247  33.528  1.00  0.00     0.029 A 
ATOM     54  C   UNL A   1      38.913  31.480  33.738  1.00  0.00     0.049 A 
ATOM     55  H   UNL A   1      39.896  30.166  32.410  1.00  0.00     0.167 HD
ATOM     56  C   UNL A   1      40.810  30.587  35.058  1.00  0.00     0.074 A 
ATOM     57  C   UNL A   1      41.622  30.504  36.253  1.00  0.00     0.031 C 
ATOM     58  C   UNL A   1      39.725  31.388  34.925  1.00  0.00     0.037 A 
BRANCH  45  59
ATOM     59  C   UNL A   1      37.017  31.073  29.394  1.00  0.00     0.064 A 
ATOM     60  C   UNL A   1      36.999  32.400  28.936  1.00  0.00     0.173 A 
ATOM     61  C   UNL A   1      35.926  30.253  29.073  1.00  0.00     0.173 A 
ATOM     62  F   UNL A   1      38.015  33.229  29.222  1.00  0.00    -0.203 F 
ATOM     63  C   UNL A   1      35.921  32.891  28.205  1.00  0.00     0.198 A 
ATOM     64  C   UNL A   1      34.862  30.740  28.320  1.00  0.00     0.198 A 
ATOM     65  F   UNL A   1      35.901  28.975  29.480  1.00  0.00    -0.203 F 
ATOM     66  F   UNL A   1      35.909  34.172  27.808  1.00  0.00    -0.200 F 
ATOM     67  C   UNL A   1      34.855  32.061  27.896  1.00  0.00     0.200 A 
ATOM     68  F   UNL A   1      33.840  29.932  28.005  1.00  0.00    -0.200 F 
ATOM     69  F   UNL A   1      33.819  32.534  27.189  1.00  0.00    -0.200 F 
ENDBRANCH  45  59
BRANCH  46  70
ATOM     70  C   UNL A   1      44.482  27.642  35.036  1.00  0.00     0.064 A 
ATOM     71  C   UNL A   1      44.318  26.506  35.843  1.00  0.00     0.173 A 
ATOM     72  C   UNL A   1      45.724  28.289  35.064  1.00  0.00     0.173 A 
ATOM     73  F   UNL A   1      43.149  25.848  35.848  1.00  0.00    -0.203 F 
ATOM     74  C   UNL A   1      45.349  26.052  36.663  1.00  0.00     0.198 A 
ATOM     75  C   UNL A   1      46.763  27.817  35.863  1.00  0.00     0.198 A 
ATOM     76  F   UNL A   1      45.937  29.361  34.287  1.00  0.00    -0.203 F 
ATOM     77  F   UNL A   1      45.155  24.982  37.448  1.00  0.00    -0.200 F 
ATOM     78  C   UNL A   1      46.571  26.704  36.669  1.00  0.00     0.200 A 
ATOM     79  F   UNL A   1      47.953  28.433  35.843  1.00  0.00    -0.200 F 
ATOM     80  F   UNL A   1      47.568  26.258  37.446  1.00  0.00    -0.200 F 
ENDBRANCH  46  70
BRANCH  58  81
ATOM     81  C   UNL A   1      39.330  32.232  36.102  1.00  0.00     0.064 A 
ATOM     82  C   UNL A   1      38.341  31.790  36.994  1.00  0.00     0.173 A 
ATOM     83  C   UNL A   1      39.872  33.509  36.302  1.00  0.00     0.173 A 
ATOM     84  F   UNL A   1      37.784  30.579  36.842  1.00  0.00    -0.203 F 
ATOM     85  C   UNL A   1      37.899  32.602  38.035  1.00  0.00     0.198 A 
ATOM     86  C   UNL A   1      39.446  34.310  37.360  1.00  0.00     0.198 A 
ATOM     87  F   UNL A   1      40.828  33.973  35.484  1.00  0.00    -0.203 F 
ATOM     88  F   UNL A   1      36.930  32.173  38.854  1.00  0.00    -0.200 F 
ATOM     89  C   UNL A   1      38.453  33.860  38.218  1.00  0.00     0.200 A 
ATOM     90  F   UNL A   1      39.999  35.515  37.550  1.00  0.00    -0.200 F 
ATOM     91  F   UNL A   1      38.034  34.639  39.225  1.00  0.00    -0.200 F 
ENDBRANCH  58  81
ENDBRANCH  32  33
ENDBRANCH  25  27
ENDBRANCH  24  25
ENDBRANCH  23  24
ENDBRANCH  22  23
ENDBRANCH  21  22
ENDBRANCH   1  21
TORSDOF 17
ENDMDL
MODEL 2
REMARK VINA RESULT:     -11.2      5.176      9.452
REMARK SMILES C[C@H](CC#N)[N@@H+](C)Cc1cc(F)cc(/C=C/C(=O)OCCOC(=O)c2ccc(-c3c4nc(c(-c5c(F)c(F)c(F)c(F)c5F)c5ccc([nH]5)c(-c5c(F)c(F)c(F)c(F)c5F)c5nc(c(-c6c(F)c(F)c(F)c(F)c6F)c6ccc3[nH]6)C=C5)C=C4)cc2)c1
REMARK SMILES IDX 17 1 18 2 16 3 15 4 14 5 9 6 10 7 88 8 11 9 12 10 13 11 8 12
REMARK SMILES IDX 6 13 7 14 2 16 1 17 3 18 4 19 5 20 19 21 20 22 21 23 22 24
REMARK SMILES IDX 23 25 24 26 25 27 26 28 87 29 27 30 86 31 28 32 29 33 30 34
REMARK SMILES IDX 80 35 31 36 85 37 79 38 81 39 32 40 84 41 78 42 77 43 33 45
REMARK SMILES IDX 65 46 45 47 64 48 46 49 49 50 63 51 82 52 47 53 48 54 62 56
REMARK SMILES IDX 83 57 50 58 34 59 35 60 43 61 36 62 37 63 41 64 44 65 38 66
REMARK SMILES IDX 39 67 42 68 40 69 66 70 67 71 75 72 68 73 69 74 73 75 76 76
REMARK SMILES IDX 70 77 71 78 74 79 72 80 51 81 52 82 60 83 53 84 54 85 58 86
REMARK SMILES IDX 61 87 55 88 56 89 59 90 57 91
REMARK H PARENT 6 15 81 44 49 55
REMARK Flexibility Score: inf
ROOT
ATOM      1  C   UNL A   1      40.459  21.064  26.204  1.00  0.00     0.330 C 
ATOM      2  O   UNL A   1      41.250  21.989  26.310  1.00  0.00    -0.247 OA
ENDROOT
BRANCH   1   3
ATOM      3  C   UNL A   1      39.097  21.272  25.682  1.00  0.00     0.094 C 
ATOM      4  C   UNL A   1      38.398  22.403  25.865  1.00  0.00     0.016 C 
BRANCH   4   5
ATOM      5  C   UNL A   1      36.979  22.522  25.529  1.00  0.00    -0.022 A 
ATOM      6  C   UNL A   1      34.794  21.453  25.246  1.00  0.00     0.010 A 
ATOM      7  C   UNL A   1      34.313  22.685  24.781  1.00  0.00     0.048 A 
ATOM      8  C   UNL A   1      36.149  21.394  25.616  1.00  0.00     0.018 A 
ATOM      9  C   UNL A   1      35.135  23.794  24.670  1.00  0.00     0.124 A 
ATOM     10  F   UNL A   1      34.637  24.943  24.195  1.00  0.00    -0.207 F 
ATOM     11  C   UNL A   1      36.461  23.725  25.041  1.00  0.00     0.047 A 
BRANCH   6  12
ATOM     12  C   UNL A   1      33.903  20.243  25.476  1.00  0.00     0.299 C 
BRANCH  12  13
ATOM     13  N   UNL A   1      33.644  19.306  24.366  1.00  0.00    -0.331 N 
ATOM     14  C   UNL A   1      32.468  19.724  23.601  1.00  0.00     0.333 C 
ATOM     15  H   UNL A   1      34.509  19.417  23.837  1.00  0.00     0.348 HD
BRANCH  13  16
ATOM     16  C   UNL A   1      33.766  17.836  24.523  1.00  0.00     0.195 C 
ATOM     17  C   UNL A   1      33.974  17.054  23.208  1.00  0.00     0.076 C 
BRANCH  16  18
ATOM     18  C   UNL A   1      32.803  17.078  25.503  1.00  0.00     0.184 C 
BRANCH  18  19
ATOM     19  C   UNL A   1      33.046  15.578  25.469  1.00  0.00     0.068 C 
ATOM     20  N   UNL A   1      33.247  14.333  25.441  1.00  0.00    -0.198 NA
ENDBRANCH  18  19
ENDBRANCH  16  18
ENDBRANCH  13  16
ENDBRANCH  12  13
ENDBRANCH   6  12
ENDBRANCH   4   5
ENDBRANCH   1   3
BRANCH   1  21
ATOM     21  O   UNL A   1      40.710  19.756  26.435  1.00  0.00    -0.459 OA
BRANCH  21  22
ATOM     22  C   UNL A   1      41.989  19.451  27.009  1.00  0.00     0.275 C 
BRANCH  22  23
ATOM     23  C   UNL A   1      42.813  18.590  26.048  1.00  0.00     0.275 C 
BRANCH  23  24
ATOM     24  O   UNL A   1      43.032  19.249  24.783  1.00  0.00    -0.458 OA
BRANCH  24  25
ATOM     25  C   UNL A   1      44.321  19.572  24.511  1.00  0.00     0.338 C 
ATOM     26  O   UNL A   1      45.156  18.863  23.975  1.00  0.00    -0.246 OA
BRANCH  25  27
ATOM     27  C   UNL A   1      44.584  20.981  24.866  1.00  0.00     0.060 A 
ATOM     28  C   UNL A   1      45.141  21.246  26.121  1.00  0.00     0.016 A 
ATOM     29  C   UNL A   1      44.227  22.037  24.024  1.00  0.00     0.016 A 
ATOM     30  C   UNL A   1      45.344  22.561  26.541  1.00  0.00     0.010 A 
ATOM     31  C   UNL A   1      44.431  23.358  24.445  1.00  0.00     0.010 A 
ATOM     32  C   UNL A   1      44.984  23.631  25.709  1.00  0.00    -0.014 A 
BRANCH  32  33
ATOM     33  C   UNL A   1      45.172  25.029  26.176  1.00  0.00     0.031 A 
ATOM     34  C   UNL A   1      46.519  25.687  26.083  1.00  0.00     0.074 A 
ATOM     35  C   UNL A   1      44.123  25.719  26.661  1.00  0.00     0.049 A 
ATOM     36  N   UNL A   1      46.886  26.882  26.473  1.00  0.00    -0.248 NA
ATOM     37  C   UNL A   1      47.599  24.898  25.470  1.00  0.00     0.031 C 
ATOM     38  C   UNL A   1      42.759  25.207  26.770  1.00  0.00     0.029 A 
ATOM     39  N   UNL A   1      44.042  27.000  27.151  1.00  0.00    -0.354 N 
ATOM     40  C   UNL A   1      48.235  26.987  26.159  1.00  0.00     0.074 A 
ATOM     41  C   UNL A   1      48.630  25.727  25.568  1.00  0.00     0.031 C 
ATOM     42  C   UNL A   1      41.972  26.167  27.284  1.00  0.00     0.029 A 
ATOM     43  C   UNL A   1      42.784  27.346  27.580  1.00  0.00     0.049 A 
ATOM     44  H   UNL A   1      44.811  27.613  27.191  1.00  0.00     0.167 HD
ATOM     45  C   UNL A   1      49.062  28.046  26.339  1.00  0.00     0.037 A 
ATOM     46  C   UNL A   1      42.337  28.476  28.163  1.00  0.00     0.037 A 
ATOM     47  C   UNL A   1      48.665  29.306  26.914  1.00  0.00     0.049 A 
ATOM     48  C   UNL A   1      43.293  29.611  28.410  1.00  0.00     0.074 A 
ATOM     49  C   UNL A   1      49.435  30.439  27.117  1.00  0.00     0.029 A 
ATOM     50  N   UNL A   1      47.393  29.600  27.378  1.00  0.00    -0.354 N 
ATOM     51  N   UNL A   1      44.564  29.703  28.105  1.00  0.00    -0.248 NA
ATOM     52  C   UNL A   1      42.754  30.802  29.086  1.00  0.00     0.031 C 
ATOM     53  C   UNL A   1      48.642  31.401  27.748  1.00  0.00     0.029 A 
ATOM     54  C   UNL A   1      47.363  30.888  27.890  1.00  0.00     0.049 A 
ATOM     55  H   UNL A   1      46.624  28.986  27.348  1.00  0.00     0.167 HD
ATOM     56  C   UNL A   1      44.971  30.960  28.532  1.00  0.00     0.074 A 
ATOM     57  C   UNL A   1      43.809  31.604  29.105  1.00  0.00     0.031 C 
ATOM     58  C   UNL A   1      46.201  31.524  28.456  1.00  0.00     0.037 A 
BRANCH  45  59
ATOM     59  C   UNL A   1      50.494  27.898  25.918  1.00  0.00     0.064 A 
ATOM     60  C   UNL A   1      50.847  27.981  24.562  1.00  0.00     0.173 A 
ATOM     61  C   UNL A   1      51.502  27.583  26.841  1.00  0.00     0.173 A 
ATOM     62  F   UNL A   1      49.919  28.271  23.637  1.00  0.00    -0.203 F 
ATOM     63  C   UNL A   1      52.153  27.738  24.145  1.00  0.00     0.198 A 
ATOM     64  C   UNL A   1      52.811  27.365  26.423  1.00  0.00     0.198 A 
ATOM     65  F   UNL A   1      51.216  27.500  28.149  1.00  0.00    -0.203 F 
ATOM     66  F   UNL A   1      52.460  27.788  22.841  1.00  0.00    -0.200 F 
ATOM     67  C   UNL A   1      53.134  27.432  25.076  1.00  0.00     0.200 A 
ATOM     68  F   UNL A   1      53.764  27.088  27.325  1.00  0.00    -0.200 F 
ATOM     69  F   UNL A   1      54.391  27.201  24.674  1.00  0.00    -0.200 F 
ENDBRANCH  45  59
BRANCH  46  70
ATOM     70  C   UNL A   1      40.908  28.583  28.557  1.00  0.00     0.064 A 
ATOM     71  C   UNL A   1      39.939  29.048  27.656  1.00  0.00     0.173 A 
ATOM     72  C   UNL A   1      40.486  28.236  29.847  1.00  0.00     0.173 A 
ATOM     73  F   UNL A   1      40.291  29.389  26.407  1.00  0.00    -0.203 F 
ATOM     74  C   UNL A   1      38.606  29.183  28.038  1.00  0.00     0.198 A 
ATOM     75  C   UNL A   1      39.148  28.345  30.220  1.00  0.00     0.198 A 
ATOM     76  F   UNL A   1      41.371  27.759  30.735  1.00  0.00    -0.203 F 
ATOM     77  F   UNL A   1      37.706  29.660  27.166  1.00  0.00    -0.200 F 
ATOM     78  C   UNL A   1      38.211  28.827  29.318  1.00  0.00     0.200 A 
ATOM     79  F   UNL A   1      38.765  27.971  31.448  1.00  0.00    -0.200 F 
ATOM     80  F   UNL A   1      36.926  28.942  29.681  1.00  0.00    -0.200 F 
ENDBRANCH  46  70
BRANCH  58  81
ATOM     81  C   UNL A   1      46.363  32.919  28.986  1.00  0.00     0.064 A 
ATOM     82  C   UNL A   1      46.691  33.135  30.334  1.00  0.00     0.173 A 
ATOM     83  C   UNL A   1      46.116  34.041  28.183  1.00  0.00     0.173 A 
ATOM     84  F   UNL A   1      46.928  32.095  31.147  1.00  0.00    -0.203 F 
ATOM     85  C   UNL A   1      46.752  34.422  30.860  1.00  0.00     0.198 A 
ATOM     86  C   UNL A   1      46.203  35.329  28.706  1.00  0.00     0.198 A 
ATOM     87  F   UNL A   1      45.810  33.889  26.885  1.00  0.00    -0.203 F 
ATOM     88  F   UNL A   1      47.034  34.602  32.157  1.00  0.00    -0.200 F 
ATOM     89  C   UNL A   1      46.511  35.518  30.046  1.00  0.00     0.200 A 
ATOM     90  F   UNL A   1      45.992  36.388  27.913  1.00  0.00    -0.200 F 
ATOM     91  F   UNL A   1      46.577  36.758  30.550  1.00  0.00    -0.200 F 
ENDBRANCH  58  81
ENDBRANCH  32  33
ENDBRANCH  25  27
ENDBRANCH  24  25
ENDBRANCH  23  24
ENDBRANCH  22  23
ENDBRANCH  21  22
ENDBRANCH   1  21
TORSDOF 17
ENDMDL
MODEL 3
REMARK VINA RESULT:     -11.1      0.663      7.547
REMARK SMILES C[C@H](CC#N)[N@@H+](C)Cc1cc(F)cc(/C=C/C(=O)OCCOC(=O)c2ccc(-c3c4nc(c(-c5c(F)c(F)c(F)c(F)c5F)c5ccc([nH]5)c(-c5c(F)c(F)c(F)c(F)c5F)c5nc(c(-c6c(F)c(F)c(F)c(F)c6F)c6ccc3[nH]6)C=C5)C=C4)cc2)c1
REMARK SMILES IDX 17 1 18 2 16 3 15 4 14 5 9 6 10 7 88 8 11 9 12 10 13 11 8 12
REMARK SMILES IDX 6 13 7 14 2 16 1 17 3 18 4 19 5 20 19 21 20 22 21 23 22 24
REMARK SMILES IDX 23 25 24 26 25 27 26 28 87 29 27 30 86 31 28 32 29 33 30 34
REMARK SMILES IDX 80 35 31 36 85 37 79 38 81 39 32 40 84 41 78 42 77 43 33 45
REMARK SMILES IDX 65 46 45 47 64 48 46 49 49 50 63 51 82 52 47 53 48 54 62 56
REMARK SMILES IDX 83 57 50 58 34 59 35 60 43 61 36 62 37 63 41 64 44 65 38 66
REMARK SMILES IDX 39 67 42 68 40 69 66 70 67 71 75 72 68 73 69 74 73 75 76 76
REMARK SMILES IDX 70 77 71 78 74 79 72 80 51 81 52 82 60 83 53 84 54 85 58 86
REMARK SMILES IDX 61 87 55 88 56 89 59 90 57 91
REMARK H PARENT 6 15 81 44 49 55
REMARK Flexibility Score: inf
ROOT
ATOM      1  C   UNL A   1      40.802  21.886  26.531  1.00  0.00     0.330 C 
ATOM      2  O   UNL A   1      41.140  21.682  27.687  1.00  0.00    -0.247 OA
ENDROOT
BRANCH   1   3
ATOM      3  C   UNL A   1      39.398  22.158  26.176  1.00  0.00     0.094 C 
ATOM      4  C   UNL A   1      38.550  21.218  25.733  1.00  0.00     0.016 C 
BRANCH   4   5
ATOM      5  C   UNL A   1      37.229  21.533  25.188  1.00  0.00    -0.022 A 
ATOM      6  C   UNL A   1      34.922  20.839  24.748  1.00  0.00     0.010 A 
ATOM      7  C   UNL A   1      34.749  22.046  24.057  1.00  0.00     0.048 A 
ATOM      8  C   UNL A   1      36.188  20.600  25.309  1.00  0.00     0.018 A 
ATOM      9  C   UNL A   1      35.781  22.959  23.912  1.00  0.00     0.124 A 
ATOM     10  F   UNL A   1      35.576  24.087  23.220  1.00  0.00    -0.207 F 
ATOM     11  C   UNL A   1      37.017  22.715  24.472  1.00  0.00     0.047 A 
BRANCH   6  12
ATOM     12  C   UNL A   1      33.789  19.860  25.012  1.00  0.00     0.299 C 
BRANCH  12  13
ATOM     13  N   UNL A   1      33.248  19.053  23.903  1.00  0.00    -0.331 N 
ATOM     14  C   UNL A   1      32.169  19.771  23.221  1.00  0.00     0.333 C 
ATOM     15  H   UNL A   1      34.083  18.970  23.323  1.00  0.00     0.348 HD
BRANCH  13  16
ATOM     16  C   UNL A   1      33.014  17.593  24.022  1.00  0.00     0.195 C 
ATOM     17  C   UNL A   1      32.364  17.142  25.346  1.00  0.00     0.076 C 
BRANCH  16  18
ATOM     18  C   UNL A   1      34.123  16.589  23.547  1.00  0.00     0.184 C 
BRANCH  18  19
ATOM     19  C   UNL A   1      35.017  16.165  24.700  1.00  0.00     0.068 C 
ATOM     20  N   UNL A   1      35.759  15.812  25.657  1.00  0.00    -0.198 NA
ENDBRANCH  18  19
ENDBRANCH  16  18
ENDBRANCH  13  16
ENDBRANCH  12  13
ENDBRANCH   6  12
ENDBRANCH   4   5
ENDBRANCH   1   3
BRANCH   1  21
ATOM     21  O   UNL A   1      41.616  21.989  25.457  1.00  0.00    -0.459 OA
BRANCH  21  22
ATOM     22  C   UNL A   1      42.980  21.590  25.658  1.00  0.00     0.275 C 
BRANCH  22  23
ATOM     23  C   UNL A   1      43.928  22.549  24.933  1.00  0.00     0.275 C 
BRANCH  23  24
ATOM     24  O   UNL A   1      43.339  23.851  24.741  1.00  0.00    -0.458 OA
BRANCH  24  25
ATOM     25  C   UNL A   1      44.112  24.901  25.115  1.00  0.00     0.338 C 
ATOM     26  O   UNL A   1      45.155  25.264  24.596  1.00  0.00    -0.246 OA
BRANCH  25  27
ATOM     27  C   UNL A   1      43.470  25.648  26.215  1.00  0.00     0.060 A 
ATOM     28  C   UNL A   1      43.891  26.961  26.447  1.00  0.00     0.016 A 
ATOM     29  C   UNL A   1      42.524  25.059  27.058  1.00  0.00     0.016 A 
ATOM     30  C   UNL A   1      43.374  27.691  27.518  1.00  0.00     0.010 A 
ATOM     31  C   UNL A   1      42.004  25.792  28.133  1.00  0.00     0.010 A 
ATOM     32  C   UNL A   1      42.430  27.110  28.376  1.00  0.00    -0.014 A 
BRANCH  32  33
ATOM     33  C   UNL A   1      41.907  27.881  29.534  1.00  0.00     0.031 A 
ATOM     34  C   UNL A   1      42.605  27.822  30.863  1.00  0.00     0.074 A 
ATOM     35  C   UNL A   1      40.817  28.656  29.385  1.00  0.00     0.049 A 
ATOM     36  N   UNL A   1      42.277  28.392  31.996  1.00  0.00    -0.248 NA
ATOM     37  C   UNL A   1      43.833  27.017  30.930  1.00  0.00     0.031 C 
ATOM     38  C   UNL A   1      40.072  28.827  28.139  1.00  0.00     0.029 A 
ATOM     39  N   UNL A   1      40.149  29.448  30.288  1.00  0.00    -0.354 N 
ATOM     40  C   UNL A   1      43.253  28.012  32.909  1.00  0.00     0.074 A 
ATOM     41  C   UNL A   1      44.172  27.143  32.207  1.00  0.00     0.031 C 
ATOM     42  C   UNL A   1      39.054  29.678  28.352  1.00  0.00     0.029 A 
ATOM     43  C   UNL A   1      39.050  30.079  29.758  1.00  0.00     0.049 A 
ATOM     44  H   UNL A   1      40.430  29.552  31.225  1.00  0.00     0.167 HD
ATOM     45  C   UNL A   1      43.373  28.369  34.211  1.00  0.00     0.037 A 
ATOM     46  C   UNL A   1      38.132  30.876  30.340  1.00  0.00     0.037 A 
ATOM     47  C   UNL A   1      42.467  29.246  34.907  1.00  0.00     0.049 A 
ATOM     48  C   UNL A   1      38.255  31.202  31.804  1.00  0.00     0.074 A 
ATOM     49  C   UNL A   1      42.524  29.673  36.222  1.00  0.00     0.029 A 
ATOM     50  N   UNL A   1      41.341  29.829  34.347  1.00  0.00    -0.354 N 
ATOM     51  N   UNL A   1      39.183  30.842  32.656  1.00  0.00    -0.248 NA
ATOM     52  C   UNL A   1      37.200  32.043  32.390  1.00  0.00     0.031 C 
ATOM     53  C   UNL A   1      41.407  30.475  36.472  1.00  0.00     0.029 A 
ATOM     54  C   UNL A   1      40.681  30.592  35.298  1.00  0.00     0.049 A 
ATOM     55  H   UNL A   1      41.052  29.717  33.412  1.00  0.00     0.167 HD
ATOM     56  C   UNL A   1      38.837  31.424  33.868  1.00  0.00     0.074 A 
ATOM     57  C   UNL A   1      37.621  32.175  33.641  1.00  0.00     0.031 C 
ATOM     58  C   UNL A   1      39.472  31.339  35.062  1.00  0.00     0.037 A 
BRANCH  45  59
ATOM     59  C   UNL A   1      44.526  27.806  34.989  1.00  0.00     0.064 A 
ATOM     60  C   UNL A   1      44.382  26.604  35.699  1.00  0.00     0.173 A 
ATOM     61  C   UNL A   1      45.739  28.498  35.108  1.00  0.00     0.173 A 
ATOM     62  F   UNL A   1      43.238  25.907  35.626  1.00  0.00    -0.203 F 
ATOM     63  C   UNL A   1      45.406  26.125  36.512  1.00  0.00     0.198 A 
ATOM     64  C   UNL A   1      46.770  28.004  35.902  1.00  0.00     0.198 A 
ATOM     65  F   UNL A   1      45.928  29.647  34.442  1.00  0.00    -0.203 F 
ATOM     66  F   UNL A   1      45.233  24.993  37.210  1.00  0.00    -0.200 F 
ATOM     67  C   UNL A   1      46.598  26.824  36.612  1.00  0.00     0.200 A 
ATOM     68  F   UNL A   1      47.930  28.669  35.983  1.00  0.00    -0.200 F 
ATOM     69  F   UNL A   1      47.584  26.361  37.393  1.00  0.00    -0.200 F 
ENDBRANCH  45  59
BRANCH  46  70
ATOM     70  C   UNL A   1      37.011  31.418  29.530  1.00  0.00     0.064 A 
ATOM     71  C   UNL A   1      36.978  32.767  29.146  1.00  0.00     0.173 A 
ATOM     72  C   UNL A   1      35.943  30.601  29.136  1.00  0.00     0.173 A 
ATOM     73  F   UNL A   1      37.979  33.590  29.493  1.00  0.00    -0.203 F 
ATOM     74  C   UNL A   1      35.907  33.282  28.417  1.00  0.00     0.198 A 
ATOM     75  C   UNL A   1      34.887  31.110  28.384  1.00  0.00     0.198 A 
ATOM     76  F   UNL A   1      35.945  29.298  29.454  1.00  0.00    -0.203 F 
ATOM     77  F   UNL A   1      35.886  34.582  28.090  1.00  0.00    -0.200 F 
ATOM     78  C   UNL A   1      34.866  32.453  28.033  1.00  0.00     0.200 A 
ATOM     79  F   UNL A   1      33.897  30.299  27.989  1.00  0.00    -0.200 F 
ATOM     80  F   UNL A   1      33.843  32.944  27.319  1.00  0.00    -0.200 F 
ENDBRANCH  46  70
BRANCH  58  81
ATOM     81  C   UNL A   1      38.884  32.089  36.222  1.00  0.00     0.064 A 
ATOM     82  C   UNL A   1      39.226  33.431  36.449  1.00  0.00     0.173 A 
ATOM     83  C   UNL A   1      38.046  31.459  37.152  1.00  0.00     0.173 A 
ATOM     84  F   UNL A   1      40.032  34.078  35.593  1.00  0.00    -0.203 F 
ATOM     85  C   UNL A   1      38.762  34.110  37.572  1.00  0.00     0.198 A 
ATOM     86  C   UNL A   1      37.562  32.148  38.262  1.00  0.00     0.198 A 
ATOM     87  F   UNL A   1      37.680  30.181  36.974  1.00  0.00    -0.203 F 
ATOM     88  F   UNL A   1      39.130  35.380  37.786  1.00  0.00    -0.200 F 
ATOM     89  C   UNL A   1      37.929  33.469  38.476  1.00  0.00     0.200 A 
ATOM     90  F   UNL A   1      36.738  31.535  39.122  1.00  0.00    -0.200 F 
ATOM     91  F   UNL A   1      37.475  34.125  39.554  1.00  0.00    -0.200 F 
ENDBRANCH  58  81
ENDBRANCH  32  33
ENDBRANCH  25  27
ENDBRANCH  24  25
ENDBRANCH  23  24
ENDBRANCH  22  23
ENDBRANCH  21  22
ENDBRANCH   1  21
TORSDOF 17
ENDMDL
