MODEL 1
REMARK VINA RESULT:     -10.9      0.000      0.000
REMARK SMILES COCCCC(=O)N[C@H]1CC[C@@H](C(=O)OCCOC(=O)c2ccc(-c3c4nc(c(-c5c(F)c(F)c(F)c(F)c5F)c5ccc([nH]5)c(-c5c(F)c(F)c(F)c(F)c5F)c5nc(c(-c6c(F)c(F)c(F)c(F)c6F)c6ccc3[nH]6)C=C5)C=C4)cc2)CC1
REMARK SMILES IDX 15 1 13 2 14 3 12 4 9 5 10 6 85 7 11 8 84 9 8 10 6 11 7 12
REMARK SMILES IDX 5 14 4 15 3 16 2 17 1 18 16 19 17 20 18 21 19 22 20 23 21 24
REMARK SMILES IDX 22 25 83 26 23 27 82 28 24 29 25 30 26 31 76 32 27 33 81 34
REMARK SMILES IDX 75 35 77 36 28 37 80 38 74 39 73 40 29 42 61 43 41 44 60 45
REMARK SMILES IDX 42 46 45 47 59 48 78 49 43 50 44 51 58 53 79 54 46 55 30 56
REMARK SMILES IDX 31 57 39 58 32 59 33 60 37 61 40 62 34 63 35 64 38 65 36 66
REMARK SMILES IDX 62 67 63 68 71 69 64 70 65 71 69 72 72 73 66 74 67 75 70 76
REMARK SMILES IDX 68 77 47 78 48 79 56 80 49 81 50 82 54 83 57 84 51 85 52 86
REMARK SMILES IDX 55 87 53 88
REMARK H PARENT 8 13 77 41 45 52
REMARK Flexibility Score: inf
ROOT
ATOM      1  O   UNL A   1      37.765  21.485  25.967  1.00  0.00    -0.462 OA
ENDROOT
BRANCH   1   2
ATOM      2  C   UNL A   1      37.617  22.830  25.910  1.00  0.00     0.309 C 
ATOM      3  O   UNL A   1      38.478  23.646  26.213  1.00  0.00    -0.252 OA
BRANCH   2   4
ATOM      4  C   UNL A   1      36.232  23.232  25.407  1.00  0.00     0.099 C 
ATOM      5  C   UNL A   1      34.070  21.136  25.440  1.00  0.00     0.082 C 
ATOM      6  C   UNL A   1      34.530  21.841  26.737  1.00  0.00     0.026 C 
ATOM      7  C   UNL A   1      35.265  21.055  24.503  1.00  0.00     0.026 C 
ATOM      8  C   UNL A   1      35.162  23.215  26.499  1.00  0.00     0.017 C 
ATOM      9  C   UNL A   1      35.786  22.449  24.175  1.00  0.00     0.017 C 
BRANCH   5  10
ATOM     10  N   UNL A   1      33.485  19.840  25.775  1.00  0.00    -0.353 N 
ATOM     11  C   UNL A   1      32.702  18.964  25.095  1.00  0.00     0.220 C 
ATOM     12  O   UNL A   1      32.154  18.077  25.757  1.00  0.00    -0.275 OA
ATOM     13  H   UNL A   1      33.705  19.538  26.685  1.00  0.00     0.163 HD
BRANCH  11  14
ATOM     14  C   UNL A   1      32.533  19.001  23.589  1.00  0.00     0.102 C 
BRANCH  14  15
ATOM     15  C   UNL A   1      32.826  17.684  22.869  1.00  0.00     0.038 C 
BRANCH  15  16
ATOM     16  C   UNL A   1      34.168  17.003  23.156  1.00  0.00     0.160 C 
BRANCH  16  17
ATOM     17  O   UNL A   1      34.010  15.847  23.973  1.00  0.00    -0.385 OA
ATOM     18  C   UNL A   1      34.772  15.828  25.170  1.00  0.00     0.194 C 
ENDBRANCH  16  17
ENDBRANCH  15  16
ENDBRANCH  14  15
ENDBRANCH  11  14
ENDBRANCH   5  10
ENDBRANCH   2   4
ENDBRANCH   1   2
BRANCH   1  19
ATOM     19  C   UNL A   1      38.889  20.889  25.295  1.00  0.00     0.274 C 
BRANCH  19  20
ATOM     20  C   UNL A   1      39.578  19.880  26.215  1.00  0.00     0.275 C 
BRANCH  20  21
ATOM     21  O   UNL A   1      40.645  19.217  25.510  1.00  0.00    -0.458 OA
BRANCH  21  22
ATOM     22  C   UNL A   1      41.850  19.217  26.124  1.00  0.00     0.338 C 
ATOM     23  O   UNL A   1      42.595  18.273  26.311  1.00  0.00    -0.246 OA
BRANCH  22  24
ATOM     24  C   UNL A   1      42.212  20.608  26.439  1.00  0.00     0.060 A 
ATOM     25  C   UNL A   1      42.466  21.491  25.386  1.00  0.00     0.016 A 
ATOM     26  C   UNL A   1      42.347  21.026  27.763  1.00  0.00     0.016 A 
ATOM     27  C   UNL A   1      42.860  22.800  25.650  1.00  0.00     0.010 A 
ATOM     28  C   UNL A   1      42.737  22.341  28.028  1.00  0.00     0.010 A 
ATOM     29  C   UNL A   1      43.003  23.232  26.974  1.00  0.00    -0.014 A 
BRANCH  29  30
ATOM     30  C   UNL A   1      43.478  24.607  27.254  1.00  0.00     0.031 A 
ATOM     31  C   UNL A   1      42.524  25.623  27.810  1.00  0.00     0.074 A 
ATOM     32  C   UNL A   1      44.760  24.936  27.016  1.00  0.00     0.049 A 
ATOM     33  N   UNL A   1      42.712  26.897  28.043  1.00  0.00    -0.248 NA
ATOM     34  C   UNL A   1      41.177  25.139  28.150  1.00  0.00     0.031 C 
ATOM     35  C   UNL A   1      45.785  24.021  26.516  1.00  0.00     0.029 A 
ATOM     36  N   UNL A   1      45.416  26.133  27.157  1.00  0.00    -0.354 N 
ATOM     37  C   UNL A   1      41.504  27.372  28.537  1.00  0.00     0.074 A 
ATOM     38  C   UNL A   1      40.585  26.254  28.554  1.00  0.00     0.031 C 
ATOM     39  C   UNL A   1      46.942  24.691  26.386  1.00  0.00     0.029 A 
ATOM     40  C   UNL A   1      46.726  26.089  26.749  1.00  0.00     0.049 A 
ATOM     41  H   UNL A   1      44.988  26.944  27.514  1.00  0.00     0.167 HD
ATOM     42  C   UNL A   1      41.196  28.627  28.941  1.00  0.00     0.037 A 
ATOM     43  C   UNL A   1      47.639  27.075  26.653  1.00  0.00     0.037 A 
ATOM     44  C   UNL A   1      42.120  29.731  28.930  1.00  0.00     0.049 A 
ATOM     45  C   UNL A   1      47.252  28.474  27.052  1.00  0.00     0.074 A 
ATOM     46  C   UNL A   1      41.910  31.038  29.332  1.00  0.00     0.029 A 
ATOM     47  N   UNL A   1      43.434  29.656  28.488  1.00  0.00    -0.354 N 
ATOM     48  N   UNL A   1      46.111  28.916  27.522  1.00  0.00    -0.248 NA
ATOM     49  C   UNL A   1      48.281  29.512  26.904  1.00  0.00     0.031 C 
ATOM     50  C   UNL A   1      43.082  31.765  29.091  1.00  0.00     0.029 A 
ATOM     51  C   UNL A   1      44.038  30.899  28.587  1.00  0.00     0.049 A 
ATOM     52  H   UNL A   1      43.872  28.839  28.154  1.00  0.00     0.167 HD
ATOM     53  C   UNL A   1      46.290  30.274  27.748  1.00  0.00     0.074 A 
ATOM     54  C   UNL A   1      47.655  30.581  27.377  1.00  0.00     0.031 C 
ATOM     55  C   UNL A   1      45.402  31.184  28.219  1.00  0.00     0.037 A 
BRANCH  42  56
ATOM     56  C   UNL A   1      39.792  28.881  29.403  1.00  0.00     0.064 A 
ATOM     57  C   UNL A   1      38.789  29.307  28.520  1.00  0.00     0.173 A 
ATOM     58  C   UNL A   1      39.438  28.665  30.744  1.00  0.00     0.173 A 
ATOM     59  F   UNL A   1      39.080  29.543  27.231  1.00  0.00    -0.203 F 
ATOM     60  C   UNL A   1      37.489  29.531  28.967  1.00  0.00     0.198 A 
ATOM     61  C   UNL A   1      38.131  28.864  31.182  1.00  0.00     0.198 A 
ATOM     62  F   UNL A   1      40.358  28.254  31.628  1.00  0.00    -0.203 F 
ATOM     63  F   UNL A   1      36.558  29.981  28.115  1.00  0.00    -0.200 F 
ATOM     64  C   UNL A   1      37.159  29.303  30.294  1.00  0.00     0.200 A 
ATOM     65  F   UNL A   1      37.813  28.632  32.462  1.00  0.00    -0.200 F 
ATOM     66  F   UNL A   1      35.907  29.513  30.722  1.00  0.00    -0.200 F 
ENDBRANCH  42  56
BRANCH  43  67
ATOM     67  C   UNL A   1      49.001  26.776  26.140  1.00  0.00     0.064 A 
ATOM     68  C   UNL A   1      50.013  26.326  26.997  1.00  0.00     0.173 A 
ATOM     69  C   UNL A   1      49.319  26.944  24.784  1.00  0.00     0.173 A 
ATOM     70  F   UNL A   1      49.764  26.176  28.307  1.00  0.00    -0.203 F 
ATOM     71  C   UNL A   1      51.297  26.070  26.521  1.00  0.00     0.198 A 
ATOM     72  C   UNL A   1      50.595  26.659  24.304  1.00  0.00     0.198 A 
ATOM     73  F   UNL A   1      48.386  27.376  23.922  1.00  0.00    -0.203 F 
ATOM     74  F   UNL A   1      52.259  25.682  27.370  1.00  0.00    -0.200 F 
ATOM     75  C   UNL A   1      51.586  26.229  25.174  1.00  0.00     0.200 A 
ATOM     76  F   UNL A   1      50.867  26.804  22.999  1.00  0.00    -0.200 F 
ATOM     77  F   UNL A   1      52.819  25.977  24.716  1.00  0.00    -0.200 F 
ENDBRANCH  43  67
BRANCH  55  78
ATOM     78  C   UNL A   1      45.893  32.592  28.395  1.00  0.00     0.064 A 
ATOM     79  C   UNL A   1      46.493  33.019  29.589  1.00  0.00     0.173 A 
ATOM     80  C   UNL A   1      45.797  33.513  27.340  1.00  0.00     0.173 A 
ATOM     81  F   UNL A   1      46.593  32.181  30.632  1.00  0.00    -0.203 F 
ATOM     82  C   UNL A   1      46.957  34.325  29.729  1.00  0.00     0.198 A 
ATOM     83  C   UNL A   1      46.288  34.808  27.474  1.00  0.00     0.198 A 
ATOM     84  F   UNL A   1      45.238  33.151  26.176  1.00  0.00    -0.203 F 
ATOM     85  F   UNL A   1      47.485  34.725  30.893  1.00  0.00    -0.200 F 
ATOM     86  C   UNL A   1      46.861  35.215  28.669  1.00  0.00     0.200 A 
ATOM     87  F   UNL A   1      46.206  35.663  26.446  1.00  0.00    -0.200 F 
ATOM     88  F   UNL A   1      47.314  36.469  28.803  1.00  0.00    -0.200 F 
ENDBRANCH  55  78
ENDBRANCH  29  30
ENDBRANCH  22  24
ENDBRANCH  21  22
ENDBRANCH  20  21
ENDBRANCH  19  20
ENDBRANCH   1  19
TORSDOF 16
ENDMDL
MODEL 2
REMARK VINA RESULT:     -10.8      4.051     10.671
REMARK SMILES COCCCC(=O)N[C@H]1CC[C@@H](C(=O)OCCOC(=O)c2ccc(-c3c4nc(c(-c5c(F)c(F)c(F)c(F)c5F)c5ccc([nH]5)c(-c5c(F)c(F)c(F)c(F)c5F)c5nc(c(-c6c(F)c(F)c(F)c(F)c6F)c6ccc3[nH]6)C=C5)C=C4)cc2)CC1
REMARK SMILES IDX 15 1 13 2 14 3 12 4 9 5 10 6 85 7 11 8 84 9 8 10 6 11 7 12
REMARK SMILES IDX 5 14 4 15 3 16 2 17 1 18 16 19 17 20 18 21 19 22 20 23 21 24
REMARK SMILES IDX 22 25 83 26 23 27 82 28 24 29 25 30 26 31 76 32 27 33 81 34
REMARK SMILES IDX 75 35 77 36 28 37 80 38 74 39 73 40 29 42 61 43 41 44 60 45
REMARK SMILES IDX 42 46 45 47 59 48 78 49 43 50 44 51 58 53 79 54 46 55 30 56
REMARK SMILES IDX 31 57 39 58 32 59 33 60 37 61 40 62 34 63 35 64 38 65 36 66
REMARK SMILES IDX 62 67 63 68 71 69 64 70 65 71 69 72 72 73 66 74 67 75 70 76
REMARK SMILES IDX 68 77 47 78 48 79 56 80 49 81 50 82 54 83 57 84 51 85 52 86
REMARK SMILES IDX 55 87 53 88
REMARK H PARENT 8 13 77 41 45 52
REMARK Flexibility Score: inf
ROOT
ATOM      1  O   UNL A   1      42.245  22.216  25.323  1.00  0.00    -0.462 OA
ENDROOT
BRANCH   1   2
ATOM      2  C   UNL A   1      43.598  22.222  25.278  1.00  0.00     0.309 C 
ATOM      3  O   UNL A   1      44.275  21.672  24.418  1.00  0.00    -0.252 OA
BRANCH   2   4
ATOM      4  C   UNL A   1      44.205  23.013  26.434  1.00  0.00     0.099 C 
ATOM      5  C   UNL A   1      45.758  25.504  25.760  1.00  0.00     0.082 C 
ATOM      6  C   UNL A   1      44.213  25.481  25.716  1.00  0.00     0.026 C 
ATOM      7  C   UNL A   1      46.257  24.113  25.400  1.00  0.00     0.026 C 
ATOM      8  C   UNL A   1      43.589  24.402  26.606  1.00  0.00     0.017 C 
ATOM      9  C   UNL A   1      45.729  23.080  26.388  1.00  0.00     0.017 C 
BRANCH   5  10
ATOM     10  N   UNL A   1      46.251  26.561  24.882  1.00  0.00    -0.353 N 
ATOM     11  C   UNL A   1      46.301  27.915  24.984  1.00  0.00     0.220 C 
ATOM     12  O   UNL A   1      46.536  28.543  23.947  1.00  0.00    -0.275 OA
ATOM     13  H   UNL A   1      46.627  26.222  24.038  1.00  0.00     0.163 HD
BRANCH  11  14
ATOM     14  C   UNL A   1      46.142  28.652  26.299  1.00  0.00     0.102 C 
BRANCH  14  15
ATOM     15  C   UNL A   1      44.748  29.225  26.559  1.00  0.00     0.038 C 
BRANCH  15  16
ATOM     16  C   UNL A   1      44.658  30.654  27.103  1.00  0.00     0.160 C 
BRANCH  16  17
ATOM     17  O   UNL A   1      44.201  31.569  26.111  1.00  0.00    -0.385 OA
ATOM     18  C   UNL A   1      44.253  32.941  26.467  1.00  0.00     0.194 C 
ENDBRANCH  16  17
ENDBRANCH  15  16
ENDBRANCH  14  15
ENDBRANCH  11  14
ENDBRANCH   5  10
ENDBRANCH   2   4
ENDBRANCH   1   2
BRANCH   1  19
ATOM     19  C   UNL A   1      41.594  21.337  26.259  1.00  0.00     0.274 C 
BRANCH  19  20
ATOM     20  C   UNL A   1      40.089  21.298  25.985  1.00  0.00     0.275 C 
BRANCH  20  21
ATOM     21  O   UNL A   1      39.406  22.228  26.847  1.00  0.00    -0.458 OA
BRANCH  21  22
ATOM     22  C   UNL A   1      38.896  23.327  26.246  1.00  0.00     0.338 C 
ATOM     23  O   UNL A   1      38.058  23.377  25.364  1.00  0.00    -0.246 OA
BRANCH  22  24
ATOM     24  C   UNL A   1      39.426  24.519  26.926  1.00  0.00     0.060 A 
ATOM     25  C   UNL A   1      39.139  24.701  28.283  1.00  0.00     0.016 A 
ATOM     26  C   UNL A   1      40.159  25.473  26.222  1.00  0.00     0.016 A 
ATOM     27  C   UNL A   1      39.583  25.843  28.944  1.00  0.00     0.010 A 
ATOM     28  C   UNL A   1      40.609  26.617  26.887  1.00  0.00     0.010 A 
ATOM     29  C   UNL A   1      40.316  26.811  28.248  1.00  0.00    -0.014 A 
BRANCH  29  30
ATOM     30  C   UNL A   1      40.739  28.053  28.938  1.00  0.00     0.031 A 
ATOM     31  C   UNL A   1      42.156  28.196  29.407  1.00  0.00     0.074 A 
ATOM     32  C   UNL A   1      39.854  29.047  29.131  1.00  0.00     0.049 A 
ATOM     33  N   UNL A   1      42.706  29.157  30.105  1.00  0.00    -0.248 NA
ATOM     34  C   UNL A   1      43.079  27.109  29.045  1.00  0.00     0.031 C 
ATOM     35  C   UNL A   1      38.463  29.035  28.681  1.00  0.00     0.029 A 
ATOM     36  N   UNL A   1      39.993  30.255  29.765  1.00  0.00    -0.354 N 
ATOM     37  C   UNL A   1      44.032  28.785  30.281  1.00  0.00     0.074 A 
ATOM     38  C   UNL A   1      44.200  27.501  29.633  1.00  0.00     0.031 C 
ATOM     39  C   UNL A   1      37.873  30.182  29.057  1.00  0.00     0.029 A 
ATOM     40  C   UNL A   1      38.831  30.985  29.813  1.00  0.00     0.049 A 
ATOM     41  H   UNL A   1      40.844  30.569  30.149  1.00  0.00     0.167 HD
ATOM     42  C   UNL A   1      45.016  29.457  30.923  1.00  0.00     0.037 A 
ATOM     43  C   UNL A   1      38.565  32.155  30.425  1.00  0.00     0.037 A 
ATOM     44  C   UNL A   1      44.842  30.739  31.556  1.00  0.00     0.049 A 
ATOM     45  C   UNL A   1      39.662  32.853  31.183  1.00  0.00     0.074 A 
ATOM     46  C   UNL A   1      45.780  31.509  32.220  1.00  0.00     0.029 A 
ATOM     47  N   UNL A   1      43.644  31.438  31.606  1.00  0.00    -0.354 N 
ATOM     48  N   UNL A   1      40.914  32.497  31.343  1.00  0.00    -0.248 NA
ATOM     49  C   UNL A   1      39.307  34.114  31.849  1.00  0.00     0.031 C 
ATOM     50  C   UNL A   1      45.139  32.652  32.711  1.00  0.00     0.029 A 
ATOM     51  C   UNL A   1      43.815  32.619  32.308  1.00  0.00     0.049 A 
ATOM     52  H   UNL A   1      42.798  31.138  31.200  1.00  0.00     0.167 HD
ATOM     53  C   UNL A   1      41.502  33.498  32.104  1.00  0.00     0.074 A 
ATOM     54  C   UNL A   1      40.473  34.483  32.363  1.00  0.00     0.031 C 
ATOM     55  C   UNL A   1      42.779  33.592  32.550  1.00  0.00     0.037 A 
BRANCH  42  56
ATOM     56  C   UNL A   1      46.365  28.805  30.999  1.00  0.00     0.064 A 
ATOM     57  C   UNL A   1      46.663  27.834  31.965  1.00  0.00     0.173 A 
ATOM     58  C   UNL A   1      47.364  29.136  30.070  1.00  0.00     0.173 A 
ATOM     59  F   UNL A   1      45.747  27.493  32.885  1.00  0.00    -0.203 F 
ATOM     60  C   UNL A   1      47.920  27.235  32.015  1.00  0.00     0.198 A 
ATOM     61  C   UNL A   1      48.611  28.515  30.105  1.00  0.00     0.198 A 
ATOM     62  F   UNL A   1      47.130  30.056  29.123  1.00  0.00    -0.203 F 
ATOM     63  F   UNL A   1      48.197  26.342  32.975  1.00  0.00    -0.200 F 
ATOM     64  C   UNL A   1      48.889  27.570  31.082  1.00  0.00     0.200 A 
ATOM     65  F   UNL A   1      49.541  28.834  29.196  1.00  0.00    -0.200 F 
ATOM     66  F   UNL A   1      50.096  26.990  31.127  1.00  0.00    -0.200 F 
ENDBRANCH  42  56
BRANCH  43  67
ATOM     67  C   UNL A   1      37.196  32.730  30.361  1.00  0.00     0.064 A 
ATOM     68  C   UNL A   1      36.252  32.462  31.361  1.00  0.00     0.173 A 
ATOM     69  C   UNL A   1      36.803  33.551  29.293  1.00  0.00     0.173 A 
ATOM     70  F   UNL A   1      36.573  31.660  32.387  1.00  0.00    -0.203 F 
ATOM     71  C   UNL A   1      34.961  32.981  31.288  1.00  0.00     0.198 A 
ATOM     72  C   UNL A   1      35.521  34.093  29.238  1.00  0.00     0.198 A 
ATOM     73  F   UNL A   1      37.668  33.837  28.309  1.00  0.00    -0.203 F 
ATOM     74  F   UNL A   1      34.064  32.673  32.235  1.00  0.00    -0.200 F 
ATOM     75  C   UNL A   1      34.598  33.801  30.231  1.00  0.00     0.200 A 
ATOM     76  F   UNL A   1      35.178  34.895  28.219  1.00  0.00    -0.200 F 
ATOM     77  F   UNL A   1      33.358  34.304  30.165  1.00  0.00    -0.200 F 
ENDBRANCH  43  67
BRANCH  55  78
ATOM     78  C   UNL A   1      43.143  34.820  33.332  1.00  0.00     0.064 A 
ATOM     79  C   UNL A   1      43.539  36.006  32.698  1.00  0.00     0.173 A 
ATOM     80  C   UNL A   1      43.055  34.820  34.733  1.00  0.00     0.173 A 
ATOM     81  F   UNL A   1      43.654  36.053  31.362  1.00  0.00    -0.203 F 
ATOM     82  C   UNL A   1      43.858  37.142  33.439  1.00  0.00     0.198 A 
ATOM     83  C   UNL A   1      43.347  35.965  35.469  1.00  0.00     0.198 A 
ATOM     84  F   UNL A   1      42.675  33.712  35.387  1.00  0.00    -0.203 F 
ATOM     85  F   UNL A   1      44.279  38.251  32.816  1.00  0.00    -0.200 F 
ATOM     86  C   UNL A   1      43.755  37.122  34.823  1.00  0.00     0.200 A 
ATOM     87  F   UNL A   1      43.235  35.948  36.804  1.00  0.00    -0.200 F 
ATOM     88  F   UNL A   1      44.055  38.217  35.534  1.00  0.00    -0.200 F 
ENDBRANCH  55  78
ENDBRANCH  29  30
ENDBRANCH  22  24
ENDBRANCH  21  22
ENDBRANCH  20  21
ENDBRANCH  19  20
ENDBRANCH   1  19
TORSDOF 16
ENDMDL
MODEL 3
REMARK VINA RESULT:     -10.7      5.072     10.232
REMARK SMILES COCCCC(=O)N[C@H]1CC[C@@H](C(=O)OCCOC(=O)c2ccc(-c3c4nc(c(-c5c(F)c(F)c(F)c(F)c5F)c5ccc([nH]5)c(-c5c(F)c(F)c(F)c(F)c5F)c5nc(c(-c6c(F)c(F)c(F)c(F)c6F)c6ccc3[nH]6)C=C5)C=C4)cc2)CC1
REMARK SMILES IDX 15 1 13 2 14 3 12 4 9 5 10 6 85 7 11 8 84 9 8 10 6 11 7 12
REMARK SMILES IDX 5 14 4 15 3 16 2 17 1 18 16 19 17 20 18 21 19 22 20 23 21 24
REMARK SMILES IDX 22 25 83 26 23 27 82 28 24 29 25 30 26 31 76 32 27 33 81 34
REMARK SMILES IDX 75 35 77 36 28 37 80 38 74 39 73 40 29 42 61 43 41 44 60 45
REMARK SMILES IDX 42 46 45 47 59 48 78 49 43 50 44 51 58 53 79 54 46 55 30 56
REMARK SMILES IDX 31 57 39 58 32 59 33 60 37 61 40 62 34 63 35 64 38 65 36 66
REMARK SMILES IDX 62 67 63 68 71 69 64 70 65 71 69 72 72 73 66 74 67 75 70 76
REMARK SMILES IDX 68 77 47 78 48 79 56 80 49 81 50 82 54 83 57 84 51 85 52 86
REMARK SMILES IDX 55 87 53 88
REMARK H PARENT 8 13 77 41 45 52
REMARK Flexibility Score: inf
ROOT
ATOM      1  O   UNL A   1      31.912  28.010  24.346  1.00  0.00    -0.462 OA
ENDROOT
BRANCH   1   2
ATOM      2  C   UNL A   1      31.159  27.082  24.983  1.00  0.00     0.309 C 
ATOM      3  O   UNL A   1      30.034  26.738  24.646  1.00  0.00    -0.252 OA
BRANCH   2   4
ATOM      4  C   UNL A   1      31.884  26.490  26.190  1.00  0.00     0.099 C 
ATOM      5  C   UNL A   1      33.741  24.170  25.704  1.00  0.00     0.082 C 
ATOM      6  C   UNL A   1      34.145  25.616  25.338  1.00  0.00     0.026 C 
ATOM      7  C   UNL A   1      32.234  24.050  25.544  1.00  0.00     0.026 C 
ATOM      8  C   UNL A   1      33.399  26.685  26.142  1.00  0.00     0.017 C 
ATOM      9  C   UNL A   1      31.516  25.033  26.461  1.00  0.00     0.017 C 
BRANCH   5  10
ATOM     10  N   UNL A   1      34.505  23.232  24.885  1.00  0.00    -0.353 N 
ATOM     11  C   UNL A   1      34.906  21.947  25.063  1.00  0.00     0.220 C 
ATOM     12  O   UNL A   1      35.772  21.522  24.292  1.00  0.00    -0.275 OA
ATOM     13  H   UNL A   1      34.789  23.611  24.023  1.00  0.00     0.163 HD
BRANCH  11  14
ATOM     14  C   UNL A   1      34.300  21.027  26.105  1.00  0.00     0.102 C 
BRANCH  14  15
ATOM     15  C   UNL A   1      33.080  20.231  25.639  1.00  0.00     0.038 C 
BRANCH  15  16
ATOM     16  C   UNL A   1      32.574  20.478  24.215  1.00  0.00     0.160 C 
BRANCH  16  17
ATOM     17  O   UNL A   1      32.549  19.278  23.448  1.00  0.00    -0.385 OA
ATOM     18  C   UNL A   1      33.152  18.146  24.054  1.00  0.00     0.194 C 
ENDBRANCH  16  17
ENDBRANCH  15  16
ENDBRANCH  14  15
ENDBRANCH  11  14
ENDBRANCH   5  10
ENDBRANCH   2   4
ENDBRANCH   1   2
BRANCH   1  19
ATOM     19  C   UNL A   1      31.457  29.376  24.339  1.00  0.00     0.274 C 
BRANCH  19  20
ATOM     20  C   UNL A   1      31.609  29.988  25.733  1.00  0.00     0.275 C 
BRANCH  20  21
ATOM     21  O   UNL A   1      32.994  30.287  25.992  1.00  0.00    -0.458 OA
BRANCH  21  22
ATOM     22  C   UNL A   1      33.230  31.274  26.885  1.00  0.00     0.338 C 
ATOM     23  O   UNL A   1      32.503  32.205  27.182  1.00  0.00    -0.246 OA
BRANCH  22  24
ATOM     24  C   UNL A   1      34.496  30.985  27.577  1.00  0.00     0.060 A 
ATOM     25  C   UNL A   1      34.754  29.672  27.982  1.00  0.00     0.016 A 
ATOM     26  C   UNL A   1      35.399  32.007  27.867  1.00  0.00     0.016 A 
ATOM     27  C   UNL A   1      35.920  29.373  28.683  1.00  0.00     0.010 A 
ATOM     28  C   UNL A   1      36.571  31.706  28.565  1.00  0.00     0.010 A 
ATOM     29  C   UNL A   1      36.833  30.390  28.984  1.00  0.00    -0.014 A 
BRANCH  29  30
ATOM     30  C   UNL A   1      38.044  30.082  29.780  1.00  0.00     0.031 A 
ATOM     31  C   UNL A   1      39.082  29.153  29.223  1.00  0.00     0.074 A 
ATOM     32  C   UNL A   1      38.211  30.642  30.991  1.00  0.00     0.049 A 
ATOM     33  N   UNL A   1      40.166  28.686  29.788  1.00  0.00    -0.248 NA
ATOM     34  C   UNL A   1      38.871  28.686  27.844  1.00  0.00     0.031 C 
ATOM     35  C   UNL A   1      37.290  31.590  31.614  1.00  0.00     0.029 A 
ATOM     36  N   UNL A   1      39.212  30.485  31.917  1.00  0.00    -0.354 N 
ATOM     37  C   UNL A   1      40.756  27.856  28.844  1.00  0.00     0.074 A 
ATOM     38  C   UNL A   1      39.902  27.870  27.675  1.00  0.00     0.031 C 
ATOM     39  C   UNL A   1      37.765  31.929  32.825  1.00  0.00     0.029 A 
ATOM     40  C   UNL A   1      38.997  31.187  33.077  1.00  0.00     0.049 A 
ATOM     41  H   UNL A   1      40.006  29.924  31.764  1.00  0.00     0.167 HD
ATOM     42  C   UNL A   1      41.908  27.152  28.946  1.00  0.00     0.037 A 
ATOM     43  C   UNL A   1      39.702  31.203  34.225  1.00  0.00     0.037 A 
ATOM     44  C   UNL A   1      42.757  27.152  30.109  1.00  0.00     0.049 A 
ATOM     45  C   UNL A   1      40.947  30.364  34.333  1.00  0.00     0.074 A 
ATOM     46  C   UNL A   1      43.952  26.483  30.306  1.00  0.00     0.029 A 
ATOM     47  N   UNL A   1      42.496  27.856  31.276  1.00  0.00    -0.354 N 
ATOM     48  N   UNL A   1      41.502  29.585  33.436  1.00  0.00    -0.248 NA
ATOM     49  C   UNL A   1      41.662  30.404  35.617  1.00  0.00     0.031 C 
ATOM     50  C   UNL A   1      44.391  26.746  31.608  1.00  0.00     0.029 A 
ATOM     51  C   UNL A   1      43.497  27.620  32.204  1.00  0.00     0.049 A 
ATOM     52  H   UNL A   1      41.716  28.439  31.422  1.00  0.00     0.167 HD
ATOM     53  C   UNL A   1      42.640  29.062  34.034  1.00  0.00     0.074 A 
ATOM     54  C   UNL A   1      42.705  29.623  35.368  1.00  0.00     0.031 C 
ATOM     55  C   UNL A   1      43.549  28.194  33.525  1.00  0.00     0.037 A 
BRANCH  42  56
ATOM     56  C   UNL A   1      42.303  26.297  27.778  1.00  0.00     0.064 A 
ATOM     57  C   UNL A   1      43.249  26.724  26.836  1.00  0.00     0.173 A 
ATOM     58  C   UNL A   1      41.746  25.019  27.617  1.00  0.00     0.173 A 
ATOM     59  F   UNL A   1      43.799  27.944  26.936  1.00  0.00    -0.203 F 
ATOM     60  C   UNL A   1      43.607  25.912  25.762  1.00  0.00     0.198 A 
ATOM     61  C   UNL A   1      42.126  24.199  26.557  1.00  0.00     0.198 A 
ATOM     62  F   UNL A   1      40.839  24.561  28.492  1.00  0.00    -0.203 F 
ATOM     63  F   UNL A   1      44.481  26.359  24.848  1.00  0.00    -0.200 F 
ATOM     64  C   UNL A   1      43.051  24.649  25.627  1.00  0.00     0.200 A 
ATOM     65  F   UNL A   1      41.596  22.975  26.436  1.00  0.00    -0.200 F 
ATOM     66  F   UNL A   1      43.400  23.867  24.596  1.00  0.00    -0.200 F 
ENDBRANCH  42  56
BRANCH  43  67
ATOM     67  C   UNL A   1      39.236  32.029  35.369  1.00  0.00     0.064 A 
ATOM     68  C   UNL A   1      39.596  33.379  35.480  1.00  0.00     0.173 A 
ATOM     69  C   UNL A   1      38.430  31.482  36.379  1.00  0.00     0.173 A 
ATOM     70  F   UNL A   1      40.388  33.939  34.553  1.00  0.00    -0.203 F 
ATOM     71  C   UNL A   1      39.180  34.146  36.565  1.00  0.00     0.198 A 
ATOM     72  C   UNL A   1      37.990  32.260  37.447  1.00  0.00     0.198 A 
ATOM     73  F   UNL A   1      38.060  30.195  36.321  1.00  0.00    -0.203 F 
ATOM     74  F   UNL A   1      39.575  35.423  36.670  1.00  0.00    -0.200 F 
ATOM     75  C   UNL A   1      38.372  33.589  37.544  1.00  0.00     0.200 A 
ATOM     76  F   UNL A   1      37.200  31.719  38.386  1.00  0.00    -0.200 F 
ATOM     77  F   UNL A   1      37.968  34.330  38.585  1.00  0.00    -0.200 F 
ENDBRANCH  43  67
BRANCH  55  78
ATOM     78  C   UNL A   1      44.712  27.827  34.401  1.00  0.00     0.064 A 
ATOM     79  C   UNL A   1      44.678  26.701  35.235  1.00  0.00     0.173 A 
ATOM     80  C   UNL A   1      45.888  28.592  34.373  1.00  0.00     0.173 A 
ATOM     81  F   UNL A   1      43.571  25.947  35.308  1.00  0.00    -0.203 F 
ATOM     82  C   UNL A   1      45.772  26.366  36.029  1.00  0.00     0.198 A 
ATOM     83  C   UNL A   1      46.990  28.238  35.147  1.00  0.00     0.198 A 
ATOM     84  F   UNL A   1      45.973  29.676  33.587  1.00  0.00    -0.203 F 
ATOM     85  F   UNL A   1      45.703  25.312  36.854  1.00  0.00    -0.200 F 
ATOM     86  C   UNL A   1      46.929  27.130  35.979  1.00  0.00     0.200 A 
ATOM     87  F   UNL A   1      48.111  28.970  35.088  1.00  0.00    -0.200 F 
ATOM     88  F   UNL A   1      47.984  26.804  36.738  1.00  0.00    -0.200 F 
ENDBRANCH  55  78
ENDBRANCH  29  30
ENDBRANCH  22  24
ENDBRANCH  21  22
ENDBRANCH  20  21
ENDBRANCH  19  20
ENDBRANCH   1  19
TORSDOF 16
ENDMDL
