MODEL 1
REMARK VINA RESULT:     -11.3      0.000      0.000
REMARK SMILES C[C@@H](CC(=O)OCCOC(=O)c1ccc(-c2c3nc(c(-c4c(F)c(F)c(F)c(F)c4F)c4ccc([nH]4)c(-c4c(F)c(F)c(F)c(F)c4F)c4nc(c(-c5c(F)c(F)c(F)c(F)c5F)c5ccc2[nH]5)C=C4)C=C3)cc1)CC(=O)N1C[C@H](C)[C@@H](C)C1
REMARK SMILES IDX 7 1 6 2 4 3 5 4 3 5 2 6 1 7 75 8 76 9 77 10 78 11 79 12
REMARK SMILES IDX 84 13 80 14 82 15 81 16 83 17 8 18 9 19 10 20 11 21 12 22
REMARK SMILES IDX 13 23 74 24 14 25 73 26 15 27 16 28 17 29 67 30 18 31 72 32
REMARK SMILES IDX 66 33 68 34 19 35 71 36 65 37 64 38 20 40 52 41 32 42 51 43
REMARK SMILES IDX 33 44 36 45 50 46 69 47 34 48 35 49 49 51 70 52 37 53 21 54
REMARK SMILES IDX 22 55 30 56 23 57 24 58 28 59 31 60 25 61 26 62 29 63 27 64
REMARK SMILES IDX 53 65 54 66 62 67 55 68 56 69 60 70 63 71 57 72 58 73 61 74
REMARK SMILES IDX 59 75 38 76 39 77 47 78 40 79 41 80 45 81 48 82 42 83 43 84
REMARK SMILES IDX 46 85 44 86
REMARK H PARENT 68 39 36 50
REMARK Flexibility Score: inf
ROOT
ATOM      1  C   UNL A   1      42.157  20.857  26.122  1.00  0.00     0.274 C 
ENDROOT
BRANCH   1   2
ATOM      2  O   UNL A   1      40.901  21.279  25.552  1.00  0.00    -0.462 OA
BRANCH   2   3
ATOM      3  C   UNL A   1      39.875  21.508  26.408  1.00  0.00     0.306 C 
ATOM      4  O   UNL A   1      40.005  21.817  27.587  1.00  0.00    -0.252 OA
BRANCH   3   5
ATOM      5  C   UNL A   1      38.502  21.380  25.760  1.00  0.00     0.126 C 
BRANCH   5   6
ATOM      6  C   UNL A   1      37.896  22.615  25.053  1.00  0.00     0.006 C 
ATOM      7  C   UNL A   1      37.230  23.501  26.113  1.00  0.00     0.009 C 
BRANCH   6   8
ATOM      8  C   UNL A   1      36.963  22.201  23.898  1.00  0.00     0.104 C 
BRANCH   8   9
ATOM      9  C   UNL A   1      35.517  22.688  23.891  1.00  0.00     0.222 C 
ATOM     10  O   UNL A   1      35.240  23.801  23.444  1.00  0.00    -0.275 OA
ATOM     11  N   UNL A   1      34.549  21.779  24.251  1.00  0.00    -0.342 N 
ATOM     12  C   UNL A   1      33.205  21.826  23.709  1.00  0.00     0.123 C 
ATOM     13  C   UNL A   1      34.655  20.821  25.326  1.00  0.00     0.123 C 
ATOM     14  C   UNL A   1      32.324  21.177  24.779  1.00  0.00     0.010 C 
ATOM     15  C   UNL A   1      33.276  20.177  25.466  1.00  0.00     0.010 C 
ATOM     16  C   UNL A   1      31.782  22.234  25.748  1.00  0.00     0.010 C 
ATOM     17  C   UNL A   1      33.256  18.794  24.815  1.00  0.00     0.010 C 
ENDBRANCH   8   9
ENDBRANCH   6   8
ENDBRANCH   5   6
ENDBRANCH   3   5
ENDBRANCH   2   3
ENDBRANCH   1   2
BRANCH   1  18
ATOM     18  C   UNL A   1      43.298  21.724  25.594  1.00  0.00     0.275 C 
BRANCH  18  19
ATOM     19  O   UNL A   1      42.750  22.884  24.944  1.00  0.00    -0.458 OA
BRANCH  19  20
ATOM     20  C   UNL A   1      43.508  24.002  25.004  1.00  0.00     0.338 C 
ATOM     21  O   UNL A   1      44.531  24.244  24.392  1.00  0.00    -0.246 OA
BRANCH  20  22
ATOM     22  C   UNL A   1      42.879  24.957  25.926  1.00  0.00     0.060 A 
ATOM     23  C   UNL A   1      43.447  26.220  26.084  1.00  0.00     0.016 A 
ATOM     24  C   UNL A   1      41.811  24.553  26.727  1.00  0.00     0.016 A 
ATOM     25  C   UNL A   1      42.995  27.068  27.091  1.00  0.00     0.010 A 
ATOM     26  C   UNL A   1      41.325  25.423  27.705  1.00  0.00     0.010 A 
ATOM     27  C   UNL A   1      41.940  26.670  27.921  1.00  0.00    -0.014 A 
BRANCH  27  28
ATOM     28  C   UNL A   1      41.554  27.514  29.079  1.00  0.00     0.031 A 
ATOM     29  C   UNL A   1      42.367  27.451  30.342  1.00  0.00     0.074 A 
ATOM     30  C   UNL A   1      40.510  28.357  28.991  1.00  0.00     0.049 A 
ATOM     31  N   UNL A   1      42.143  28.013  31.504  1.00  0.00    -0.248 NA
ATOM     32  C   UNL A   1      43.594  26.640  30.294  1.00  0.00     0.031 C 
ATOM     33  C   UNL A   1      39.677  28.550  27.804  1.00  0.00     0.029 A 
ATOM     34  N   UNL A   1      39.975  29.215  29.918  1.00  0.00    -0.354 N 
ATOM     35  C   UNL A   1      43.174  27.590  32.331  1.00  0.00     0.074 A 
ATOM     36  C   UNL A   1      44.023  26.723  31.545  1.00  0.00     0.031 C 
ATOM     37  C   UNL A   1      38.744  29.478  28.070  1.00  0.00     0.029 A 
ATOM     38  C   UNL A   1      38.883  29.908  29.459  1.00  0.00     0.049 A 
ATOM     39  H   UNL A   1      40.340  29.323  30.826  1.00  0.00     0.167 HD
ATOM     40  C   UNL A   1      43.392  27.901  33.632  1.00  0.00     0.037 A 
ATOM     41  C   UNL A   1      38.074  30.776  30.096  1.00  0.00     0.037 A 
ATOM     42  C   UNL A   1      42.570  28.799  34.400  1.00  0.00     0.049 A 
ATOM     43  C   UNL A   1      38.338  31.106  31.539  1.00  0.00     0.074 A 
ATOM     44  C   UNL A   1      42.695  29.165  35.729  1.00  0.00     0.029 A 
ATOM     45  N   UNL A   1      41.478  29.489  33.895  1.00  0.00    -0.354 N 
ATOM     46  N   UNL A   1      39.284  30.661  32.330  1.00  0.00    -0.248 NA
ATOM     47  C   UNL A   1      37.419  32.057  32.180  1.00  0.00     0.031 C 
ATOM     48  C   UNL A   1      41.666  30.064  36.034  1.00  0.00     0.029 A 
ATOM     49  C   UNL A   1      40.921  30.283  34.886  1.00  0.00     0.049 A 
ATOM     50  H   UNL A   1      41.146  29.423  32.972  1.00  0.00     0.167 HD
ATOM     51  C   UNL A   1      39.089  31.289  33.551  1.00  0.00     0.074 A 
ATOM     52  C   UNL A   1      37.941  32.160  33.394  1.00  0.00     0.031 C 
ATOM     53  C   UNL A   1      39.791  31.153  34.702  1.00  0.00     0.037 A 
BRANCH  40  54
ATOM     54  C   UNL A   1      44.549  27.237  34.315  1.00  0.00     0.064 A 
ATOM     55  C   UNL A   1      45.811  27.844  34.390  1.00  0.00     0.173 A 
ATOM     56  C   UNL A   1      44.384  25.985  34.925  1.00  0.00     0.173 A 
ATOM     57  F   UNL A   1      46.022  29.034  33.808  1.00  0.00    -0.203 F 
ATOM     58  C   UNL A   1      46.872  27.211  35.033  1.00  0.00     0.198 A 
ATOM     59  C   UNL A   1      45.441  25.365  35.588  1.00  0.00     0.198 A 
ATOM     60  F   UNL A   1      43.196  25.364  34.884  1.00  0.00    -0.203 F 
ATOM     61  F   UNL A   1      48.080  27.791  35.060  1.00  0.00    -0.200 F 
ATOM     62  C   UNL A   1      46.684  25.976  35.636  1.00  0.00     0.200 A 
ATOM     63  F   UNL A   1      45.255  24.177  36.180  1.00  0.00    -0.200 F 
ATOM     64  F   UNL A   1      47.705  25.372  36.260  1.00  0.00    -0.200 F 
ENDBRANCH  40  54
BRANCH  41  65
ATOM     65  C   UNL A   1      36.932  31.387  29.371  1.00  0.00     0.064 A 
ATOM     66  C   UNL A   1      35.803  30.628  29.034  1.00  0.00     0.173 A 
ATOM     67  C   UNL A   1      36.945  32.739  29.001  1.00  0.00     0.173 A 
ATOM     68  F   UNL A   1      35.755  29.324  29.343  1.00  0.00    -0.203 F 
ATOM     69  C   UNL A   1      34.735  31.198  28.344  1.00  0.00     0.198 A 
ATOM     70  C   UNL A   1      35.866  33.314  28.333  1.00  0.00     0.198 A 
ATOM     71  F   UNL A   1      38.005  33.507  29.299  1.00  0.00    -0.203 F 
ATOM     72  F   UNL A   1      33.684  30.441  27.998  1.00  0.00    -0.200 F 
ATOM     73  C   UNL A   1      34.764  32.541  27.999  1.00  0.00     0.200 A 
ATOM     74  F   UNL A   1      35.894  34.615  28.012  1.00  0.00    -0.200 F 
ATOM     75  F   UNL A   1      33.735  33.089  27.340  1.00  0.00    -0.200 F 
ENDBRANCH  41  65
BRANCH  53  76
ATOM     76  C   UNL A   1      39.364  31.998  35.864  1.00  0.00     0.064 A 
ATOM     77  C   UNL A   1      39.932  33.258  36.103  1.00  0.00     0.173 A 
ATOM     78  C   UNL A   1      38.360  31.550  36.734  1.00  0.00     0.173 A 
ATOM     79  F   UNL A   1      40.906  33.721  35.306  1.00  0.00    -0.203 F 
ATOM     80  C   UNL A   1      39.526  34.028  37.189  1.00  0.00     0.198 A 
ATOM     81  C   UNL A   1      37.942  32.333  37.806  1.00  0.00     0.198 A 
ATOM     82  F   UNL A   1      37.784  30.353  36.544  1.00  0.00    -0.203 F 
ATOM     83  F   UNL A   1      40.113  35.210  37.426  1.00  0.00    -0.200 F 
ATOM     84  C   UNL A   1      38.530  33.567  38.037  1.00  0.00     0.200 A 
ATOM     85  F   UNL A   1      36.974  31.890  38.621  1.00  0.00    -0.200 F 
ATOM     86  F   UNL A   1      38.144  34.310  39.084  1.00  0.00    -0.200 F 
ENDBRANCH  53  76
ENDBRANCH  27  28
ENDBRANCH  20  22
ENDBRANCH  19  20
ENDBRANCH  18  19
ENDBRANCH   1  18
TORSDOF 14
ENDMDL
MODEL 2
REMARK VINA RESULT:     -11.3      5.324     11.275
REMARK SMILES C[C@@H](CC(=O)OCCOC(=O)c1ccc(-c2c3nc(c(-c4c(F)c(F)c(F)c(F)c4F)c4ccc([nH]4)c(-c4c(F)c(F)c(F)c(F)c4F)c4nc(c(-c5c(F)c(F)c(F)c(F)c5F)c5ccc2[nH]5)C=C4)C=C3)cc1)CC(=O)N1C[C@H](C)[C@@H](C)C1
REMARK SMILES IDX 7 1 6 2 4 3 5 4 3 5 2 6 1 7 75 8 76 9 77 10 78 11 79 12
REMARK SMILES IDX 84 13 80 14 82 15 81 16 83 17 8 18 9 19 10 20 11 21 12 22
REMARK SMILES IDX 13 23 74 24 14 25 73 26 15 27 16 28 17 29 67 30 18 31 72 32
REMARK SMILES IDX 66 33 68 34 19 35 71 36 65 37 64 38 20 40 52 41 32 42 51 43
REMARK SMILES IDX 33 44 36 45 50 46 69 47 34 48 35 49 49 51 70 52 37 53 21 54
REMARK SMILES IDX 22 55 30 56 23 57 24 58 28 59 31 60 25 61 26 62 29 63 27 64
REMARK SMILES IDX 53 65 54 66 62 67 55 68 56 69 60 70 63 71 57 72 58 73 61 74
REMARK SMILES IDX 59 75 38 76 39 77 47 78 40 79 41 80 45 81 48 82 42 83 43 84
REMARK SMILES IDX 46 85 44 86
REMARK H PARENT 68 39 36 50
REMARK Flexibility Score: inf
ROOT
ATOM      1  C   UNL A   1      33.507  34.147  28.359  1.00  0.00     0.274 C 
ENDROOT
BRANCH   1   2
ATOM      2  O   UNL A   1      32.706  34.822  29.351  1.00  0.00    -0.462 OA
BRANCH   2   3
ATOM      3  C   UNL A   1      32.903  36.154  29.508  1.00  0.00     0.306 C 
ATOM      4  O   UNL A   1      32.975  36.962  28.589  1.00  0.00    -0.252 OA
BRANCH   3   5
ATOM      5  C   UNL A   1      32.996  36.587  30.965  1.00  0.00     0.126 C 
BRANCH   5   6
ATOM      6  C   UNL A   1      32.600  35.577  32.068  1.00  0.00     0.006 C 
ATOM      7  C   UNL A   1      31.406  36.150  32.842  1.00  0.00     0.009 C 
BRANCH   6   8
ATOM      8  C   UNL A   1      33.808  35.206  32.951  1.00  0.00     0.104 C 
BRANCH   8   9
ATOM      9  C   UNL A   1      34.344  33.778  32.926  1.00  0.00     0.222 C 
ATOM     10  O   UNL A   1      33.566  32.824  32.906  1.00  0.00    -0.275 OA
ATOM     11  N   UNL A   1      35.702  33.622  32.769  1.00  0.00    -0.342 N 
ATOM     12  C   UNL A   1      36.276  32.470  32.101  1.00  0.00     0.123 C 
ATOM     13  C   UNL A   1      36.719  34.433  33.397  1.00  0.00     0.123 C 
ATOM     14  C   UNL A   1      37.675  32.320  32.703  1.00  0.00     0.010 C 
ATOM     15  C   UNL A   1      38.057  33.766  33.082  1.00  0.00     0.010 C 
ATOM     16  C   UNL A   1      37.644  31.382  33.916  1.00  0.00     0.010 C 
ATOM     17  C   UNL A   1      38.778  34.504  31.955  1.00  0.00     0.010 C 
ENDBRANCH   8   9
ENDBRANCH   6   8
ENDBRANCH   5   6
ENDBRANCH   3   5
ENDBRANCH   2   3
ENDBRANCH   1   2
BRANCH   1  18
ATOM     18  C   UNL A   1      34.393  33.094  29.020  1.00  0.00     0.275 C 
BRANCH  18  19
ATOM     19  O   UNL A   1      35.031  32.304  28.001  1.00  0.00    -0.458 OA
BRANCH  19  20
ATOM     20  C   UNL A   1      34.788  30.975  28.054  1.00  0.00     0.338 C 
ATOM     21  O   UNL A   1      33.722  30.404  27.918  1.00  0.00    -0.246 OA
BRANCH  20  22
ATOM     22  C   UNL A   1      36.057  30.265  28.267  1.00  0.00     0.060 A 
ATOM     23  C   UNL A   1      36.312  29.693  29.512  1.00  0.00     0.016 A 
ATOM     24  C   UNL A   1      37.041  30.285  27.279  1.00  0.00     0.016 A 
ATOM     25  C   UNL A   1      37.577  29.194  29.805  1.00  0.00     0.010 A 
ATOM     26  C   UNL A   1      38.296  29.738  27.556  1.00  0.00     0.010 A 
ATOM     27  C   UNL A   1      38.586  29.226  28.834  1.00  0.00    -0.014 A 
BRANCH  27  28
ATOM     28  C   UNL A   1      39.968  28.822  29.192  1.00  0.00     0.031 A 
ATOM     29  C   UNL A   1      40.787  29.709  30.087  1.00  0.00     0.074 A 
ATOM     30  C   UNL A   1      40.473  27.656  28.752  1.00  0.00     0.049 A 
ATOM     31  N   UNL A   1      42.047  29.606  30.432  1.00  0.00    -0.248 NA
ATOM     32  C   UNL A   1      40.099  30.873  30.668  1.00  0.00     0.031 C 
ATOM     33  C   UNL A   1      39.761  26.685  27.923  1.00  0.00     0.029 A 
ATOM     34  N   UNL A   1      41.707  27.088  28.948  1.00  0.00    -0.354 N 
ATOM     35  C   UNL A   1      42.310  30.710  31.232  1.00  0.00     0.074 A 
ATOM     36  C   UNL A   1      41.084  31.473  31.320  1.00  0.00     0.031 C 
ATOM     37  C   UNL A   1      40.564  25.633  27.692  1.00  0.00     0.029 A 
ATOM     38  C   UNL A   1      41.862  25.881  28.315  1.00  0.00     0.049 A 
ATOM     39  H   UNL A   1      42.413  27.508  29.490  1.00  0.00     0.167 HD
ATOM     40  C   UNL A   1      43.471  31.053  31.839  1.00  0.00     0.037 A 
ATOM     41  C   UNL A   1      42.938  25.075  28.229  1.00  0.00     0.037 A 
ATOM     42  C   UNL A   1      44.676  30.269  31.786  1.00  0.00     0.049 A 
ATOM     43  C   UNL A   1      44.215  25.478  28.914  1.00  0.00     0.074 A 
ATOM     44  C   UNL A   1      45.911  30.539  32.351  1.00  0.00     0.029 A 
ATOM     45  N   UNL A   1      44.790  29.046  31.142  1.00  0.00    -0.354 N 
ATOM     46  N   UNL A   1      44.471  26.551  29.623  1.00  0.00    -0.248 NA
ATOM     47  C   UNL A   1      45.354  24.560  28.782  1.00  0.00     0.031 C 
ATOM     48  C   UNL A   1      46.778  29.486  32.033  1.00  0.00     0.029 A 
ATOM     49  C   UNL A   1      46.073  28.547  31.299  1.00  0.00     0.049 A 
ATOM     50  H   UNL A   1      44.067  28.600  30.645  1.00  0.00     0.167 HD
ATOM     51  C   UNL A   1      45.789  26.428  30.039  1.00  0.00     0.074 A 
ATOM     52  C   UNL A   1      46.277  25.168  29.515  1.00  0.00     0.031 C 
ATOM     53  C   UNL A   1      46.531  27.284  30.782  1.00  0.00     0.037 A 
BRANCH  40  54
ATOM     54  C   UNL A   1      43.500  32.352  32.587  1.00  0.00     0.064 A 
ATOM     55  C   UNL A   1      43.805  33.565  31.953  1.00  0.00     0.173 A 
ATOM     56  C   UNL A   1      43.194  32.384  33.956  1.00  0.00     0.173 A 
ATOM     57  F   UNL A   1      44.119  33.583  30.649  1.00  0.00    -0.203 F 
ATOM     58  C   UNL A   1      43.823  34.761  32.666  1.00  0.00     0.198 A 
ATOM     59  C   UNL A   1      43.190  33.585  34.662  1.00  0.00     0.198 A 
ATOM     60  F   UNL A   1      42.892  31.252  34.608  1.00  0.00    -0.203 F 
ATOM     61  F   UNL A   1      44.155  35.903  32.049  1.00  0.00    -0.200 F 
ATOM     62  C   UNL A   1      43.510  34.770  34.018  1.00  0.00     0.200 A 
ATOM     63  F   UNL A   1      42.876  33.594  35.965  1.00  0.00    -0.200 F 
ATOM     64  F   UNL A   1      43.521  35.923  34.701  1.00  0.00    -0.200 F 
ENDBRANCH  40  54
BRANCH  41  65
ATOM     65  C   UNL A   1      42.853  23.810  27.458  1.00  0.00     0.064 A 
ATOM     66  C   UNL A   1      42.376  22.635  28.052  1.00  0.00     0.173 A 
ATOM     67  C   UNL A   1      43.246  23.751  26.113  1.00  0.00     0.173 A 
ATOM     68  F   UNL A   1      42.013  22.635  29.343  1.00  0.00    -0.203 F 
ATOM     69  C   UNL A   1      42.305  21.443  27.331  1.00  0.00     0.198 A 
ATOM     70  C   UNL A   1      43.152  22.566  25.386  1.00  0.00     0.198 A 
ATOM     71  F   UNL A   1      43.712  24.850  25.500  1.00  0.00    -0.203 F 
ATOM     72  F   UNL A   1      41.883  20.323  27.934  1.00  0.00    -0.200 F 
ATOM     73  C   UNL A   1      42.687  21.411  25.999  1.00  0.00     0.200 A 
ATOM     74  F   UNL A   1      43.511  22.542  24.096  1.00  0.00    -0.200 F 
ATOM     75  F   UNL A   1      42.615  20.267  25.306  1.00  0.00    -0.200 F 
ENDBRANCH  41  65
BRANCH  53  76
ATOM     76  C   UNL A   1      47.932  26.863  31.108  1.00  0.00     0.064 A 
ATOM     77  C   UNL A   1      48.216  26.054  32.217  1.00  0.00     0.173 A 
ATOM     78  C   UNL A   1      48.999  27.258  30.287  1.00  0.00     0.173 A 
ATOM     79  F   UNL A   1      47.230  25.665  33.038  1.00  0.00    -0.203 F 
ATOM     80  C   UNL A   1      49.524  25.676  32.507  1.00  0.00     0.198 A 
ATOM     81  C   UNL A   1      50.302  26.859  30.569  1.00  0.00     0.198 A 
ATOM     82  F   UNL A   1      48.776  28.030  29.212  1.00  0.00    -0.203 F 
ATOM     83  F   UNL A   1      49.780  24.939  33.597  1.00  0.00    -0.200 F 
ATOM     84  C   UNL A   1      50.565  26.075  31.681  1.00  0.00     0.200 A 
ATOM     85  F   UNL A   1      51.306  27.240  29.766  1.00  0.00    -0.200 F 
ATOM     86  F   UNL A   1      51.823  25.712  31.965  1.00  0.00    -0.200 F 
ENDBRANCH  53  76
ENDBRANCH  27  28
ENDBRANCH  20  22
ENDBRANCH  19  20
ENDBRANCH  18  19
ENDBRANCH   1  18
TORSDOF 14
ENDMDL
MODEL 3
REMARK VINA RESULT:     -11.1      4.873      9.034
REMARK SMILES C[C@@H](CC(=O)OCCOC(=O)c1ccc(-c2c3nc(c(-c4c(F)c(F)c(F)c(F)c4F)c4ccc([nH]4)c(-c4c(F)c(F)c(F)c(F)c4F)c4nc(c(-c5c(F)c(F)c(F)c(F)c5F)c5ccc2[nH]5)C=C4)C=C3)cc1)CC(=O)N1C[C@H](C)[C@@H](C)C1
REMARK SMILES IDX 7 1 6 2 4 3 5 4 3 5 2 6 1 7 75 8 76 9 77 10 78 11 79 12
REMARK SMILES IDX 84 13 80 14 82 15 81 16 83 17 8 18 9 19 10 20 11 21 12 22
REMARK SMILES IDX 13 23 74 24 14 25 73 26 15 27 16 28 17 29 67 30 18 31 72 32
REMARK SMILES IDX 66 33 68 34 19 35 71 36 65 37 64 38 20 40 52 41 32 42 51 43
REMARK SMILES IDX 33 44 36 45 50 46 69 47 34 48 35 49 49 51 70 52 37 53 21 54
REMARK SMILES IDX 22 55 30 56 23 57 24 58 28 59 31 60 25 61 26 62 29 63 27 64
REMARK SMILES IDX 53 65 54 66 62 67 55 68 56 69 60 70 63 71 57 72 58 73 61 74
REMARK SMILES IDX 59 75 38 76 39 77 47 78 40 79 41 80 45 81 48 82 42 83 43 84
REMARK SMILES IDX 46 85 44 86
REMARK H PARENT 68 39 36 50
REMARK Flexibility Score: inf
ROOT
ATOM      1  C   UNL A   1      36.714  22.192  23.713  1.00  0.00     0.274 C 
ENDROOT
BRANCH   1   2
ATOM      2  O   UNL A   1      35.298  22.420  23.875  1.00  0.00    -0.462 OA
BRANCH   2   3
ATOM      3  C   UNL A   1      34.853  23.692  23.732  1.00  0.00     0.306 C 
ATOM      4  O   UNL A   1      34.387  24.156  22.697  1.00  0.00    -0.252 OA
BRANCH   3   5
ATOM      5  C   UNL A   1      34.946  24.517  25.009  1.00  0.00     0.126 C 
BRANCH   5   6
ATOM      6  C   UNL A   1      33.855  24.338  26.090  1.00  0.00     0.006 C 
ATOM      7  C   UNL A   1      34.149  23.047  26.866  1.00  0.00     0.009 C 
BRANCH   6   8
ATOM      8  C   UNL A   1      32.440  24.400  25.479  1.00  0.00     0.104 C 
BRANCH   8   9
ATOM      9  C   UNL A   1      31.618  25.677  25.621  1.00  0.00     0.222 C 
ATOM     10  O   UNL A   1      30.755  25.765  26.495  1.00  0.00    -0.275 OA
ATOM     11  N   UNL A   1      31.992  26.751  24.848  1.00  0.00    -0.342 N 
ATOM     12  C   UNL A   1      31.800  28.121  25.282  1.00  0.00     0.123 C 
ATOM     13  C   UNL A   1      32.417  26.686  23.469  1.00  0.00     0.123 C 
ATOM     14  C   UNL A   1      31.683  28.934  23.990  1.00  0.00     0.010 C 
ATOM     15  C   UNL A   1      32.537  28.132  22.987  1.00  0.00     0.010 C 
ATOM     16  C   UNL A   1      30.218  29.050  23.555  1.00  0.00     0.010 C 
ATOM     17  C   UNL A   1      34.000  28.575  22.965  1.00  0.00     0.010 C 
ENDBRANCH   8   9
ENDBRANCH   6   8
ENDBRANCH   5   6
ENDBRANCH   3   5
ENDBRANCH   2   3
ENDBRANCH   1   2
BRANCH   1  18
ATOM     18  C   UNL A   1      37.174  21.048  24.612  1.00  0.00     0.275 C 
BRANCH  18  19
ATOM     19  O   UNL A   1      37.625  21.584  25.868  1.00  0.00    -0.458 OA
BRANCH  19  20
ATOM     20  C   UNL A   1      38.940  21.425  26.134  1.00  0.00     0.338 C 
ATOM     21  O   UNL A   1      39.632  20.445  25.928  1.00  0.00    -0.246 OA
BRANCH  20  22
ATOM     22  C   UNL A   1      39.468  22.674  26.700  1.00  0.00     0.060 A 
ATOM     23  C   UNL A   1      38.973  23.892  26.233  1.00  0.00     0.016 A 
ATOM     24  C   UNL A   1      40.541  22.638  27.589  1.00  0.00     0.016 A 
ATOM     25  C   UNL A   1      39.590  25.083  26.601  1.00  0.00     0.010 A 
ATOM     26  C   UNL A   1      41.130  23.837  27.998  1.00  0.00     0.010 A 
ATOM     27  C   UNL A   1      40.684  25.065  27.475  1.00  0.00    -0.014 A 
BRANCH  27  28
ATOM     28  C   UNL A   1      41.426  26.320  27.755  1.00  0.00     0.031 A 
ATOM     29  C   UNL A   1      40.769  27.399  28.570  1.00  0.00     0.074 A 
ATOM     30  C   UNL A   1      42.688  26.479  27.318  1.00  0.00     0.049 A 
ATOM     31  N   UNL A   1      41.188  28.611  28.836  1.00  0.00    -0.248 NA
ATOM     32  C   UNL A   1      39.461  27.074  29.159  1.00  0.00     0.031 C 
ATOM     33  C   UNL A   1      43.452  25.485  26.565  1.00  0.00     0.029 A 
ATOM     34  N   UNL A   1      43.551  27.537  27.450  1.00  0.00    -0.354 N 
ATOM     35  C   UNL A   1      40.180  29.203  29.584  1.00  0.00     0.074 A 
ATOM     36  C   UNL A   1      39.126  28.222  29.729  1.00  0.00     0.031 C 
ATOM     37  C   UNL A   1      44.677  25.975  26.313  1.00  0.00     0.029 A 
ATOM     38  C   UNL A   1      44.765  27.333  26.844  1.00  0.00     0.049 A 
ATOM     39  H   UNL A   1      43.321  28.363  27.933  1.00  0.00     0.167 HD
ATOM     40  C   UNL A   1      40.139  30.453  30.105  1.00  0.00     0.037 A 
ATOM     41  C   UNL A   1      45.821  28.159  26.712  1.00  0.00     0.037 A 
ATOM     42  C   UNL A   1      41.208  31.411  29.997  1.00  0.00     0.049 A 
ATOM     43  C   UNL A   1      45.752  29.541  27.301  1.00  0.00     0.074 A 
ATOM     44  C   UNL A   1      41.258  32.710  30.473  1.00  0.00     0.029 A 
ATOM     45  N   UNL A   1      42.426  31.163  29.383  1.00  0.00    -0.354 N 
ATOM     46  N   UNL A   1      44.773  30.111  27.961  1.00  0.00    -0.248 NA
ATOM     47  C   UNL A   1      46.933  30.396  27.122  1.00  0.00     0.031 C 
ATOM     48  C   UNL A   1      42.501  33.255  30.131  1.00  0.00     0.029 A 
ATOM     49  C   UNL A   1      43.237  32.284  29.471  1.00  0.00     0.049 A 
ATOM     50  H   UNL A   1      42.677  30.317  28.947  1.00  0.00     0.167 HD
ATOM     51  C   UNL A   1      45.225  31.380  28.294  1.00  0.00     0.074 A 
ATOM     52  C   UNL A   1      46.574  31.492  27.776  1.00  0.00     0.031 C 
ATOM     53  C   UNL A   1      44.581  32.367  28.963  1.00  0.00     0.037 A 
BRANCH  40  54
ATOM     54  C   UNL A   1      38.883  30.865  30.812  1.00  0.00     0.064 A 
ATOM     55  C   UNL A   1      38.737  30.730  32.200  1.00  0.00     0.173 A 
ATOM     56  C   UNL A   1      37.820  31.428  30.089  1.00  0.00     0.173 A 
ATOM     57  F   UNL A   1      39.720  30.184  32.931  1.00  0.00    -0.203 F 
ATOM     58  C   UNL A   1      37.563  31.124  32.837  1.00  0.00     0.198 A 
ATOM     59  C   UNL A   1      36.657  31.842  30.733  1.00  0.00     0.198 A 
ATOM     60  F   UNL A   1      37.912  31.582  28.760  1.00  0.00    -0.203 F 
ATOM     61  F   UNL A   1      37.429  30.950  34.159  1.00  0.00    -0.200 F 
ATOM     62  C   UNL A   1      36.527  31.685  32.104  1.00  0.00     0.200 A 
ATOM     63  F   UNL A   1      35.661  32.394  30.025  1.00  0.00    -0.200 F 
ATOM     64  F   UNL A   1      35.400  32.068  32.720  1.00  0.00    -0.200 F 
ENDBRANCH  40  54
BRANCH  41  65
ATOM     65  C   UNL A   1      47.030  27.699  25.985  1.00  0.00     0.064 A 
ATOM     66  C   UNL A   1      48.145  27.210  26.678  1.00  0.00     0.173 A 
ATOM     67  C   UNL A   1      47.096  27.741  24.585  1.00  0.00     0.173 A 
ATOM     68  F   UNL A   1      48.140  27.176  28.018  1.00  0.00    -0.203 F 
ATOM     69  C   UNL A   1      49.286  26.788  25.996  1.00  0.00     0.198 A 
ATOM     70  C   UNL A   1      48.226  27.295  23.903  1.00  0.00     0.198 A 
ATOM     71  F   UNL A   1      46.054  28.203  23.876  1.00  0.00    -0.203 F 
ATOM     72  F   UNL A   1      50.355  26.361  26.684  1.00  0.00    -0.200 F 
ATOM     73  C   UNL A   1      49.323  26.825  24.611  1.00  0.00     0.200 A 
ATOM     74  F   UNL A   1      48.254  27.322  22.564  1.00  0.00    -0.200 F 
ATOM     75  F   UNL A   1      50.418  26.416  23.956  1.00  0.00    -0.200 F 
ENDBRANCH  41  65
BRANCH  53  76
ATOM     76  C   UNL A   1      45.343  33.632  29.209  1.00  0.00     0.064 A 
ATOM     77  C   UNL A   1      45.319  34.694  28.293  1.00  0.00     0.173 A 
ATOM     78  C   UNL A   1      46.090  33.792  30.387  1.00  0.00     0.173 A 
ATOM     79  F   UNL A   1      44.632  34.580  27.148  1.00  0.00    -0.203 F 
ATOM     80  C   UNL A   1      46.038  35.862  28.537  1.00  0.00     0.198 A 
ATOM     81  C   UNL A   1      46.788  34.970  30.635  1.00  0.00     0.198 A 
ATOM     82  F   UNL A   1      46.140  32.806  31.295  1.00  0.00    -0.203 F 
ATOM     83  F   UNL A   1      46.037  36.846  27.627  1.00  0.00    -0.200 F 
ATOM     84  C   UNL A   1      46.768  36.000  29.708  1.00  0.00     0.200 A 
ATOM     85  F   UNL A   1      47.488  35.105  31.771  1.00  0.00    -0.200 F 
ATOM     86  F   UNL A   1      47.460  37.124  29.937  1.00  0.00    -0.200 F 
ENDBRANCH  53  76
ENDBRANCH  27  28
ENDBRANCH  20  22
ENDBRANCH  19  20
ENDBRANCH  18  19
ENDBRANCH   1  18
TORSDOF 14
ENDMDL
