MODEL 1
REMARK VINA RESULT:     -12.0      0.000      0.000
REMARK SMILES CC(=O)Nc1nc(C[N@@H+]2CCO[C@@H](CC(=O)OCCOC(=O)c3ccc(-c4c5nc(c(-c6c(F)c(F)c(F)c(F)c6F)c6ccc([nH]6)c(-c6c(F)c(F)c(F)c(F)c6F)c6nc(c(-c7c(F)c(F)c(F)c(F)c7F)c7ccc4[nH]7)C=C6)C=C5)cc3)C2)cs1
REMARK SMILES IDX 18 1 17 2 15 3 16 4 14 5 13 6 9 7 10 8 86 9 11 11 12 12 8 13
REMARK SMILES IDX 7 14 5 15 6 16 88 17 87 18 4 19 1 20 2 21 3 22 19 24 20 25
REMARK SMILES IDX 21 26 22 27 23 28 24 29 85 30 25 31 84 32 26 33 27 34 28 35
REMARK SMILES IDX 78 36 29 37 83 38 77 39 79 40 30 41 82 42 76 43 75 44 31 46
REMARK SMILES IDX 63 47 43 48 62 49 44 50 47 51 61 52 80 53 45 54 46 55 60 57
REMARK SMILES IDX 81 58 48 59 32 60 33 61 41 62 34 63 35 64 39 65 42 66 36 67
REMARK SMILES IDX 37 68 40 69 38 70 64 71 65 72 73 73 66 74 67 75 71 76 74 77
REMARK SMILES IDX 68 78 69 79 72 80 70 81 49 82 50 83 58 84 51 85 52 86 56 87
REMARK SMILES IDX 59 88 53 89 54 90 57 91 55 92
REMARK H PARENT 9 10 4 23 79 45 47 56
REMARK Flexibility Score: inf
ROOT
ATOM      1  C   UNL A   1      31.674  32.241  27.197  1.00  0.00     0.274 C 
ENDROOT
BRANCH   1   2
ATOM      2  O   UNL A   1      32.266  31.171  26.432  1.00  0.00    -0.462 OA
BRANCH   2   3
ATOM      3  C   UNL A   1      32.930  30.216  27.134  1.00  0.00     0.308 C 
ATOM      4  O   UNL A   1      34.038  30.360  27.635  1.00  0.00    -0.252 OA
BRANCH   3   5
ATOM      5  C   UNL A   1      32.179  28.915  27.162  1.00  0.00     0.160 C 
BRANCH   5   6
ATOM      6  C   UNL A   1      32.185  28.081  25.878  1.00  0.00     0.184 C 
ATOM      7  N   UNL A   1      32.161  28.256  23.329  1.00  0.00    -0.326 N 
ATOM      8  C   UNL A   1      33.452  27.572  23.350  1.00  0.00     0.291 C 
ATOM      9  C   UNL A   1      31.839  28.900  24.610  1.00  0.00     0.295 C 
ATOM     10  H   UNL A   1      32.313  29.027  22.678  1.00  0.00     0.348 HD
ATOM     11  C   UNL A   1      33.719  26.765  24.629  1.00  0.00     0.222 C 
ATOM     12  O   UNL A   1      33.538  27.570  25.794  1.00  0.00    -0.366 OA
BRANCH   7  13
ATOM     13  C   UNL A   1      31.059  27.637  22.590  1.00  0.00     0.320 C 
BRANCH  13  14
ATOM     14  C   UNL A   1      29.787  28.432  22.500  1.00  0.00     0.108 A 
ATOM     15  C   UNL A   1      28.567  30.113  21.749  1.00  0.00     0.189 A 
ATOM     16  N   UNL A   1      29.722  29.517  21.628  1.00  0.00    -0.219 NA
ATOM     17  S   UNL A   1      27.453  29.404  22.823  1.00  0.00    -0.105 S 
ATOM     18  C   UNL A   1      28.574  28.140  23.104  1.00  0.00     0.098 A 
BRANCH  15  19
ATOM     19  N   UNL A   1      28.096  31.233  21.135  1.00  0.00    -0.302 N 
ATOM     20  C   UNL A   1      28.909  32.812  22.877  1.00  0.00     0.114 C 
ATOM     21  C   UNL A   1      28.131  32.499  21.626  1.00  0.00     0.223 C 
ATOM     22  O   UNL A   1      27.557  33.394  21.000  1.00  0.00    -0.275 OA
ATOM     23  H   UNL A   1      27.690  31.114  20.246  1.00  0.00     0.172 HD
ENDBRANCH  15  19
ENDBRANCH  13  14
ENDBRANCH   7  13
ENDBRANCH   5   6
ENDBRANCH   3   5
ENDBRANCH   2   3
ENDBRANCH   1   2
BRANCH   1  24
ATOM     24  C   UNL A   1      32.573  33.481  27.271  1.00  0.00     0.275 C 
BRANCH  24  25
ATOM     25  O   UNL A   1      32.175  34.389  28.318  1.00  0.00    -0.458 OA
BRANCH  25  26
ATOM     26  C   UNL A   1      33.152  35.222  28.735  1.00  0.00     0.338 C 
ATOM     27  O   UNL A   1      33.095  36.446  28.761  1.00  0.00    -0.246 OA
BRANCH  26  28
ATOM     28  C   UNL A   1      34.301  34.492  29.288  1.00  0.00     0.060 A 
ATOM     29  C   UNL A   1      34.073  33.656  30.388  1.00  0.00     0.016 A 
ATOM     30  C   UNL A   1      35.594  34.685  28.800  1.00  0.00     0.016 A 
ATOM     31  C   UNL A   1      35.140  33.015  31.012  1.00  0.00     0.010 A 
ATOM     32  C   UNL A   1      36.665  34.044  29.430  1.00  0.00     0.010 A 
ATOM     33  C   UNL A   1      36.444  33.215  30.543  1.00  0.00    -0.014 A 
BRANCH  33  34
ATOM     34  C   UNL A   1      37.576  32.545  31.218  1.00  0.00     0.031 A 
ATOM     35  C   UNL A   1      38.274  31.391  30.565  1.00  0.00     0.074 A 
ATOM     36  C   UNL A   1      37.977  32.992  32.421  1.00  0.00     0.049 A 
ATOM     37  N   UNL A   1      39.297  30.694  30.990  1.00  0.00    -0.248 NA
ATOM     38  C   UNL A   1      37.764  30.972  29.252  1.00  0.00     0.031 C 
ATOM     39  C   UNL A   1      37.384  34.120  33.138  1.00  0.00     0.029 A 
ATOM     40  N   UNL A   1      38.966  32.541  33.256  1.00  0.00    -0.354 N 
ATOM     41  C   UNL A   1      39.562  29.765  29.992  1.00  0.00     0.074 A 
ATOM     42  C   UNL A   1      38.579  29.972  28.950  1.00  0.00     0.031 C 
ATOM     43  C   UNL A   1      38.009  34.261  34.318  1.00  0.00     0.029 A 
ATOM     44  C   UNL A   1      39.022  33.216  34.449  1.00  0.00     0.049 A 
ATOM     45  H   UNL A   1      39.576  31.803  33.023  1.00  0.00     0.167 HD
ATOM     46  C   UNL A   1      40.536  28.825  29.957  1.00  0.00     0.037 A 
ATOM     47  C   UNL A   1      39.787  32.998  35.534  1.00  0.00     0.037 A 
ATOM     48  C   UNL A   1      41.475  28.590  31.023  1.00  0.00     0.049 A 
ATOM     49  C   UNL A   1      40.797  31.884  35.507  1.00  0.00     0.074 A 
ATOM     50  C   UNL A   1      42.506  27.668  31.080  1.00  0.00     0.029 A 
ATOM     51  N   UNL A   1      41.477  29.267  32.234  1.00  0.00    -0.354 N 
ATOM     52  N   UNL A   1      41.082  31.049  34.538  1.00  0.00    -0.248 NA
ATOM     53  C   UNL A   1      41.595  31.684  36.725  1.00  0.00     0.031 C 
ATOM     54  C   UNL A   1      43.097  27.751  32.346  1.00  0.00     0.029 A 
ATOM     55  C   UNL A   1      42.468  28.759  33.059  1.00  0.00     0.049 A 
ATOM     56  H   UNL A   1      40.866  30.001  32.472  1.00  0.00     0.167 HD
ATOM     57  C   UNL A   1      42.104  30.241  35.016  1.00  0.00     0.074 A 
ATOM     58  C   UNL A   1      42.397  30.694  36.360  1.00  0.00     0.031 C 
ATOM     59  C   UNL A   1      42.743  29.220  34.396  1.00  0.00     0.037 A 
BRANCH  46  60
ATOM     60  C   UNL A   1      40.617  27.959  28.737  1.00  0.00     0.064 A 
ATOM     61  C   UNL A   1      39.888  26.765  28.637  1.00  0.00     0.173 A 
ATOM     62  C   UNL A   1      41.396  28.349  27.637  1.00  0.00     0.173 A 
ATOM     63  F   UNL A   1      39.138  26.343  29.666  1.00  0.00    -0.203 F 
ATOM     64  C   UNL A   1      39.946  25.986  27.484  1.00  0.00     0.198 A 
ATOM     65  C   UNL A   1      41.436  27.577  26.478  1.00  0.00     0.198 A 
ATOM     66  F   UNL A   1      42.109  29.483  27.682  1.00  0.00    -0.203 F 
ATOM     67  F   UNL A   1      39.265  24.832  27.421  1.00  0.00    -0.200 F 
ATOM     68  C   UNL A   1      40.714  26.394  26.404  1.00  0.00     0.200 A 
ATOM     69  F   UNL A   1      42.170  27.978  25.432  1.00  0.00    -0.200 F 
ATOM     70  F   UNL A   1      40.763  25.646  25.294  1.00  0.00    -0.200 F 
ENDBRANCH  46  60
BRANCH  47  71
ATOM     71  C   UNL A   1      39.610  33.846  36.737  1.00  0.00     0.064 A 
ATOM     72  C   UNL A   1      40.238  35.093  36.842  1.00  0.00     0.173 A 
ATOM     73  C   UNL A   1      38.797  33.430  37.802  1.00  0.00     0.173 A 
ATOM     74  F   UNL A   1      41.044  35.523  35.860  1.00  0.00    -0.203 F 
ATOM     75  C   UNL A   1      40.067  35.890  37.973  1.00  0.00     0.198 A 
ATOM     76  C   UNL A   1      38.607  34.237  38.920  1.00  0.00     0.198 A 
ATOM     77  F   UNL A   1      38.176  32.242  37.748  1.00  0.00    -0.203 F 
ATOM     78  F   UNL A   1      40.707  37.064  38.066  1.00  0.00    -0.200 F 
ATOM     79  C   UNL A   1      39.246  35.464  39.008  1.00  0.00     0.200 A 
ATOM     80  F   UNL A   1      37.805  33.827  39.912  1.00  0.00    -0.200 F 
ATOM     81  F   UNL A   1      39.077  36.234  40.091  1.00  0.00    -0.200 F 
ENDBRANCH  47  71
BRANCH  59  82
ATOM     82  C   UNL A   1      43.842  28.538  35.157  1.00  0.00     0.064 A 
ATOM     83  C   UNL A   1      45.164  29.004  35.111  1.00  0.00     0.173 A 
ATOM     84  C   UNL A   1      43.561  27.428  35.967  1.00  0.00     0.173 A 
ATOM     85  F   UNL A   1      45.484  30.052  34.337  1.00  0.00    -0.203 F 
ATOM     86  C   UNL A   1      46.170  28.367  35.833  1.00  0.00     0.198 A 
ATOM     87  C   UNL A   1      44.565  26.811  36.708  1.00  0.00     0.198 A 
ATOM     88  F   UNL A   1      42.311  26.948  36.048  1.00  0.00    -0.203 F 
ATOM     89  F   UNL A   1      47.435  28.802  35.742  1.00  0.00    -0.200 F 
ATOM     90  C   UNL A   1      45.869  27.276  36.635  1.00  0.00     0.200 A 
ATOM     91  F   UNL A   1      44.271  25.763  37.490  1.00  0.00    -0.200 F 
ATOM     92  F   UNL A   1      46.839  26.669  37.332  1.00  0.00    -0.200 F 
ENDBRANCH  59  82
ENDBRANCH  33  34
ENDBRANCH  26  28
ENDBRANCH  25  26
ENDBRANCH  24  25
ENDBRANCH   1  24
TORSDOF 15
ENDMDL
MODEL 2
REMARK VINA RESULT:     -11.8      6.781     10.903
REMARK SMILES CC(=O)Nc1nc(C[N@@H+]2CCO[C@@H](CC(=O)OCCOC(=O)c3ccc(-c4c5nc(c(-c6c(F)c(F)c(F)c(F)c6F)c6ccc([nH]6)c(-c6c(F)c(F)c(F)c(F)c6F)c6nc(c(-c7c(F)c(F)c(F)c(F)c7F)c7ccc4[nH]7)C=C6)C=C5)cc3)C2)cs1
REMARK SMILES IDX 18 1 17 2 15 3 16 4 14 5 13 6 9 7 10 8 86 9 11 11 12 12 8 13
REMARK SMILES IDX 7 14 5 15 6 16 88 17 87 18 4 19 1 20 2 21 3 22 19 24 20 25
REMARK SMILES IDX 21 26 22 27 23 28 24 29 85 30 25 31 84 32 26 33 27 34 28 35
REMARK SMILES IDX 78 36 29 37 83 38 77 39 79 40 30 41 82 42 76 43 75 44 31 46
REMARK SMILES IDX 63 47 43 48 62 49 44 50 47 51 61 52 80 53 45 54 46 55 60 57
REMARK SMILES IDX 81 58 48 59 32 60 33 61 41 62 34 63 35 64 39 65 42 66 36 67
REMARK SMILES IDX 37 68 40 69 38 70 64 71 65 72 73 73 66 74 67 75 71 76 74 77
REMARK SMILES IDX 68 78 69 79 72 80 70 81 49 82 50 83 58 84 51 85 52 86 56 87
REMARK SMILES IDX 59 88 53 89 54 90 57 91 55 92
REMARK H PARENT 9 10 4 23 79 45 47 56
REMARK Flexibility Score: inf
ROOT
ATOM      1  C   UNL A   1      38.887  20.745  25.355  1.00  0.00     0.274 C 
ENDROOT
BRANCH   1   2
ATOM      2  O   UNL A   1      38.389  21.770  26.239  1.00  0.00    -0.462 OA
BRANCH   2   3
ATOM      3  C   UNL A   1      37.923  22.904  25.654  1.00  0.00     0.308 C 
ATOM      4  O   UNL A   1      38.205  24.042  26.011  1.00  0.00    -0.252 OA
BRANCH   3   5
ATOM      5  C   UNL A   1      36.945  22.608  24.552  1.00  0.00     0.160 C 
BRANCH   5   6
ATOM      6  C   UNL A   1      35.458  22.667  24.910  1.00  0.00     0.184 C 
ATOM      7  N   UNL A   1      33.588  21.386  26.091  1.00  0.00    -0.326 N 
ATOM      8  C   UNL A   1      33.478  22.532  26.988  1.00  0.00     0.291 C 
ATOM      9  C   UNL A   1      34.891  21.316  25.415  1.00  0.00     0.295 C 
ATOM     10  H   UNL A   1      33.579  20.586  26.725  1.00  0.00     0.348 HD
ATOM     11  C   UNL A   1      34.043  23.840  26.416  1.00  0.00     0.222 C 
ATOM     12  O   UNL A   1      35.384  23.667  25.956  1.00  0.00    -0.366 OA
BRANCH   7  13
ATOM     13  C   UNL A   1      32.407  20.991  25.320  1.00  0.00     0.320 C 
BRANCH  13  14
ATOM     14  C   UNL A   1      32.467  19.648  24.649  1.00  0.00     0.108 A 
ATOM     15  C   UNL A   1      32.453  17.439  24.665  1.00  0.00     0.189 A 
ATOM     16  N   UNL A   1      32.297  18.496  25.416  1.00  0.00    -0.219 NA
ATOM     17  S   UNL A   1      32.725  17.715  23.008  1.00  0.00    -0.105 S 
ATOM     18  C   UNL A   1      32.546  19.395  23.289  1.00  0.00     0.098 A 
BRANCH  15  19
ATOM     19  N   UNL A   1      32.425  16.120  25.002  1.00  0.00    -0.302 N 
ATOM     20  C   UNL A   1      34.876  15.924  25.376  1.00  0.00     0.114 C 
ATOM     21  C   UNL A   1      33.499  15.328  25.254  1.00  0.00     0.223 C 
ATOM     22  O   UNL A   1      33.316  14.120  25.432  1.00  0.00    -0.275 OA
ATOM     23  H   UNL A   1      31.537  15.699  25.070  1.00  0.00     0.172 HD
ENDBRANCH  15  19
ENDBRANCH  13  14
ENDBRANCH   7  13
ENDBRANCH   5   6
ENDBRANCH   3   5
ENDBRANCH   2   3
ENDBRANCH   1   2
BRANCH   1  24
ATOM     24  C   UNL A   1      39.630  19.631  26.103  1.00  0.00     0.275 C 
BRANCH  24  25
ATOM     25  O   UNL A   1      40.835  19.222  25.427  1.00  0.00    -0.458 OA
BRANCH  25  26
ATOM     26  C   UNL A   1      41.948  19.279  26.187  1.00  0.00     0.338 C 
ATOM     27  O   UNL A   1      42.588  18.320  26.604  1.00  0.00    -0.246 OA
BRANCH  26  28
ATOM     28  C   UNL A   1      42.412  20.659  26.383  1.00  0.00     0.060 A 
ATOM     29  C   UNL A   1      42.474  21.146  27.695  1.00  0.00     0.016 A 
ATOM     30  C   UNL A   1      42.700  21.495  25.303  1.00  0.00     0.016 A 
ATOM     31  C   UNL A   1      42.814  22.474  27.933  1.00  0.00     0.010 A 
ATOM     32  C   UNL A   1      43.039  22.829  25.543  1.00  0.00     0.010 A 
ATOM     33  C   UNL A   1      43.088  23.327  26.857  1.00  0.00    -0.014 A 
BRANCH  33  34
ATOM     34  C   UNL A   1      43.435  24.742  27.113  1.00  0.00     0.031 A 
ATOM     35  C   UNL A   1      44.828  25.237  26.872  1.00  0.00     0.074 A 
ATOM     36  C   UNL A   1      42.480  25.579  27.554  1.00  0.00     0.049 A 
ATOM     37  N   UNL A   1      45.314  26.444  27.017  1.00  0.00    -0.248 NA
ATOM     38  C   UNL A   1      45.803  24.249  26.392  1.00  0.00     0.031 C 
ATOM     39  C   UNL A   1      41.087  25.209  27.801  1.00  0.00     0.029 A 
ATOM     40  N   UNL A   1      42.542  26.907  27.887  1.00  0.00    -0.354 N 
ATOM     41  C   UNL A   1      46.645  26.363  26.632  1.00  0.00     0.074 A 
ATOM     42  C   UNL A   1      46.898  24.985  26.268  1.00  0.00     0.031 C 
ATOM     43  C   UNL A   1      40.429  26.282  28.268  1.00  0.00     0.029 A 
ATOM     44  C   UNL A   1      41.361  27.402  28.379  1.00  0.00     0.049 A 
ATOM     45  H   UNL A   1      43.356  27.453  27.784  1.00  0.00     0.167 HD
ATOM     46  C   UNL A   1      47.569  27.352  26.591  1.00  0.00     0.037 A 
ATOM     47  C   UNL A   1      41.072  28.614  28.885  1.00  0.00     0.037 A 
ATOM     48  C   UNL A   1      47.324  28.709  27.006  1.00  0.00     0.049 A 
ATOM     49  C   UNL A   1      42.144  29.669  28.919  1.00  0.00     0.074 A 
ATOM     50  C   UNL A   1      48.192  29.788  26.994  1.00  0.00     0.029 A 
ATOM     51  N   UNL A   1      46.126  29.166  27.537  1.00  0.00    -0.354 N 
ATOM     52  N   UNL A   1      43.383  29.602  28.498  1.00  0.00    -0.248 NA
ATOM     53  C   UNL A   1      41.775  30.969  29.495  1.00  0.00     0.031 C 
ATOM     54  C   UNL A   1      47.535  30.883  27.568  1.00  0.00     0.029 A 
ATOM     55  C   UNL A   1      46.243  30.500  27.889  1.00  0.00     0.049 A 
ATOM     56  H   UNL A   1      45.312  28.621  27.645  1.00  0.00     0.167 HD
ATOM     57  C   UNL A   1      43.936  30.852  28.736  1.00  0.00     0.074 A 
ATOM     58  C   UNL A   1      42.892  31.663  29.329  1.00  0.00     0.031 C 
ATOM     59  C   UNL A   1      45.193  31.290  28.482  1.00  0.00     0.037 A 
BRANCH  46  60
ATOM     60  C   UNL A   1      48.942  26.996  26.106  1.00  0.00     0.064 A 
ATOM     61  C   UNL A   1      49.917  26.488  26.977  1.00  0.00     0.173 A 
ATOM     62  C   UNL A   1      49.274  27.122  24.749  1.00  0.00     0.173 A 
ATOM     63  F   UNL A   1      49.653  26.361  28.286  1.00  0.00    -0.203 F 
ATOM     64  C   UNL A   1      51.179  26.130  26.509  1.00  0.00     0.198 A 
ATOM     65  C   UNL A   1      50.530  26.744  24.280  1.00  0.00     0.198 A 
ATOM     66  F   UNL A   1      48.376  27.600  23.876  1.00  0.00    -0.203 F 
ATOM     67  F   UNL A   1      52.106  25.674  27.364  1.00  0.00    -0.200 F 
ATOM     68  C   UNL A   1      51.482  26.252  25.161  1.00  0.00     0.200 A 
ATOM     69  F   UNL A   1      50.818  26.853  22.976  1.00  0.00    -0.200 F 
ATOM     70  F   UNL A   1      52.694  25.900  24.711  1.00  0.00    -0.200 F 
ENDBRANCH  46  60
BRANCH  47  71
ATOM     71  C   UNL A   1      39.713  28.882  29.414  1.00  0.00     0.064 A 
ATOM     72  C   UNL A   1      38.705  29.399  28.590  1.00  0.00     0.173 A 
ATOM     73  C   UNL A   1      39.392  28.614  30.753  1.00  0.00     0.173 A 
ATOM     74  F   UNL A   1      38.972  29.694  27.309  1.00  0.00    -0.203 F 
ATOM     75  C   UNL A   1      37.427  29.647  29.089  1.00  0.00     0.198 A 
ATOM     76  C   UNL A   1      38.108  28.838  31.244  1.00  0.00     0.198 A 
ATOM     77  F   UNL A   1      40.325  28.120  31.581  1.00  0.00    -0.203 F 
ATOM     78  F   UNL A   1      36.490  30.175  28.291  1.00  0.00    -0.200 F 
ATOM     79  C   UNL A   1      37.129  29.360  30.413  1.00  0.00     0.200 A 
ATOM     80  F   UNL A   1      37.821  28.550  32.520  1.00  0.00    -0.200 F 
ATOM     81  F   UNL A   1      35.898  29.592  30.890  1.00  0.00    -0.200 F 
ENDBRANCH  47  71
BRANCH  59  82
ATOM     82  C   UNL A   1      45.502  32.719  28.822  1.00  0.00     0.064 A 
ATOM     83  C   UNL A   1      45.156  33.769  27.959  1.00  0.00     0.173 A 
ATOM     84  C   UNL A   1      46.119  33.041  30.038  1.00  0.00     0.173 A 
ATOM     85  F   UNL A   1      44.579  33.509  26.775  1.00  0.00    -0.203 F 
ATOM     86  C   UNL A   1      45.439  35.090  28.294  1.00  0.00     0.198 A 
ATOM     87  C   UNL A   1      46.375  34.366  30.382  1.00  0.00     0.198 A 
ATOM     88  F   UNL A   1      46.464  32.073  30.900  1.00  0.00    -0.203 F 
ATOM     89  F   UNL A   1      45.139  36.076  27.436  1.00  0.00    -0.200 F 
ATOM     90  C   UNL A   1      46.041  35.388  29.507  1.00  0.00     0.200 A 
ATOM     91  F   UNL A   1      46.949  34.652  31.559  1.00  0.00    -0.200 F 
ATOM     92  F   UNL A   1      46.308  36.661  29.829  1.00  0.00    -0.200 F 
ENDBRANCH  59  82
ENDBRANCH  33  34
ENDBRANCH  26  28
ENDBRANCH  25  26
ENDBRANCH  24  25
ENDBRANCH   1  24
TORSDOF 15
ENDMDL
MODEL 3
REMARK VINA RESULT:     -11.7      6.867     12.111
REMARK SMILES CC(=O)Nc1nc(C[N@@H+]2CCO[C@@H](CC(=O)OCCOC(=O)c3ccc(-c4c5nc(c(-c6c(F)c(F)c(F)c(F)c6F)c6ccc([nH]6)c(-c6c(F)c(F)c(F)c(F)c6F)c6nc(c(-c7c(F)c(F)c(F)c(F)c7F)c7ccc4[nH]7)C=C6)C=C5)cc3)C2)cs1
REMARK SMILES IDX 18 1 17 2 15 3 16 4 14 5 13 6 9 7 10 8 86 9 11 11 12 12 8 13
REMARK SMILES IDX 7 14 5 15 6 16 88 17 87 18 4 19 1 20 2 21 3 22 19 24 20 25
REMARK SMILES IDX 21 26 22 27 23 28 24 29 85 30 25 31 84 32 26 33 27 34 28 35
REMARK SMILES IDX 78 36 29 37 83 38 77 39 79 40 30 41 82 42 76 43 75 44 31 46
REMARK SMILES IDX 63 47 43 48 62 49 44 50 47 51 61 52 80 53 45 54 46 55 60 57
REMARK SMILES IDX 81 58 48 59 32 60 33 61 41 62 34 63 35 64 39 65 42 66 36 67
REMARK SMILES IDX 37 68 40 69 38 70 64 71 65 72 73 73 66 74 67 75 71 76 74 77
REMARK SMILES IDX 68 78 69 79 72 80 70 81 49 82 50 83 58 84 51 85 52 86 56 87
REMARK SMILES IDX 59 88 53 89 54 90 57 91 55 92
REMARK H PARENT 9 10 4 23 79 45 47 56
REMARK Flexibility Score: inf
ROOT
ATOM      1  C   UNL A   1      38.902  20.611  25.367  1.00  0.00     0.274 C 
ENDROOT
BRANCH   1   2
ATOM      2  O   UNL A   1      38.487  21.694  26.225  1.00  0.00    -0.462 OA
BRANCH   2   3
ATOM      3  C   UNL A   1      38.044  22.821  25.609  1.00  0.00     0.308 C 
ATOM      4  O   UNL A   1      38.365  23.961  25.921  1.00  0.00    -0.252 OA
BRANCH   3   5
ATOM      5  C   UNL A   1      37.037  22.517  24.536  1.00  0.00     0.160 C 
BRANCH   5   6
ATOM      6  C   UNL A   1      35.559  22.589  24.929  1.00  0.00     0.184 C 
ATOM      7  N   UNL A   1      33.695  21.303  26.113  1.00  0.00    -0.326 N 
ATOM      8  C   UNL A   1      33.626  22.423  27.048  1.00  0.00     0.291 C 
ATOM      9  C   UNL A   1      34.981  21.233  25.406  1.00  0.00     0.295 C 
ATOM     10  H   UNL A   1      33.687  20.484  26.723  1.00  0.00     0.348 HD
ATOM     11  C   UNL A   1      34.200  23.738  26.503  1.00  0.00     0.222 C 
ATOM     12  O   UNL A   1      35.526  23.557  26.007  1.00  0.00    -0.366 OA
BRANCH   7  13
ATOM     13  C   UNL A   1      32.490  20.952  25.359  1.00  0.00     0.320 C 
BRANCH  13  14
ATOM     14  C   UNL A   1      32.499  19.615  24.673  1.00  0.00     0.108 A 
ATOM     15  C   UNL A   1      32.445  17.407  24.668  1.00  0.00     0.189 A 
ATOM     16  N   UNL A   1      32.338  18.459  25.434  1.00  0.00    -0.219 NA
ATOM     17  S   UNL A   1      32.655  17.696  23.003  1.00  0.00    -0.105 S 
ATOM     18  C   UNL A   1      32.519  19.376  23.308  1.00  0.00     0.098 A 
BRANCH  15  19
ATOM     19  N   UNL A   1      32.406  16.085  24.992  1.00  0.00    -0.302 N 
ATOM     20  C   UNL A   1      34.854  15.868  25.374  1.00  0.00     0.114 C 
ATOM     21  C   UNL A   1      33.473  15.284  25.242  1.00  0.00     0.223 C 
ATOM     22  O   UNL A   1      33.282  14.076  25.408  1.00  0.00    -0.275 OA
ATOM     23  H   UNL A   1      31.515  15.670  25.052  1.00  0.00     0.172 HD
ENDBRANCH  15  19
ENDBRANCH  13  14
ENDBRANCH   7  13
ENDBRANCH   5   6
ENDBRANCH   3   5
ENDBRANCH   2   3
ENDBRANCH   1   2
BRANCH   1  24
ATOM     24  C   UNL A   1      39.662  19.515  26.127  1.00  0.00     0.275 C 
BRANCH  24  25
ATOM     25  O   UNL A   1      40.831  19.062  25.416  1.00  0.00    -0.458 OA
BRANCH  25  26
ATOM     26  C   UNL A   1      41.987  19.200  26.100  1.00  0.00     0.338 C 
ATOM     27  O   UNL A   1      42.779  18.303  26.367  1.00  0.00    -0.246 OA
BRANCH  26  28
ATOM     28  C   UNL A   1      42.281  20.605  26.410  1.00  0.00     0.060 A 
ATOM     29  C   UNL A   1      42.756  21.416  25.371  1.00  0.00     0.016 A 
ATOM     30  C   UNL A   1      42.181  21.105  27.709  1.00  0.00     0.016 A 
ATOM     31  C   UNL A   1      43.141  22.728  25.627  1.00  0.00     0.010 A 
ATOM     32  C   UNL A   1      42.571  22.422  27.966  1.00  0.00     0.010 A 
ATOM     33  C   UNL A   1      43.061  23.235  26.930  1.00  0.00    -0.014 A 
BRANCH  33  34
ATOM     34  C   UNL A   1      43.486  24.625  27.203  1.00  0.00     0.031 A 
ATOM     35  C   UNL A   1      42.508  25.628  27.734  1.00  0.00     0.074 A 
ATOM     36  C   UNL A   1      44.765  24.974  26.977  1.00  0.00     0.049 A 
ATOM     37  N   UNL A   1      42.699  26.882  28.054  1.00  0.00    -0.248 NA
ATOM     38  C   UNL A   1      41.133  25.155  27.947  1.00  0.00     0.031 C 
ATOM     39  C   UNL A   1      45.806  24.074  26.482  1.00  0.00     0.029 A 
ATOM     40  N   UNL A   1      45.399  26.181  27.120  1.00  0.00    -0.354 N 
ATOM     41  C   UNL A   1      41.475  27.344  28.520  1.00  0.00     0.074 A 
ATOM     42  C   UNL A   1      40.541  26.242  28.419  1.00  0.00     0.031 C 
ATOM     43  C   UNL A   1      46.948  24.767  26.342  1.00  0.00     0.029 A 
ATOM     44  C   UNL A   1      46.708  26.161  26.709  1.00  0.00     0.049 A 
ATOM     45  H   UNL A   1      44.958  26.984  27.482  1.00  0.00     0.167 HD
ATOM     46  C   UNL A   1      41.164  28.578  28.983  1.00  0.00     0.037 A 
ATOM     47  C   UNL A   1      47.603  27.161  26.616  1.00  0.00     0.037 A 
ATOM     48  C   UNL A   1      42.085  29.683  29.028  1.00  0.00     0.049 A 
ATOM     49  C   UNL A   1      47.204  28.545  27.047  1.00  0.00     0.074 A 
ATOM     50  C   UNL A   1      41.870  30.971  29.490  1.00  0.00     0.029 A 
ATOM     51  N   UNL A   1      43.393  29.638  28.567  1.00  0.00    -0.354 N 
ATOM     52  N   UNL A   1      46.063  28.960  27.541  1.00  0.00    -0.248 NA
ATOM     53  C   UNL A   1      48.217  29.599  26.910  1.00  0.00     0.031 C 
ATOM     54  C   UNL A   1      43.031  31.718  29.257  1.00  0.00     0.029 A 
ATOM     55  C   UNL A   1      43.985  30.884  28.699  1.00  0.00     0.049 A 
ATOM     56  H   UNL A   1      43.836  28.838  28.200  1.00  0.00     0.167 HD
ATOM     57  C   UNL A   1      46.227  30.314  27.796  1.00  0.00     0.074 A 
ATOM     58  C   UNL A   1      47.582  30.649  27.410  1.00  0.00     0.031 C 
ATOM     59  C   UNL A   1      45.336  31.199  28.306  1.00  0.00     0.037 A 
BRANCH  46  60
ATOM     60  C   UNL A   1      39.759  28.806  29.453  1.00  0.00     0.064 A 
ATOM     61  C   UNL A   1      39.383  28.563  30.782  1.00  0.00     0.173 A 
ATOM     62  C   UNL A   1      38.789  29.316  28.577  1.00  0.00     0.173 A 
ATOM     63  F   UNL A   1      40.271  28.064  31.655  1.00  0.00    -0.203 F 
ATOM     64  C   UNL A   1      38.083  28.810  31.214  1.00  0.00     0.198 A 
ATOM     65  C   UNL A   1      37.494  29.580  29.018  1.00  0.00     0.198 A 
ATOM     66  F   UNL A   1      39.099  29.567  27.298  1.00  0.00    -0.203 F 
ATOM     67  F   UNL A   1      37.737  28.542  32.482  1.00  0.00    -0.200 F 
ATOM     68  C   UNL A   1      37.142  29.323  30.335  1.00  0.00     0.200 A 
ATOM     69  F   UNL A   1      36.589  30.086  28.170  1.00  0.00    -0.200 F 
ATOM     70  F   UNL A   1      35.893  29.567  30.755  1.00  0.00    -0.200 F 
ENDBRANCH  46  60
BRANCH  47  71
ATOM     71  C   UNL A   1      48.956  26.884  26.077  1.00  0.00     0.064 A 
ATOM     72  C   UNL A   1      49.997  26.464  26.914  1.00  0.00     0.173 A 
ATOM     73  C   UNL A   1      49.231  27.023  24.708  1.00  0.00     0.173 A 
ATOM     74  F   UNL A   1      49.787  26.340  28.233  1.00  0.00    -0.203 F 
ATOM     75  C   UNL A   1      51.267  26.201  26.403  1.00  0.00     0.198 A 
ATOM     76  C   UNL A   1      50.494  26.736  24.196  1.00  0.00     0.198 A 
ATOM     77  F   UNL A   1      48.267  27.425  23.866  1.00  0.00    -0.203 F 
ATOM     78  F   UNL A   1      52.256  25.834  27.230  1.00  0.00    -0.200 F 
ATOM     79  C   UNL A   1      51.512  26.331  25.044  1.00  0.00     0.200 A 
ATOM     80  F   UNL A   1      50.724  26.853  22.881  1.00  0.00    -0.200 F 
ATOM     81  F   UNL A   1      52.732  26.072  24.554  1.00  0.00    -0.200 F 
ENDBRANCH  47  71
BRANCH  59  82
ATOM     82  C   UNL A   1      45.807  32.610  28.501  1.00  0.00     0.064 A 
ATOM     83  C   UNL A   1      46.464  33.008  29.675  1.00  0.00     0.173 A 
ATOM     84  C   UNL A   1      45.630  33.564  27.489  1.00  0.00     0.173 A 
ATOM     85  F   UNL A   1      46.642  32.136  30.678  1.00  0.00    -0.203 F 
ATOM     86  C   UNL A   1      46.906  34.319  29.835  1.00  0.00     0.198 A 
ATOM     87  C   UNL A   1      46.098  34.866  27.642  1.00  0.00     0.198 A 
ATOM     88  F   UNL A   1      45.013  33.231  26.345  1.00  0.00    -0.203 F 
ATOM     89  F   UNL A   1      47.494  34.690  30.982  1.00  0.00    -0.200 F 
ATOM     90  C   UNL A   1      46.729  35.244  28.817  1.00  0.00     0.200 A 
ATOM     91  F   UNL A   1      45.935  35.756  26.654  1.00  0.00    -0.200 F 
ATOM     92  F   UNL A   1      47.160  36.503  28.972  1.00  0.00    -0.200 F 
ENDBRANCH  59  82
ENDBRANCH  33  34
ENDBRANCH  26  28
ENDBRANCH  25  26
ENDBRANCH  24  25
ENDBRANCH   1  24
TORSDOF 15
ENDMDL
