MODEL 1
REMARK VINA RESULT:     -11.0      0.000      0.000
REMARK SMILES O=C(OCCOC(=O)c1cncc(OCCCc2ccccc2)n1)c1ccc(-c2c3nc(c(-c4c(F)c(F)c(F)c(F)c4F)c4ccc([nH]4)c(-c4c(F)c(F)c(F)c(F)c4F)c4nc(c(-c5c(F)c(F)c(F)c(F)c5F)c5ccc2[nH]5)C=C4)C=C3)cc1
REMARK SMILES IDX 6 1 5 2 4 3 3 4 2 5 1 6 25 7 26 8 87 9 27 10 86 11 28 12
REMARK SMILES IDX 29 13 30 14 80 15 31 16 85 17 79 18 81 19 32 20 84 21 78 22
REMARK SMILES IDX 77 23 33 25 65 26 45 27 64 28 46 29 49 30 63 31 82 32 47 33
REMARK SMILES IDX 48 34 62 36 83 37 50 38 34 39 35 40 43 41 36 42 37 43 41 44
REMARK SMILES IDX 44 45 38 46 39 47 42 48 40 49 66 50 67 51 75 52 68 53 69 54
REMARK SMILES IDX 73 55 76 56 70 57 71 58 74 59 72 60 51 61 52 62 60 63 53 64
REMARK SMILES IDX 54 65 58 66 61 67 55 68 56 69 59 70 57 71 7 72 8 73 9 74
REMARK SMILES IDX 10 75 24 76 11 77 13 78 12 79 14 80 15 81 16 82 17 83 18 84
REMARK SMILES IDX 19 85 23 86 20 87 22 88 21 89
REMARK H PARENT 81 24 49 35
REMARK Flexibility Score: inf
ROOT
ATOM      1  O   UNL A   1      32.738  34.667  29.288  1.00  0.00    -0.457 OA
ENDROOT
BRANCH   1   2
ATOM      2  C   UNL A   1      33.626  34.255  28.228  1.00  0.00     0.275 C 
BRANCH   2   3
ATOM      3  C   UNL A   1      33.495  32.769  27.841  1.00  0.00     0.275 C 
BRANCH   3   4
ATOM      4  O   UNL A   1      34.678  31.988  27.597  1.00  0.00    -0.458 OA
BRANCH   4   5
ATOM      5  C   UNL A   1      34.546  30.647  27.565  1.00  0.00     0.338 C 
ATOM      6  O   UNL A   1      33.505  30.061  27.337  1.00  0.00    -0.246 OA
BRANCH   5   7
ATOM      7  C   UNL A   1      35.807  30.019  28.049  1.00  0.00     0.060 A 
ATOM      8  C   UNL A   1      36.980  30.097  27.286  1.00  0.00     0.016 A 
ATOM      9  C   UNL A   1      35.861  29.511  29.351  1.00  0.00     0.016 A 
ATOM     10  C   UNL A   1      38.200  29.734  27.838  1.00  0.00     0.010 A 
ATOM     11  C   UNL A   1      37.090  29.156  29.914  1.00  0.00     0.010 A 
ATOM     12  C   UNL A   1      38.264  29.288  29.162  1.00  0.00    -0.014 A 
BRANCH  12  13
ATOM     13  C   UNL A   1      39.592  28.957  29.711  1.00  0.00     0.031 A 
ATOM     14  C   UNL A   1      40.100  29.718  30.887  1.00  0.00     0.074 A 
ATOM     15  C   UNL A   1      40.273  27.907  29.220  1.00  0.00     0.049 A 
ATOM     16  N   UNL A   1      41.091  29.425  31.685  1.00  0.00    -0.248 NA
ATOM     17  C   UNL A   1      39.376  30.949  31.237  1.00  0.00     0.031 C 
ATOM     18  C   UNL A   1      39.841  27.092  28.090  1.00  0.00     0.029 A 
ATOM     19  N   UNL A   1      41.458  27.340  29.605  1.00  0.00    -0.354 N 
ATOM     20  C   UNL A   1      41.059  30.387  32.678  1.00  0.00     0.074 A 
ATOM     21  C   UNL A   1      40.014  31.328  32.334  1.00  0.00     0.031 C 
ATOM     22  C   UNL A   1      40.771  26.157  27.834  1.00  0.00     0.029 A 
ATOM     23  C   UNL A   1      41.841  26.283  28.817  1.00  0.00     0.049 A 
ATOM     24  H   UNL A   1      41.985  27.659  30.373  1.00  0.00     0.167 HD
ATOM     25  C   UNL A   1      41.809  30.441  33.802  1.00  0.00     0.037 A 
ATOM     26  C   UNL A   1      42.925  25.492  28.900  1.00  0.00     0.037 A 
ATOM     27  C   UNL A   1      42.882  29.529  34.088  1.00  0.00     0.049 A 
ATOM     28  C   UNL A   1      43.831  25.655  30.087  1.00  0.00     0.074 A 
ATOM     29  C   UNL A   1      43.717  29.487  35.189  1.00  0.00     0.029 A 
ATOM     30  N   UNL A   1      43.288  28.507  33.237  1.00  0.00    -0.354 N 
ATOM     31  N   UNL A   1      43.730  26.497  31.089  1.00  0.00    -0.248 NA
ATOM     32  C   UNL A   1      44.971  24.735  30.186  1.00  0.00     0.031 C 
ATOM     33  C   UNL A   1      44.657  28.471  34.982  1.00  0.00     0.029 A 
ATOM     34  C   UNL A   1      44.383  27.850  33.771  1.00  0.00     0.049 A 
ATOM     35  H   UNL A   1      42.858  28.283  32.380  1.00  0.00     0.167 HD
ATOM     36  C   UNL A   1      44.761  26.182  31.960  1.00  0.00     0.074 A 
ATOM     37  C   UNL A   1      45.480  25.072  31.363  1.00  0.00     0.031 C 
ATOM     38  C   UNL A   1      45.075  26.747  33.151  1.00  0.00     0.037 A 
BRANCH  25  39
ATOM     39  C   UNL A   1      41.469  31.520  34.783  1.00  0.00     0.064 A 
ATOM     40  C   UNL A   1      40.417  31.359  35.699  1.00  0.00     0.173 A 
ATOM     41  C   UNL A   1      42.171  32.732  34.794  1.00  0.00     0.173 A 
ATOM     42  F   UNL A   1      39.701  30.223  35.712  1.00  0.00    -0.203 F 
ATOM     43  C   UNL A   1      40.061  32.384  36.571  1.00  0.00     0.198 A 
ATOM     44  C   UNL A   1      41.827  33.748  35.682  1.00  0.00     0.198 A 
ATOM     45  F   UNL A   1      43.179  32.937  33.933  1.00  0.00    -0.203 F 
ATOM     46  F   UNL A   1      39.019  32.227  37.398  1.00  0.00    -0.200 F 
ATOM     47  C   UNL A   1      40.768  33.577  36.561  1.00  0.00     0.200 A 
ATOM     48  F   UNL A   1      42.508  34.901  35.674  1.00  0.00    -0.200 F 
ATOM     49  F   UNL A   1      40.418  34.570  37.392  1.00  0.00    -0.200 F 
ENDBRANCH  25  39
BRANCH  26  50
ATOM     50  C   UNL A   1      43.168  24.454  27.864  1.00  0.00     0.064 A 
ATOM     51  C   UNL A   1      43.880  24.740  26.693  1.00  0.00     0.173 A 
ATOM     52  C   UNL A   1      42.701  23.142  28.040  1.00  0.00     0.173 A 
ATOM     53  F   UNL A   1      44.335  25.983  26.473  1.00  0.00    -0.203 F 
ATOM     54  C   UNL A   1      44.106  23.758  25.730  1.00  0.00     0.198 A 
ATOM     55  C   UNL A   1      42.943  22.157  27.085  1.00  0.00     0.198 A 
ATOM     56  F   UNL A   1      42.011  22.818  29.144  1.00  0.00    -0.203 F 
ATOM     57  F   UNL A   1      44.763  24.067  24.604  1.00  0.00    -0.200 F 
ATOM     58  C   UNL A   1      43.641  22.467  25.928  1.00  0.00     0.200 A 
ATOM     59  F   UNL A   1      42.497  20.909  27.283  1.00  0.00    -0.200 F 
ATOM     60  F   UNL A   1      43.860  21.524  25.002  1.00  0.00    -0.200 F 
ENDBRANCH  26  50
BRANCH  38  61
ATOM     61  C   UNL A   1      46.230  26.153  33.897  1.00  0.00     0.064 A 
ATOM     62  C   UNL A   1      47.531  26.652  33.748  1.00  0.00     0.173 A 
ATOM     63  C   UNL A   1      46.021  25.103  34.803  1.00  0.00     0.173 A 
ATOM     64  F   UNL A   1      47.779  27.642  32.879  1.00  0.00    -0.203 F 
ATOM     65  C   UNL A   1      48.590  26.106  34.469  1.00  0.00     0.198 A 
ATOM     66  C   UNL A   1      47.077  24.579  35.542  1.00  0.00     0.198 A 
ATOM     67  F   UNL A   1      44.793  24.597  34.981  1.00  0.00    -0.203 F 
ATOM     68  F   UNL A   1      49.833  26.569  34.284  1.00  0.00    -0.200 F 
ATOM     69  C   UNL A   1      48.360  25.077  35.370  1.00  0.00     0.200 A 
ATOM     70  F   UNL A   1      46.853  23.592  36.420  1.00  0.00    -0.200 F 
ATOM     71  F   UNL A   1      49.379  24.559  36.070  1.00  0.00    -0.200 F 
ENDBRANCH  38  61
ENDBRANCH  12  13
ENDBRANCH   5   7
ENDBRANCH   4   5
ENDBRANCH   3   4
ENDBRANCH   2   3
ENDBRANCH   1   2
BRANCH   1  72
ATOM     72  C   UNL A   1      32.894  35.979  29.649  1.00  0.00     0.358 C 
ATOM     73  O   UNL A   1      32.703  36.950  28.935  1.00  0.00    -0.244 OA
BRANCH  72  74
ATOM     74  C   UNL A   1      33.405  36.093  31.032  1.00  0.00     0.170 A 
ATOM     75  C   UNL A   1      33.334  37.329  31.657  1.00  0.00     0.147 A 
ATOM     76  N   UNL A   1      33.780  34.953  31.686  1.00  0.00    -0.203 NA
ATOM     77  N   UNL A   1      33.650  37.500  32.965  1.00  0.00    -0.257 NA
ATOM     78  C   UNL A   1      34.104  35.129  32.988  1.00  0.00     0.233 A 
ATOM     79  C   UNL A   1      34.028  36.370  33.614  1.00  0.00     0.179 A 
BRANCH  78  80
ATOM     80  O   UNL A   1      34.429  34.050  33.783  1.00  0.00    -0.477 OA
BRANCH  80  81
ATOM     81  C   UNL A   1      35.554  34.256  34.642  1.00  0.00     0.232 C 
BRANCH  81  82
ATOM     82  C   UNL A   1      36.797  33.541  34.106  1.00  0.00     0.046 C 
BRANCH  82  83
ATOM     83  C   UNL A   1      37.704  34.443  33.261  1.00  0.00     0.039 C 
BRANCH  83  84
ATOM     84  C   UNL A   1      37.740  34.156  31.776  1.00  0.00    -0.048 A 
ATOM     85  C   UNL A   1      38.800  34.670  31.019  1.00  0.00     0.004 A 
ATOM     86  C   UNL A   1      36.750  33.421  31.114  1.00  0.00     0.004 A 
ATOM     87  C   UNL A   1      38.919  34.391  29.658  1.00  0.00     0.000 A 
ATOM     88  C   UNL A   1      36.862  33.147  29.746  1.00  0.00     0.000 A 
ATOM     89  C   UNL A   1      37.955  33.618  29.021  1.00  0.00     0.000 A 
ENDBRANCH  83  84
ENDBRANCH  82  83
ENDBRANCH  81  82
ENDBRANCH  80  81
ENDBRANCH  78  80
ENDBRANCH  72  74
ENDBRANCH   1  72
TORSDOF 16
ENDMDL
MODEL 2
REMARK VINA RESULT:     -10.5      1.873      7.627
REMARK SMILES O=C(OCCOC(=O)c1cncc(OCCCc2ccccc2)n1)c1ccc(-c2c3nc(c(-c4c(F)c(F)c(F)c(F)c4F)c4ccc([nH]4)c(-c4c(F)c(F)c(F)c(F)c4F)c4nc(c(-c5c(F)c(F)c(F)c(F)c5F)c5ccc2[nH]5)C=C4)C=C3)cc1
REMARK SMILES IDX 6 1 5 2 4 3 3 4 2 5 1 6 25 7 26 8 87 9 27 10 86 11 28 12
REMARK SMILES IDX 29 13 30 14 80 15 31 16 85 17 79 18 81 19 32 20 84 21 78 22
REMARK SMILES IDX 77 23 33 25 65 26 45 27 64 28 46 29 49 30 63 31 82 32 47 33
REMARK SMILES IDX 48 34 62 36 83 37 50 38 34 39 35 40 43 41 36 42 37 43 41 44
REMARK SMILES IDX 44 45 38 46 39 47 42 48 40 49 66 50 67 51 75 52 68 53 69 54
REMARK SMILES IDX 73 55 76 56 70 57 71 58 74 59 72 60 51 61 52 62 60 63 53 64
REMARK SMILES IDX 54 65 58 66 61 67 55 68 56 69 59 70 57 71 7 72 8 73 9 74
REMARK SMILES IDX 10 75 24 76 11 77 13 78 12 79 14 80 15 81 16 82 17 83 18 84
REMARK SMILES IDX 19 85 23 86 20 87 22 88 21 89
REMARK H PARENT 81 24 49 35
REMARK Flexibility Score: inf
ROOT
ATOM      1  O   UNL A   1      32.869  34.389  29.177  1.00  0.00    -0.457 OA
ENDROOT
BRANCH   1   2
ATOM      2  C   UNL A   1      33.773  34.079  28.095  1.00  0.00     0.275 C 
BRANCH   2   3
ATOM      3  C   UNL A   1      33.721  32.610  27.634  1.00  0.00     0.275 C 
BRANCH   3   4
ATOM      4  O   UNL A   1      34.929  31.829  27.598  1.00  0.00    -0.458 OA
BRANCH   4   5
ATOM      5  C   UNL A   1      34.808  30.487  27.636  1.00  0.00     0.338 C 
ATOM      6  O   UNL A   1      33.763  29.885  27.487  1.00  0.00    -0.246 OA
BRANCH   5   7
ATOM      7  C   UNL A   1      36.097  29.892  28.087  1.00  0.00     0.060 A 
ATOM      8  C   UNL A   1      37.246  29.996  27.292  1.00  0.00     0.016 A 
ATOM      9  C   UNL A   1      36.198  29.391  29.389  1.00  0.00     0.016 A 
ATOM     10  C   UNL A   1      38.489  29.663  27.811  1.00  0.00     0.010 A 
ATOM     11  C   UNL A   1      37.450  29.067  29.919  1.00  0.00     0.010 A 
ATOM     12  C   UNL A   1      38.600  29.224  29.134  1.00  0.00    -0.014 A 
BRANCH  12  13
ATOM     13  C   UNL A   1      39.950  28.928  29.648  1.00  0.00     0.031 A 
ATOM     14  C   UNL A   1      40.612  27.653  29.252  1.00  0.00     0.074 A 
ATOM     15  C   UNL A   1      40.607  29.854  30.367  1.00  0.00     0.049 A 
ATOM     16  N   UNL A   1      41.870  27.318  29.358  1.00  0.00    -0.248 NA
ATOM     17  C   UNL A   1      39.759  26.636  28.620  1.00  0.00     0.031 C 
ATOM     18  C   UNL A   1      40.047  31.137  30.779  1.00  0.00     0.029 A 
ATOM     19  N   UNL A   1      41.879  29.869  30.873  1.00  0.00    -0.354 N 
ATOM     20  C   UNL A   1      41.975  26.089  28.733  1.00  0.00     0.074 A 
ATOM     21  C   UNL A   1      40.642  25.691  28.334  1.00  0.00     0.031 C 
ATOM     22  C   UNL A   1      40.950  31.800  31.519  1.00  0.00     0.029 A 
ATOM     23  C   UNL A   1      42.169  31.003  31.592  1.00  0.00     0.049 A 
ATOM     24  H   UNL A   1      42.524  29.138  30.734  1.00  0.00     0.167 HD
ATOM     25  C   UNL A   1      43.101  25.386  28.473  1.00  0.00     0.037 A 
ATOM     26  C   UNL A   1      43.304  31.363  32.217  1.00  0.00     0.037 A 
ATOM     27  C   UNL A   1      44.406  25.774  28.935  1.00  0.00     0.049 A 
ATOM     28  C   UNL A   1      44.518  30.497  32.034  1.00  0.00     0.074 A 
ATOM     29  C   UNL A   1      45.619  25.141  28.743  1.00  0.00     0.029 A 
ATOM     30  N   UNL A   1      44.657  26.895  29.718  1.00  0.00    -0.354 N 
ATOM     31  N   UNL A   1      44.640  29.389  31.341  1.00  0.00    -0.248 NA
ATOM     32  C   UNL A   1      45.760  30.947  32.673  1.00  0.00     0.031 C 
ATOM     33  C   UNL A   1      46.597  25.853  29.448  1.00  0.00     0.029 A 
ATOM     34  C   UNL A   1      46.001  26.954  30.046  1.00  0.00     0.049 A 
ATOM     35  H   UNL A   1      43.978  27.552  29.997  1.00  0.00     0.167 HD
ATOM     36  C   UNL A   1      45.977  29.032  31.421  1.00  0.00     0.074 A 
ATOM     37  C   UNL A   1      46.625  30.042  32.236  1.00  0.00     0.031 C 
ATOM     38  C   UNL A   1      46.614  27.975  30.859  1.00  0.00     0.037 A 
BRANCH  25  39
ATOM     39  C   UNL A   1      42.942  24.145  27.651  1.00  0.00     0.064 A 
ATOM     40  C   UNL A   1      42.591  22.923  28.247  1.00  0.00     0.173 A 
ATOM     41  C   UNL A   1      43.169  24.162  26.269  1.00  0.00     0.173 A 
ATOM     42  F   UNL A   1      42.384  22.853  29.572  1.00  0.00    -0.203 F 
ATOM     43  C   UNL A   1      42.502  21.757  27.493  1.00  0.00     0.198 A 
ATOM     44  C   UNL A   1      43.058  22.997  25.513  1.00  0.00     0.198 A 
ATOM     45  F   UNL A   1      43.514  25.303  25.655  1.00  0.00    -0.203 F 
ATOM     46  F   UNL A   1      42.218  20.592  28.093  1.00  0.00    -0.200 F 
ATOM     47  C   UNL A   1      42.734  21.796  26.127  1.00  0.00     0.200 A 
ATOM     48  F   UNL A   1      43.282  23.034  24.194  1.00  0.00    -0.200 F 
ATOM     49  F   UNL A   1      42.660  20.670  25.402  1.00  0.00    -0.200 F 
ENDBRANCH  25  39
BRANCH  26  50
ATOM     50  C   UNL A   1      43.347  32.616  33.013  1.00  0.00     0.064 A 
ATOM     51  C   UNL A   1      43.691  33.843  32.431  1.00  0.00     0.173 A 
ATOM     52  C   UNL A   1      43.025  32.610  34.379  1.00  0.00     0.173 A 
ATOM     53  F   UNL A   1      44.021  33.899  31.133  1.00  0.00    -0.203 F 
ATOM     54  C   UNL A   1      43.725  35.013  33.187  1.00  0.00     0.198 A 
ATOM     55  C   UNL A   1      43.040  33.784  35.130  1.00  0.00     0.198 A 
ATOM     56  F   UNL A   1      42.690  31.460  34.984  1.00  0.00    -0.203 F 
ATOM     57  F   UNL A   1      44.088  36.169  32.613  1.00  0.00    -0.200 F 
ATOM     58  C   UNL A   1      43.395  34.984  34.534  1.00  0.00     0.200 A 
ATOM     59  F   UNL A   1      42.716  33.752  36.429  1.00  0.00    -0.200 F 
ATOM     60  F   UNL A   1      43.426  36.111  35.259  1.00  0.00    -0.200 F 
ENDBRANCH  26  50
BRANCH  38  61
ATOM     61  C   UNL A   1      48.091  27.878  31.087  1.00  0.00     0.064 A 
ATOM     62  C   UNL A   1      48.620  27.141  32.154  1.00  0.00     0.173 A 
ATOM     63  C   UNL A   1      48.985  28.495  30.199  1.00  0.00     0.173 A 
ATOM     64  F   UNL A   1      47.802  26.551  33.038  1.00  0.00    -0.203 F 
ATOM     65  C   UNL A   1      49.996  27.038  32.336  1.00  0.00     0.198 A 
ATOM     66  C   UNL A   1      50.360  28.368  30.369  1.00  0.00     0.198 A 
ATOM     67  F   UNL A   1      48.524  29.208  29.161  1.00  0.00    -0.203 F 
ATOM     68  F   UNL A   1      50.483  26.362  33.386  1.00  0.00    -0.200 F 
ATOM     69  C   UNL A   1      50.864  27.645  31.440  1.00  0.00     0.200 A 
ATOM     70  F   UNL A   1      51.197  28.945  29.496  1.00  0.00    -0.200 F 
ATOM     71  F   UNL A   1      52.188  27.537  31.611  1.00  0.00    -0.200 F 
ENDBRANCH  38  61
ENDBRANCH  12  13
ENDBRANCH   5   7
ENDBRANCH   4   5
ENDBRANCH   3   4
ENDBRANCH   2   3
ENDBRANCH   1   2
BRANCH   1  72
ATOM     72  C   UNL A   1      32.855  35.717  29.510  1.00  0.00     0.358 C 
ATOM     73  O   UNL A   1      32.519  36.638  28.783  1.00  0.00    -0.244 OA
BRANCH  72  74
ATOM     74  C   UNL A   1      33.374  35.929  30.878  1.00  0.00     0.170 A 
ATOM     75  C   UNL A   1      33.269  37.196  31.430  1.00  0.00     0.147 A 
ATOM     76  N   UNL A   1      33.792  34.842  31.593  1.00  0.00    -0.203 NA
ATOM     77  N   UNL A   1      33.592  37.454  32.722  1.00  0.00    -0.257 NA
ATOM     78  C   UNL A   1      34.123  35.104  32.879  1.00  0.00     0.233 A 
ATOM     79  C   UNL A   1      34.013  36.376  33.432  1.00  0.00     0.179 A 
BRANCH  78  80
ATOM     80  O   UNL A   1      34.490  34.084  33.732  1.00  0.00    -0.477 OA
BRANCH  80  81
ATOM     81  C   UNL A   1      35.637  34.362  34.539  1.00  0.00     0.232 C 
BRANCH  81  82
ATOM     82  C   UNL A   1      36.829  33.498  34.122  1.00  0.00     0.046 C 
BRANCH  82  83
ATOM     83  C   UNL A   1      37.881  34.260  33.306  1.00  0.00     0.039 C 
BRANCH  83  84
ATOM     84  C   UNL A   1      37.856  34.040  31.809  1.00  0.00    -0.048 A 
ATOM     85  C   UNL A   1      38.763  34.748  31.012  1.00  0.00     0.004 A 
ATOM     86  C   UNL A   1      36.950  33.180  31.176  1.00  0.00     0.004 A 
ATOM     87  C   UNL A   1      38.827  34.545  29.633  1.00  0.00     0.000 A 
ATOM     88  C   UNL A   1      37.006  32.982  29.792  1.00  0.00     0.000 A 
ATOM     89  C   UNL A   1      37.955  33.652  29.022  1.00  0.00     0.000 A 
ENDBRANCH  83  84
ENDBRANCH  82  83
ENDBRANCH  81  82
ENDBRANCH  80  81
ENDBRANCH  78  80
ENDBRANCH  72  74
ENDBRANCH   1  72
TORSDOF 16
ENDMDL
MODEL 3
REMARK VINA RESULT:     -10.2      7.277     15.412
REMARK SMILES O=C(OCCOC(=O)c1cncc(OCCCc2ccccc2)n1)c1ccc(-c2c3nc(c(-c4c(F)c(F)c(F)c(F)c4F)c4ccc([nH]4)c(-c4c(F)c(F)c(F)c(F)c4F)c4nc(c(-c5c(F)c(F)c(F)c(F)c5F)c5ccc2[nH]5)C=C4)C=C3)cc1
REMARK SMILES IDX 6 1 5 2 4 3 3 4 2 5 1 6 25 7 26 8 87 9 27 10 86 11 28 12
REMARK SMILES IDX 29 13 30 14 80 15 31 16 85 17 79 18 81 19 32 20 84 21 78 22
REMARK SMILES IDX 77 23 33 25 65 26 45 27 64 28 46 29 49 30 63 31 82 32 47 33
REMARK SMILES IDX 48 34 62 36 83 37 50 38 34 39 35 40 43 41 36 42 37 43 41 44
REMARK SMILES IDX 44 45 38 46 39 47 42 48 40 49 66 50 67 51 75 52 68 53 69 54
REMARK SMILES IDX 73 55 76 56 70 57 71 58 74 59 72 60 51 61 52 62 60 63 53 64
REMARK SMILES IDX 54 65 58 66 61 67 55 68 56 69 59 70 57 71 7 72 8 73 9 74
REMARK SMILES IDX 10 75 24 76 11 77 13 78 12 79 14 80 15 81 16 82 17 83 18 84
REMARK SMILES IDX 19 85 23 86 20 87 22 88 21 89
REMARK H PARENT 81 24 49 35
REMARK Flexibility Score: inf
ROOT
ATOM      1  O   UNL A   1      45.900  20.703  36.590  1.00  0.00    -0.457 OA
ENDROOT
BRANCH   1   2
ATOM      2  C   UNL A   1      45.383  21.622  35.603  1.00  0.00     0.275 C 
BRANCH   2   3
ATOM      3  C   UNL A   1      46.364  22.746  35.219  1.00  0.00     0.275 C 
BRANCH   3   4
ATOM      4  O   UNL A   1      46.822  23.668  36.224  1.00  0.00    -0.458 OA
BRANCH   4   5
ATOM      5  C   UNL A   1      45.897  24.419  36.852  1.00  0.00     0.338 C 
ATOM      6  O   UNL A   1      45.606  24.314  38.028  1.00  0.00    -0.246 OA
BRANCH   5   7
ATOM      7  C   UNL A   1      45.161  25.234  35.846  1.00  0.00     0.060 A 
ATOM      8  C   UNL A   1      43.877  24.858  35.426  1.00  0.00     0.016 A 
ATOM      9  C   UNL A   1      45.680  26.473  35.459  1.00  0.00     0.016 A 
ATOM     10  C   UNL A   1      43.099  25.735  34.685  1.00  0.00     0.010 A 
ATOM     11  C   UNL A   1      44.894  27.363  34.723  1.00  0.00     0.010 A 
ATOM     12  C   UNL A   1      43.592  27.000  34.354  1.00  0.00    -0.014 A 
BRANCH  12  13
ATOM     13  C   UNL A   1      42.705  27.908  33.603  1.00  0.00     0.031 A 
ATOM     14  C   UNL A   1      42.625  27.781  32.121  1.00  0.00     0.074 A 
ATOM     15  C   UNL A   1      41.901  28.755  34.269  1.00  0.00     0.049 A 
ATOM     16  N   UNL A   1      41.732  28.274  31.305  1.00  0.00    -0.248 NA
ATOM     17  C   UNL A   1      43.660  26.963  31.473  1.00  0.00     0.031 C 
ATOM     18  C   UNL A   1      41.894  28.927  35.718  1.00  0.00     0.029 A 
ATOM     19  N   UNL A   1      40.935  29.618  33.827  1.00  0.00    -0.354 N 
ATOM     20  C   UNL A   1      42.048  27.759  30.061  1.00  0.00     0.074 A 
ATOM     21  C   UNL A   1      43.268  26.993  30.208  1.00  0.00     0.031 C 
ATOM     22  C   UNL A   1      41.005  29.878  36.049  1.00  0.00     0.029 A 
ATOM     23  C   UNL A   1      40.348  30.346  34.834  1.00  0.00     0.049 A 
ATOM     24  H   UNL A   1      40.685  29.710  32.879  1.00  0.00     0.167 HD
ATOM     25  C   UNL A   1      41.345  27.878  28.912  1.00  0.00     0.037 A 
ATOM     26  C   UNL A   1      39.372  31.269  34.777  1.00  0.00     0.037 A 
ATOM     27  C   UNL A   1      40.170  28.696  28.780  1.00  0.00     0.049 A 
ATOM     28  C   UNL A   1      38.688  31.495  33.458  1.00  0.00     0.074 A 
ATOM     29  C   UNL A   1      39.377  28.902  27.667  1.00  0.00     0.029 A 
ATOM     30  N   UNL A   1      39.638  29.473  29.803  1.00  0.00    -0.354 N 
ATOM     31  N   UNL A   1      38.918  30.915  32.304  1.00  0.00    -0.248 NA
ATOM     32  C   UNL A   1      37.582  32.460  33.439  1.00  0.00     0.031 C 
ATOM     33  C   UNL A   1      38.393  29.841  28.004  1.00  0.00     0.029 A 
ATOM     34  C   UNL A   1      38.547  30.187  29.339  1.00  0.00     0.049 A 
ATOM     35  H   UNL A   1      39.986  29.508  30.723  1.00  0.00     0.167 HD
ATOM     36  C   UNL A   1      37.960  31.408  31.431  1.00  0.00     0.074 A 
ATOM     37  C   UNL A   1      37.149  32.340  32.191  1.00  0.00     0.031 C 
ATOM     38  C   UNL A   1      37.760  31.106  30.124  1.00  0.00     0.037 A 
BRANCH  25  39
ATOM     39  C   UNL A   1      41.843  27.096  27.737  1.00  0.00     0.064 A 
ATOM     40  C   UNL A   1      41.421  25.775  27.517  1.00  0.00     0.173 A 
ATOM     41  C   UNL A   1      42.766  27.650  26.841  1.00  0.00     0.173 A 
ATOM     42  F   UNL A   1      40.553  25.193  28.360  1.00  0.00    -0.203 F 
ATOM     43  C   UNL A   1      41.929  25.027  26.458  1.00  0.00     0.198 A 
ATOM     44  C   UNL A   1      43.257  26.907  25.771  1.00  0.00     0.198 A 
ATOM     45  F   UNL A   1      43.205  28.905  27.014  1.00  0.00    -0.203 F 
ATOM     46  F   UNL A   1      41.553  23.750  26.300  1.00  0.00    -0.200 F 
ATOM     47  C   UNL A   1      42.846  25.594  25.586  1.00  0.00     0.200 A 
ATOM     48  F   UNL A   1      44.142  27.453  24.928  1.00  0.00    -0.200 F 
ATOM     49  F   UNL A   1      43.345  24.870  24.574  1.00  0.00    -0.200 F 
ENDBRANCH  25  39
BRANCH  26  50
ATOM     50  C   UNL A   1      38.961  31.991  36.008  1.00  0.00     0.064 A 
ATOM     51  C   UNL A   1      38.129  31.395  36.964  1.00  0.00     0.173 A 
ATOM     52  C   UNL A   1      39.412  33.296  36.259  1.00  0.00     0.173 A 
ATOM     53  F   UNL A   1      37.660  30.154  36.763  1.00  0.00    -0.203 F 
ATOM     54  C   UNL A   1      37.752  32.080  38.118  1.00  0.00     0.198 A 
ATOM     55  C   UNL A   1      39.050  33.973  37.422  1.00  0.00     0.198 A 
ATOM     56  F   UNL A   1      40.210  33.912  35.373  1.00  0.00    -0.203 F 
ATOM     57  F   UNL A   1      36.930  31.498  39.001  1.00  0.00    -0.200 F 
ATOM     58  C   UNL A   1      38.217  33.366  38.348  1.00  0.00     0.200 A 
ATOM     59  F   UNL A   1      39.506  35.214  37.643  1.00  0.00    -0.200 F 
ATOM     60  F   UNL A   1      37.855  34.023  39.459  1.00  0.00    -0.200 F 
ENDBRANCH  26  50
BRANCH  38  61
ATOM     61  C   UNL A   1      36.601  31.771  29.447  1.00  0.00     0.064 A 
ATOM     62  C   UNL A   1      36.619  33.139  29.142  1.00  0.00     0.173 A 
ATOM     63  C   UNL A   1      35.482  31.020  29.061  1.00  0.00     0.173 A 
ATOM     64  F   UNL A   1      37.661  33.899  29.509  1.00  0.00    -0.203 F 
ATOM     65  C   UNL A   1      35.545  33.737  28.489  1.00  0.00     0.198 A 
ATOM     66  C   UNL A   1      34.423  31.616  28.384  1.00  0.00     0.198 A 
ATOM     67  F   UNL A   1      35.423  29.707  29.329  1.00  0.00    -0.203 F 
ATOM     68  F   UNL A   1      35.563  35.053  28.241  1.00  0.00    -0.200 F 
ATOM     69  C   UNL A   1      34.453  32.974  28.104  1.00  0.00     0.200 A 
ATOM     70  F   UNL A   1      33.373  30.875  28.003  1.00  0.00    -0.200 F 
ATOM     71  F   UNL A   1      33.424  33.549  27.466  1.00  0.00    -0.200 F 
ENDBRANCH  38  61
ENDBRANCH  12  13
ENDBRANCH   5   7
ENDBRANCH   4   5
ENDBRANCH   3   4
ENDBRANCH   2   3
ENDBRANCH   1   2
BRANCH   1  72
ATOM     72  C   UNL A   1      45.718  19.387  36.255  1.00  0.00     0.358 C 
ATOM     73  O   UNL A   1      45.599  18.941  35.125  1.00  0.00    -0.244 OA
BRANCH  72  74
ATOM     74  C   UNL A   1      45.611  18.541  37.463  1.00  0.00     0.170 A 
ATOM     75  C   UNL A   1      46.382  18.871  38.566  1.00  0.00     0.147 A 
ATOM     76  N   UNL A   1      44.650  17.569  37.495  1.00  0.00    -0.203 NA
ATOM     77  N   UNL A   1      46.252  18.239  39.759  1.00  0.00    -0.257 NA
ATOM     78  C   UNL A   1      44.529  16.933  38.684  1.00  0.00     0.233 A 
ATOM     79  C   UNL A   1      45.303  17.270  39.791  1.00  0.00     0.179 A 
BRANCH  78  80
ATOM     80  O   UNL A   1      43.549  15.983  38.876  1.00  0.00    -0.477 OA
BRANCH  80  81
ATOM     81  C   UNL A   1      42.830  16.103  40.105  1.00  0.00     0.232 C 
BRANCH  81  82
ATOM     82  C   UNL A   1      42.123  14.793  40.463  1.00  0.00     0.046 C 
BRANCH  82  83
ATOM     83  C   UNL A   1      41.706  14.706  41.937  1.00  0.00     0.039 C 
BRANCH  83  84
ATOM     84  C   UNL A   1      42.121  13.455  42.678  1.00  0.00    -0.048 A 
ATOM     85  C   UNL A   1      41.562  12.230  42.292  1.00  0.00     0.004 A 
ATOM     86  C   UNL A   1      43.020  13.462  43.751  1.00  0.00     0.004 A 
ATOM     87  C   UNL A   1      41.949  11.035  42.899  1.00  0.00     0.000 A 
ATOM     88  C   UNL A   1      43.402  12.265  44.368  1.00  0.00     0.000 A 
ATOM     89  C   UNL A   1      42.879  11.050  43.931  1.00  0.00     0.000 A 
ENDBRANCH  83  84
ENDBRANCH  82  83
ENDBRANCH  81  82
ENDBRANCH  80  81
ENDBRANCH  78  80
ENDBRANCH  72  74
ENDBRANCH   1  72
TORSDOF 16
ENDMDL
