MODEL 1
REMARK VINA RESULT:     -12.1      0.000      0.000
REMARK SMILES CC[C@@H]1CCC[C@@](CC[NH+]2CCOCC2)(C(=O)OCCOC(=O)c2ccc(-c3c4nc(c(-c5c(F)c(F)c(F)c(F)c5F)c5ccc([nH]5)c(-c5c(F)c(F)c(F)c(F)c5F)c5nc(c(-c6c(F)c(F)c(F)c(F)c6F)c6ccc3[nH]6)C=C5)C=C4)cc2)C1
REMARK SMILES IDX 19 1 18 2 16 3 17 4 7 5 3 6 4 7 87 8 5 9 6 10 2 11 1 12 8 13
REMARK SMILES IDX 9 14 10 15 11 16 15 17 12 19 14 20 13 21 20 22 21 23 22 24
REMARK SMILES IDX 23 25 24 26 25 27 86 28 26 29 85 30 27 31 28 32 29 33 79 34
REMARK SMILES IDX 30 35 84 36 78 37 80 38 31 39 83 40 77 41 76 42 32 44 64 45
REMARK SMILES IDX 44 46 63 47 45 48 48 49 62 50 81 51 46 52 47 53 61 55 82 56
REMARK SMILES IDX 49 57 33 58 34 59 42 60 35 61 36 62 40 63 43 64 37 65 38 66
REMARK SMILES IDX 41 67 39 68 65 69 66 70 74 71 67 72 68 73 72 74 75 75 69 76
REMARK SMILES IDX 70 77 73 78 71 79 50 80 51 81 59 82 52 83 53 84 57 85 60 86
REMARK SMILES IDX 54 87 55 88 58 89 56 90
REMARK H PARENT 10 18 80 43 48 54
REMARK Flexibility Score: inf
ROOT
ATOM      1  C   UNL A   1      32.779  29.528  24.969  1.00  0.00     0.274 C 
ENDROOT
BRANCH   1   2
ATOM      2  O   UNL A   1      32.507  28.112  25.007  1.00  0.00    -0.462 OA
BRANCH   2   3
ATOM      3  C   UNL A   1      32.514  27.468  23.809  1.00  0.00     0.312 C 
ATOM      4  O   UNL A   1      33.479  27.424  23.052  1.00  0.00    -0.252 OA
BRANCH   3   5
ATOM      5  C   UNL A   1      31.156  26.850  23.446  1.00  0.00     0.074 C 
ATOM      6  C   UNL A   1      31.884  24.359  23.592  1.00  0.00    -0.010 C 
ATOM      7  C   UNL A   1      30.921  24.140  24.759  1.00  0.00     0.003 C 
ATOM      8  C   UNL A   1      31.394  25.505  22.693  1.00  0.00     0.022 C 
ATOM      9  C   UNL A   1      30.728  25.429  25.554  1.00  0.00     0.001 C 
ATOM     10  C   UNL A   1      30.245  26.585  24.667  1.00  0.00     0.019 C 
BRANCH   6  11
ATOM     11  C   UNL A   1      32.163  23.075  22.784  1.00  0.00     0.000 C 
ATOM     12  C   UNL A   1      32.809  21.926  23.543  1.00  0.00     0.004 C 
ENDBRANCH   6  11
BRANCH   5  13
ATOM     13  C   UNL A   1      30.464  27.809  22.425  1.00  0.00     0.080 C 
BRANCH  13  14
ATOM     14  C   UNL A   1      29.723  29.053  22.959  1.00  0.00     0.263 C 
BRANCH  14  15
ATOM     15  N   UNL A   1      28.516  29.464  22.230  1.00  0.00    -0.331 N 
ATOM     16  C   UNL A   1      28.796  30.582  21.297  1.00  0.00     0.291 C 
ATOM     17  C   UNL A   1      27.371  29.863  23.084  1.00  0.00     0.291 C 
ATOM     18  H   UNL A   1      28.245  28.619  21.727  1.00  0.00     0.348 HD
ATOM     19  C   UNL A   1      28.902  31.959  21.980  1.00  0.00     0.221 C 
ATOM     20  C   UNL A   1      27.497  31.249  23.727  1.00  0.00     0.221 C 
ATOM     21  O   UNL A   1      27.727  32.260  22.740  1.00  0.00    -0.370 OA
ENDBRANCH  14  15
ENDBRANCH  13  14
ENDBRANCH   5  13
ENDBRANCH   3   5
ENDBRANCH   2   3
ENDBRANCH   1   2
BRANCH   1  22
ATOM     22  C   UNL A   1      31.809  30.303  25.857  1.00  0.00     0.275 C 
BRANCH  22  23
ATOM     23  O   UNL A   1      32.393  30.464  27.159  1.00  0.00    -0.458 OA
BRANCH  23  24
ATOM     24  C   UNL A   1      33.161  31.557  27.348  1.00  0.00     0.338 C 
ATOM     25  O   UNL A   1      32.788  32.725  27.298  1.00  0.00    -0.246 OA
BRANCH  24  26
ATOM     26  C   UNL A   1      34.543  31.164  27.716  1.00  0.00     0.060 A 
ATOM     27  C   UNL A   1      34.869  29.834  27.975  1.00  0.00     0.016 A 
ATOM     28  C   UNL A   1      35.506  32.148  27.949  1.00  0.00     0.016 A 
ATOM     29  C   UNL A   1      36.064  29.508  28.614  1.00  0.00     0.010 A 
ATOM     30  C   UNL A   1      36.755  31.800  28.487  1.00  0.00     0.010 A 
ATOM     31  C   UNL A   1      37.025  30.484  28.903  1.00  0.00    -0.014 A 
BRANCH  31  32
ATOM     32  C   UNL A   1      38.229  30.162  29.737  1.00  0.00     0.031 A 
ATOM     33  C   UNL A   1      39.368  29.365  29.142  1.00  0.00     0.074 A 
ATOM     34  C   UNL A   1      38.370  30.614  31.001  1.00  0.00     0.049 A 
ATOM     35  N   UNL A   1      40.359  28.752  29.743  1.00  0.00    -0.248 NA
ATOM     36  C   UNL A   1      39.386  29.220  27.677  1.00  0.00     0.031 C 
ATOM     37  C   UNL A   1      37.420  31.460  31.721  1.00  0.00     0.029 A 
ATOM     38  N   UNL A   1      39.399  30.443  31.901  1.00  0.00    -0.354 N 
ATOM     39  C   UNL A   1      41.039  28.060  28.748  1.00  0.00     0.074 A 
ATOM     40  C   UNL A   1      40.377  28.358  27.497  1.00  0.00     0.031 C 
ATOM     41  C   UNL A   1      37.942  31.804  32.907  1.00  0.00     0.029 A 
ATOM     42  C   UNL A   1      39.207  31.102  33.091  1.00  0.00     0.049 A 
ATOM     43  H   UNL A   1      40.196  29.900  31.709  1.00  0.00     0.167 HD
ATOM     44  C   UNL A   1      42.108  27.235  28.871  1.00  0.00     0.037 A 
ATOM     45  C   UNL A   1      39.933  31.105  34.226  1.00  0.00     0.037 A 
ATOM     46  C   UNL A   1      42.846  27.034  30.091  1.00  0.00     0.049 A 
ATOM     47  C   UNL A   1      41.145  30.226  34.333  1.00  0.00     0.074 A 
ATOM     48  C   UNL A   1      43.937  26.213  30.319  1.00  0.00     0.029 A 
ATOM     49  N   UNL A   1      42.596  27.704  31.279  1.00  0.00    -0.354 N 
ATOM     50  N   UNL A   1      41.676  29.435  33.434  1.00  0.00    -0.248 NA
ATOM     51  C   UNL A   1      41.836  30.206  35.631  1.00  0.00     0.031 C 
ATOM     52  C   UNL A   1      44.343  26.379  31.648  1.00  0.00     0.029 A 
ATOM     53  C   UNL A   1      43.523  27.326  32.238  1.00  0.00     0.049 A 
ATOM     54  H   UNL A   1      41.870  28.352  31.421  1.00  0.00     0.167 HD
ATOM     55  C   UNL A   1      42.745  28.811  34.060  1.00  0.00     0.074 A 
ATOM     56  C   UNL A   1      42.819  29.348  35.403  1.00  0.00     0.031 C 
ATOM     57  C   UNL A   1      43.579  27.861  33.572  1.00  0.00     0.037 A 
BRANCH  44  58
ATOM     58  C   UNL A   1      42.522  26.444  27.666  1.00  0.00     0.064 A 
ATOM     59  C   UNL A   1      43.530  26.873  26.794  1.00  0.00     0.173 A 
ATOM     60  C   UNL A   1      41.922  25.199  27.415  1.00  0.00     0.173 A 
ATOM     61  F   UNL A   1      44.122  28.062  26.980  1.00  0.00    -0.203 F 
ATOM     62  C   UNL A   1      43.911  26.094  25.703  1.00  0.00     0.198 A 
ATOM     63  C   UNL A   1      42.324  24.410  26.340  1.00  0.00     0.198 A 
ATOM     64  F   UNL A   1      40.955  24.739  28.224  1.00  0.00    -0.203 F 
ATOM     65  F   UNL A   1      44.852  26.540  24.859  1.00  0.00    -0.200 F 
ATOM     66  C   UNL A   1      43.315  24.860  25.483  1.00  0.00     0.200 A 
ATOM     67  F   UNL A   1      41.755  23.213  26.139  1.00  0.00    -0.200 F 
ATOM     68  F   UNL A   1      43.693  24.106  24.441  1.00  0.00    -0.200 F 
ENDBRANCH  44  58
BRANCH  45  69
ATOM     69  C   UNL A   1      39.490  31.928  35.383  1.00  0.00     0.064 A 
ATOM     70  C   UNL A   1      39.943  33.245  35.543  1.00  0.00     0.173 A 
ATOM     71  C   UNL A   1      38.598  31.423  36.340  1.00  0.00     0.173 A 
ATOM     72  F   UNL A   1      40.824  33.761  34.674  1.00  0.00    -0.203 F 
ATOM     73  C   UNL A   1      39.518  34.025  36.617  1.00  0.00     0.198 A 
ATOM     74  C   UNL A   1      38.148  32.214  37.394  1.00  0.00     0.198 A 
ATOM     75  F   UNL A   1      38.142  30.166  36.235  1.00  0.00    -0.203 F 
ATOM     76  F   UNL A   1      39.993  35.268  36.768  1.00  0.00    -0.200 F 
ATOM     77  C   UNL A   1      38.613  33.513  37.534  1.00  0.00     0.200 A 
ATOM     78  F   UNL A   1      37.262  31.719  38.268  1.00  0.00    -0.200 F 
ATOM     79  F   UNL A   1      38.190  34.270  38.557  1.00  0.00    -0.200 F 
ENDBRANCH  45  69
BRANCH  57  80
ATOM     80  C   UNL A   1      44.641  27.348  34.497  1.00  0.00     0.064 A 
ATOM     81  C   UNL A   1      44.420  26.223  35.305  1.00  0.00     0.173 A 
ATOM     82  C   UNL A   1      45.890  27.980  34.571  1.00  0.00     0.173 A 
ATOM     83  F   UNL A   1      43.235  25.594  35.279  1.00  0.00    -0.203 F 
ATOM     84  C   UNL A   1      45.405  25.766  36.177  1.00  0.00     0.198 A 
ATOM     85  C   UNL A   1      46.879  27.507  35.429  1.00  0.00     0.198 A 
ATOM     86  F   UNL A   1      46.149  29.057  33.815  1.00  0.00    -0.203 F 
ATOM     87  F   UNL A   1      45.157  24.719  36.975  1.00  0.00    -0.200 F 
ATOM     88  C   UNL A   1      46.633  26.407  36.237  1.00  0.00     0.200 A 
ATOM     89  F   UNL A   1      48.068  28.125  35.483  1.00  0.00    -0.200 F 
ATOM     90  F   UNL A   1      47.577  25.970  37.082  1.00  0.00    -0.200 F 
ENDBRANCH  57  80
ENDBRANCH  31  32
ENDBRANCH  24  26
ENDBRANCH  23  24
ENDBRANCH  22  23
ENDBRANCH   1  22
TORSDOF 15
ENDMDL
MODEL 2
REMARK VINA RESULT:     -11.7      4.887     10.345
REMARK SMILES CC[C@@H]1CCC[C@@](CC[NH+]2CCOCC2)(C(=O)OCCOC(=O)c2ccc(-c3c4nc(c(-c5c(F)c(F)c(F)c(F)c5F)c5ccc([nH]5)c(-c5c(F)c(F)c(F)c(F)c5F)c5nc(c(-c6c(F)c(F)c(F)c(F)c6F)c6ccc3[nH]6)C=C5)C=C4)cc2)C1
REMARK SMILES IDX 19 1 18 2 16 3 17 4 7 5 3 6 4 7 87 8 5 9 6 10 2 11 1 12 8 13
REMARK SMILES IDX 9 14 10 15 11 16 15 17 12 19 14 20 13 21 20 22 21 23 22 24
REMARK SMILES IDX 23 25 24 26 25 27 86 28 26 29 85 30 27 31 28 32 29 33 79 34
REMARK SMILES IDX 30 35 84 36 78 37 80 38 31 39 83 40 77 41 76 42 32 44 64 45
REMARK SMILES IDX 44 46 63 47 45 48 48 49 62 50 81 51 46 52 47 53 61 55 82 56
REMARK SMILES IDX 49 57 33 58 34 59 42 60 35 61 36 62 40 63 43 64 37 65 38 66
REMARK SMILES IDX 41 67 39 68 65 69 66 70 74 71 67 72 68 73 72 74 75 75 69 76
REMARK SMILES IDX 70 77 73 78 71 79 50 80 51 81 59 82 52 83 53 84 57 85 60 86
REMARK SMILES IDX 54 87 55 88 58 89 56 90
REMARK H PARENT 10 18 80 43 48 54
REMARK Flexibility Score: inf
ROOT
ATOM      1  C   UNL A   1      35.888  21.577  25.839  1.00  0.00     0.274 C 
ENDROOT
BRANCH   1   2
ATOM      2  O   UNL A   1      34.918  22.173  24.953  1.00  0.00    -0.462 OA
BRANCH   2   3
ATOM      3  C   UNL A   1      33.726  22.515  25.512  1.00  0.00     0.312 C 
ATOM      4  O   UNL A   1      33.600  22.999  26.633  1.00  0.00    -0.252 OA
BRANCH   3   5
ATOM      5  C   UNL A   1      32.520  22.166  24.628  1.00  0.00     0.074 C 
ATOM      6  C   UNL A   1      31.498  24.554  24.518  1.00  0.00    -0.010 C 
ATOM      7  C   UNL A   1      31.745  24.597  23.011  1.00  0.00     0.003 C 
ATOM      8  C   UNL A   1      31.330  23.104  24.999  1.00  0.00     0.022 C 
ATOM      9  C   UNL A   1      32.951  23.741  22.633  1.00  0.00     0.001 C 
ATOM     10  C   UNL A   1      32.801  22.291  23.112  1.00  0.00     0.019 C 
BRANCH   6  11
ATOM     11  C   UNL A   1      30.324  25.447  24.969  1.00  0.00     0.000 C 
ATOM     12  C   UNL A   1      29.506  26.097  23.863  1.00  0.00     0.004 C 
ENDBRANCH   6  11
BRANCH   5  13
ATOM     13  C   UNL A   1      32.071  20.717  25.000  1.00  0.00     0.080 C 
BRANCH  13  14
ATOM     14  C   UNL A   1      32.734  19.526  24.279  1.00  0.00     0.263 C 
BRANCH  14  15
ATOM     15  N   UNL A   1      33.606  18.665  25.090  1.00  0.00    -0.331 N 
ATOM     16  C   UNL A   1      34.600  17.952  24.253  1.00  0.00     0.291 C 
ATOM     17  C   UNL A   1      32.901  17.656  25.916  1.00  0.00     0.291 C 
ATOM     18  H   UNL A   1      34.059  19.322  25.726  1.00  0.00     0.348 HD
ATOM     19  C   UNL A   1      34.030  16.734  23.501  1.00  0.00     0.221 C 
ATOM     20  C   UNL A   1      32.370  16.444  25.141  1.00  0.00     0.221 C 
ATOM     21  O   UNL A   1      33.413  15.805  24.398  1.00  0.00    -0.370 OA
ENDBRANCH  14  15
ENDBRANCH  13  14
ENDBRANCH   5  13
ENDBRANCH   3   5
ENDBRANCH   2   3
ENDBRANCH   1   2
BRANCH   1  22
ATOM     22  C   UNL A   1      36.926  20.770  25.064  1.00  0.00     0.275 C 
BRANCH  22  23
ATOM     23  O   UNL A   1      38.142  21.532  24.979  1.00  0.00    -0.458 OA
BRANCH  23  24
ATOM     24  C   UNL A   1      39.090  21.265  25.900  1.00  0.00     0.338 C 
ATOM     25  O   UNL A   1      39.598  20.170  26.123  1.00  0.00    -0.246 OA
BRANCH  24  26
ATOM     26  C   UNL A   1      39.518  22.510  26.583  1.00  0.00     0.060 A 
ATOM     27  C   UNL A   1      38.970  23.744  26.240  1.00  0.00     0.016 A 
ATOM     28  C   UNL A   1      40.586  22.477  27.482  1.00  0.00     0.016 A 
ATOM     29  C   UNL A   1      39.580  24.929  26.646  1.00  0.00     0.010 A 
ATOM     30  C   UNL A   1      41.126  23.673  27.980  1.00  0.00     0.010 A 
ATOM     31  C   UNL A   1      40.683  24.921  27.508  1.00  0.00    -0.014 A 
BRANCH  31  32
ATOM     32  C   UNL A   1      41.440  26.181  27.808  1.00  0.00     0.031 A 
ATOM     33  C   UNL A   1      40.826  27.235  28.702  1.00  0.00     0.074 A 
ATOM     34  C   UNL A   1      42.695  26.391  27.357  1.00  0.00     0.049 A 
ATOM     35  N   UNL A   1      41.174  28.488  28.873  1.00  0.00    -0.248 NA
ATOM     36  C   UNL A   1      39.653  26.835  29.497  1.00  0.00     0.031 C 
ATOM     37  C   UNL A   1      43.483  25.463  26.549  1.00  0.00     0.029 A 
ATOM     38  N   UNL A   1      43.544  27.460  27.544  1.00  0.00    -0.354 N 
ATOM     39  C   UNL A   1      40.199  29.046  29.692  1.00  0.00     0.074 A 
ATOM     40  C   UNL A   1      39.268  27.990  30.021  1.00  0.00     0.031 C 
ATOM     41  C   UNL A   1      44.719  25.956  26.385  1.00  0.00     0.029 A 
ATOM     42  C   UNL A   1      44.777  27.293  26.963  1.00  0.00     0.049 A 
ATOM     43  H   UNL A   1      43.290  28.266  28.047  1.00  0.00     0.167 HD
ATOM     44  C   UNL A   1      40.084  30.328  30.115  1.00  0.00     0.037 A 
ATOM     45  C   UNL A   1      45.824  28.135  26.855  1.00  0.00     0.037 A 
ATOM     46  C   UNL A   1      41.073  31.352  29.895  1.00  0.00     0.049 A 
ATOM     47  C   UNL A   1      45.703  29.539  27.375  1.00  0.00     0.074 A 
ATOM     48  C   UNL A   1      41.044  32.682  30.277  1.00  0.00     0.029 A 
ATOM     49  N   UNL A   1      42.296  31.141  29.277  1.00  0.00    -0.354 N 
ATOM     50  N   UNL A   1      44.699  30.109  27.993  1.00  0.00    -0.248 NA
ATOM     51  C   UNL A   1      46.847  30.432  27.140  1.00  0.00     0.031 C 
ATOM     52  C   UNL A   1      42.246  33.280  29.881  1.00  0.00     0.029 A 
ATOM     53  C   UNL A   1      43.035  32.314  29.280  1.00  0.00     0.049 A 
ATOM     54  H   UNL A   1      42.595  30.287  28.892  1.00  0.00     0.167 HD
ATOM     55  C   UNL A   1      45.080  31.426  28.203  1.00  0.00     0.074 A 
ATOM     56  C   UNL A   1      46.426  31.562  27.688  1.00  0.00     0.031 C 
ATOM     57  C   UNL A   1      44.369  32.439  28.756  1.00  0.00     0.037 A 
BRANCH  44  58
ATOM     58  C   UNL A   1      38.820  30.719  30.822  1.00  0.00     0.064 A 
ATOM     59  C   UNL A   1      38.711  30.731  32.218  1.00  0.00     0.173 A 
ATOM     60  C   UNL A   1      37.710  31.142  30.072  1.00  0.00     0.173 A 
ATOM     61  F   UNL A   1      39.737  30.320  32.978  1.00  0.00    -0.203 F 
ATOM     62  C   UNL A   1      37.530  31.133  32.839  1.00  0.00     0.198 A 
ATOM     63  C   UNL A   1      36.541  31.569  30.696  1.00  0.00     0.198 A 
ATOM     64  F   UNL A   1      37.764  31.156  28.732  1.00  0.00    -0.203 F 
ATOM     65  F   UNL A   1      37.434  31.101  34.176  1.00  0.00    -0.200 F 
ATOM     66  C   UNL A   1      36.451  31.560  32.079  1.00  0.00     0.200 A 
ATOM     67  F   UNL A   1      35.505  31.994  29.959  1.00  0.00    -0.200 F 
ATOM     68  F   UNL A   1      35.321  31.960  32.680  1.00  0.00    -0.200 F 
ENDBRANCH  44  58
BRANCH  45  69
ATOM     69  C   UNL A   1      47.063  27.687  26.167  1.00  0.00     0.064 A 
ATOM     70  C   UNL A   1      47.178  27.761  24.772  1.00  0.00     0.173 A 
ATOM     71  C   UNL A   1      48.159  27.189  26.887  1.00  0.00     0.173 A 
ATOM     72  F   UNL A   1      46.144  28.197  24.037  1.00  0.00    -0.203 F 
ATOM     73  C   UNL A   1      48.344  27.357  24.124  1.00  0.00     0.198 A 
ATOM     74  C   UNL A   1      49.336  26.817  26.241  1.00  0.00     0.198 A 
ATOM     75  F   UNL A   1      48.096  27.091  28.222  1.00  0.00    -0.203 F 
ATOM     76  F   UNL A   1      48.416  27.405  22.787  1.00  0.00    -0.200 F 
ATOM     77  C   UNL A   1      49.425  26.896  24.860  1.00  0.00     0.200 A 
ATOM     78  F   UNL A   1      50.382  26.387  26.958  1.00  0.00    -0.200 F 
ATOM     79  F   UNL A   1      50.553  26.524  24.238  1.00  0.00    -0.200 F 
ENDBRANCH  45  69
BRANCH  57  80
ATOM     80  C   UNL A   1      45.037  33.777  28.830  1.00  0.00     0.064 A 
ATOM     81  C   UNL A   1      45.837  34.131  29.927  1.00  0.00     0.173 A 
ATOM     82  C   UNL A   1      44.882  34.712  27.797  1.00  0.00     0.173 A 
ATOM     83  F   UNL A   1      46.002  33.275  30.947  1.00  0.00    -0.203 F 
ATOM     84  C   UNL A   1      46.436  35.385  29.998  1.00  0.00     0.198 A 
ATOM     85  C   UNL A   1      45.500  35.957  27.863  1.00  0.00     0.198 A 
ATOM     86  F   UNL A   1      44.129  34.418  26.727  1.00  0.00    -0.203 F 
ATOM     87  F   UNL A   1      47.158  35.721  31.076  1.00  0.00    -0.200 F 
ATOM     88  C   UNL A   1      46.269  36.296  28.966  1.00  0.00     0.200 A 
ATOM     89  F   UNL A   1      45.342  36.835  26.862  1.00  0.00    -0.200 F 
ATOM     90  F   UNL A   1      46.842  37.506  29.039  1.00  0.00    -0.200 F 
ENDBRANCH  57  80
ENDBRANCH  31  32
ENDBRANCH  24  26
ENDBRANCH  23  24
ENDBRANCH  22  23
ENDBRANCH   1  22
TORSDOF 15
ENDMDL
MODEL 3
REMARK VINA RESULT:     -11.6      1.845      4.126
REMARK SMILES CC[C@@H]1CCC[C@@](CC[NH+]2CCOCC2)(C(=O)OCCOC(=O)c2ccc(-c3c4nc(c(-c5c(F)c(F)c(F)c(F)c5F)c5ccc([nH]5)c(-c5c(F)c(F)c(F)c(F)c5F)c5nc(c(-c6c(F)c(F)c(F)c(F)c6F)c6ccc3[nH]6)C=C5)C=C4)cc2)C1
REMARK SMILES IDX 19 1 18 2 16 3 17 4 7 5 3 6 4 7 87 8 5 9 6 10 2 11 1 12 8 13
REMARK SMILES IDX 9 14 10 15 11 16 15 17 12 19 14 20 13 21 20 22 21 23 22 24
REMARK SMILES IDX 23 25 24 26 25 27 86 28 26 29 85 30 27 31 28 32 29 33 79 34
REMARK SMILES IDX 30 35 84 36 78 37 80 38 31 39 83 40 77 41 76 42 32 44 64 45
REMARK SMILES IDX 44 46 63 47 45 48 48 49 62 50 81 51 46 52 47 53 61 55 82 56
REMARK SMILES IDX 49 57 33 58 34 59 42 60 35 61 36 62 40 63 43 64 37 65 38 66
REMARK SMILES IDX 41 67 39 68 65 69 66 70 74 71 67 72 68 73 72 74 75 75 69 76
REMARK SMILES IDX 70 77 73 78 71 79 50 80 51 81 59 82 52 83 53 84 57 85 60 86
REMARK SMILES IDX 54 87 55 88 58 89 56 90
REMARK H PARENT 10 18 80 43 48 54
REMARK Flexibility Score: inf
ROOT
ATOM      1  C   UNL A   1      31.326  28.738  25.091  1.00  0.00     0.274 C 
ENDROOT
BRANCH   1   2
ATOM      2  O   UNL A   1      32.474  27.867  25.164  1.00  0.00    -0.462 OA
BRANCH   2   3
ATOM      3  C   UNL A   1      32.294  26.694  25.828  1.00  0.00     0.312 C 
ATOM      4  O   UNL A   1      31.768  26.596  26.932  1.00  0.00    -0.252 OA
BRANCH   3   5
ATOM      5  C   UNL A   1      32.887  25.484  25.090  1.00  0.00     0.074 C 
ATOM      6  C   UNL A   1      30.922  23.841  25.532  1.00  0.00    -0.010 C 
ATOM      7  C   UNL A   1      30.635  23.772  24.033  1.00  0.00     0.003 C 
ATOM      8  C   UNL A   1      32.400  24.176  25.787  1.00  0.00     0.022 C 
ATOM      9  C   UNL A   1      31.039  25.071  23.341  1.00  0.00     0.001 C 
ATOM     10  C   UNL A   1      32.512  25.422  23.591  1.00  0.00     0.019 C 
BRANCH   6  11
ATOM     11  C   UNL A   1      30.481  22.575  26.296  1.00  0.00     0.000 C 
ATOM     12  C   UNL A   1      29.322  22.741  27.268  1.00  0.00     0.004 C 
ENDBRANCH   6  11
BRANCH   5  13
ATOM     13  C   UNL A   1      34.437  25.534  25.281  1.00  0.00     0.080 C 
BRANCH  13  14
ATOM     14  C   UNL A   1      35.277  24.313  24.854  1.00  0.00     0.263 C 
BRANCH  14  15
ATOM     15  N   UNL A   1      35.956  23.572  25.926  1.00  0.00    -0.331 N 
ATOM     16  C   UNL A   1      37.346  23.221  25.551  1.00  0.00     0.291 C 
ATOM     17  C   UNL A   1      35.275  22.328  26.358  1.00  0.00     0.291 C 
ATOM     18  H   UNL A   1      35.936  24.222  26.712  1.00  0.00     0.348 HD
ATOM     19  C   UNL A   1      37.454  22.017  24.595  1.00  0.00     0.221 C 
ATOM     20  C   UNL A   1      35.425  21.142  25.397  1.00  0.00     0.221 C 
ATOM     21  O   UNL A   1      36.802  20.861  25.130  1.00  0.00    -0.370 OA
ENDBRANCH  14  15
ENDBRANCH  13  14
ENDBRANCH   5  13
ENDBRANCH   3   5
ENDBRANCH   2   3
ENDBRANCH   1   2
BRANCH   1  22
ATOM     22  C   UNL A   1      31.689  30.168  25.483  1.00  0.00     0.275 C 
BRANCH  22  23
ATOM     23  O   UNL A   1      32.352  30.150  26.757  1.00  0.00    -0.458 OA
BRANCH  23  24
ATOM     24  C   UNL A   1      33.005  31.274  27.117  1.00  0.00     0.338 C 
ATOM     25  O   UNL A   1      32.526  32.402  27.184  1.00  0.00    -0.246 OA
BRANCH  24  26
ATOM     26  C   UNL A   1      34.400  30.962  27.513  1.00  0.00     0.060 A 
ATOM     27  C   UNL A   1      34.805  29.650  27.751  1.00  0.00     0.016 A 
ATOM     28  C   UNL A   1      35.290  32.000  27.794  1.00  0.00     0.016 A 
ATOM     29  C   UNL A   1      36.001  29.386  28.414  1.00  0.00     0.010 A 
ATOM     30  C   UNL A   1      36.545  31.721  28.358  1.00  0.00     0.010 A 
ATOM     31  C   UNL A   1      36.889  30.416  28.751  1.00  0.00    -0.014 A 
BRANCH  31  32
ATOM     32  C   UNL A   1      38.089  30.151  29.611  1.00  0.00     0.031 A 
ATOM     33  C   UNL A   1      39.249  29.351  29.062  1.00  0.00     0.074 A 
ATOM     34  C   UNL A   1      38.209  30.660  30.856  1.00  0.00     0.049 A 
ATOM     35  N   UNL A   1      40.244  28.783  29.698  1.00  0.00    -0.248 NA
ATOM     36  C   UNL A   1      39.286  29.144  27.604  1.00  0.00     0.031 C 
ATOM     37  C   UNL A   1      37.236  31.517  31.529  1.00  0.00     0.029 A 
ATOM     38  N   UNL A   1      39.231  30.546  31.772  1.00  0.00    -0.354 N 
ATOM     39  C   UNL A   1      40.947  28.061  28.740  1.00  0.00     0.074 A 
ATOM     40  C   UNL A   1      40.294  28.294  27.472  1.00  0.00     0.031 C 
ATOM     41  C   UNL A   1      37.739  31.921  32.705  1.00  0.00     0.029 A 
ATOM     42  C   UNL A   1      39.014  31.251  32.931  1.00  0.00     0.049 A 
ATOM     43  H   UNL A   1      40.040  30.010  31.612  1.00  0.00     0.167 HD
ATOM     44  C   UNL A   1      42.029  27.263  28.910  1.00  0.00     0.037 A 
ATOM     45  C   UNL A   1      39.727  31.316  34.073  1.00  0.00     0.037 A 
ATOM     46  C   UNL A   1      42.758  27.128  30.145  1.00  0.00     0.049 A 
ATOM     47  C   UNL A   1      40.954  30.465  34.229  1.00  0.00     0.074 A 
ATOM     48  C   UNL A   1      43.861  26.337  30.418  1.00  0.00     0.029 A 
ATOM     49  N   UNL A   1      42.484  27.843  31.300  1.00  0.00    -0.354 N 
ATOM     50  N   UNL A   1      41.509  29.646  33.370  1.00  0.00    -0.248 NA
ATOM     51  C   UNL A   1      41.631  30.513  35.534  1.00  0.00     0.031 C 
ATOM     52  C   UNL A   1      44.249  26.567  31.743  1.00  0.00     0.029 A 
ATOM     53  C   UNL A   1      43.406  27.523  32.284  1.00  0.00     0.049 A 
ATOM     54  H   UNL A   1      41.744  28.482  31.407  1.00  0.00     0.167 HD
ATOM     55  C   UNL A   1      42.582  29.069  34.033  1.00  0.00     0.074 A 
ATOM     56  C   UNL A   1      42.632  29.664  35.352  1.00  0.00     0.031 C 
ATOM     57  C   UNL A   1      43.439  28.115  33.594  1.00  0.00     0.037 A 
BRANCH  44  58
ATOM     58  C   UNL A   1      42.471  26.429  27.743  1.00  0.00     0.064 A 
ATOM     59  C   UNL A   1      41.902  25.184  27.450  1.00  0.00     0.173 A 
ATOM     60  C   UNL A   1      43.456  26.923  26.872  1.00  0.00     0.173 A 
ATOM     61  F   UNL A   1      40.969  24.661  28.260  1.00  0.00    -0.203 F 
ATOM     62  C   UNL A   1      42.315  24.453  26.338  1.00  0.00     0.198 A 
ATOM     63  C   UNL A   1      43.848  26.203  25.747  1.00  0.00     0.198 A 
ATOM     64  F   UNL A   1      44.029  28.113  27.105  1.00  0.00    -0.203 F 
ATOM     65  F   UNL A   1      41.784  23.246  26.095  1.00  0.00    -0.200 F 
ATOM     66  C   UNL A   1      43.280  24.967  25.483  1.00  0.00     0.200 A 
ATOM     67  F   UNL A   1      44.770  26.709  24.916  1.00  0.00    -0.200 F 
ATOM     68  F   UNL A   1      43.665  24.268  24.405  1.00  0.00    -0.200 F 
ENDBRANCH  44  58
BRANCH  45  69
ATOM     69  C   UNL A   1      39.257  32.179  35.188  1.00  0.00     0.064 A 
ATOM     70  C   UNL A   1      38.473  31.652  36.224  1.00  0.00     0.173 A 
ATOM     71  C   UNL A   1      39.592  33.540  35.249  1.00  0.00     0.173 A 
ATOM     72  F   UNL A   1      38.098  30.365  36.192  1.00  0.00    -0.203 F 
ATOM     73  C   UNL A   1      38.044  32.455  37.280  1.00  0.00     0.198 A 
ATOM     74  C   UNL A   1      39.190  34.333  36.322  1.00  0.00     0.198 A 
ATOM     75  F   UNL A   1      40.333  34.093  34.279  1.00  0.00    -0.203 F 
ATOM     76  F   UNL A   1      37.267  31.936  38.239  1.00  0.00    -0.200 F 
ATOM     77  C   UNL A   1      38.413  33.791  37.333  1.00  0.00     0.200 A 
ATOM     78  F   UNL A   1      39.562  35.619  36.376  1.00  0.00    -0.200 F 
ATOM     79  F   UNL A   1      38.015  34.558  38.358  1.00  0.00    -0.200 F 
ENDBRANCH  45  69
BRANCH  57  80
ATOM     80  C   UNL A   1      44.499  27.661  34.550  1.00  0.00     0.064 A 
ATOM     81  C   UNL A   1      45.739  28.314  34.625  1.00  0.00     0.173 A 
ATOM     82  C   UNL A   1      44.274  26.571  35.403  1.00  0.00     0.173 A 
ATOM     83  F   UNL A   1      46.005  29.351  33.818  1.00  0.00    -0.203 F 
ATOM     84  C   UNL A   1      46.727  27.871  35.501  1.00  0.00     0.198 A 
ATOM     85  C   UNL A   1      45.257  26.146  36.292  1.00  0.00     0.198 A 
ATOM     86  F   UNL A   1      43.103  25.918  35.370  1.00  0.00    -0.203 F 
ATOM     87  F   UNL A   1      47.921  28.479  35.522  1.00  0.00    -0.200 F 
ATOM     88  C   UNL A   1      46.484  26.790  36.334  1.00  0.00     0.200 A 
ATOM     89  F   UNL A   1      45.020  25.103  37.101  1.00  0.00    -0.200 F 
ATOM     90  F   UNL A   1      47.439  26.362  37.172  1.00  0.00    -0.200 F 
ENDBRANCH  57  80
ENDBRANCH  31  32
ENDBRANCH  24  26
ENDBRANCH  23  24
ENDBRANCH  22  23
ENDBRANCH   1  22
TORSDOF 15
ENDMDL
