MODEL 1
REMARK VINA RESULT:     -13.6      0.000      0.000
REMARK SMILES COc1cccc([C@@H]2[NH2+][C@@](C)(C(=O)OCCOC(=O)c3ccc(-c4c5nc(c(-c6c(F)c(F)c(F)c(F)c6F)c6ccc([nH]6)c(-c6c(F)c(F)c(F)c(F)c6F)c6nc(c(-c7c(F)c(F)c(F)c(F)c7F)c7ccc4[nH]7)C=C6)C=C5)cc3)[C@@H]3C(=O)N(C)C(=O)[C@@H]32)c1O
REMARK SMILES IDX 15 1 14 2 12 3 13 4 10 5 8 6 9 7 90 8 83 11 88 12 11 13
REMARK SMILES IDX 84 14 86 15 89 16 85 17 87 18 7 19 3 20 4 21 91 22 5 23 6 24
REMARK SMILES IDX 2 25 1 26 92 27 16 29 17 30 18 31 19 32 20 33 21 34 82 35
REMARK SMILES IDX 22 36 81 37 23 38 24 39 25 40 75 41 26 42 80 43 74 44 76 45
REMARK SMILES IDX 27 46 79 47 73 48 72 49 28 51 60 52 40 53 59 54 41 55 44 56
REMARK SMILES IDX 58 57 77 58 42 59 43 60 57 62 78 63 45 64 29 65 30 66 38 67
REMARK SMILES IDX 31 68 32 69 36 70 39 71 33 72 34 73 37 74 35 75 61 76 62 77
REMARK SMILES IDX 70 78 63 79 64 80 68 81 71 82 65 83 66 84 69 85 67 86 46 87
REMARK SMILES IDX 47 88 55 89 48 90 49 91 53 92 56 93 50 94 51 95 54 96 52 97
REMARK H PARENT 9 9 9 10 92 28 76 50 44 61
REMARK Flexibility Score: inf
ROOT
ATOM      1  C   UNL A   1      31.393  28.057  25.598  1.00  0.00     0.274 C 
ENDROOT
BRANCH   1   2
ATOM      2  O   UNL A   1      32.171  26.849  25.729  1.00  0.00    -0.457 OA
BRANCH   2   3
ATOM      3  C   UNL A   1      31.464  25.688  25.768  1.00  0.00     0.368 C 
ATOM      4  O   UNL A   1      30.567  25.460  26.577  1.00  0.00    -0.245 OA
BRANCH   3   5
ATOM      5  C   UNL A   1      31.900  24.639  24.706  1.00  0.00     0.204 C 
ATOM      6  C   UNL A   1      32.287  22.405  25.552  1.00  0.00     0.232 C 
ATOM      7  N   UNL A   1      31.282  23.301  24.936  1.00  0.00    -0.325 N 
ATOM      8  C   UNL A   1      33.560  23.218  25.746  1.00  0.00     0.161 C 
ATOM      9  H   UNL A   1      30.481  23.398  25.560  1.00  0.00     0.347 HD
ATOM     10  H   UNL A   1      30.968  22.910  24.049  1.00  0.00     0.347 HD
ATOM     11  C   UNL A   1      33.402  24.449  24.873  1.00  0.00     0.170 C 
ATOM     12  C   UNL A   1      34.864  22.638  25.278  1.00  0.00     0.239 C 
ATOM     13  C   UNL A   1      31.441  25.219  23.367  1.00  0.00     0.093 C 
ATOM     14  C   UNL A   1      34.281  24.162  23.684  1.00  0.00     0.240 C 
ATOM     15  N   UNL A   1      35.169  23.188  24.064  1.00  0.00    -0.285 N 
ATOM     16  O   UNL A   1      35.534  21.837  25.910  1.00  0.00    -0.274 OA
ATOM     17  O   UNL A   1      34.296  24.793  22.641  1.00  0.00    -0.274 OA
ATOM     18  C   UNL A   1      36.343  22.828  23.307  1.00  0.00     0.156 C 
BRANCH   6  19
ATOM     19  C   UNL A   1      32.475  21.077  24.844  1.00  0.00     0.056 A 
ATOM     20  C   UNL A   1      32.803  18.658  24.829  1.00  0.00     0.161 A 
ATOM     21  C   UNL A   1      32.559  18.612  23.460  1.00  0.00     0.050 A 
ATOM     22  C   UNL A   1      32.807  19.886  25.500  1.00  0.00     0.166 A 
ATOM     23  C   UNL A   1      32.272  19.791  22.774  1.00  0.00     0.005 A 
ATOM     24  C   UNL A   1      32.215  21.008  23.462  1.00  0.00     0.014 A 
BRANCH  20  25
ATOM     25  O   UNL A   1      33.093  17.485  25.475  1.00  0.00    -0.493 OA
ATOM     26  C   UNL A   1      33.189  16.377  24.572  1.00  0.00     0.278 C 
ENDBRANCH  20  25
BRANCH  22  27
ATOM     27  O   UNL A   1      33.160  19.927  26.820  1.00  0.00    -0.504 OA
ATOM     28  H   UNL A   1      32.511  19.795  27.484  1.00  0.00     0.293 HD
ENDBRANCH  22  27
ENDBRANCH   6  19
ENDBRANCH   3   5
ENDBRANCH   2   3
ENDBRANCH   1   2
BRANCH   1  29
ATOM     29  C   UNL A   1      31.788  29.077  26.663  1.00  0.00     0.275 C 
BRANCH  29  30
ATOM     30  O   UNL A   1      32.643  30.076  26.082  1.00  0.00    -0.458 OA
BRANCH  30  31
ATOM     31  C   UNL A   1      33.048  31.062  26.913  1.00  0.00     0.338 C 
ATOM     32  O   UNL A   1      32.387  32.011  27.309  1.00  0.00    -0.246 OA
BRANCH  31  33
ATOM     33  C   UNL A   1      34.435  30.826  27.367  1.00  0.00     0.060 A 
ATOM     34  C   UNL A   1      34.897  29.531  27.597  1.00  0.00     0.016 A 
ATOM     35  C   UNL A   1      35.224  31.914  27.741  1.00  0.00     0.016 A 
ATOM     36  C   UNL A   1      36.056  29.331  28.351  1.00  0.00     0.010 A 
ATOM     37  C   UNL A   1      36.459  31.701  28.364  1.00  0.00     0.010 A 
ATOM     38  C   UNL A   1      36.871  30.409  28.731  1.00  0.00    -0.014 A 
BRANCH  38  39
ATOM     39  C   UNL A   1      38.129  30.205  29.520  1.00  0.00     0.031 A 
ATOM     40  C   UNL A   1      39.266  29.383  28.954  1.00  0.00     0.074 A 
ATOM     41  C   UNL A   1      38.270  30.728  30.756  1.00  0.00     0.049 A 
ATOM     42  N   UNL A   1      40.278  28.828  29.575  1.00  0.00    -0.248 NA
ATOM     43  C   UNL A   1      39.244  29.129  27.506  1.00  0.00     0.031 C 
ATOM     44  C   UNL A   1      37.298  31.582  31.438  1.00  0.00     0.029 A 
ATOM     45  N   UNL A   1      39.296  30.612  31.666  1.00  0.00    -0.354 N 
ATOM     46  C   UNL A   1      40.957  28.086  28.612  1.00  0.00     0.074 A 
ATOM     47  C   UNL A   1      40.248  28.274  27.363  1.00  0.00     0.031 C 
ATOM     48  C   UNL A   1      37.792  31.957  32.626  1.00  0.00     0.029 A 
ATOM     49  C   UNL A   1      39.055  31.267  32.849  1.00  0.00     0.049 A 
ATOM     50  H   UNL A   1      40.123  30.108  31.486  1.00  0.00     0.167 HD
ATOM     51  C   UNL A   1      42.063  27.317  28.762  1.00  0.00     0.037 A 
ATOM     52  C   UNL A   1      39.730  31.268  34.015  1.00  0.00     0.037 A 
ATOM     53  C   UNL A   1      42.827  27.218  29.981  1.00  0.00     0.049 A 
ATOM     54  C   UNL A   1      40.955  30.414  34.159  1.00  0.00     0.074 A 
ATOM     55  C   UNL A   1      43.981  26.489  30.221  1.00  0.00     0.029 A 
ATOM     56  N   UNL A   1      42.534  27.896  31.154  1.00  0.00    -0.354 N 
ATOM     57  N   UNL A   1      41.527  29.632  33.277  1.00  0.00    -0.248 NA
ATOM     58  C   UNL A   1      41.611  30.418  35.474  1.00  0.00     0.031 C 
ATOM     59  C   UNL A   1      44.372  26.707  31.547  1.00  0.00     0.029 A 
ATOM     60  C   UNL A   1      43.484  27.601  32.121  1.00  0.00     0.049 A 
ATOM     61  H   UNL A   1      41.766  28.497  31.282  1.00  0.00     0.167 HD
ATOM     62  C   UNL A   1      42.608  29.055  33.926  1.00  0.00     0.074 A 
ATOM     63  C   UNL A   1      42.630  29.595  35.269  1.00  0.00     0.031 C 
ATOM     64  C   UNL A   1      43.497  28.148  33.452  1.00  0.00     0.037 A 
BRANCH  51  65
ATOM     65  C   UNL A   1      42.510  26.488  27.591  1.00  0.00     0.064 A 
ATOM     66  C   UNL A   1      43.510  26.915  26.707  1.00  0.00     0.173 A 
ATOM     67  C   UNL A   1      41.966  25.207  27.393  1.00  0.00     0.173 A 
ATOM     68  F   UNL A   1      44.062  28.129  26.849  1.00  0.00    -0.203 F 
ATOM     69  C   UNL A   1      43.932  26.103  25.656  1.00  0.00     0.198 A 
ATOM     70  C   UNL A   1      42.410  24.387  26.360  1.00  0.00     0.198 A 
ATOM     71  F   UNL A   1      41.014  24.741  28.218  1.00  0.00    -0.203 F 
ATOM     72  F   UNL A   1      44.864  26.547  24.801  1.00  0.00    -0.200 F 
ATOM     73  C   UNL A   1      43.389  24.838  25.487  1.00  0.00     0.200 A 
ATOM     74  F   UNL A   1      41.896  23.158  26.211  1.00  0.00    -0.200 F 
ATOM     75  F   UNL A   1      43.806  24.054  24.484  1.00  0.00    -0.200 F 
ENDBRANCH  51  65
BRANCH  52  76
ATOM     76  C   UNL A   1      39.215  32.064  35.159  1.00  0.00     0.064 A 
ATOM     77  C   UNL A   1      38.488  31.455  36.190  1.00  0.00     0.173 A 
ATOM     78  C   UNL A   1      39.461  33.442  35.258  1.00  0.00     0.173 A 
ATOM     79  F   UNL A   1      38.206  30.145  36.126  1.00  0.00    -0.203 F 
ATOM     80  C   UNL A   1      38.026  32.194  37.276  1.00  0.00     0.198 A 
ATOM     81  C   UNL A   1      39.026  34.174  36.360  1.00  0.00     0.198 A 
ATOM     82  F   UNL A   1      40.151  34.073  34.296  1.00  0.00    -0.203 F 
ATOM     83  F   UNL A   1      37.303  31.595  38.232  1.00  0.00    -0.200 F 
ATOM     84  C   UNL A   1      38.305  33.550  37.367  1.00  0.00     0.200 A 
ATOM     85  F   UNL A   1      39.316  35.479  36.451  1.00  0.00    -0.200 F 
ATOM     86  F   UNL A   1      37.875  34.256  38.420  1.00  0.00    -0.200 F 
ENDBRANCH  52  76
BRANCH  64  87
ATOM     87  C   UNL A   1      44.585  27.711  34.385  1.00  0.00     0.064 A 
ATOM     88  C   UNL A   1      45.793  28.415  34.485  1.00  0.00     0.173 A 
ATOM     89  C   UNL A   1      44.412  26.580  35.198  1.00  0.00     0.173 A 
ATOM     90  F   UNL A   1      46.012  29.491  33.712  1.00  0.00    -0.203 F 
ATOM     91  C   UNL A   1      46.799  27.991  35.349  1.00  0.00     0.198 A 
ATOM     92  C   UNL A   1      45.410  26.173  36.078  1.00  0.00     0.198 A 
ATOM     93  F   UNL A   1      43.273  25.874  35.140  1.00  0.00    -0.203 F 
ATOM     94  F   UNL A   1      47.964  28.651  35.393  1.00  0.00    -0.200 F 
ATOM     95  C   UNL A   1      46.605  26.873  36.147  1.00  0.00     0.200 A 
ATOM     96  F   UNL A   1      45.219  25.097  36.854  1.00  0.00    -0.200 F 
ATOM     97  F   UNL A   1      47.576  26.464  36.976  1.00  0.00    -0.200 F 
ENDBRANCH  64  87
ENDBRANCH  38  39
ENDBRANCH  31  33
ENDBRANCH  30  31
ENDBRANCH  29  30
ENDBRANCH   1  29
TORSDOF 14
ENDMDL
MODEL 2
REMARK VINA RESULT:     -13.6      0.289      1.593
REMARK SMILES COc1cccc([C@@H]2[NH2+][C@@](C)(C(=O)OCCOC(=O)c3ccc(-c4c5nc(c(-c6c(F)c(F)c(F)c(F)c6F)c6ccc([nH]6)c(-c6c(F)c(F)c(F)c(F)c6F)c6nc(c(-c7c(F)c(F)c(F)c(F)c7F)c7ccc4[nH]7)C=C6)C=C5)cc3)[C@@H]3C(=O)N(C)C(=O)[C@@H]32)c1O
REMARK SMILES IDX 15 1 14 2 12 3 13 4 10 5 8 6 9 7 90 8 83 11 88 12 11 13
REMARK SMILES IDX 84 14 86 15 89 16 85 17 87 18 7 19 3 20 4 21 91 22 5 23 6 24
REMARK SMILES IDX 2 25 1 26 92 27 16 29 17 30 18 31 19 32 20 33 21 34 82 35
REMARK SMILES IDX 22 36 81 37 23 38 24 39 25 40 75 41 26 42 80 43 74 44 76 45
REMARK SMILES IDX 27 46 79 47 73 48 72 49 28 51 60 52 40 53 59 54 41 55 44 56
REMARK SMILES IDX 58 57 77 58 42 59 43 60 57 62 78 63 45 64 29 65 30 66 38 67
REMARK SMILES IDX 31 68 32 69 36 70 39 71 33 72 34 73 37 74 35 75 61 76 62 77
REMARK SMILES IDX 70 78 63 79 64 80 68 81 71 82 65 83 66 84 69 85 67 86 46 87
REMARK SMILES IDX 47 88 55 89 48 90 49 91 53 92 56 93 50 94 51 95 54 96 52 97
REMARK H PARENT 9 9 9 10 92 28 76 50 44 61
REMARK Flexibility Score: inf
ROOT
ATOM      1  C   UNL A   1      31.785  28.097  26.607  1.00  0.00     0.274 C 
ENDROOT
BRANCH   1   2
ATOM      2  O   UNL A   1      32.312  27.019  25.807  1.00  0.00    -0.457 OA
BRANCH   2   3
ATOM      3  C   UNL A   1      31.702  25.813  25.955  1.00  0.00     0.368 C 
ATOM      4  O   UNL A   1      30.934  25.544  26.876  1.00  0.00    -0.245 OA
BRANCH   3   5
ATOM      5  C   UNL A   1      32.074  24.771  24.863  1.00  0.00     0.204 C 
ATOM      6  C   UNL A   1      32.428  22.514  25.661  1.00  0.00     0.232 C 
ATOM      7  N   UNL A   1      31.428  23.447  25.093  1.00  0.00    -0.325 N 
ATOM      8  C   UNL A   1      33.728  23.290  25.824  1.00  0.00     0.161 C 
ATOM      9  H   UNL A   1      30.651  23.554  25.745  1.00  0.00     0.347 HD
ATOM     10  H   UNL A   1      31.074  23.078  24.210  1.00  0.00     0.347 HD
ATOM     11  C   UNL A   1      33.575  24.538  24.976  1.00  0.00     0.170 C 
ATOM     12  C   UNL A   1      35.000  22.683  25.303  1.00  0.00     0.239 C 
ATOM     13  C   UNL A   1      31.586  25.385  23.549  1.00  0.00     0.093 C 
ATOM     14  C   UNL A   1      34.405  24.248  23.754  1.00  0.00     0.240 C 
ATOM     15  N   UNL A   1      35.279  23.244  24.088  1.00  0.00    -0.285 N 
ATOM     16  O   UNL A   1      35.669  21.854  25.900  1.00  0.00    -0.274 OA
ATOM     17  O   UNL A   1      34.403  24.896  22.721  1.00  0.00    -0.274 OA
ATOM     18  C   UNL A   1      36.417  22.866  23.287  1.00  0.00     0.156 C 
BRANCH   6  19
ATOM     19  C   UNL A   1      32.557  21.193  24.926  1.00  0.00     0.056 A 
ATOM     20  C   UNL A   1      32.819  18.767  24.862  1.00  0.00     0.161 A 
ATOM     21  C   UNL A   1      32.528  18.750  23.502  1.00  0.00     0.050 A 
ATOM     22  C   UNL A   1      32.879  19.984  25.551  1.00  0.00     0.166 A 
ATOM     23  C   UNL A   1      32.249  19.947  22.845  1.00  0.00     0.005 A 
ATOM     24  C   UNL A   1      32.248  21.153  23.553  1.00  0.00     0.014 A 
BRANCH  20  25
ATOM     25  O   UNL A   1      33.100  17.577  25.479  1.00  0.00    -0.493 OA
ATOM     26  C   UNL A   1      33.692  16.627  24.585  1.00  0.00     0.278 C 
ENDBRANCH  20  25
BRANCH  22  27
ATOM     27  O   UNL A   1      33.278  19.993  26.859  1.00  0.00    -0.504 OA
ATOM     28  H   UNL A   1      33.841  19.317  27.183  1.00  0.00     0.293 HD
ENDBRANCH  22  27
ENDBRANCH   6  19
ENDBRANCH   3   5
ENDBRANCH   2   3
ENDBRANCH   1   2
BRANCH   1  29
ATOM     29  C   UNL A   1      31.697  29.386  25.795  1.00  0.00     0.275 C 
BRANCH  29  30
ATOM     30  O   UNL A   1      32.986  30.026  25.763  1.00  0.00    -0.458 OA
BRANCH  30  31
ATOM     31  C   UNL A   1      33.262  30.850  26.797  1.00  0.00     0.338 C 
ATOM     32  O   UNL A   1      32.504  31.653  27.323  1.00  0.00    -0.246 OA
BRANCH  31  33
ATOM     33  C   UNL A   1      34.636  30.624  27.293  1.00  0.00     0.060 A 
ATOM     34  C   UNL A   1      35.101  29.333  27.537  1.00  0.00     0.016 A 
ATOM     35  C   UNL A   1      35.404  31.717  27.693  1.00  0.00     0.016 A 
ATOM     36  C   UNL A   1      36.237  29.141  28.326  1.00  0.00     0.010 A 
ATOM     37  C   UNL A   1      36.621  31.514  28.354  1.00  0.00     0.010 A 
ATOM     38  C   UNL A   1      37.032  30.224  28.732  1.00  0.00    -0.014 A 
BRANCH  38  39
ATOM     39  C   UNL A   1      38.266  30.029  29.559  1.00  0.00     0.031 A 
ATOM     40  C   UNL A   1      39.415  29.194  29.040  1.00  0.00     0.074 A 
ATOM     41  C   UNL A   1      38.374  30.571  30.790  1.00  0.00     0.049 A 
ATOM     42  N   UNL A   1      40.407  28.646  29.697  1.00  0.00    -0.248 NA
ATOM     43  C   UNL A   1      39.432  28.916  27.596  1.00  0.00     0.031 C 
ATOM     44  C   UNL A   1      37.386  31.440  31.431  1.00  0.00     0.029 A 
ATOM     45  N   UNL A   1      39.373  30.467  31.731  1.00  0.00    -0.354 N 
ATOM     46  C   UNL A   1      41.110  27.886  28.766  1.00  0.00     0.074 A 
ATOM     47  C   UNL A   1      40.438  28.056  27.495  1.00  0.00     0.031 C 
ATOM     48  C   UNL A   1      37.848  31.832  32.626  1.00  0.00     0.029 A 
ATOM     49  C   UNL A   1      39.102  31.142  32.896  1.00  0.00     0.049 A 
ATOM     50  H   UNL A   1      40.203  29.957  31.582  1.00  0.00     0.167 HD
ATOM     51  C   UNL A   1      42.208  27.115  28.960  1.00  0.00     0.037 A 
ATOM     52  C   UNL A   1      39.744  31.160  34.080  1.00  0.00     0.037 A 
ATOM     53  C   UNL A   1      42.938  27.034  30.201  1.00  0.00     0.049 A 
ATOM     54  C   UNL A   1      40.961  30.304  34.273  1.00  0.00     0.074 A 
ATOM     55  C   UNL A   1      44.082  26.305  30.486  1.00  0.00     0.029 A 
ATOM     56  N   UNL A   1      42.614  27.732  31.354  1.00  0.00    -0.354 N 
ATOM     57  N   UNL A   1      41.554  29.506  33.420  1.00  0.00    -0.248 NA
ATOM     58  C   UNL A   1      41.580  30.328  35.606  1.00  0.00     0.031 C 
ATOM     59  C   UNL A   1      44.436  26.544  31.818  1.00  0.00     0.029 A 
ATOM     60  C   UNL A   1      43.535  27.450  32.352  1.00  0.00     0.049 A 
ATOM     61  H   UNL A   1      41.845  28.338  31.451  1.00  0.00     0.167 HD
ATOM     62  C   UNL A   1      42.614  28.935  34.108  1.00  0.00     0.074 A 
ATOM     63  C   UNL A   1      42.601  29.498  35.443  1.00  0.00     0.031 C 
ATOM     64  C   UNL A   1      43.513  28.019  33.675  1.00  0.00     0.037 A 
BRANCH  51  65
ATOM     65  C   UNL A   1      42.685  26.266  27.816  1.00  0.00     0.064 A 
ATOM     66  C   UNL A   1      42.135  25.007  27.536  1.00  0.00     0.173 A 
ATOM     67  C   UNL A   1      43.671  26.757  26.944  1.00  0.00     0.173 A 
ATOM     68  F   UNL A   1      41.192  24.489  28.337  1.00  0.00    -0.203 F 
ATOM     69  C   UNL A   1      42.570  24.262  26.440  1.00  0.00     0.198 A 
ATOM     70  C   UNL A   1      44.083  26.024  25.834  1.00  0.00     0.198 A 
ATOM     71  F   UNL A   1      44.222  27.963  27.156  1.00  0.00    -0.203 F 
ATOM     72  F   UNL A   1      42.057  23.046  26.213  1.00  0.00    -0.200 F 
ATOM     73  C   UNL A   1      43.537  24.774  25.587  1.00  0.00     0.200 A 
ATOM     74  F   UNL A   1      45.003  26.529  25.001  1.00  0.00    -0.200 F 
ATOM     75  F   UNL A   1      43.943  24.062  24.527  1.00  0.00    -0.200 F 
ENDBRANCH  51  65
BRANCH  52  76
ATOM     76  C   UNL A   1      39.200  31.976  35.196  1.00  0.00     0.064 A 
ATOM     77  C   UNL A   1      38.440  31.387  36.214  1.00  0.00     0.173 A 
ATOM     78  C   UNL A   1      39.450  33.355  35.281  1.00  0.00     0.173 A 
ATOM     79  F   UNL A   1      38.152  30.078  36.162  1.00  0.00    -0.203 F 
ATOM     80  C   UNL A   1      37.950  32.145  37.275  1.00  0.00     0.198 A 
ATOM     81  C   UNL A   1      38.987  34.105  36.358  1.00  0.00     0.198 A 
ATOM     82  F   UNL A   1      40.172  33.967  34.331  1.00  0.00    -0.203 F 
ATOM     83  F   UNL A   1      37.196  31.564  38.219  1.00  0.00    -0.200 F 
ATOM     84  C   UNL A   1      38.234  33.501  37.353  1.00  0.00     0.200 A 
ATOM     85  F   UNL A   1      39.281  35.410  36.438  1.00  0.00    -0.200 F 
ATOM     86  F   UNL A   1      37.777  34.226  38.382  1.00  0.00    -0.200 F 
ENDBRANCH  52  76
BRANCH  64  87
ATOM     87  C   UNL A   1      44.572  27.592  34.645  1.00  0.00     0.064 A 
ATOM     88  C   UNL A   1      44.398  26.478  35.479  1.00  0.00     0.173 A 
ATOM     89  C   UNL A   1      45.781  28.299  34.733  1.00  0.00     0.173 A 
ATOM     90  F   UNL A   1      43.250  25.784  35.444  1.00  0.00    -0.203 F 
ATOM     91  C   UNL A   1      45.387  26.101  36.383  1.00  0.00     0.198 A 
ATOM     92  C   UNL A   1      46.777  27.904  35.621  1.00  0.00     0.198 A 
ATOM     93  F   UNL A   1      45.995  29.370  33.955  1.00  0.00    -0.203 F 
ATOM     94  F   UNL A   1      45.181  25.061  37.203  1.00  0.00    -0.200 F 
ATOM     95  C   UNL A   1      46.577  26.811  36.449  1.00  0.00     0.200 A 
ATOM     96  F   UNL A   1      47.930  28.587  35.680  1.00  0.00    -0.200 F 
ATOM     97  F   UNL A   1      47.527  26.447  37.322  1.00  0.00    -0.200 F 
ENDBRANCH  64  87
ENDBRANCH  38  39
ENDBRANCH  31  33
ENDBRANCH  30  31
ENDBRANCH  29  30
ENDBRANCH   1  29
TORSDOF 14
ENDMDL
MODEL 3
REMARK VINA RESULT:     -13.5      3.979      9.675
REMARK SMILES COc1cccc([C@@H]2[NH2+][C@@](C)(C(=O)OCCOC(=O)c3ccc(-c4c5nc(c(-c6c(F)c(F)c(F)c(F)c6F)c6ccc([nH]6)c(-c6c(F)c(F)c(F)c(F)c6F)c6nc(c(-c7c(F)c(F)c(F)c(F)c7F)c7ccc4[nH]7)C=C6)C=C5)cc3)[C@@H]3C(=O)N(C)C(=O)[C@@H]32)c1O
REMARK SMILES IDX 15 1 14 2 12 3 13 4 10 5 8 6 9 7 90 8 83 11 88 12 11 13
REMARK SMILES IDX 84 14 86 15 89 16 85 17 87 18 7 19 3 20 4 21 91 22 5 23 6 24
REMARK SMILES IDX 2 25 1 26 92 27 16 29 17 30 18 31 19 32 20 33 21 34 82 35
REMARK SMILES IDX 22 36 81 37 23 38 24 39 25 40 75 41 26 42 80 43 74 44 76 45
REMARK SMILES IDX 27 46 79 47 73 48 72 49 28 51 60 52 40 53 59 54 41 55 44 56
REMARK SMILES IDX 58 57 77 58 42 59 43 60 57 62 78 63 45 64 29 65 30 66 38 67
REMARK SMILES IDX 31 68 32 69 36 70 39 71 33 72 34 73 37 74 35 75 61 76 62 77
REMARK SMILES IDX 70 78 63 79 64 80 68 81 71 82 65 83 66 84 69 85 67 86 46 87
REMARK SMILES IDX 47 88 55 89 48 90 49 91 53 92 56 93 50 94 51 95 54 96 52 97
REMARK H PARENT 9 9 9 10 92 28 76 50 44 61
REMARK Flexibility Score: inf
ROOT
ATOM      1  C   UNL A   1      34.737  21.780  24.326  1.00  0.00     0.274 C 
ENDROOT
BRANCH   1   2
ATOM      2  O   UNL A   1      34.399  23.167  24.529  1.00  0.00    -0.457 OA
BRANCH   2   3
ATOM      3  C   UNL A   1      33.680  23.757  23.536  1.00  0.00     0.368 C 
ATOM      4  O   UNL A   1      34.016  23.752  22.354  1.00  0.00    -0.245 OA
BRANCH   3   5
ATOM      5  C   UNL A   1      32.387  24.470  24.022  1.00  0.00     0.204 C 
ATOM      6  C   UNL A   1      31.946  26.622  23.007  1.00  0.00     0.232 C 
ATOM      7  N   UNL A   1      31.671  25.170  22.917  1.00  0.00    -0.325 N 
ATOM      8  C   UNL A   1      32.892  26.831  24.181  1.00  0.00     0.161 C 
ATOM      9  H   UNL A   1      31.998  24.814  22.018  1.00  0.00     0.347 HD
ATOM     10  H   UNL A   1      30.668  25.003  22.996  1.00  0.00     0.347 HD
ATOM     11  C   UNL A   1      32.828  25.554  24.997  1.00  0.00     0.170 C 
ATOM     12  C   UNL A   1      32.563  27.894  25.191  1.00  0.00     0.239 C 
ATOM     13  C   UNL A   1      31.516  23.355  24.605  1.00  0.00     0.093 C 
ATOM     14  C   UNL A   1      31.971  25.924  26.179  1.00  0.00     0.240 C 
ATOM     15  N   UNL A   1      31.985  27.293  26.275  1.00  0.00    -0.285 N 
ATOM     16  O   UNL A   1      32.811  29.082  25.055  1.00  0.00    -0.274 OA
ATOM     17  O   UNL A   1      31.493  25.144  26.984  1.00  0.00    -0.274 OA
ATOM     18  C   UNL A   1      31.512  28.025  27.423  1.00  0.00     0.156 C 
BRANCH   6  19
ATOM     19  C   UNL A   1      30.713  27.505  23.010  1.00  0.00     0.056 A 
ATOM     20  C   UNL A   1      29.465  29.484  22.315  1.00  0.00     0.161 A 
ATOM     21  C   UNL A   1      28.294  28.963  22.857  1.00  0.00     0.050 A 
ATOM     22  C   UNL A   1      30.668  28.780  22.435  1.00  0.00     0.166 A 
ATOM     23  C   UNL A   1      28.322  27.715  23.477  1.00  0.00     0.005 A 
ATOM     24  C   UNL A   1      29.515  26.987  23.538  1.00  0.00     0.014 A 
BRANCH  20  25
ATOM     25  O   UNL A   1      29.410  30.717  21.721  1.00  0.00    -0.493 OA
ATOM     26  C   UNL A   1      28.112  31.006  21.187  1.00  0.00     0.278 C 
ENDBRANCH  20  25
BRANCH  22  27
ATOM     27  O   UNL A   1      31.828  29.358  21.998  1.00  0.00    -0.504 OA
ATOM     28  H   UNL A   1      32.320  29.914  22.570  1.00  0.00     0.293 HD
ENDBRANCH  22  27
ENDBRANCH   6  19
ENDBRANCH   3   5
ENDBRANCH   2   3
ENDBRANCH   1   2
BRANCH   1  29
ATOM     29  C   UNL A   1      35.837  21.340  25.289  1.00  0.00     0.275 C 
BRANCH  29  30
ATOM     30  O   UNL A   1      37.106  21.843  24.835  1.00  0.00    -0.458 OA
BRANCH  30  31
ATOM     31  C   UNL A   1      38.188  21.421  25.525  1.00  0.00     0.338 C 
ATOM     32  O   UNL A   1      38.673  20.299  25.523  1.00  0.00    -0.246 OA
BRANCH  31  33
ATOM     33  C   UNL A   1      38.794  22.539  26.280  1.00  0.00     0.060 A 
ATOM     34  C   UNL A   1      38.292  23.833  26.160  1.00  0.00     0.016 A 
ATOM     35  C   UNL A   1      39.987  22.326  26.971  1.00  0.00     0.016 A 
ATOM     36  C   UNL A   1      39.064  24.920  26.576  1.00  0.00     0.010 A 
ATOM     37  C   UNL A   1      40.683  23.411  27.518  1.00  0.00     0.010 A 
ATOM     38  C   UNL A   1      40.263  24.731  27.282  1.00  0.00    -0.014 A 
BRANCH  38  39
ATOM     39  C   UNL A   1      41.090  25.889  27.754  1.00  0.00     0.031 A 
ATOM     40  C   UNL A   1      40.475  26.971  28.614  1.00  0.00     0.074 A 
ATOM     41  C   UNL A   1      42.389  26.007  27.408  1.00  0.00     0.049 A 
ATOM     42  N   UNL A   1      40.907  28.185  28.856  1.00  0.00    -0.248 NA
ATOM     43  C   UNL A   1      39.194  26.654  29.263  1.00  0.00     0.031 C 
ATOM     44  C   UNL A   1      43.155  25.038  26.624  1.00  0.00     0.029 A 
ATOM     45  N   UNL A   1      43.299  27.004  27.672  1.00  0.00    -0.354 N 
ATOM     46  C   UNL A   1      39.909  28.803  29.605  1.00  0.00     0.074 A 
ATOM     47  C   UNL A   1      38.857  27.825  29.788  1.00  0.00     0.031 C 
ATOM     48  C   UNL A   1      44.423  25.456  26.518  1.00  0.00     0.029 A 
ATOM     49  C   UNL A   1      44.533  26.782  27.111  1.00  0.00     0.049 A 
ATOM     50  H   UNL A   1      43.086  27.800  28.211  1.00  0.00     0.167 HD
ATOM     51  C   UNL A   1      39.876  30.070  30.085  1.00  0.00     0.037 A 
ATOM     52  C   UNL A   1      45.619  27.573  27.015  1.00  0.00     0.037 A 
ATOM     53  C   UNL A   1      40.969  31.006  29.994  1.00  0.00     0.049 A 
ATOM     54  C   UNL A   1      45.564  28.971  27.558  1.00  0.00     0.074 A 
ATOM     55  C   UNL A   1      41.042  32.302  30.479  1.00  0.00     0.029 A 
ATOM     56  N   UNL A   1      42.195  30.732  29.406  1.00  0.00    -0.354 N 
ATOM     57  N   UNL A   1      44.579  29.583  28.167  1.00  0.00    -0.248 NA
ATOM     58  C   UNL A   1      46.763  29.799  27.371  1.00  0.00     0.031 C 
ATOM     59  C   UNL A   1      42.303  32.821  30.163  1.00  0.00     0.029 A 
ATOM     60  C   UNL A   1      43.029  31.835  29.515  1.00  0.00     0.049 A 
ATOM     61  H   UNL A   1      42.437  29.882  28.975  1.00  0.00     0.167 HD
ATOM     62  C   UNL A   1      45.037  30.863  28.439  1.00  0.00     0.074 A 
ATOM     63  C   UNL A   1      46.399  30.934  27.952  1.00  0.00     0.031 C 
ATOM     64  C   UNL A   1      44.383  31.892  29.030  1.00  0.00     0.037 A 
BRANCH  51  65
ATOM     65  C   UNL A   1      38.606  30.546  30.733  1.00  0.00     0.064 A 
ATOM     66  C   UNL A   1      38.443  30.586  32.125  1.00  0.00     0.173 A 
ATOM     67  C   UNL A   1      37.555  31.033  29.937  1.00  0.00     0.173 A 
ATOM     68  F   UNL A   1      39.413  30.131  32.931  1.00  0.00    -0.203 F 
ATOM     69  C   UNL A   1      37.267  31.073  32.695  1.00  0.00     0.198 A 
ATOM     70  C   UNL A   1      36.395  31.547  30.510  1.00  0.00     0.198 A 
ATOM     71  F   UNL A   1      37.663  31.032  28.599  1.00  0.00    -0.203 F 
ATOM     72  F   UNL A   1      37.118  31.068  34.026  1.00  0.00    -0.200 F 
ATOM     73  C   UNL A   1      36.249  31.560  31.889  1.00  0.00     0.200 A 
ATOM     74  F   UNL A   1      35.421  32.034  29.729  1.00  0.00    -0.200 F 
ATOM     75  F   UNL A   1      35.126  32.041  32.440  1.00  0.00    -0.200 F 
ENDBRANCH  51  65
BRANCH  52  76
ATOM     76  C   UNL A   1      46.831  27.073  26.317  1.00  0.00     0.064 A 
ATOM     77  C   UNL A   1      47.057  27.368  24.967  1.00  0.00     0.173 A 
ATOM     78  C   UNL A   1      47.800  26.313  26.991  1.00  0.00     0.173 A 
ATOM     79  F   UNL A   1      46.147  28.067  24.274  1.00  0.00    -0.203 F 
ATOM     80  C   UNL A   1      48.205  26.921  24.316  1.00  0.00     0.198 A 
ATOM     81  C   UNL A   1      48.962  25.895  26.349  1.00  0.00     0.198 A 
ATOM     82  F   UNL A   1      47.631  26.003  28.285  1.00  0.00    -0.203 F 
ATOM     83  F   UNL A   1      48.381  27.187  23.015  1.00  0.00    -0.200 F 
ATOM     84  C   UNL A   1      49.162  26.195  25.011  1.00  0.00     0.200 A 
ATOM     85  F   UNL A   1      49.892  25.211  27.030  1.00  0.00    -0.200 F 
ATOM     86  F   UNL A   1      50.274  25.781  24.389  1.00  0.00    -0.200 F 
ENDBRANCH  52  76
BRANCH  64  87
ATOM     87  C   UNL A   1      45.145  33.170  29.209  1.00  0.00     0.064 A 
ATOM     88  C   UNL A   1      45.925  33.405  30.351  1.00  0.00     0.173 A 
ATOM     89  C   UNL A   1      45.104  34.166  28.223  1.00  0.00     0.173 A 
ATOM     90  F   UNL A   1      45.978  32.489  31.331  1.00  0.00    -0.203 F 
ATOM     91  C   UNL A   1      46.619  34.602  30.508  1.00  0.00     0.198 A 
ATOM     92  C   UNL A   1      45.818  35.351  28.373  1.00  0.00     0.198 A 
ATOM     93  F   UNL A   1      44.373  33.987  27.112  1.00  0.00    -0.203 F 
ATOM     94  F   UNL A   1      47.320  34.824  31.628  1.00  0.00    -0.200 F 
ATOM     95  C   UNL A   1      46.568  35.571  29.517  1.00  0.00     0.200 A 
ATOM     96  F   UNL A   1      45.774  36.285  27.411  1.00  0.00    -0.200 F 
ATOM     97  F   UNL A   1      47.235  36.723  29.672  1.00  0.00    -0.200 F 
ENDBRANCH  64  87
ENDBRANCH  38  39
ENDBRANCH  31  33
ENDBRANCH  30  31
ENDBRANCH  29  30
ENDBRANCH   1  29
TORSDOF 14
ENDMDL
