MODEL 1
REMARK VINA RESULT:     -12.8      0.000      0.000
REMARK SMILES Cc1cc2c(c(C)c1Br)C=C(C(=O)OCCOC(=O)c1ccc(-c3c4nc(c(-c5c(F)c(F)c(F)c(F)c5F)c5ccc([nH]5)c(-c5c(F)c(F)c(F)c(F)c5F)c5nc(c(-c6c(F)c(F)c(F)c(F)c6F)c6ccc3[nH]6)C=C5)C=C4)cc1)[C@@H](C(F)(F)F)O2
REMARK SMILES IDX 16 1 15 2 14 3 12 4 13 5 11 6 1 7 2 8 3 9 8 10 4 11 6 12
REMARK SMILES IDX 9 13 5 14 88 15 7 16 10 17 83 18 84 19 85 20 86 21 87 22
REMARK SMILES IDX 17 23 18 24 19 25 20 26 21 27 82 28 22 29 81 30 23 31 24 32
REMARK SMILES IDX 25 33 75 34 26 35 80 36 74 37 76 38 27 39 79 40 73 41 72 42
REMARK SMILES IDX 28 44 60 45 40 46 59 47 41 48 44 49 58 50 77 51 42 52 43 53
REMARK SMILES IDX 57 55 78 56 45 57 29 58 30 59 38 60 31 61 32 62 36 63 39 64
REMARK SMILES IDX 33 65 34 66 37 67 35 68 61 69 62 70 70 71 63 72 64 73 68 74
REMARK SMILES IDX 71 75 65 76 66 77 69 78 67 79 46 80 47 81 55 82 48 83 49 84
REMARK SMILES IDX 53 85 56 86 50 87 51 88 54 89 52 90
REMARK H PARENT 76 43 44 54
REMARK Flexibility Score: inf
ROOT
ATOM      1  C   UNL A   1      31.442  29.823  25.914  1.00  0.00     0.275 C 
ENDROOT
BRANCH   1   2
ATOM      2  C   UNL A   1      30.904  29.617  24.499  1.00  0.00     0.275 C 
BRANCH   2   3
ATOM      3  O   UNL A   1      30.551  28.235  24.272  1.00  0.00    -0.459 OA
BRANCH   3   4
ATOM      4  C   UNL A   1      30.733  27.785  23.010  1.00  0.00     0.338 C 
ATOM      5  O   UNL A   1      30.183  28.197  22.001  1.00  0.00    -0.246 OA
BRANCH   4   6
ATOM      6  C   UNL A   1      31.740  26.707  22.989  1.00  0.00     0.087 C 
ATOM      7  C   UNL A   1      35.919  21.909  24.249  1.00  0.00     0.046 C 
ATOM      8  C   UNL A   1      34.722  22.814  24.139  1.00  0.00    -0.033 A 
ATOM      9  C   UNL A   1      34.779  23.884  23.234  1.00  0.00     0.051 A 
ATOM     10  C   UNL A   1      33.567  22.651  24.933  1.00  0.00     0.024 A 
ATOM     11  C   UNL A   1      33.728  24.790  23.126  1.00  0.00     0.128 A 
ATOM     12  C   UNL A   1      32.478  23.547  24.821  1.00  0.00    -0.026 A 
ATOM     13  Br  UNL A   1      33.519  21.200  26.183  1.00  0.00    -0.050 Br
ATOM     14  C   UNL A   1      32.586  24.640  23.917  1.00  0.00     0.021 A 
ATOM     15  O   UNL A   1      33.906  25.783  22.201  1.00  0.00    -0.475 OA
ATOM     16  C   UNL A   1      31.211  23.375  25.627  1.00  0.00     0.046 C 
ATOM     17  C   UNL A   1      31.547  25.660  23.798  1.00  0.00     0.027 C 
ATOM     18  C   UNL A   1      32.983  26.902  22.176  1.00  0.00     0.316 C 
BRANCH  18  19
ATOM     19  C   UNL A   1      33.732  28.179  22.594  1.00  0.00     0.430 C 
ATOM     20  F   UNL A   1      33.948  28.211  23.930  1.00  0.00    -0.167 F 
ATOM     21  F   UNL A   1      34.949  28.255  22.004  1.00  0.00    -0.167 F 
ATOM     22  F   UNL A   1      33.053  29.300  22.263  1.00  0.00    -0.167 F 
ENDBRANCH  18  19
ENDBRANCH   4   6
ENDBRANCH   3   4
ENDBRANCH   2   3
ENDBRANCH   1   2
BRANCH   1  23
ATOM     23  O   UNL A   1      32.771  30.372  25.858  1.00  0.00    -0.458 OA
BRANCH  23  24
ATOM     24  C   UNL A   1      33.094  31.230  26.851  1.00  0.00     0.338 C 
ATOM     25  O   UNL A   1      32.397  32.106  27.335  1.00  0.00    -0.246 OA
BRANCH  24  26
ATOM     26  C   UNL A   1      34.445  30.930  27.355  1.00  0.00     0.060 A 
ATOM     27  C   UNL A   1      34.786  29.611  27.626  1.00  0.00     0.016 A 
ATOM     28  C   UNL A   1      35.308  31.960  27.723  1.00  0.00     0.016 A 
ATOM     29  C   UNL A   1      35.910  29.328  28.396  1.00  0.00     0.010 A 
ATOM     30  C   UNL A   1      36.511  31.656  28.378  1.00  0.00     0.010 A 
ATOM     31  C   UNL A   1      36.804  30.340  28.776  1.00  0.00    -0.014 A 
BRANCH  31  32
ATOM     32  C   UNL A   1      37.999  30.020  29.620  1.00  0.00     0.031 A 
ATOM     33  C   UNL A   1      39.135  29.196  29.058  1.00  0.00     0.074 A 
ATOM     34  C   UNL A   1      38.107  30.503  30.876  1.00  0.00     0.049 A 
ATOM     35  N   UNL A   1      40.155  28.657  29.682  1.00  0.00    -0.248 NA
ATOM     36  C   UNL A   1      39.120  28.932  27.611  1.00  0.00     0.031 C 
ATOM     37  C   UNL A   1      37.130  31.366  31.543  1.00  0.00     0.029 A 
ATOM     38  N   UNL A   1      39.105  30.362  31.814  1.00  0.00    -0.354 N 
ATOM     39  C   UNL A   1      40.858  27.941  28.719  1.00  0.00     0.074 A 
ATOM     40  C   UNL A   1      40.152  28.113  27.467  1.00  0.00     0.031 C 
ATOM     41  C   UNL A   1      37.612  31.745  32.734  1.00  0.00     0.029 A 
ATOM     42  C   UNL A   1      38.869  31.051  32.980  1.00  0.00     0.049 A 
ATOM     43  H   UNL A   1      39.912  29.818  31.663  1.00  0.00     0.167 HD
ATOM     44  C   UNL A   1      41.989  27.211  28.867  1.00  0.00     0.037 A 
ATOM     45  C   UNL A   1      39.553  31.087  34.140  1.00  0.00     0.037 A 
ATOM     46  C   UNL A   1      42.733  27.104  30.096  1.00  0.00     0.049 A 
ATOM     47  C   UNL A   1      40.778  30.231  34.293  1.00  0.00     0.074 A 
ATOM     48  C   UNL A   1      43.885  26.376  30.345  1.00  0.00     0.029 A 
ATOM     49  N   UNL A   1      42.419  27.769  31.270  1.00  0.00    -0.354 N 
ATOM     50  N   UNL A   1      41.370  29.469  33.406  1.00  0.00    -0.248 NA
ATOM     51  C   UNL A   1      41.409  30.209  35.621  1.00  0.00     0.031 C 
ATOM     52  C   UNL A   1      44.251  26.578  31.679  1.00  0.00     0.029 A 
ATOM     53  C   UNL A   1      43.352  27.464  32.249  1.00  0.00     0.049 A 
ATOM     54  H   UNL A   1      41.647  28.367  31.392  1.00  0.00     0.167 HD
ATOM     55  C   UNL A   1      42.442  28.883  34.064  1.00  0.00     0.074 A 
ATOM     56  C   UNL A   1      42.437  29.396  35.417  1.00  0.00     0.031 C 
ATOM     57  C   UNL A   1      43.342  27.989  33.588  1.00  0.00     0.037 A 
BRANCH  44  58
ATOM     58  C   UNL A   1      42.500  26.444  27.679  1.00  0.00     0.064 A 
ATOM     59  C   UNL A   1      43.490  26.961  26.834  1.00  0.00     0.173 A 
ATOM     60  C   UNL A   1      42.054  25.133  27.444  1.00  0.00     0.173 A 
ATOM     61  F   UNL A   1      43.942  28.211  27.009  1.00  0.00    -0.203 F 
ATOM     62  C   UNL A   1      44.010  26.197  25.790  1.00  0.00     0.198 A 
ATOM     63  C   UNL A   1      42.595  24.363  26.418  1.00  0.00     0.198 A 
ATOM     64  F   UNL A   1      41.113  24.587  28.230  1.00  0.00    -0.203 F 
ATOM     65  F   UNL A   1      44.938  26.720  24.977  1.00  0.00    -0.200 F 
ATOM     66  C   UNL A   1      43.571  24.897  25.590  1.00  0.00     0.200 A 
ATOM     67  F   UNL A   1      42.181  23.101  26.239  1.00  0.00    -0.200 F 
ATOM     68  F   UNL A   1      44.088  24.157  24.600  1.00  0.00    -0.200 F 
ENDBRANCH  44  58
BRANCH  45  69
ATOM     69  C   UNL A   1      39.065  31.930  35.264  1.00  0.00     0.064 A 
ATOM     70  C   UNL A   1      38.306  31.376  36.303  1.00  0.00     0.173 A 
ATOM     71  C   UNL A   1      39.359  33.301  35.334  1.00  0.00     0.173 A 
ATOM     72  F   UNL A   1      37.970  30.078  36.268  1.00  0.00    -0.203 F 
ATOM     73  C   UNL A   1      37.861  32.158  37.368  1.00  0.00     0.198 A 
ATOM     74  C   UNL A   1      38.945  34.075  36.415  1.00  0.00     0.198 A 
ATOM     75  F   UNL A   1      40.076  33.885  34.363  1.00  0.00    -0.203 F 
ATOM     76  F   UNL A   1      37.105  31.611  38.328  1.00  0.00    -0.200 F 
ATOM     77  C   UNL A   1      38.191  33.504  37.429  1.00  0.00     0.200 A 
ATOM     78  F   UNL A   1      39.282  35.370  36.478  1.00  0.00    -0.200 F 
ATOM     79  F   UNL A   1      37.779  34.252  38.462  1.00  0.00    -0.200 F 
ENDBRANCH  45  69
BRANCH  57  80
ATOM     80  C   UNL A   1      44.413  27.522  34.526  1.00  0.00     0.064 A 
ATOM     81  C   UNL A   1      44.262  26.353  35.285  1.00  0.00     0.173 A 
ATOM     82  C   UNL A   1      45.631  28.214  34.615  1.00  0.00     0.173 A 
ATOM     83  F   UNL A   1      43.110  25.666  35.243  1.00  0.00    -0.203 F 
ATOM     84  C   UNL A   1      45.286  25.900  36.111  1.00  0.00     0.198 A 
ATOM     85  C   UNL A   1      46.663  27.744  35.421  1.00  0.00     0.198 A 
ATOM     86  F   UNL A   1      45.826  29.333  33.903  1.00  0.00    -0.203 F 
ATOM     87  F   UNL A   1      45.109  24.798  36.852  1.00  0.00    -0.200 F 
ATOM     88  C   UNL A   1      46.489  26.590  36.172  1.00  0.00     0.200 A 
ATOM     89  F   UNL A   1      47.828  28.404  35.470  1.00  0.00    -0.200 F 
ATOM     90  F   UNL A   1      47.479  26.144  36.955  1.00  0.00    -0.200 F 
ENDBRANCH  57  80
ENDBRANCH  31  32
ENDBRANCH  24  26
ENDBRANCH  23  24
ENDBRANCH   1  23
TORSDOF 12
ENDMDL
MODEL 2
REMARK VINA RESULT:     -12.8      1.289      2.060
REMARK SMILES Cc1cc2c(c(C)c1Br)C=C(C(=O)OCCOC(=O)c1ccc(-c3c4nc(c(-c5c(F)c(F)c(F)c(F)c5F)c5ccc([nH]5)c(-c5c(F)c(F)c(F)c(F)c5F)c5nc(c(-c6c(F)c(F)c(F)c(F)c6F)c6ccc3[nH]6)C=C5)C=C4)cc1)[C@@H](C(F)(F)F)O2
REMARK SMILES IDX 16 1 15 2 14 3 12 4 13 5 11 6 1 7 2 8 3 9 8 10 4 11 6 12
REMARK SMILES IDX 9 13 5 14 88 15 7 16 10 17 83 18 84 19 85 20 86 21 87 22
REMARK SMILES IDX 17 23 18 24 19 25 20 26 21 27 82 28 22 29 81 30 23 31 24 32
REMARK SMILES IDX 25 33 75 34 26 35 80 36 74 37 76 38 27 39 79 40 73 41 72 42
REMARK SMILES IDX 28 44 60 45 40 46 59 47 41 48 44 49 58 50 77 51 42 52 43 53
REMARK SMILES IDX 57 55 78 56 45 57 29 58 30 59 38 60 31 61 32 62 36 63 39 64
REMARK SMILES IDX 33 65 34 66 37 67 35 68 61 69 62 70 70 71 63 72 64 73 68 74
REMARK SMILES IDX 71 75 65 76 66 77 69 78 67 79 46 80 47 81 55 82 48 83 49 84
REMARK SMILES IDX 53 85 56 86 50 87 51 88 54 89 52 90
REMARK H PARENT 76 43 44 54
REMARK Flexibility Score: inf
ROOT
ATOM      1  C   UNL A   1      31.756  30.150  25.399  1.00  0.00     0.275 C 
ENDROOT
BRANCH   1   2
ATOM      2  C   UNL A   1      31.365  28.741  24.956  1.00  0.00     0.275 C 
BRANCH   2   3
ATOM      3  O   UNL A   1      32.307  27.761  25.444  1.00  0.00    -0.459 OA
BRANCH   3   4
ATOM      4  C   UNL A   1      33.084  27.179  24.503  1.00  0.00     0.338 C 
ATOM      5  O   UNL A   1      33.712  27.744  23.622  1.00  0.00    -0.246 OA
BRANCH   4   6
ATOM      6  C   UNL A   1      33.107  25.715  24.689  1.00  0.00     0.087 C 
ATOM      7  C   UNL A   1      34.344  19.348  24.728  1.00  0.00     0.046 C 
ATOM      8  C   UNL A   1      34.401  20.849  24.816  1.00  0.00    -0.033 A 
ATOM      9  C   UNL A   1      33.193  21.563  24.793  1.00  0.00     0.051 A 
ATOM     10  C   UNL A   1      35.615  21.563  24.884  1.00  0.00     0.024 A 
ATOM     11  C   UNL A   1      33.181  22.954  24.813  1.00  0.00     0.128 A 
ATOM     12  C   UNL A   1      35.624  22.977  24.929  1.00  0.00    -0.026 A 
ATOM     13  Br  UNL A   1      37.255  20.572  24.887  1.00  0.00    -0.050 Br
ATOM     14  C   UNL A   1      34.381  23.667  24.869  1.00  0.00     0.021 A 
ATOM     15  O   UNL A   1      31.938  23.527  24.794  1.00  0.00    -0.475 OA
ATOM     16  C   UNL A   1      36.906  23.769  25.043  1.00  0.00     0.046 C 
ATOM     17  C   UNL A   1      34.300  25.125  24.826  1.00  0.00     0.027 C 
ATOM     18  C   UNL A   1      31.821  24.957  24.577  1.00  0.00     0.316 C 
BRANCH  18  19
ATOM     19  C   UNL A   1      31.140  25.204  23.221  1.00  0.00     0.430 C 
ATOM     20  F   UNL A   1      30.386  26.330  23.242  1.00  0.00    -0.167 F 
ATOM     21  F   UNL A   1      32.051  25.369  22.231  1.00  0.00    -0.167 F 
ATOM     22  F   UNL A   1      30.334  24.181  22.860  1.00  0.00    -0.167 F 
ENDBRANCH  18  19
ENDBRANCH   4   6
ENDBRANCH   3   4
ENDBRANCH   2   3
ENDBRANCH   1   2
BRANCH   1  23
ATOM     23  O   UNL A   1      32.418  30.097  26.676  1.00  0.00    -0.458 OA
BRANCH  23  24
ATOM     24  C   UNL A   1      32.991  31.249  27.090  1.00  0.00     0.338 C 
ATOM     25  O   UNL A   1      32.482  32.356  27.146  1.00  0.00    -0.246 OA
BRANCH  24  26
ATOM     26  C   UNL A   1      34.365  30.989  27.550  1.00  0.00     0.060 A 
ATOM     27  C   UNL A   1      34.765  29.678  27.774  1.00  0.00     0.016 A 
ATOM     28  C   UNL A   1      35.196  32.042  27.928  1.00  0.00     0.016 A 
ATOM     29  C   UNL A   1      35.919  29.417  28.507  1.00  0.00     0.010 A 
ATOM     30  C   UNL A   1      36.426  31.768  28.544  1.00  0.00     0.010 A 
ATOM     31  C   UNL A   1      36.781  30.453  28.894  1.00  0.00    -0.014 A 
BRANCH  31  32
ATOM     32  C   UNL A   1      38.009  30.157  29.699  1.00  0.00     0.031 A 
ATOM     33  C   UNL A   1      39.141  29.354  29.101  1.00  0.00     0.074 A 
ATOM     34  C   UNL A   1      38.150  30.643  30.950  1.00  0.00     0.049 A 
ATOM     35  N   UNL A   1      40.192  28.835  29.691  1.00  0.00    -0.248 NA
ATOM     36  C   UNL A   1      39.084  29.088  27.655  1.00  0.00     0.031 C 
ATOM     37  C   UNL A   1      37.179  31.489  31.649  1.00  0.00     0.029 A 
ATOM     38  N   UNL A   1      39.180  30.523  31.855  1.00  0.00    -0.354 N 
ATOM     39  C   UNL A   1      40.876  28.132  28.706  1.00  0.00     0.074 A 
ATOM     40  C   UNL A   1      40.126  28.288  27.478  1.00  0.00     0.031 C 
ATOM     41  C   UNL A   1      37.692  31.878  32.823  1.00  0.00     0.029 A 
ATOM     42  C   UNL A   1      38.969  31.208  33.028  1.00  0.00     0.049 A 
ATOM     43  H   UNL A   1      39.992  29.994  31.678  1.00  0.00     0.167 HD
ATOM     44  C   UNL A   1      42.025  27.423  28.816  1.00  0.00     0.037 A 
ATOM     45  C   UNL A   1      39.691  31.259  34.164  1.00  0.00     0.037 A 
ATOM     46  C   UNL A   1      42.811  27.332  30.020  1.00  0.00     0.049 A 
ATOM     47  C   UNL A   1      40.936  30.426  34.278  1.00  0.00     0.074 A 
ATOM     48  C   UNL A   1      43.985  26.627  30.232  1.00  0.00     0.029 A 
ATOM     49  N   UNL A   1      42.523  27.993  31.204  1.00  0.00    -0.354 N 
ATOM     50  N   UNL A   1      41.513  29.675  33.373  1.00  0.00    -0.248 NA
ATOM     51  C   UNL A   1      41.611  30.418  35.584  1.00  0.00     0.031 C 
ATOM     52  C   UNL A   1      44.390  26.837  31.553  1.00  0.00     0.029 A 
ATOM     53  C   UNL A   1      43.494  27.707  32.152  1.00  0.00     0.049 A 
ATOM     54  H   UNL A   1      41.745  28.576  31.351  1.00  0.00     0.167 HD
ATOM     55  C   UNL A   1      42.618  29.111  33.995  1.00  0.00     0.074 A 
ATOM     56  C   UNL A   1      42.647  29.625  35.348  1.00  0.00     0.031 C 
ATOM     57  C   UNL A   1      43.518  28.233  33.490  1.00  0.00     0.037 A 
BRANCH  44  58
ATOM     58  C   UNL A   1      42.511  26.665  27.614  1.00  0.00     0.064 A 
ATOM     59  C   UNL A   1      43.447  27.208  26.724  1.00  0.00     0.173 A 
ATOM     60  C   UNL A   1      42.100  25.338  27.405  1.00  0.00     0.173 A 
ATOM     61  F   UNL A   1      43.863  28.474  26.871  1.00  0.00    -0.203 F 
ATOM     62  C   UNL A   1      43.948  26.455  25.664  1.00  0.00     0.198 A 
ATOM     63  C   UNL A   1      42.624  24.579  26.363  1.00  0.00     0.198 A 
ATOM     64  F   UNL A   1      41.213  24.766  28.234  1.00  0.00    -0.203 F 
ATOM     65  F   UNL A   1      44.822  27.002  24.808  1.00  0.00    -0.200 F 
ATOM     66  C   UNL A   1      43.545  25.139  25.491  1.00  0.00     0.200 A 
ATOM     67  F   UNL A   1      42.245  23.303  26.209  1.00  0.00    -0.200 F 
ATOM     68  F   UNL A   1      44.045  24.408  24.484  1.00  0.00    -0.200 F 
ENDBRANCH  44  58
BRANCH  45  69
ATOM     69  C   UNL A   1      39.224  32.094  35.304  1.00  0.00     0.064 A 
ATOM     70  C   UNL A   1      38.461  31.538  36.339  1.00  0.00     0.173 A 
ATOM     71  C   UNL A   1      39.543  33.459  35.392  1.00  0.00     0.173 A 
ATOM     72  F   UNL A   1      38.102  30.247  36.287  1.00  0.00    -0.203 F 
ATOM     73  C   UNL A   1      38.036  32.312  37.417  1.00  0.00     0.198 A 
ATOM     74  C   UNL A   1      39.148  34.223  36.487  1.00  0.00     0.198 A 
ATOM     75  F   UNL A   1      40.265  34.044  34.425  1.00  0.00    -0.203 F 
ATOM     76  F   UNL A   1      37.276  31.765  38.375  1.00  0.00    -0.200 F 
ATOM     77  C   UNL A   1      38.390  33.651  37.496  1.00  0.00     0.200 A 
ATOM     78  F   UNL A   1      39.509  35.511  36.566  1.00  0.00    -0.200 F 
ATOM     79  F   UNL A   1      37.997  34.391  38.542  1.00  0.00    -0.200 F 
ENDBRANCH  45  69
BRANCH  57  80
ATOM     80  C   UNL A   1      44.628  27.787  34.393  1.00  0.00     0.064 A 
ATOM     81  C   UNL A   1      45.819  28.519  34.504  1.00  0.00     0.173 A 
ATOM     82  C   UNL A   1      44.472  26.654  35.205  1.00  0.00     0.173 A 
ATOM     83  F   UNL A   1      46.019  29.601  33.737  1.00  0.00    -0.203 F 
ATOM     84  C   UNL A   1      46.820  28.125  35.387  1.00  0.00     0.198 A 
ATOM     85  C   UNL A   1      45.463  26.278  36.106  1.00  0.00     0.198 A 
ATOM     86  F   UNL A   1      43.347  25.926  35.140  1.00  0.00    -0.203 F 
ATOM     87  F   UNL A   1      47.963  28.820  35.454  1.00  0.00    -0.200 F 
ATOM     88  C   UNL A   1      46.638  27.010  36.193  1.00  0.00     0.200 A 
ATOM     89  F   UNL A   1      45.281  25.209  36.893  1.00  0.00    -0.200 F 
ATOM     90  F   UNL A   1      47.596  26.641  37.053  1.00  0.00    -0.200 F 
ENDBRANCH  57  80
ENDBRANCH  31  32
ENDBRANCH  24  26
ENDBRANCH  23  24
ENDBRANCH   1  23
TORSDOF 12
ENDMDL
MODEL 3
REMARK VINA RESULT:     -12.7      4.617      9.837
REMARK SMILES Cc1cc2c(c(C)c1Br)C=C(C(=O)OCCOC(=O)c1ccc(-c3c4nc(c(-c5c(F)c(F)c(F)c(F)c5F)c5ccc([nH]5)c(-c5c(F)c(F)c(F)c(F)c5F)c5nc(c(-c6c(F)c(F)c(F)c(F)c6F)c6ccc3[nH]6)C=C5)C=C4)cc1)[C@@H](C(F)(F)F)O2
REMARK SMILES IDX 16 1 15 2 14 3 12 4 13 5 11 6 1 7 2 8 3 9 8 10 4 11 6 12
REMARK SMILES IDX 9 13 5 14 88 15 7 16 10 17 83 18 84 19 85 20 86 21 87 22
REMARK SMILES IDX 17 23 18 24 19 25 20 26 21 27 82 28 22 29 81 30 23 31 24 32
REMARK SMILES IDX 25 33 75 34 26 35 80 36 74 37 76 38 27 39 79 40 73 41 72 42
REMARK SMILES IDX 28 44 60 45 40 46 59 47 41 48 44 49 58 50 77 51 42 52 43 53
REMARK SMILES IDX 57 55 78 56 45 57 29 58 30 59 38 60 31 61 32 62 36 63 39 64
REMARK SMILES IDX 33 65 34 66 37 67 35 68 61 69 62 70 70 71 63 72 64 73 68 74
REMARK SMILES IDX 71 75 65 76 66 77 69 78 67 79 46 80 47 81 55 82 48 83 49 84
REMARK SMILES IDX 53 85 56 86 50 87 51 88 54 89 52 90
REMARK H PARENT 76 43 44 54
REMARK Flexibility Score: inf
ROOT
ATOM      1  C   UNL A   1      37.275  20.417  24.760  1.00  0.00     0.275 C 
ENDROOT
BRANCH   1   2
ATOM      2  C   UNL A   1      35.774  20.234  24.979  1.00  0.00     0.275 C 
BRANCH   2   3
ATOM      3  O   UNL A   1      35.031  21.353  24.449  1.00  0.00    -0.459 OA
BRANCH   3   4
ATOM      4  C   UNL A   1      33.685  21.260  24.550  1.00  0.00     0.338 C 
ATOM      5  O   UNL A   1      33.001  20.275  24.323  1.00  0.00    -0.246 OA
BRANCH   4   6
ATOM      6  C   UNL A   1      33.115  22.540  25.014  1.00  0.00     0.087 C 
ATOM      7  C   UNL A   1      31.750  28.705  26.500  1.00  0.00     0.046 C 
ATOM      8  C   UNL A   1      32.121  27.410  25.828  1.00  0.00    -0.033 A 
ATOM      9  C   UNL A   1      31.878  26.211  26.515  1.00  0.00     0.051 A 
ATOM     10  C   UNL A   1      32.734  27.358  24.559  1.00  0.00     0.024 A 
ATOM     11  C   UNL A   1      32.250  24.985  25.973  1.00  0.00     0.128 A 
ATOM     12  C   UNL A   1      33.098  26.120  23.979  1.00  0.00    -0.026 A 
ATOM     13  Br  UNL A   1      33.083  29.007  23.648  1.00  0.00    -0.050 Br
ATOM     14  C   UNL A   1      32.867  24.928  24.720  1.00  0.00     0.021 A 
ATOM     15  O   UNL A   1      31.950  23.892  26.740  1.00  0.00    -0.475 OA
ATOM     16  C   UNL A   1      33.718  26.028  22.604  1.00  0.00     0.046 C 
ATOM     17  C   UNL A   1      33.287  23.615  24.237  1.00  0.00     0.027 C 
ATOM     18  C   UNL A   1      32.501  22.600  26.378  1.00  0.00     0.316 C 
BRANCH  18  19
ATOM     19  C   UNL A   1      33.499  22.159  27.462  1.00  0.00     0.430 C 
ATOM     20  F   UNL A   1      34.712  22.732  27.281  1.00  0.00    -0.167 F 
ATOM     21  F   UNL A   1      33.081  22.522  28.699  1.00  0.00    -0.167 F 
ATOM     22  F   UNL A   1      33.679  20.819  27.475  1.00  0.00    -0.167 F 
ENDBRANCH  18  19
ENDBRANCH   4   6
ENDBRANCH   3   4
ENDBRANCH   2   3
ENDBRANCH   1   2
BRANCH   1  23
ATOM     23  O   UNL A   1      37.780  21.434  25.643  1.00  0.00    -0.458 OA
BRANCH  23  24
ATOM     24  C   UNL A   1      39.044  21.251  26.088  1.00  0.00     0.338 C 
ATOM     25  O   UNL A   1      39.734  20.252  25.980  1.00  0.00    -0.246 OA
BRANCH  24  26
ATOM     26  C   UNL A   1      39.545  22.493  26.701  1.00  0.00     0.060 A 
ATOM     27  C   UNL A   1      39.042  23.712  26.264  1.00  0.00     0.016 A 
ATOM     28  C   UNL A   1      40.629  22.463  27.576  1.00  0.00     0.016 A 
ATOM     29  C   UNL A   1      39.709  24.892  26.575  1.00  0.00     0.010 A 
ATOM     30  C   UNL A   1      41.212  23.667  27.997  1.00  0.00     0.010 A 
ATOM     31  C   UNL A   1      40.798  24.898  27.459  1.00  0.00    -0.014 A 
BRANCH  31  32
ATOM     32  C   UNL A   1      41.517  26.175  27.769  1.00  0.00     0.031 A 
ATOM     33  C   UNL A   1      40.877  27.219  28.654  1.00  0.00     0.074 A 
ATOM     34  C   UNL A   1      42.767  26.394  27.308  1.00  0.00     0.049 A 
ATOM     35  N   UNL A   1      41.251  28.455  28.882  1.00  0.00    -0.248 NA
ATOM     36  C   UNL A   1      39.651  26.831  29.369  1.00  0.00     0.031 C 
ATOM     37  C   UNL A   1      43.550  25.460  26.496  1.00  0.00     0.029 A 
ATOM     38  N   UNL A   1      43.617  27.463  27.478  1.00  0.00    -0.354 N 
ATOM     39  C   UNL A   1      40.276  29.005  29.707  1.00  0.00     0.074 A 
ATOM     40  C   UNL A   1      39.291  27.971  29.942  1.00  0.00     0.031 C 
ATOM     41  C   UNL A   1      44.782  25.954  26.315  1.00  0.00     0.029 A 
ATOM     42  C   UNL A   1      44.844  27.295  26.880  1.00  0.00     0.049 A 
ATOM     43  H   UNL A   1      43.369  28.272  27.982  1.00  0.00     0.167 HD
ATOM     44  C   UNL A   1      40.210  30.256  30.220  1.00  0.00     0.037 A 
ATOM     45  C   UNL A   1      45.887  28.137  26.752  1.00  0.00     0.037 A 
ATOM     46  C   UNL A   1      41.229  31.261  30.048  1.00  0.00     0.049 A 
ATOM     47  C   UNL A   1      45.771  29.535  27.289  1.00  0.00     0.074 A 
ATOM     48  C   UNL A   1      41.245  32.563  30.522  1.00  0.00     0.029 A 
ATOM     49  N   UNL A   1      42.426  31.064  29.379  1.00  0.00    -0.354 N 
ATOM     50  N   UNL A   1      44.793  30.078  27.972  1.00  0.00    -0.248 NA
ATOM     51  C   UNL A   1      46.887  30.449  27.006  1.00  0.00     0.031 C 
ATOM     52  C   UNL A   1      42.439  33.164  30.112  1.00  0.00     0.029 A 
ATOM     53  C   UNL A   1      43.186  32.223  29.421  1.00  0.00     0.049 A 
ATOM     54  H   UNL A   1      42.697  30.228  28.937  1.00  0.00     0.167 HD
ATOM     55  C   UNL A   1      45.176  31.392  28.203  1.00  0.00     0.074 A 
ATOM     56  C   UNL A   1      46.486  31.559  27.612  1.00  0.00     0.031 C 
ATOM     57  C   UNL A   1      44.492  32.373  28.839  1.00  0.00     0.037 A 
BRANCH  44  58
ATOM     58  C   UNL A   1      38.989  30.638  31.010  1.00  0.00     0.064 A 
ATOM     59  C   UNL A   1      38.934  30.495  32.402  1.00  0.00     0.173 A 
ATOM     60  C   UNL A   1      37.896  31.242  30.367  1.00  0.00     0.173 A 
ATOM     61  F   UNL A   1      39.945  29.914  33.063  1.00  0.00    -0.203 F 
ATOM     62  C   UNL A   1      37.824  30.935  33.123  1.00  0.00     0.198 A 
ATOM     63  C   UNL A   1      36.803  31.706  31.093  1.00  0.00     0.198 A 
ATOM     64  F   UNL A   1      37.903  31.411  29.036  1.00  0.00    -0.203 F 
ATOM     65  F   UNL A   1      37.779  30.765  34.451  1.00  0.00    -0.200 F 
ATOM     66  C   UNL A   1      36.766  31.549  32.470  1.00  0.00     0.200 A 
ATOM     67  F   UNL A   1      35.790  32.314  30.460  1.00  0.00    -0.200 F 
ATOM     68  F   UNL A   1      35.710  31.992  33.167  1.00  0.00    -0.200 F 
ENDBRANCH  44  58
BRANCH  45  69
ATOM     69  C   UNL A   1      47.117  27.692  26.041  1.00  0.00     0.064 A 
ATOM     70  C   UNL A   1      47.196  27.735  24.643  1.00  0.00     0.173 A 
ATOM     71  C   UNL A   1      48.243  27.231  26.742  1.00  0.00     0.173 A 
ATOM     72  F   UNL A   1      46.137  28.137  23.925  1.00  0.00    -0.203 F 
ATOM     73  C   UNL A   1      48.351  27.336  23.973  1.00  0.00     0.198 A 
ATOM     74  C   UNL A   1      49.410  26.867  26.074  1.00  0.00     0.198 A 
ATOM     75  F   UNL A   1      48.219  27.163  28.081  1.00  0.00    -0.203 F 
ATOM     76  F   UNL A   1      48.387  27.351  22.635  1.00  0.00    -0.200 F 
ATOM     77  C   UNL A   1      49.461  26.913  24.690  1.00  0.00     0.200 A 
ATOM     78  F   UNL A   1      50.484  26.477  26.774  1.00  0.00    -0.200 F 
ATOM     79  F   UNL A   1      50.579  26.548  24.047  1.00  0.00    -0.200 F 
ENDBRANCH  45  69
BRANCH  57  80
ATOM     80  C   UNL A   1      45.154  33.713  28.953  1.00  0.00     0.064 A 
ATOM     81  C   UNL A   1      46.034  34.008  30.004  1.00  0.00     0.173 A 
ATOM     82  C   UNL A   1      44.959  34.688  27.962  1.00  0.00     0.173 A 
ATOM     83  F   UNL A   1      46.240  33.112  30.981  1.00  0.00    -0.203 F 
ATOM     84  C   UNL A   1      46.685  35.236  30.068  1.00  0.00     0.198 A 
ATOM     85  C   UNL A   1      45.632  35.905  28.015  1.00  0.00     0.198 A 
ATOM     86  F   UNL A   1      44.133  34.450  26.933  1.00  0.00    -0.203 F 
ATOM     87  F   UNL A   1      47.496  35.509  31.098  1.00  0.00    -0.200 F 
ATOM     88  C   UNL A   1      46.491  36.180  29.069  1.00  0.00     0.200 A 
ATOM     89  F   UNL A   1      45.454  36.811  27.044  1.00  0.00    -0.200 F 
ATOM     90  F   UNL A   1      47.130  37.356  29.124  1.00  0.00    -0.200 F 
ENDBRANCH  57  80
ENDBRANCH  31  32
ENDBRANCH  24  26
ENDBRANCH  23  24
ENDBRANCH   1  23
TORSDOF 12
ENDMDL
