MODEL 1
REMARK VINA RESULT:     -13.5      0.000      0.000
REMARK SMILES Cc1oc(C)c(S(=O)(=O)Nn2c(C)ccc2C)c1C(=O)OCCOC(=O)c1ccc(-c2c3nc(c(-c4c(F)c(F)c(F)c(F)c4F)c4ccc([nH]4)c(-c4c(F)c(F)c(F)c(F)c4F)c4nc(c(-c5c(F)c(F)c(F)c(F)c5F)c5ccc2[nH]5)C=C4)C=C3)cc1
REMARK SMILES IDX 22 1 21 2 19 3 20 4 18 5 1 6 2 7 3 8 4 9 6 10 5 11 7 12 8 13
REMARK SMILES IDX 9 14 10 15 11 17 12 18 16 19 13 20 14 21 15 22 17 23 23 24
REMARK SMILES IDX 24 25 25 26 26 27 27 28 28 29 89 30 29 31 88 32 30 33 31 34
REMARK SMILES IDX 32 35 82 36 33 37 87 38 81 39 83 40 34 41 86 42 80 43 79 44
REMARK SMILES IDX 35 46 67 47 47 48 66 49 48 50 51 51 65 52 84 53 49 54 50 55
REMARK SMILES IDX 64 57 85 58 52 59 36 60 37 61 45 62 38 63 39 64 43 65 46 66
REMARK SMILES IDX 40 67 41 68 44 69 42 70 68 71 69 72 77 73 70 74 71 75 75 76
REMARK SMILES IDX 78 77 72 78 73 79 76 80 74 81 53 82 54 83 62 84 55 85 56 86
REMARK SMILES IDX 60 87 63 88 57 89 58 90 61 91 59 92
REMARK H PARENT 10 16 83 45 51 56
REMARK Flexibility Score: inf
ROOT
ATOM      1  C   UNL A   1      37.979  22.512  25.618  1.00  0.00     0.275 C 
ENDROOT
BRANCH   1   2
ATOM      2  O   UNL A   1      36.565  22.086  25.245  1.00  0.00    -0.458 OA
BRANCH   2   3
ATOM      3  C   UNL A   1      35.953  22.487  24.029  1.00  0.00     0.343 C 
ATOM      4  O   UNL A   1      36.596  22.786  23.030  1.00  0.00    -0.246 OA
BRANCH   3   5
ATOM      5  C   UNL A   1      34.453  22.564  24.042  1.00  0.00     0.122 A 
ATOM      6  C   UNL A   1      33.836  20.021  24.586  1.00  0.00     0.088 C 
ATOM      7  C   UNL A   1      33.637  21.442  24.224  1.00  0.00     0.117 A 
ATOM      8  O   UNL A   1      32.322  21.748  24.072  1.00  0.00    -0.464 OA
ATOM      9  C   UNL A   1      32.219  23.083  23.916  1.00  0.00     0.122 A 
ATOM     10  C   UNL A   1      33.468  23.671  24.047  1.00  0.00     0.145 A 
ATOM     11  C   UNL A   1      30.841  23.587  23.674  1.00  0.00     0.089 C 
BRANCH  10  12
ATOM     12  S   UNL A   1      33.517  25.402  24.164  1.00  0.00     0.279 S 
ATOM     13  O   UNL A   1      34.656  25.702  25.044  1.00  0.00    -0.200 OA
ATOM     14  O   UNL A   1      33.554  25.840  22.812  1.00  0.00    -0.200 OA
BRANCH  12  15
ATOM     15  N   UNL A   1      32.254  26.156  24.877  1.00  0.00    -0.216 N 
ATOM     16  H   UNL A   1      31.567  25.619  25.334  1.00  0.00     0.202 HD
BRANCH  15  17
ATOM     17  N   UNL A   1      32.132  27.513  24.852  1.00  0.00    -0.256 N 
ATOM     18  C   UNL A   1      32.698  28.458  25.657  1.00  0.00     0.038 A 
ATOM     19  C   UNL A   1      31.159  28.050  24.039  1.00  0.00     0.038 A 
ATOM     20  C   UNL A   1      33.747  28.488  26.721  1.00  0.00     0.067 C 
ATOM     21  C   UNL A   1      31.978  29.582  25.385  1.00  0.00     0.025 A 
ATOM     22  C   UNL A   1      30.980  29.347  24.436  1.00  0.00     0.025 A 
ATOM     23  C   UNL A   1      30.354  27.294  23.047  1.00  0.00     0.067 C 
ENDBRANCH  15  17
ENDBRANCH  12  15
ENDBRANCH  10  12
ENDBRANCH   3   5
ENDBRANCH   2   3
ENDBRANCH   1   2
BRANCH   1  24
ATOM     24  C   UNL A   1      39.249  21.350  25.733  1.00  0.00     0.275 C 
BRANCH  24  25
ATOM     25  O   UNL A   1      40.275  21.133  26.969  1.00  0.00    -0.458 OA
BRANCH  25  26
ATOM     26  C   UNL A   1      41.281  22.082  27.331  1.00  0.00     0.338 C 
ATOM     27  O   UNL A   1      42.448  21.853  27.007  1.00  0.00    -0.246 OA
BRANCH  26  28
ATOM     28  C   UNL A   1      41.007  23.552  28.015  1.00  0.00     0.060 A 
ATOM     29  C   UNL A   1      39.717  24.090  28.019  1.00  0.00     0.016 A 
ATOM     30  C   UNL A   1      41.938  24.593  28.299  1.00  0.00     0.016 A 
ATOM     31  C   UNL A   1      39.404  25.519  28.331  1.00  0.00     0.010 A 
ATOM     32  C   UNL A   1      41.603  26.088  28.585  1.00  0.00     0.010 A 
ATOM     33  C   UNL A   1      40.304  26.638  28.600  1.00  0.00    -0.014 A 
BRANCH  33  34
ATOM     34  C   UNL A   1      39.680  28.268  28.766  1.00  0.00     0.031 A 
ATOM     35  C   UNL A   1      40.922  29.086  28.791  1.00  0.00     0.074 A 
ATOM     36  C   UNL A   1      38.570  29.163  28.995  1.00  0.00     0.049 A 
ATOM     37  N   UNL A   1      41.772  28.921  29.759  1.00  0.00    -0.248 NA
ATOM     38  C   UNL A   1      41.431  29.843  27.649  1.00  0.00     0.031 C 
ATOM     39  C   UNL A   1      37.138  28.847  29.214  1.00  0.00     0.029 A 
ATOM     40  N   UNL A   1      38.451  30.642  29.135  1.00  0.00    -0.354 N 
ATOM     41  C   UNL A   1      42.846  29.722  29.483  1.00  0.00     0.074 A 
ATOM     42  C   UNL A   1      42.646  30.166  28.112  1.00  0.00     0.031 C 
ATOM     43  C   UNL A   1      36.338  29.962  29.318  1.00  0.00     0.029 A 
ATOM     44  C   UNL A   1      37.099  31.219  29.270  1.00  0.00     0.049 A 
ATOM     45  H   UNL A   1      39.250  31.215  29.137  1.00  0.00     0.167 HD
ATOM     46  C   UNL A   1      43.398  30.348  30.558  1.00  0.00     0.037 A 
ATOM     47  C   UNL A   1      36.598  32.538  29.447  1.00  0.00     0.037 A 
ATOM     48  C   UNL A   1      43.006  31.723  30.621  1.00  0.00     0.049 A 
ATOM     49  C   UNL A   1      37.650  33.342  30.090  1.00  0.00     0.074 A 
ATOM     50  C   UNL A   1      42.848  32.700  29.660  1.00  0.00     0.029 A 
ATOM     51  N   UNL A   1      42.233  32.101  31.698  1.00  0.00    -0.354 N 
ATOM     52  N   UNL A   1      37.857  33.247  31.367  1.00  0.00    -0.248 NA
ATOM     53  C   UNL A   1      38.343  34.452  29.438  1.00  0.00     0.031 C 
ATOM     54  C   UNL A   1      41.591  33.267  29.952  1.00  0.00     0.029 A 
ATOM     55  C   UNL A   1      41.213  32.893  31.238  1.00  0.00     0.049 A 
ATOM     56  H   UNL A   1      42.386  31.845  32.636  1.00  0.00     0.167 HD
ATOM     57  C   UNL A   1      39.063  33.840  31.523  1.00  0.00     0.074 A 
ATOM     58  C   UNL A   1      39.163  34.797  30.437  1.00  0.00     0.031 C 
ATOM     59  C   UNL A   1      40.012  33.012  32.019  1.00  0.00     0.037 A 
BRANCH  46  60
ATOM     60  C   UNL A   1      43.517  29.453  31.764  1.00  0.00     0.064 A 
ATOM     61  C   UNL A   1      44.777  28.980  32.133  1.00  0.00     0.173 A 
ATOM     62  C   UNL A   1      42.400  28.932  32.456  1.00  0.00     0.173 A 
ATOM     63  F   UNL A   1      45.880  29.493  31.567  1.00  0.00    -0.203 F 
ATOM     64  C   UNL A   1      44.910  27.974  33.088  1.00  0.00     0.198 A 
ATOM     65  C   UNL A   1      42.528  27.873  33.344  1.00  0.00     0.198 A 
ATOM     66  F   UNL A   1      41.174  29.451  32.273  1.00  0.00    -0.203 F 
ATOM     67  F   UNL A   1      46.130  27.556  33.451  1.00  0.00    -0.200 F 
ATOM     68  C   UNL A   1      43.785  27.390  33.657  1.00  0.00     0.200 A 
ATOM     69  F   UNL A   1      41.435  27.328  33.894  1.00  0.00    -0.200 F 
ATOM     70  F   UNL A   1      43.915  26.378  34.526  1.00  0.00    -0.200 F 
ENDBRANCH  46  60
BRANCH  47  71
ATOM     71  C   UNL A   1      35.299  33.496  29.482  1.00  0.00     0.064 A 
ATOM     72  C   UNL A   1      34.591  33.792  30.718  1.00  0.00     0.173 A 
ATOM     73  C   UNL A   1      35.051  34.466  28.496  1.00  0.00     0.173 A 
ATOM     74  F   UNL A   1      34.647  32.970  31.772  1.00  0.00    -0.203 F 
ATOM     75  C   UNL A   1      33.842  34.967  30.962  1.00  0.00     0.198 A 
ATOM     76  C   UNL A   1      34.251  35.630  28.731  1.00  0.00     0.198 A 
ATOM     77  F   UNL A   1      35.649  34.366  27.303  1.00  0.00    -0.203 F 
ATOM     78  F   UNL A   1      33.340  35.213  32.185  1.00  0.00    -0.200 F 
ATOM     79  C   UNL A   1      33.683  35.897  29.968  1.00  0.00     0.200 A 
ATOM     80  F   UNL A   1      34.091  36.540  27.757  1.00  0.00    -0.200 F 
ATOM     81  F   UNL A   1      33.020  37.042  30.204  1.00  0.00    -0.200 F 
ENDBRANCH  47  71
BRANCH  59  82
ATOM     82  C   UNL A   1      39.576  32.100  33.163  1.00  0.00     0.064 A 
ATOM     83  C   UNL A   1      38.849  30.885  33.054  1.00  0.00     0.173 A 
ATOM     84  C   UNL A   1      39.817  32.544  34.468  1.00  0.00     0.173 A 
ATOM     85  F   UNL A   1      38.645  30.275  31.880  1.00  0.00    -0.203 F 
ATOM     86  C   UNL A   1      38.314  30.234  34.169  1.00  0.00     0.198 A 
ATOM     87  C   UNL A   1      39.332  31.861  35.584  1.00  0.00     0.198 A 
ATOM     88  F   UNL A   1      40.550  33.650  34.667  1.00  0.00    -0.203 F 
ATOM     89  F   UNL A   1      37.562  29.134  34.010  1.00  0.00    -0.200 F 
ATOM     90  C   UNL A   1      38.556  30.724  35.435  1.00  0.00     0.200 A 
ATOM     91  F   UNL A   1      39.618  32.313  36.812  1.00  0.00    -0.200 F 
ATOM     92  F   UNL A   1      38.059  30.095  36.510  1.00  0.00    -0.200 F 
ENDBRANCH  59  82
ENDBRANCH  33  34
ENDBRANCH  26  28
ENDBRANCH  25  26
ENDBRANCH  24  25
ENDBRANCH   1  24
TORSDOF 14
ENDMDL
MODEL 2
REMARK VINA RESULT:     -13.2      1.736      2.459
REMARK SMILES Cc1oc(C)c(S(=O)(=O)Nn2c(C)ccc2C)c1C(=O)OCCOC(=O)c1ccc(-c2c3nc(c(-c4c(F)c(F)c(F)c(F)c4F)c4ccc([nH]4)c(-c4c(F)c(F)c(F)c(F)c4F)c4nc(c(-c5c(F)c(F)c(F)c(F)c5F)c5ccc2[nH]5)C=C4)C=C3)cc1
REMARK SMILES IDX 22 1 21 2 19 3 20 4 18 5 1 6 2 7 3 8 4 9 6 10 5 11 7 12 8 13
REMARK SMILES IDX 9 14 10 15 11 17 12 18 16 19 13 20 14 21 15 22 17 23 23 24
REMARK SMILES IDX 24 25 25 26 26 27 27 28 28 29 89 30 29 31 88 32 30 33 31 34
REMARK SMILES IDX 32 35 82 36 33 37 87 38 81 39 83 40 34 41 86 42 80 43 79 44
REMARK SMILES IDX 35 46 67 47 47 48 66 49 48 50 51 51 65 52 84 53 49 54 50 55
REMARK SMILES IDX 64 57 85 58 52 59 36 60 37 61 45 62 38 63 39 64 43 65 46 66
REMARK SMILES IDX 40 67 41 68 44 69 42 70 68 71 69 72 77 73 70 74 71 75 75 76
REMARK SMILES IDX 78 77 72 78 73 79 76 80 74 81 53 82 54 83 62 84 55 85 56 86
REMARK SMILES IDX 60 87 63 88 57 89 58 90 61 91 59 92
REMARK H PARENT 10 16 83 45 51 56
REMARK Flexibility Score: inf
ROOT
ATOM      1  C   UNL A   1      37.855  22.554  25.767  1.00  0.00     0.275 C 
ENDROOT
BRANCH   1   2
ATOM      2  O   UNL A   1      36.353  22.561  25.514  1.00  0.00    -0.458 OA
BRANCH   2   3
ATOM      3  C   UNL A   1      35.810  22.612  24.204  1.00  0.00     0.343 C 
ATOM      4  O   UNL A   1      36.507  22.628  23.196  1.00  0.00    -0.246 OA
BRANCH   3   5
ATOM      5  C   UNL A   1      34.313  22.687  24.116  1.00  0.00     0.122 A 
ATOM      6  C   UNL A   1      33.664  20.145  24.629  1.00  0.00     0.088 C 
ATOM      7  C   UNL A   1      33.488  21.564  24.248  1.00  0.00     0.117 A 
ATOM      8  O   UNL A   1      32.186  21.867  24.007  1.00  0.00    -0.464 OA
ATOM      9  C   UNL A   1      32.091  23.201  23.838  1.00  0.00     0.122 A 
ATOM     10  C   UNL A   1      33.328  23.792  24.050  1.00  0.00     0.145 A 
ATOM     11  C   UNL A   1      30.732  23.702  23.502  1.00  0.00     0.089 C 
BRANCH  10  12
ATOM     12  S   UNL A   1      33.366  25.524  24.163  1.00  0.00     0.279 S 
ATOM     13  O   UNL A   1      34.440  25.829  25.120  1.00  0.00    -0.200 OA
ATOM     14  O   UNL A   1      33.499  25.956  22.815  1.00  0.00    -0.200 OA
BRANCH  12  15
ATOM     15  N   UNL A   1      32.056  26.279  24.781  1.00  0.00    -0.216 N 
ATOM     16  H   UNL A   1      31.333  25.742  25.181  1.00  0.00     0.202 HD
BRANCH  15  17
ATOM     17  N   UNL A   1      31.941  27.636  24.754  1.00  0.00    -0.256 N 
ATOM     18  C   UNL A   1      32.443  28.575  25.609  1.00  0.00     0.038 A 
ATOM     19  C   UNL A   1      31.039  28.183  23.868  1.00  0.00     0.038 A 
ATOM     20  C   UNL A   1      33.402  28.594  26.754  1.00  0.00     0.067 C 
ATOM     21  C   UNL A   1      31.751  29.703  25.286  1.00  0.00     0.025 A 
ATOM     22  C   UNL A   1      30.833  29.478  24.257  1.00  0.00     0.025 A 
ATOM     23  C   UNL A   1      30.315  27.436  22.809  1.00  0.00     0.067 C 
ENDBRANCH  15  17
ENDBRANCH  12  15
ENDBRANCH  10  12
ENDBRANCH   3   5
ENDBRANCH   2   3
ENDBRANCH   1   2
BRANCH   1  24
ATOM     24  C   UNL A   1      38.757  21.085  25.686  1.00  0.00     0.275 C 
BRANCH  24  25
ATOM     25  O   UNL A   1      40.125  20.724  26.477  1.00  0.00    -0.458 OA
BRANCH  25  26
ATOM     26  C   UNL A   1      41.334  21.472  26.336  1.00  0.00     0.338 C 
ATOM     27  O   UNL A   1      42.282  20.951  25.746  1.00  0.00    -0.246 OA
BRANCH  26  28
ATOM     28  C   UNL A   1      41.539  23.048  26.758  1.00  0.00     0.060 A 
ATOM     29  C   UNL A   1      41.009  23.523  27.961  1.00  0.00     0.016 A 
ATOM     30  C   UNL A   1      41.855  24.162  25.927  1.00  0.00     0.016 A 
ATOM     31  C   UNL A   1      40.868  24.972  28.303  1.00  0.00     0.010 A 
ATOM     32  C   UNL A   1      41.669  25.668  26.279  1.00  0.00     0.010 A 
ATOM     33  C   UNL A   1      41.144  26.157  27.494  1.00  0.00    -0.014 A 
BRANCH  33  34
ATOM     34  C   UNL A   1      40.723  27.756  28.078  1.00  0.00     0.031 A 
ATOM     35  C   UNL A   1      41.982  28.518  27.860  1.00  0.00     0.074 A 
ATOM     36  C   UNL A   1      39.798  28.636  28.753  1.00  0.00     0.049 A 
ATOM     37  N   UNL A   1      43.057  28.166  28.501  1.00  0.00    -0.248 NA
ATOM     38  C   UNL A   1      42.205  29.438  26.746  1.00  0.00     0.031 C 
ATOM     39  C   UNL A   1      38.467  28.335  29.332  1.00  0.00     0.029 A 
ATOM     40  N   UNL A   1      39.842  30.074  29.141  1.00  0.00    -0.354 N 
ATOM     41  C   UNL A   1      44.068  28.967  28.046  1.00  0.00     0.074 A 
ATOM     42  C   UNL A   1      43.523  29.639  26.876  1.00  0.00     0.031 C 
ATOM     43  C   UNL A   1      37.820  29.442  29.831  1.00  0.00     0.029 A 
ATOM     44  C   UNL A   1      38.634  30.664  29.751  1.00  0.00     0.049 A 
ATOM     45  H   UNL A   1      40.652  30.613  28.995  1.00  0.00     0.167 HD
ATOM     46  C   UNL A   1      44.950  29.387  28.993  1.00  0.00     0.037 A 
ATOM     47  C   UNL A   1      38.311  31.951  30.262  1.00  0.00     0.037 A 
ATOM     48  C   UNL A   1      44.702  30.744  29.374  1.00  0.00     0.049 A 
ATOM     49  C   UNL A   1      39.561  32.602  30.682  1.00  0.00     0.074 A 
ATOM     50  C   UNL A   1      44.357  31.873  28.658  1.00  0.00     0.029 A 
ATOM     51  N   UNL A   1      44.299  30.963  30.674  1.00  0.00    -0.354 N 
ATOM     52  N   UNL A   1      40.114  32.290  31.813  1.00  0.00    -0.248 NA
ATOM     53  C   UNL A   1      40.127  33.783  30.030  1.00  0.00     0.031 C 
ATOM     54  C   UNL A   1      43.283  32.423  29.388  1.00  0.00     0.029 A 
ATOM     55  C   UNL A   1      43.256  31.854  30.656  1.00  0.00     0.049 A 
ATOM     56  H   UNL A   1      44.691  30.550  31.476  1.00  0.00     0.167 HD
ATOM     57  C   UNL A   1      41.358  32.809  31.697  1.00  0.00     0.074 A 
ATOM     58  C   UNL A   1      41.221  33.929  30.785  1.00  0.00     0.031 C 
ATOM     59  C   UNL A   1      42.340  31.879  31.764  1.00  0.00     0.037 A 
BRANCH  46  60
ATOM     60  C   UNL A   1      45.334  28.300  29.963  1.00  0.00     0.064 A 
ATOM     61  C   UNL A   1      46.600  27.720  29.861  1.00  0.00     0.173 A 
ATOM     62  C   UNL A   1      44.426  27.721  30.878  1.00  0.00     0.173 A 
ATOM     63  F   UNL A   1      47.530  28.272  29.068  1.00  0.00    -0.203 F 
ATOM     64  C   UNL A   1      46.914  26.565  30.575  1.00  0.00     0.198 A 
ATOM     65  C   UNL A   1      44.712  26.525  31.522  1.00  0.00     0.198 A 
ATOM     66  F   UNL A   1      43.252  28.314  31.152  1.00  0.00    -0.203 F 
ATOM     67  F   UNL A   1      48.144  26.040  30.487  1.00  0.00    -0.200 F 
ATOM     68  C   UNL A   1      45.956  25.943  31.366  1.00  0.00     0.200 A 
ATOM     69  F   UNL A   1      43.782  25.943  32.292  1.00  0.00    -0.200 F 
ATOM     70  F   UNL A   1      46.243  24.797  31.999  1.00  0.00    -0.200 F 
ENDBRANCH  46  60
BRANCH  47  71
ATOM     71  C   UNL A   1      37.155  32.932  30.819  1.00  0.00     0.064 A 
ATOM     72  C   UNL A   1      36.382  33.794  29.939  1.00  0.00     0.173 A 
ATOM     73  C   UNL A   1      36.485  32.694  32.032  1.00  0.00     0.173 A 
ATOM     74  F   UNL A   1      36.857  34.188  28.751  1.00  0.00    -0.203 F 
ATOM     75  C   UNL A   1      35.067  34.247  30.196  1.00  0.00     0.198 A 
ATOM     76  C   UNL A   1      35.174  33.195  32.309  1.00  0.00     0.198 A 
ATOM     77  F   UNL A   1      37.040  31.893  32.949  1.00  0.00    -0.203 F 
ATOM     78  F   UNL A   1      34.385  34.926  29.257  1.00  0.00    -0.200 F 
ATOM     79  C   UNL A   1      34.454  33.934  31.381  1.00  0.00     0.200 A 
ATOM     80  F   UNL A   1      34.574  32.893  33.472  1.00  0.00    -0.200 F 
ATOM     81  F   UNL A   1      33.186  34.312  31.615  1.00  0.00    -0.200 F 
ENDBRANCH  47  71
BRANCH  59  82
ATOM     82  C   UNL A   1      42.175  30.804  32.834  1.00  0.00     0.064 A 
ATOM     83  C   UNL A   1      41.415  29.609  32.732  1.00  0.00     0.173 A 
ATOM     84  C   UNL A   1      42.738  31.057  34.090  1.00  0.00     0.173 A 
ATOM     85  F   UNL A   1      40.917  29.175  31.569  1.00  0.00    -0.203 F 
ATOM     86  C   UNL A   1      41.153  28.796  33.838  1.00  0.00     0.198 A 
ATOM     87  C   UNL A   1      42.524  30.211  35.181  1.00  0.00     0.198 A 
ATOM     88  F   UNL A   1      43.523  32.131  34.262  1.00  0.00    -0.203 F 
ATOM     89  F   UNL A   1      40.360  27.721  33.710  1.00  0.00    -0.200 F 
ATOM     90  C   UNL A   1      41.709  29.098  35.063  1.00  0.00     0.200 A 
ATOM     91  F   UNL A   1      43.111  30.483  36.353  1.00  0.00    -0.200 F 
ATOM     92  F   UNL A   1      41.475  28.313  36.124  1.00  0.00    -0.200 F 
ENDBRANCH  59  82
ENDBRANCH  33  34
ENDBRANCH  26  28
ENDBRANCH  25  26
ENDBRANCH  24  25
ENDBRANCH   1  24
TORSDOF 14
ENDMDL
MODEL 3
REMARK VINA RESULT:     -13.1      2.446      4.094
REMARK SMILES Cc1oc(C)c(S(=O)(=O)Nn2c(C)ccc2C)c1C(=O)OCCOC(=O)c1ccc(-c2c3nc(c(-c4c(F)c(F)c(F)c(F)c4F)c4ccc([nH]4)c(-c4c(F)c(F)c(F)c(F)c4F)c4nc(c(-c5c(F)c(F)c(F)c(F)c5F)c5ccc2[nH]5)C=C4)C=C3)cc1
REMARK SMILES IDX 22 1 21 2 19 3 20 4 18 5 1 6 2 7 3 8 4 9 6 10 5 11 7 12 8 13
REMARK SMILES IDX 9 14 10 15 11 17 12 18 16 19 13 20 14 21 15 22 17 23 23 24
REMARK SMILES IDX 24 25 25 26 26 27 27 28 28 29 89 30 29 31 88 32 30 33 31 34
REMARK SMILES IDX 32 35 82 36 33 37 87 38 81 39 83 40 34 41 86 42 80 43 79 44
REMARK SMILES IDX 35 46 67 47 47 48 66 49 48 50 51 51 65 52 84 53 49 54 50 55
REMARK SMILES IDX 64 57 85 58 52 59 36 60 37 61 45 62 38 63 39 64 43 65 46 66
REMARK SMILES IDX 40 67 41 68 44 69 42 70 68 71 69 72 77 73 70 74 71 75 75 76
REMARK SMILES IDX 78 77 72 78 73 79 76 80 74 81 53 82 54 83 62 84 55 85 56 86
REMARK SMILES IDX 60 87 63 88 57 89 58 90 61 91 59 92
REMARK H PARENT 10 16 83 45 51 56
REMARK Flexibility Score: inf
ROOT
ATOM      1  C   UNL A   1      37.363  21.942  24.120  1.00  0.00     0.275 C 
ENDROOT
BRANCH   1   2
ATOM      2  O   UNL A   1      36.646  23.278  23.976  1.00  0.00    -0.458 OA
BRANCH   2   3
ATOM      3  C   UNL A   1      35.950  23.880  25.056  1.00  0.00     0.343 C 
ATOM      4  O   UNL A   1      36.521  24.447  25.981  1.00  0.00    -0.246 OA
BRANCH   3   5
ATOM      5  C   UNL A   1      34.454  23.750  25.029  1.00  0.00     0.122 A 
ATOM      6  C   UNL A   1      33.808  25.850  23.507  1.00  0.00     0.088 C 
ATOM      7  C   UNL A   1      33.623  24.680  24.393  1.00  0.00     0.117 A 
ATOM      8  O   UNL A   1      32.310  24.412  24.613  1.00  0.00    -0.464 OA
ATOM      9  C   UNL A   1      32.227  23.243  25.280  1.00  0.00     0.122 A 
ATOM     10  C   UNL A   1      33.493  22.696  25.431  1.00  0.00     0.145 A 
ATOM     11  C   UNL A   1      30.851  22.826  25.658  1.00  0.00     0.089 C 
BRANCH  10  12
ATOM     12  S   UNL A   1      33.583  21.061  26.008  1.00  0.00     0.279 S 
ATOM     13  O   UNL A   1      34.825  20.515  25.441  1.00  0.00    -0.200 OA
ATOM     14  O   UNL A   1      33.463  21.185  27.418  1.00  0.00    -0.200 OA
BRANCH  12  15
ATOM     15  N   UNL A   1      32.428  20.013  25.518  1.00  0.00    -0.216 N 
ATOM     16  H   UNL A   1      31.637  19.866  26.087  1.00  0.00     0.202 HD
BRANCH  15  17
ATOM     17  N   UNL A   1      32.537  19.337  24.341  1.00  0.00    -0.256 N 
ATOM     18  C   UNL A   1      32.315  19.763  23.063  1.00  0.00     0.038 A 
ATOM     19  C   UNL A   1      32.705  17.971  24.402  1.00  0.00     0.038 A 
ATOM     20  C   UNL A   1      32.053  21.069  22.387  1.00  0.00     0.067 C 
ATOM     21  C   UNL A   1      32.256  18.606  22.347  1.00  0.00     0.025 A 
ATOM     22  C   UNL A   1      32.431  17.480  23.155  1.00  0.00     0.025 A 
ATOM     23  C   UNL A   1      32.965  17.193  25.639  1.00  0.00     0.067 C 
ENDBRANCH  15  17
ENDBRANCH  12  15
ENDBRANCH  10  12
ENDBRANCH   3   5
ENDBRANCH   2   3
ENDBRANCH   1   2
BRANCH   1  24
ATOM     24  C   UNL A   1      38.095  21.491  25.615  1.00  0.00     0.275 C 
BRANCH  24  25
ATOM     25  O   UNL A   1      39.577  20.871  25.839  1.00  0.00    -0.458 OA
BRANCH  25  26
ATOM     26  C   UNL A   1      40.704  21.655  26.239  1.00  0.00     0.338 C 
ATOM     27  O   UNL A   1      41.802  21.400  25.742  1.00  0.00    -0.246 OA
BRANCH  26  28
ATOM     28  C   UNL A   1      40.649  22.988  27.200  1.00  0.00     0.060 A 
ATOM     29  C   UNL A   1      39.489  23.768  27.246  1.00  0.00     0.016 A 
ATOM     30  C   UNL A   1      41.728  23.741  27.746  1.00  0.00     0.016 A 
ATOM     31  C   UNL A   1      39.424  25.142  27.833  1.00  0.00     0.010 A 
ATOM     32  C   UNL A   1      41.656  25.188  28.320  1.00  0.00     0.010 A 
ATOM     33  C   UNL A   1      40.489  25.979  28.379  1.00  0.00    -0.014 A 
BRANCH  33  34
ATOM     34  C   UNL A   1      40.171  27.638  28.849  1.00  0.00     0.031 A 
ATOM     35  C   UNL A   1      41.378  28.349  28.350  1.00  0.00     0.074 A 
ATOM     36  C   UNL A   1      39.369  28.601  29.566  1.00  0.00     0.049 A 
ATOM     37  N   UNL A   1      42.543  28.047  28.843  1.00  0.00    -0.248 NA
ATOM     38  C   UNL A   1      41.418  29.142  27.123  1.00  0.00     0.031 C 
ATOM     39  C   UNL A   1      38.149  28.387  30.381  1.00  0.00     0.029 A 
ATOM     40  N   UNL A   1      39.477  30.071  29.786  1.00  0.00    -0.354 N 
ATOM     41  C   UNL A   1      43.468  28.777  28.148  1.00  0.00     0.074 A 
ATOM     42  C   UNL A   1      42.740  29.332  27.016  1.00  0.00     0.031 C 
ATOM     43  C   UNL A   1      37.593  29.553  30.857  1.00  0.00     0.029 A 
ATOM     44  C   UNL A   1      38.385  30.744  30.516  1.00  0.00     0.049 A 
ATOM     45  H   UNL A   1      40.253  30.577  29.454  1.00  0.00     0.167 HD
ATOM     46  C   UNL A   1      44.492  29.278  28.890  1.00  0.00     0.037 A 
ATOM     47  C   UNL A   1      38.150  32.084  30.932  1.00  0.00     0.037 A 
ATOM     48  C   UNL A   1      44.311  30.672  29.158  1.00  0.00     0.049 A 
ATOM     49  C   UNL A   1      39.453  32.752  31.073  1.00  0.00     0.074 A 
ATOM     50  C   UNL A   1      43.855  31.725  28.391  1.00  0.00     0.029 A 
ATOM     51  N   UNL A   1      44.125  31.034  30.475  1.00  0.00    -0.354 N 
ATOM     52  N   UNL A   1      40.182  32.551  32.127  1.00  0.00    -0.248 NA
ATOM     53  C   UNL A   1      39.907  33.847  30.215  1.00  0.00     0.031 C 
ATOM     54  C   UNL A   1      42.914  32.369  29.221  1.00  0.00     0.029 A 
ATOM     55  C   UNL A   1      43.094  31.937  30.531  1.00  0.00     0.049 A 
ATOM     56  H   UNL A   1      44.642  30.700  31.243  1.00  0.00     0.167 HD
ATOM     57  C   UNL A   1      41.391  33.032  31.756  1.00  0.00     0.074 A 
ATOM     58  C   UNL A   1      41.109  34.052  30.764  1.00  0.00     0.031 C 
ATOM     59  C   UNL A   1      42.370  32.096  31.762  1.00  0.00     0.037 A 
BRANCH  46  60
ATOM     60  C   UNL A   1      45.028  28.292  29.896  1.00  0.00     0.064 A 
ATOM     61  C   UNL A   1      46.281  27.719  29.678  1.00  0.00     0.173 A 
ATOM     62  C   UNL A   1      44.264  27.793  30.974  1.00  0.00     0.173 A 
ATOM     63  F   UNL A   1      47.085  28.203  28.719  1.00  0.00    -0.203 F 
ATOM     64  C   UNL A   1      46.715  26.640  30.447  1.00  0.00     0.198 A 
ATOM     65  C   UNL A   1      44.660  26.666  31.682  1.00  0.00     0.198 A 
ATOM     66  F   UNL A   1      43.123  28.396  31.347  1.00  0.00    -0.203 F 
ATOM     67  F   UNL A   1      47.934  26.123  30.243  1.00  0.00    -0.200 F 
ATOM     68  C   UNL A   1      45.886  26.086  31.414  1.00  0.00     0.200 A 
ATOM     69  F   UNL A   1      43.856  26.150  32.621  1.00  0.00    -0.200 F 
ATOM     70  F   UNL A   1      46.281  25.009  32.106  1.00  0.00    -0.200 F 
ENDBRANCH  46  60
BRANCH  47  71
ATOM     71  C   UNL A   1      37.101  33.139  31.561  1.00  0.00     0.064 A 
ATOM     72  C   UNL A   1      36.151  33.868  30.736  1.00  0.00     0.173 A 
ATOM     73  C   UNL A   1      36.687  33.082  32.903  1.00  0.00     0.173 A 
ATOM     74  F   UNL A   1      36.374  34.085  29.434  1.00  0.00    -0.203 F 
ATOM     75  C   UNL A   1      34.900  34.358  31.180  1.00  0.00     0.198 A 
ATOM     76  C   UNL A   1      35.444  33.622  33.358  1.00  0.00     0.198 A 
ATOM     77  F   UNL A   1      37.431  32.419  33.797  1.00  0.00    -0.203 F 
ATOM     78  F   UNL A   1      34.031  34.896  30.306  1.00  0.00    -0.200 F 
ATOM     79  C   UNL A   1      34.539  34.222  32.495  1.00  0.00     0.200 A 
ATOM     80  F   UNL A   1      35.090  33.493  34.647  1.00  0.00    -0.200 F 
ATOM     81  F   UNL A   1      33.331  34.634  32.917  1.00  0.00    -0.200 F 
ENDBRANCH  47  71
BRANCH  59  82
ATOM     82  C   UNL A   1      42.380  31.143  32.955  1.00  0.00     0.064 A 
ATOM     83  C   UNL A   1      41.607  29.962  33.108  1.00  0.00     0.173 A 
ATOM     84  C   UNL A   1      43.146  31.512  34.066  1.00  0.00     0.173 A 
ATOM     85  F   UNL A   1      40.919  29.420  32.096  1.00  0.00    -0.203 F 
ATOM     86  C   UNL A   1      41.529  29.275  34.322  1.00  0.00     0.198 A 
ATOM     87  C   UNL A   1      43.113  30.790  35.261  1.00  0.00     0.198 A 
ATOM     88  F   UNL A   1      43.955  32.580  33.989  1.00  0.00    -0.203 F 
ATOM     89  F   UNL A   1      40.719  28.212  34.443  1.00  0.00    -0.200 F 
ATOM     90  C   UNL A   1      42.283  29.691  35.399  1.00  0.00     0.200 A 
ATOM     91  F   UNL A   1      43.889  31.169  36.284  1.00  0.00    -0.200 F 
ATOM     92  F   UNL A   1      42.225  29.027  36.562  1.00  0.00    -0.200 F 
ENDBRANCH  59  82
ENDBRANCH  33  34
ENDBRANCH  26  28
ENDBRANCH  25  26
ENDBRANCH  24  25
ENDBRANCH   1  24
TORSDOF 14
ENDMDL
