MODEL 1
REMARK VINA RESULT:     -10.5      0.000      0.000
REMARK SMILES CCN(C[C@@H](C)C#N)C(=O)NC[C@@H]1CC[C@H](C(=O)OCCOC(=O)c2ccc(-c3c4nc(c(-c5c(F)c(F)c(F)c(F)c5F)c5ccc([nH]5)c(-c5c(F)c(F)c(F)c(F)c5F)c5nc(c(-c6c(F)c(F)c(F)c(F)c6F)c6ccc3[nH]6)C=C5)C=C4)cc2)O1
REMARK SMILES IDX 17 1 18 2 16 3 13 4 14 5 88 6 15 7 12 8 11 9 9 10 10 11 3 13
REMARK SMILES IDX 2 14 1 15 4 16 5 17 6 18 7 19 8 20 19 21 20 22 21 23 22 24
REMARK SMILES IDX 23 25 24 26 25 27 26 28 87 29 27 30 86 31 28 32 29 33 30 34
REMARK SMILES IDX 80 35 31 36 85 37 79 38 81 39 32 40 84 41 78 42 77 43 33 45
REMARK SMILES IDX 65 46 45 47 64 48 46 49 49 50 63 51 82 52 47 53 48 54 62 56
REMARK SMILES IDX 83 57 50 58 34 59 35 60 43 61 36 62 37 63 41 64 44 65 38 66
REMARK SMILES IDX 39 67 42 68 40 69 66 70 67 71 75 72 68 73 69 74 73 75 76 76
REMARK SMILES IDX 70 77 71 78 74 79 72 80 51 81 52 82 60 83 53 84 54 85 58 86
REMARK SMILES IDX 61 87 55 88 56 89 59 90 57 91
REMARK H PARENT 11 12 81 44 49 55
REMARK Flexibility Score: inf
ROOT
ATOM      1  C   UNL A   1      30.595  27.309  23.567  1.00  0.00     0.335 C 
ATOM      2  O   UNL A   1      31.142  27.382  22.473  1.00  0.00    -0.249 OA
ENDROOT
BRANCH   1   3
ATOM      3  C   UNL A   1      29.694  26.131  23.982  1.00  0.00     0.228 C 
ATOM      4  C   UNL A   1      30.686  24.637  25.471  1.00  0.00     0.138 C 
ATOM      5  C   UNL A   1      31.017  24.202  24.048  1.00  0.00     0.037 C 
ATOM      6  O   UNL A   1      29.839  25.798  25.362  1.00  0.00    -0.361 OA
ATOM      7  C   UNL A   1      29.940  24.840  23.226  1.00  0.00     0.047 C 
BRANCH   4   8
ATOM      8  C   UNL A   1      31.909  25.023  26.318  1.00  0.00     0.149 C 
BRANCH   8   9
ATOM      9  N   UNL A   1      32.451  23.897  27.065  1.00  0.00    -0.335 N 
ATOM     10  C   UNL A   1      33.356  22.919  26.922  1.00  0.00     0.317 C 
ATOM     11  O   UNL A   1      33.493  22.192  27.912  1.00  0.00    -0.249 OA
ATOM     12  H   UNL A   1      32.019  23.835  27.948  1.00  0.00     0.165 HD
BRANCH  10  13
ATOM     13  N   UNL A   1      34.066  22.701  25.776  1.00  0.00    -0.324 N 
BRANCH  13  14
ATOM     14  C   UNL A   1      33.990  21.346  25.203  1.00  0.00     0.118 C 
ATOM     15  C   UNL A   1      33.119  21.287  23.955  1.00  0.00     0.027 C 
ENDBRANCH  13  14
BRANCH  13  16
ATOM     16  C   UNL A   1      34.840  23.671  25.008  1.00  0.00     0.139 C 
BRANCH  16  17
ATOM     17  C   UNL A   1      36.254  23.193  24.661  1.00  0.00     0.109 C 
ATOM     18  C   UNL A   1      36.658  22.880  23.233  1.00  0.00     0.026 C 
BRANCH  17  19
ATOM     19  C   UNL A   1      37.306  23.675  25.648  1.00  0.00     0.067 C 
ATOM     20  N   UNL A   1      38.178  24.074  26.466  1.00  0.00    -0.198 NA
ENDBRANCH  17  19
ENDBRANCH  16  17
ENDBRANCH  13  16
ENDBRANCH  10  13
ENDBRANCH   8   9
ENDBRANCH   4   8
ENDBRANCH   1   3
BRANCH   1  21
ATOM     21  O   UNL A   1      30.698  28.245  24.553  1.00  0.00    -0.460 OA
BRANCH  21  22
ATOM     22  C   UNL A   1      31.888  29.058  24.554  1.00  0.00     0.274 C 
BRANCH  22  23
ATOM     23  C   UNL A   1      31.907  29.912  25.823  1.00  0.00     0.275 C 
BRANCH  23  24
ATOM     24  O   UNL A   1      33.244  30.406  26.021  1.00  0.00    -0.458 OA
BRANCH  24  25
ATOM     25  C   UNL A   1      33.392  31.354  26.977  1.00  0.00     0.338 C 
ATOM     26  O   UNL A   1      32.608  32.226  27.298  1.00  0.00    -0.246 OA
BRANCH  25  27
ATOM     27  C   UNL A   1      34.672  31.109  27.664  1.00  0.00     0.060 A 
ATOM     28  C   UNL A   1      34.940  29.823  28.127  1.00  0.00     0.016 A 
ATOM     29  C   UNL A   1      35.568  32.140  27.914  1.00  0.00     0.016 A 
ATOM     30  C   UNL A   1      36.095  29.541  28.845  1.00  0.00     0.010 A 
ATOM     31  C   UNL A   1      36.758  31.854  28.597  1.00  0.00     0.010 A 
ATOM     32  C   UNL A   1      37.026  30.554  29.072  1.00  0.00    -0.014 A 
BRANCH  32  33
ATOM     33  C   UNL A   1      38.248  30.266  29.860  1.00  0.00     0.031 A 
ATOM     34  C   UNL A   1      39.300  29.368  29.283  1.00  0.00     0.074 A 
ATOM     35  C   UNL A   1      38.428  30.825  31.072  1.00  0.00     0.049 A 
ATOM     36  N   UNL A   1      40.330  28.816  29.870  1.00  0.00    -0.248 NA
ATOM     37  C   UNL A   1      39.170  29.041  27.854  1.00  0.00     0.031 C 
ATOM     38  C   UNL A   1      37.522  31.782  31.709  1.00  0.00     0.029 A 
ATOM     39  N   UNL A   1      39.436  30.660  31.989  1.00  0.00    -0.354 N 
ATOM     40  C   UNL A   1      40.933  28.026  28.901  1.00  0.00     0.074 A 
ATOM     41  C   UNL A   1      40.169  28.187  27.682  1.00  0.00     0.031 C 
ATOM     42  C   UNL A   1      38.016  32.122  32.910  1.00  0.00     0.029 A 
ATOM     43  C   UNL A   1      39.229  31.350  33.159  1.00  0.00     0.049 A 
ATOM     44  H   UNL A   1      40.229  30.102  31.824  1.00  0.00     0.167 HD
ATOM     45  C   UNL A   1      42.019  27.230  29.030  1.00  0.00     0.037 A 
ATOM     46  C   UNL A   1      39.911  31.318  34.321  1.00  0.00     0.037 A 
ATOM     47  C   UNL A   1      42.804  27.121  30.231  1.00  0.00     0.049 A 
ATOM     48  C   UNL A   1      41.098  30.404  34.448  1.00  0.00     0.074 A 
ATOM     49  C   UNL A   1      43.930  26.350  30.461  1.00  0.00     0.029 A 
ATOM     50  N   UNL A   1      42.550  27.820  31.402  1.00  0.00    -0.354 N 
ATOM     51  N   UNL A   1      41.624  29.603  33.553  1.00  0.00    -0.248 NA
ATOM     52  C   UNL A   1      41.773  30.370  35.753  1.00  0.00     0.031 C 
ATOM     53  C   UNL A   1      44.341  26.561  31.782  1.00  0.00     0.029 A 
ATOM     54  C   UNL A   1      43.492  27.490  32.362  1.00  0.00     0.049 A 
ATOM     55  H   UNL A   1      41.810  28.455  31.531  1.00  0.00     0.167 HD
ATOM     56  C   UNL A   1      42.687  28.973  34.182  1.00  0.00     0.074 A 
ATOM     57  C   UNL A   1      42.750  29.504  35.529  1.00  0.00     0.031 C 
ATOM     58  C   UNL A   1      43.532  28.032  33.694  1.00  0.00     0.037 A 
BRANCH  45  59
ATOM     59  C   UNL A   1      42.396  26.376  27.859  1.00  0.00     0.064 A 
ATOM     60  C   UNL A   1      41.832  25.110  27.649  1.00  0.00     0.173 A 
ATOM     61  C   UNL A   1      43.313  26.856  26.911  1.00  0.00     0.173 A 
ATOM     62  F   UNL A   1      40.966  24.602  28.537  1.00  0.00    -0.203 F 
ATOM     63  C   UNL A   1      42.183  24.349  26.536  1.00  0.00     0.198 A 
ATOM     64  C   UNL A   1      43.646  26.102  25.790  1.00  0.00     0.198 A 
ATOM     65  F   UNL A   1      43.882  28.060  27.070  1.00  0.00    -0.203 F 
ATOM     66  F   UNL A   1      41.659  23.127  26.371  1.00  0.00    -0.200 F 
ATOM     67  C   UNL A   1      43.082  24.848  25.605  1.00  0.00     0.200 A 
ATOM     68  F   UNL A   1      44.509  26.588  24.888  1.00  0.00    -0.200 F 
ATOM     69  F   UNL A   1      43.413  24.116  24.532  1.00  0.00    -0.200 F 
ENDBRANCH  45  59
BRANCH  46  70
ATOM     70  C   UNL A   1      39.445  32.128  35.476  1.00  0.00     0.064 A 
ATOM     71  C   UNL A   1      39.852  33.459  35.638  1.00  0.00     0.173 A 
ATOM     72  C   UNL A   1      38.591  31.583  36.447  1.00  0.00     0.173 A 
ATOM     73  F   UNL A   1      40.692  34.015  34.753  1.00  0.00    -0.203 F 
ATOM     74  C   UNL A   1      39.429  34.211  36.734  1.00  0.00     0.198 A 
ATOM     75  C   UNL A   1      38.147  32.344  37.526  1.00  0.00     0.198 A 
ATOM     76  F   UNL A   1      38.179  30.312  36.341  1.00  0.00    -0.203 F 
ATOM     77  F   UNL A   1      39.867  35.468  36.888  1.00  0.00    -0.200 F 
ATOM     78  C   UNL A   1      38.571  33.656  37.671  1.00  0.00     0.200 A 
ATOM     79  F   UNL A   1      37.311  31.806  38.424  1.00  0.00    -0.200 F 
ATOM     80  F   UNL A   1      38.162  34.381  38.722  1.00  0.00    -0.200 F 
ENDBRANCH  46  70
BRANCH  58  81
ATOM     81  C   UNL A   1      44.599  27.530  34.618  1.00  0.00     0.064 A 
ATOM     82  C   UNL A   1      45.828  28.196  34.741  1.00  0.00     0.173 A 
ATOM     83  C   UNL A   1      44.376  26.399  35.415  1.00  0.00     0.173 A 
ATOM     84  F   UNL A   1      46.090  29.274  33.987  1.00  0.00    -0.203 F 
ATOM     85  C   UNL A   1      46.805  27.731  35.618  1.00  0.00     0.198 A 
ATOM     86  C   UNL A   1      45.347  25.951  36.306  1.00  0.00     0.198 A 
ATOM     87  F   UNL A   1      43.214  25.733  35.334  1.00  0.00    -0.203 F 
ATOM     88  F   UNL A   1      47.987  28.359  35.693  1.00  0.00    -0.200 F 
ATOM     89  C   UNL A   1      46.562  26.614  36.403  1.00  0.00     0.200 A 
ATOM     90  F   UNL A   1      45.109  24.876  37.071  1.00  0.00    -0.200 F 
ATOM     91  F   UNL A   1      47.502  26.172  37.249  1.00  0.00    -0.200 F 
ENDBRANCH  58  81
ENDBRANCH  32  33
ENDBRANCH  25  27
ENDBRANCH  24  25
ENDBRANCH  23  24
ENDBRANCH  22  23
ENDBRANCH  21  22
ENDBRANCH   1  21
TORSDOF 18
ENDMDL
MODEL 2
REMARK VINA RESULT:     -10.5      1.221      2.228
REMARK SMILES CCN(C[C@@H](C)C#N)C(=O)NC[C@@H]1CC[C@H](C(=O)OCCOC(=O)c2ccc(-c3c4nc(c(-c5c(F)c(F)c(F)c(F)c5F)c5ccc([nH]5)c(-c5c(F)c(F)c(F)c(F)c5F)c5nc(c(-c6c(F)c(F)c(F)c(F)c6F)c6ccc3[nH]6)C=C5)C=C4)cc2)O1
REMARK SMILES IDX 17 1 18 2 16 3 13 4 14 5 88 6 15 7 12 8 11 9 9 10 10 11 3 13
REMARK SMILES IDX 2 14 1 15 4 16 5 17 6 18 7 19 8 20 19 21 20 22 21 23 22 24
REMARK SMILES IDX 23 25 24 26 25 27 26 28 87 29 27 30 86 31 28 32 29 33 30 34
REMARK SMILES IDX 80 35 31 36 85 37 79 38 81 39 32 40 84 41 78 42 77 43 33 45
REMARK SMILES IDX 65 46 45 47 64 48 46 49 49 50 63 51 82 52 47 53 48 54 62 56
REMARK SMILES IDX 83 57 50 58 34 59 35 60 43 61 36 62 37 63 41 64 44 65 38 66
REMARK SMILES IDX 39 67 42 68 40 69 66 70 67 71 75 72 68 73 69 74 73 75 76 76
REMARK SMILES IDX 70 77 71 78 74 79 72 80 51 81 52 82 60 83 53 84 54 85 58 86
REMARK SMILES IDX 61 87 55 88 56 89 59 90 57 91
REMARK H PARENT 11 12 81 44 49 55
REMARK Flexibility Score: inf
ROOT
ATOM      1  C   UNL A   1      31.000  27.214  25.778  1.00  0.00     0.335 C 
ATOM      2  O   UNL A   1      30.674  26.285  26.509  1.00  0.00    -0.249 OA
ENDROOT
BRANCH   1   3
ATOM      3  C   UNL A   1      30.296  27.525  24.444  1.00  0.00     0.228 C 
ATOM      4  C   UNL A   1      30.547  25.878  22.815  1.00  0.00     0.138 C 
ATOM      5  C   UNL A   1      31.714  26.853  22.708  1.00  0.00     0.037 C 
ATOM      6  O   UNL A   1      29.693  26.368  23.867  1.00  0.00    -0.361 OA
ATOM      7  C   UNL A   1      31.194  28.095  23.364  1.00  0.00     0.047 C 
BRANCH   4   8
ATOM      8  C   UNL A   1      30.952  24.438  23.168  1.00  0.00     0.149 C 
BRANCH   8   9
ATOM      9  N   UNL A   1      32.182  24.025  22.506  1.00  0.00    -0.335 N 
ATOM     10  C   UNL A   1      33.384  23.518  22.813  1.00  0.00     0.317 C 
ATOM     11  O   UNL A   1      34.111  23.286  21.842  1.00  0.00    -0.249 OA
ATOM     12  H   UNL A   1      32.106  24.158  21.534  1.00  0.00     0.165 HD
BRANCH  10  13
ATOM     13  N   UNL A   1      33.810  23.291  24.091  1.00  0.00    -0.324 N 
BRANCH  13  14
ATOM     14  C   UNL A   1      34.793  24.245  24.635  1.00  0.00     0.118 C 
ATOM     15  C   UNL A   1      34.165  25.583  25.005  1.00  0.00     0.027 C 
ENDBRANCH  13  14
BRANCH  13  16
ATOM     16  C   UNL A   1      33.358  22.254  25.012  1.00  0.00     0.139 C 
BRANCH  16  17
ATOM     17  C   UNL A   1      33.989  20.882  24.751  1.00  0.00     0.109 C 
ATOM     18  C   UNL A   1      35.461  20.624  25.011  1.00  0.00     0.026 C 
BRANCH  17  19
ATOM     19  C   UNL A   1      32.997  19.736  24.866  1.00  0.00     0.067 C 
ATOM     20  N   UNL A   1      32.174  18.785  24.962  1.00  0.00    -0.198 NA
ENDBRANCH  17  19
ENDBRANCH  16  17
ENDBRANCH  13  16
ENDBRANCH  10  13
ENDBRANCH   8   9
ENDBRANCH   4   8
ENDBRANCH   1   3
BRANCH   1  21
ATOM     21  O   UNL A   1      32.016  28.086  26.034  1.00  0.00    -0.460 OA
BRANCH  21  22
ATOM     22  C   UNL A   1      31.786  29.067  27.065  1.00  0.00     0.274 C 
BRANCH  22  23
ATOM     23  C   UNL A   1      31.793  30.461  26.437  1.00  0.00     0.275 C 
BRANCH  23  24
ATOM     24  O   UNL A   1      33.152  30.932  26.386  1.00  0.00    -0.458 OA
BRANCH  24  25
ATOM     25  C   UNL A   1      33.462  31.946  27.228  1.00  0.00     0.338 C 
ATOM     26  O   UNL A   1      32.812  32.944  27.473  1.00  0.00    -0.246 OA
BRANCH  25  27
ATOM     27  C   UNL A   1      34.727  31.606  27.902  1.00  0.00     0.060 A 
ATOM     28  C   UNL A   1      34.864  30.333  28.451  1.00  0.00     0.016 A 
ATOM     29  C   UNL A   1      35.740  32.542  28.056  1.00  0.00     0.016 A 
ATOM     30  C   UNL A   1      36.001  29.972  29.161  1.00  0.00     0.010 A 
ATOM     31  C   UNL A   1      36.911  32.172  28.731  1.00  0.00     0.010 A 
ATOM     32  C   UNL A   1      37.046  30.885  29.292  1.00  0.00    -0.014 A 
BRANCH  32  33
ATOM     33  C   UNL A   1      38.252  30.516  30.071  1.00  0.00     0.031 A 
ATOM     34  C   UNL A   1      39.270  29.602  29.460  1.00  0.00     0.074 A 
ATOM     35  C   UNL A   1      38.448  31.015  31.307  1.00  0.00     0.049 A 
ATOM     36  N   UNL A   1      40.274  28.985  30.026  1.00  0.00    -0.248 NA
ATOM     37  C   UNL A   1      39.135  29.341  28.018  1.00  0.00     0.031 C 
ATOM     38  C   UNL A   1      37.578  31.980  31.981  1.00  0.00     0.029 A 
ATOM     39  N   UNL A   1      39.444  30.771  32.219  1.00  0.00    -0.354 N 
ATOM     40  C   UNL A   1      40.851  28.214  29.027  1.00  0.00     0.074 A 
ATOM     41  C   UNL A   1      40.100  28.456  27.814  1.00  0.00     0.031 C 
ATOM     42  C   UNL A   1      38.079  32.248  33.197  1.00  0.00     0.029 A 
ATOM     43  C   UNL A   1      39.259  31.418  33.417  1.00  0.00     0.049 A 
ATOM     44  H   UNL A   1      40.216  30.189  32.034  1.00  0.00     0.167 HD
ATOM     45  C   UNL A   1      41.904  27.370  29.125  1.00  0.00     0.037 A 
ATOM     46  C   UNL A   1      39.933  31.310  34.579  1.00  0.00     0.037 A 
ATOM     47  C   UNL A   1      42.678  27.179  30.322  1.00  0.00     0.049 A 
ATOM     48  C   UNL A   1      41.083  30.345  34.670  1.00  0.00     0.074 A 
ATOM     49  C   UNL A   1      43.771  26.355  30.523  1.00  0.00     0.029 A 
ATOM     50  N   UNL A   1      42.446  27.837  31.522  1.00  0.00    -0.354 N 
ATOM     51  N   UNL A   1      41.581  29.562  33.743  1.00  0.00    -0.248 NA
ATOM     52  C   UNL A   1      41.749  30.228  35.975  1.00  0.00     0.031 C 
ATOM     53  C   UNL A   1      44.184  26.493  31.853  1.00  0.00     0.029 A 
ATOM     54  C   UNL A   1      43.369  27.429  32.470  1.00  0.00     0.049 A 
ATOM     55  H   UNL A   1      41.731  28.495  31.675  1.00  0.00     0.167 HD
ATOM     56  C   UNL A   1      42.615  28.865  34.349  1.00  0.00     0.074 A 
ATOM     57  C   UNL A   1      42.693  29.334  35.717  1.00  0.00     0.031 C 
ATOM     58  C   UNL A   1      43.424  27.912  33.824  1.00  0.00     0.037 A 
BRANCH  45  59
ATOM     59  C   UNL A   1      42.252  26.552  27.919  1.00  0.00     0.064 A 
ATOM     60  C   UNL A   1      43.207  26.973  26.985  1.00  0.00     0.173 A 
ATOM     61  C   UNL A   1      41.638  25.305  27.720  1.00  0.00     0.173 A 
ATOM     62  F   UNL A   1      43.806  28.165  27.122  1.00  0.00    -0.203 F 
ATOM     63  C   UNL A   1      43.528  26.179  25.886  1.00  0.00     0.198 A 
ATOM     64  C   UNL A   1      41.975  24.506  26.633  1.00  0.00     0.198 A 
ATOM     65  F   UNL A   1      40.714  24.862  28.587  1.00  0.00    -0.203 F 
ATOM     66  F   UNL A   1      44.419  26.614  24.985  1.00  0.00    -0.200 F 
ATOM     67  C   UNL A   1      42.918  24.945  25.715  1.00  0.00     0.200 A 
ATOM     68  F   UNL A   1      41.391  23.311  26.474  1.00  0.00    -0.200 F 
ATOM     69  F   UNL A   1      43.233  24.179  24.661  1.00  0.00    -0.200 F 
ENDBRANCH  45  59
BRANCH  46  70
ATOM     70  C   UNL A   1      39.495  32.088  35.766  1.00  0.00     0.064 A 
ATOM     71  C   UNL A   1      40.082  33.320  36.082  1.00  0.00     0.173 A 
ATOM     72  C   UNL A   1      38.484  31.609  36.614  1.00  0.00     0.173 A 
ATOM     73  F   UNL A   1      41.073  33.805  35.319  1.00  0.00    -0.203 F 
ATOM     74  C   UNL A   1      39.682  34.039  37.208  1.00  0.00     0.198 A 
ATOM     75  C   UNL A   1      38.066  32.342  37.723  1.00  0.00     0.198 A 
ATOM     76  F   UNL A   1      37.895  30.433  36.359  1.00  0.00    -0.203 F 
ATOM     77  F   UNL A   1      40.290  35.194  37.512  1.00  0.00    -0.200 F 
ATOM     78  C   UNL A   1      38.670  33.554  38.022  1.00  0.00     0.200 A 
ATOM     79  F   UNL A   1      37.081  31.874  38.501  1.00  0.00    -0.200 F 
ATOM     80  F   UNL A   1      38.283  34.248  39.101  1.00  0.00    -0.200 F 
ENDBRANCH  46  70
BRANCH  58  81
ATOM     81  C   UNL A   1      44.466  27.329  34.729  1.00  0.00     0.064 A 
ATOM     82  C   UNL A   1      45.723  27.935  34.878  1.00  0.00     0.173 A 
ATOM     83  C   UNL A   1      44.192  26.179  35.482  1.00  0.00     0.173 A 
ATOM     84  F   UNL A   1      46.034  29.028  34.165  1.00  0.00    -0.203 F 
ATOM     85  C   UNL A   1      46.676  27.395  35.737  1.00  0.00     0.198 A 
ATOM     86  C   UNL A   1      45.140  25.656  36.356  1.00  0.00     0.198 A 
ATOM     87  F   UNL A   1      43.002  25.569  35.375  1.00  0.00    -0.203 F 
ATOM     88  F   UNL A   1      47.884  27.967  35.837  1.00  0.00    -0.200 F 
ATOM     89  C   UNL A   1      46.382  26.261  36.479  1.00  0.00     0.200 A 
ATOM     90  F   UNL A   1      44.853  24.565  37.080  1.00  0.00    -0.200 F 
ATOM     91  F   UNL A   1      47.300  25.746  37.309  1.00  0.00    -0.200 F 
ENDBRANCH  58  81
ENDBRANCH  32  33
ENDBRANCH  25  27
ENDBRANCH  24  25
ENDBRANCH  23  24
ENDBRANCH  22  23
ENDBRANCH  21  22
ENDBRANCH   1  21
TORSDOF 18
ENDMDL
MODEL 3
REMARK VINA RESULT:     -10.3      1.276      2.812
REMARK SMILES CCN(C[C@@H](C)C#N)C(=O)NC[C@@H]1CC[C@H](C(=O)OCCOC(=O)c2ccc(-c3c4nc(c(-c5c(F)c(F)c(F)c(F)c5F)c5ccc([nH]5)c(-c5c(F)c(F)c(F)c(F)c5F)c5nc(c(-c6c(F)c(F)c(F)c(F)c6F)c6ccc3[nH]6)C=C5)C=C4)cc2)O1
REMARK SMILES IDX 17 1 18 2 16 3 13 4 14 5 88 6 15 7 12 8 11 9 9 10 10 11 3 13
REMARK SMILES IDX 2 14 1 15 4 16 5 17 6 18 7 19 8 20 19 21 20 22 21 23 22 24
REMARK SMILES IDX 23 25 24 26 25 27 26 28 87 29 27 30 86 31 28 32 29 33 30 34
REMARK SMILES IDX 80 35 31 36 85 37 79 38 81 39 32 40 84 41 78 42 77 43 33 45
REMARK SMILES IDX 65 46 45 47 64 48 46 49 49 50 63 51 82 52 47 53 48 54 62 56
REMARK SMILES IDX 83 57 50 58 34 59 35 60 43 61 36 62 37 63 41 64 44 65 38 66
REMARK SMILES IDX 39 67 42 68 40 69 66 70 67 71 75 72 68 73 69 74 73 75 76 76
REMARK SMILES IDX 70 77 71 78 74 79 72 80 51 81 52 82 60 83 53 84 54 85 58 86
REMARK SMILES IDX 61 87 55 88 56 89 59 90 57 91
REMARK H PARENT 11 12 81 44 49 55
REMARK Flexibility Score: inf
ROOT
ATOM      1  C   UNL A   1      30.813  26.646  25.455  1.00  0.00     0.335 C 
ATOM      2  O   UNL A   1      30.320  26.087  26.428  1.00  0.00    -0.249 OA
ENDROOT
BRANCH   1   3
ATOM      3  C   UNL A   1      30.350  26.386  24.009  1.00  0.00     0.228 C 
ATOM      4  C   UNL A   1      30.956  24.300  23.163  1.00  0.00     0.138 C 
ATOM      5  C   UNL A   1      32.084  25.288  22.885  1.00  0.00     0.037 C 
ATOM      6  O   UNL A   1      29.908  25.043  23.815  1.00  0.00    -0.361 OA
ATOM      7  C   UNL A   1      31.407  26.621  22.947  1.00  0.00     0.047 C 
BRANCH   4   8
ATOM      8  C   UNL A   1      31.347  23.131  24.081  1.00  0.00     0.149 C 
BRANCH   8   9
ATOM      9  N   UNL A   1      32.757  22.783  23.976  1.00  0.00    -0.335 N 
ATOM     10  C   UNL A   1      33.615  21.857  24.425  1.00  0.00     0.317 C 
ATOM     11  O   UNL A   1      34.768  21.968  23.995  1.00  0.00    -0.249 OA
ATOM     12  H   UNL A   1      33.223  23.426  23.394  1.00  0.00     0.165 HD
BRANCH  10  13
ATOM     13  N   UNL A   1      33.277  20.873  25.309  1.00  0.00    -0.324 N 
BRANCH  13  14
ATOM     14  C   UNL A   1      33.752  21.043  26.695  1.00  0.00     0.118 C 
ATOM     15  C   UNL A   1      33.256  22.336  27.327  1.00  0.00     0.027 C 
ENDBRANCH  13  14
BRANCH  13  16
ATOM     16  C   UNL A   1      32.442  19.701  25.066  1.00  0.00     0.139 C 
BRANCH  16  17
ATOM     17  C   UNL A   1      33.184  18.548  24.382  1.00  0.00     0.109 C 
ATOM     18  C   UNL A   1      33.846  17.444  25.183  1.00  0.00     0.026 C 
BRANCH  17  19
ATOM     19  C   UNL A   1      32.664  18.250  22.984  1.00  0.00     0.067 C 
ATOM     20  N   UNL A   1      32.233  18.003  21.825  1.00  0.00    -0.198 NA
ENDBRANCH  17  19
ENDBRANCH  16  17
ENDBRANCH  13  16
ENDBRANCH  10  13
ENDBRANCH   8   9
ENDBRANCH   4   8
ENDBRANCH   1   3
BRANCH   1  21
ATOM     21  O   UNL A   1      31.824  27.558  25.511  1.00  0.00    -0.460 OA
BRANCH  21  22
ATOM     22  C   UNL A   1      31.793  28.496  26.605  1.00  0.00     0.274 C 
BRANCH  22  23
ATOM     23  C   UNL A   1      31.807  29.918  26.043  1.00  0.00     0.275 C 
BRANCH  23  24
ATOM     24  O   UNL A   1      33.154  30.420  26.103  1.00  0.00    -0.458 OA
BRANCH  24  25
ATOM     25  C   UNL A   1      33.373  31.432  26.977  1.00  0.00     0.338 C 
ATOM     26  O   UNL A   1      32.643  32.366  27.243  1.00  0.00    -0.246 OA
BRANCH  25  27
ATOM     27  C   UNL A   1      34.655  31.175  27.655  1.00  0.00     0.060 A 
ATOM     28  C   UNL A   1      34.924  29.882  28.099  1.00  0.00     0.016 A 
ATOM     29  C   UNL A   1      35.554  32.200  27.916  1.00  0.00     0.016 A 
ATOM     30  C   UNL A   1      36.081  29.588  28.808  1.00  0.00     0.010 A 
ATOM     31  C   UNL A   1      36.746  31.904  28.590  1.00  0.00     0.010 A 
ATOM     32  C   UNL A   1      37.014  30.596  29.045  1.00  0.00    -0.014 A 
BRANCH  32  33
ATOM     33  C   UNL A   1      38.239  30.296  29.824  1.00  0.00     0.031 A 
ATOM     34  C   UNL A   1      39.284  29.398  29.234  1.00  0.00     0.074 A 
ATOM     35  C   UNL A   1      38.428  30.843  31.041  1.00  0.00     0.049 A 
ATOM     36  N   UNL A   1      40.314  28.836  29.810  1.00  0.00    -0.248 NA
ATOM     37  C   UNL A   1      39.146  29.085  27.803  1.00  0.00     0.031 C 
ATOM     38  C   UNL A   1      37.531  31.798  31.691  1.00  0.00     0.029 A 
ATOM     39  N   UNL A   1      39.440  30.664  31.951  1.00  0.00    -0.354 N 
ATOM     40  C   UNL A   1      40.909  28.053  28.831  1.00  0.00     0.074 A 
ATOM     41  C   UNL A   1      40.139  28.228  27.618  1.00  0.00     0.031 C 
ATOM     42  C   UNL A   1      38.032  32.124  32.893  1.00  0.00     0.029 A 
ATOM     43  C   UNL A   1      39.243  31.345  33.128  1.00  0.00     0.049 A 
ATOM     44  H   UNL A   1      40.230  30.104  31.777  1.00  0.00     0.167 HD
ATOM     45  C   UNL A   1      41.992  27.251  28.947  1.00  0.00     0.037 A 
ATOM     46  C   UNL A   1      39.930  31.299  34.286  1.00  0.00     0.037 A 
ATOM     47  C   UNL A   1      42.783  27.127  30.142  1.00  0.00     0.049 A 
ATOM     48  C   UNL A   1      41.114  30.378  34.398  1.00  0.00     0.074 A 
ATOM     49  C   UNL A   1      43.906  26.349  30.359  1.00  0.00     0.029 A 
ATOM     50  N   UNL A   1      42.538  27.816  31.321  1.00  0.00    -0.354 N 
ATOM     51  N   UNL A   1      41.632  29.583  33.493  1.00  0.00    -0.248 NA
ATOM     52  C   UNL A   1      41.796  30.329  35.699  1.00  0.00     0.031 C 
ATOM     53  C   UNL A   1      44.326  26.546  31.679  1.00  0.00     0.029 A 
ATOM     54  C   UNL A   1      43.484  27.472  32.273  1.00  0.00     0.049 A 
ATOM     55  H   UNL A   1      41.802  28.453  31.460  1.00  0.00     0.167 HD
ATOM     56  C   UNL A   1      42.695  28.943  34.111  1.00  0.00     0.074 A 
ATOM     57  C   UNL A   1      42.768  29.461  35.462  1.00  0.00     0.031 C 
ATOM     58  C   UNL A   1      43.533  28.002  33.610  1.00  0.00     0.037 A 
BRANCH  45  59
ATOM     59  C   UNL A   1      42.358  26.406  27.765  1.00  0.00     0.064 A 
ATOM     60  C   UNL A   1      43.324  26.808  26.833  1.00  0.00     0.173 A 
ATOM     61  C   UNL A   1      41.752  25.152  27.588  1.00  0.00     0.173 A 
ATOM     62  F   UNL A   1      43.916  28.005  26.949  1.00  0.00    -0.203 F 
ATOM     63  C   UNL A   1      43.661  25.989  25.758  1.00  0.00     0.198 A 
ATOM     64  C   UNL A   1      42.106  24.328  26.525  1.00  0.00     0.198 A 
ATOM     65  F   UNL A   1      40.819  24.725  28.454  1.00  0.00    -0.203 F 
ATOM     66  F   UNL A   1      44.563  26.406  24.858  1.00  0.00    -0.200 F 
ATOM     67  C   UNL A   1      43.059  24.749  25.609  1.00  0.00     0.200 A 
ATOM     68  F   UNL A   1      41.528  23.127  26.387  1.00  0.00    -0.200 F 
ATOM     69  F   UNL A   1      43.390  23.960  24.577  1.00  0.00    -0.200 F 
ENDBRANCH  45  59
BRANCH  46  70
ATOM     70  C   UNL A   1      39.475  32.100  35.451  1.00  0.00     0.064 A 
ATOM     71  C   UNL A   1      38.628  31.550  36.422  1.00  0.00     0.173 A 
ATOM     72  C   UNL A   1      39.870  33.438  35.611  1.00  0.00     0.173 A 
ATOM     73  F   UNL A   1      38.199  30.285  36.297  1.00  0.00    -0.203 F 
ATOM     74  C   UNL A   1      38.186  32.310  37.504  1.00  0.00     0.198 A 
ATOM     75  C   UNL A   1      39.450  34.187  36.708  1.00  0.00     0.198 A 
ATOM     76  F   UNL A   1      40.673  34.013  34.706  1.00  0.00    -0.203 F 
ATOM     77  F   UNL A   1      37.343  31.772  38.396  1.00  0.00    -0.200 F 
ATOM     78  C   UNL A   1      38.603  33.624  37.650  1.00  0.00     0.200 A 
ATOM     79  F   UNL A   1      39.864  35.453  36.849  1.00  0.00    -0.200 F 
ATOM     80  F   UNL A   1      38.182  34.352  38.694  1.00  0.00    -0.200 F 
ENDBRANCH  46  70
BRANCH  58  81
ATOM     81  C   UNL A   1      44.603  27.487  34.523  1.00  0.00     0.064 A 
ATOM     82  C   UNL A   1      44.408  26.332  35.295  1.00  0.00     0.173 A 
ATOM     83  C   UNL A   1      45.845  28.131  34.598  1.00  0.00     0.173 A 
ATOM     84  F   UNL A   1      43.229  25.692  35.267  1.00  0.00    -0.203 F 
ATOM     85  C   UNL A   1      45.417  25.851  36.125  1.00  0.00     0.198 A 
ATOM     86  C   UNL A   1      46.859  27.635  35.412  1.00  0.00     0.198 A 
ATOM     87  F   UNL A   1      46.079  29.236  33.874  1.00  0.00    -0.203 F 
ATOM     88  F   UNL A   1      45.198  24.768  36.884  1.00  0.00    -0.200 F 
ATOM     89  C   UNL A   1      46.642  26.499  36.179  1.00  0.00     0.200 A 
ATOM     90  F   UNL A   1      48.046  28.255  35.457  1.00  0.00    -0.200 F 
ATOM     91  F   UNL A   1      47.613  26.032  36.975  1.00  0.00    -0.200 F 
ENDBRANCH  58  81
ENDBRANCH  32  33
ENDBRANCH  25  27
ENDBRANCH  24  25
ENDBRANCH  23  24
ENDBRANCH  22  23
ENDBRANCH  21  22
ENDBRANCH   1  21
TORSDOF 18
ENDMDL
