MODEL 1
REMARK VINA RESULT:     -13.3      0.000      0.000
REMARK SMILES O=C(OCCOC(=O)c1ccccc1Nc1nc(Cl)nc(Nc2ccc(N3CCOCC3=O)cc2)n1)c1ccc(-c2c3nc(c(-c4c(F)c(F)c(F)c(F)c4F)c4ccc([nH]4)c(-c4c(F)c(F)c(F)c(F)c4F)c4nc(c(-c5c(F)c(F)c(F)c(F)c5F)c5ccc2[nH]5)C=C4)C=C3)cc1
REMARK SMILES IDX 6 1 5 2 4 3 3 4 2 5 1 6 37 7 38 8 99 9 39 10 98 11 40 12
REMARK SMILES IDX 41 13 42 14 92 15 43 16 97 17 91 18 93 19 44 20 96 21 90 22
REMARK SMILES IDX 89 23 45 25 77 26 57 27 76 28 58 29 61 30 75 31 94 32 59 33
REMARK SMILES IDX 60 34 74 36 95 37 62 38 46 39 47 40 55 41 48 42 49 43 53 44
REMARK SMILES IDX 56 45 50 46 51 47 54 48 52 49 78 50 79 51 87 52 80 53 81 54
REMARK SMILES IDX 85 55 88 56 82 57 83 58 86 59 84 60 63 61 64 62 72 63 65 64
REMARK SMILES IDX 66 65 70 66 73 67 67 68 68 69 71 70 69 71 7 72 8 73 9 74
REMARK SMILES IDX 10 75 14 76 11 77 13 78 12 79 15 80 16 82 17 83 36 84 18 85
REMARK SMILES IDX 21 86 19 87 20 88 22 89 23 91 24 92 35 93 25 94 34 95 26 96
REMARK SMILES IDX 27 97 28 98 32 99 29 100 31 101 33 102 30 103
REMARK H PARENT 93 24 61 35 15 81 22 90
REMARK Flexibility Score: inf
ROOT
ATOM      1  O   UNL A   1      31.504  28.315  25.606  1.00  0.00    -0.458 OA
ENDROOT
BRANCH   1   2
ATOM      2  C   UNL A   1      32.208  28.933  26.694  1.00  0.00     0.275 C 
BRANCH   2   3
ATOM      3  C   UNL A   1      31.813  30.397  26.889  1.00  0.00     0.275 C 
BRANCH   3   4
ATOM      4  O   UNL A   1      32.889  31.323  26.652  1.00  0.00    -0.458 OA
BRANCH   4   5
ATOM      5  C   UNL A   1      33.719  31.971  27.498  1.00  0.00     0.338 C 
ATOM      6  O   UNL A   1      33.495  33.161  27.725  1.00  0.00    -0.246 OA
BRANCH   5   7
ATOM      7  C   UNL A   1      34.952  31.383  28.130  1.00  0.00     0.060 A 
ATOM      8  C   UNL A   1      35.119  30.071  28.582  1.00  0.00     0.016 A 
ATOM      9  C   UNL A   1      36.050  32.259  28.271  1.00  0.00     0.016 A 
ATOM     10  C   UNL A   1      36.331  29.643  29.137  1.00  0.00     0.010 A 
ATOM     11  C   UNL A   1      37.264  31.839  28.825  1.00  0.00     0.010 A 
ATOM     12  C   UNL A   1      37.405  30.526  29.274  1.00  0.00    -0.014 A 
BRANCH  12  13
ATOM     13  C   UNL A   1      38.631  30.078  29.973  1.00  0.00     0.031 A 
ATOM     14  C   UNL A   1      38.871  30.540  31.368  1.00  0.00     0.074 A 
ATOM     15  C   UNL A   1      39.486  29.231  29.375  1.00  0.00     0.049 A 
ATOM     16  N   UNL A   1      39.829  30.206  32.188  1.00  0.00    -0.248 NA
ATOM     17  C   UNL A   1      37.905  31.505  31.914  1.00  0.00     0.031 C 
ATOM     18  C   UNL A   1      39.302  28.732  28.026  1.00  0.00     0.029 A 
ATOM     19  N   UNL A   1      40.640  28.624  29.793  1.00  0.00    -0.354 N 
ATOM     20  C   UNL A   1      39.592  30.929  33.345  1.00  0.00     0.074 A 
ATOM     21  C   UNL A   1      38.407  31.727  33.118  1.00  0.00     0.031 C 
ATOM     22  C   UNL A   1      40.284  27.874  27.718  1.00  0.00     0.029 A 
ATOM     23  C   UNL A   1      41.177  27.764  28.860  1.00  0.00     0.049 A 
ATOM     24  H   UNL A   1      41.048  28.788  30.674  1.00  0.00     0.167 HD
ATOM     25  C   UNL A   1      40.316  30.924  34.486  1.00  0.00     0.037 A 
ATOM     26  C   UNL A   1      42.256  26.962  28.933  1.00  0.00     0.037 A 
ATOM     27  C   UNL A   1      41.509  30.141  34.669  1.00  0.00     0.049 A 
ATOM     28  C   UNL A   1      43.038  26.978  30.219  1.00  0.00     0.074 A 
ATOM     29  C   UNL A   1      42.349  30.086  35.764  1.00  0.00     0.029 A 
ATOM     30  N   UNL A   1      42.038  29.280  33.712  1.00  0.00    -0.354 N 
ATOM     31  N   UNL A   1      42.788  27.638  31.325  1.00  0.00    -0.248 NA
ATOM     32  C   UNL A   1      44.251  26.152  30.274  1.00  0.00     0.031 C 
ATOM     33  C   UNL A   1      43.413  29.233  35.452  1.00  0.00     0.029 A 
ATOM     34  C   UNL A   1      43.210  28.712  34.182  1.00  0.00     0.049 A 
ATOM     35  H   UNL A   1      41.638  29.102  32.831  1.00  0.00     0.167 HD
ATOM     36  C   UNL A   1      43.800  27.306  32.208  1.00  0.00     0.074 A 
ATOM     37  C   UNL A   1      44.649  26.349  31.524  1.00  0.00     0.031 C 
ATOM     38  C   UNL A   1      44.027  27.765  33.464  1.00  0.00     0.037 A 
BRANCH  25  39
ATOM     39  C   UNL A   1      39.864  31.855  35.568  1.00  0.00     0.064 A 
ATOM     40  C   UNL A   1      38.845  31.507  36.467  1.00  0.00     0.173 A 
ATOM     41  C   UNL A   1      40.419  33.139  35.667  1.00  0.00     0.173 A 
ATOM     42  F   UNL A   1      38.259  30.303  36.392  1.00  0.00    -0.203 F 
ATOM     43  C   UNL A   1      38.371  32.426  37.401  1.00  0.00     0.198 A 
ATOM     44  C   UNL A   1      39.962  34.045  36.620  1.00  0.00     0.198 A 
ATOM     45  F   UNL A   1      41.388  33.524  34.824  1.00  0.00    -0.203 F 
ATOM     46  F   UNL A   1      37.347  32.098  38.202  1.00  0.00    -0.200 F 
ATOM     47  C   UNL A   1      38.931  33.693  37.478  1.00  0.00     0.200 A 
ATOM     48  F   UNL A   1      40.505  35.268  36.693  1.00  0.00    -0.200 F 
ATOM     49  F   UNL A   1      38.464  34.581  38.366  1.00  0.00    -0.200 F 
ENDBRANCH  25  39
BRANCH  26  50
ATOM     50  C   UNL A   1      42.637  26.076  27.794  1.00  0.00     0.064 A 
ATOM     51  C   UNL A   1      43.602  26.475  26.857  1.00  0.00     0.173 A 
ATOM     52  C   UNL A   1      42.030  24.825  27.595  1.00  0.00     0.173 A 
ATOM     53  F   UNL A   1      44.208  27.665  26.988  1.00  0.00    -0.203 F 
ATOM     54  C   UNL A   1      43.904  25.689  25.745  1.00  0.00     0.198 A 
ATOM     55  C   UNL A   1      42.369  24.017  26.509  1.00  0.00     0.198 A 
ATOM     56  F   UNL A   1      41.103  24.380  28.455  1.00  0.00    -0.203 F 
ATOM     57  F   UNL A   1      44.755  26.147  24.815  1.00  0.00    -0.200 F 
ATOM     58  C   UNL A   1      43.289  24.460  25.572  1.00  0.00     0.200 A 
ATOM     59  F   UNL A   1      41.786  22.820  26.358  1.00  0.00    -0.200 F 
ATOM     60  F   UNL A   1      43.552  23.716  24.489  1.00  0.00    -0.200 F 
ENDBRANCH  26  50
BRANCH  38  61
ATOM     61  C   UNL A   1      45.246  27.241  34.162  1.00  0.00     0.064 A 
ATOM     62  C   UNL A   1      46.481  27.900  34.061  1.00  0.00     0.173 A 
ATOM     63  C   UNL A   1      45.167  26.103  34.976  1.00  0.00     0.173 A 
ATOM     64  F   UNL A   1      46.606  28.983  33.279  1.00  0.00    -0.203 F 
ATOM     65  C   UNL A   1      47.598  27.426  34.737  1.00  0.00     0.198 A 
ATOM     66  C   UNL A   1      46.281  25.649  35.674  1.00  0.00     0.198 A 
ATOM     67  F   UNL A   1      44.007  25.443  35.107  1.00  0.00    -0.203 F 
ATOM     68  F   UNL A   1      48.779  28.045  34.593  1.00  0.00    -0.200 F 
ATOM     69  C   UNL A   1      47.496  26.307  35.551  1.00  0.00     0.200 A 
ATOM     70  F   UNL A   1      46.178  24.576  36.471  1.00  0.00    -0.200 F 
ATOM     71  F   UNL A   1      48.572  25.859  36.211  1.00  0.00    -0.200 F 
ENDBRANCH  38  61
ENDBRANCH  12  13
ENDBRANCH   5   7
ENDBRANCH   4   5
ENDBRANCH   3   4
ENDBRANCH   2   3
ENDBRANCH   1   2
BRANCH   1  72
ATOM     72  C   UNL A   1      31.680  28.922  24.398  1.00  0.00     0.340 C 
ATOM     73  O   UNL A   1      32.739  29.245  23.901  1.00  0.00    -0.246 OA
BRANCH  72  74
ATOM     74  C   UNL A   1      30.384  29.049  23.694  1.00  0.00     0.083 A 
ATOM     75  C   UNL A   1      29.988  30.354  23.351  1.00  0.00     0.018 A 
ATOM     76  C   UNL A   1      29.574  27.941  23.379  1.00  0.00     0.055 A 
ATOM     77  C   UNL A   1      28.772  30.572  22.711  1.00  0.00     0.001 A 
ATOM     78  C   UNL A   1      28.283  28.210  22.892  1.00  0.00     0.027 A 
ATOM     79  C   UNL A   1      27.905  29.504  22.512  1.00  0.00     0.002 A 
BRANCH  76  80
ATOM     80  N   UNL A   1      30.063  26.622  23.516  1.00  0.00    -0.323 N 
ATOM     81  H   UNL A   1      29.577  26.058  24.160  1.00  0.00     0.170 HD
BRANCH  80  82
ATOM     82  C   UNL A   1      31.130  26.004  22.871  1.00  0.00     0.233 A 
ATOM     83  N   UNL A   1      31.316  26.307  21.597  1.00  0.00    -0.182 NA
ATOM     84  N   UNL A   1      31.896  25.161  23.549  1.00  0.00    -0.176 NA
ATOM     85  C   UNL A   1      32.286  25.608  21.027  1.00  0.00     0.228 A 
ATOM     86  C   UNL A   1      32.917  24.615  22.900  1.00  0.00     0.233 A 
ATOM     87  Cl  UNL A   1      32.428  25.764  19.331  1.00  0.00    -0.041 Cl
ATOM     88  N   UNL A   1      33.117  24.754  21.602  1.00  0.00    -0.182 NA
BRANCH  86  89
ATOM     89  N   UNL A   1      33.732  23.819  23.693  1.00  0.00    -0.324 N 
ATOM     90  H   UNL A   1      34.488  24.314  24.084  1.00  0.00     0.170 HD
BRANCH  89  91
ATOM     91  C   UNL A   1      33.715  22.474  24.055  1.00  0.00     0.041 A 
ATOM     92  C   UNL A   1      32.582  21.723  23.713  1.00  0.00     0.028 A 
ATOM     93  C   UNL A   1      34.788  21.803  24.645  1.00  0.00     0.028 A 
ATOM     94  C   UNL A   1      32.542  20.342  23.904  1.00  0.00     0.028 A 
ATOM     95  C   UNL A   1      34.734  20.421  24.882  1.00  0.00     0.028 A 
ATOM     96  C   UNL A   1      33.625  19.673  24.475  1.00  0.00     0.044 A 
BRANCH  96  97
ATOM     97  N   UNL A   1      33.619  18.252  24.557  1.00  0.00    -0.308 N 
ATOM     98  C   UNL A   1      34.568  17.544  23.686  1.00  0.00     0.154 C 
ATOM     99  C   UNL A   1      33.014  17.583  25.627  1.00  0.00     0.253 C 
ATOM    100  C   UNL A   1      34.279  16.055  23.567  1.00  0.00     0.183 C 
ATOM    101  C   UNL A   1      33.144  16.049  25.599  1.00  0.00     0.260 C 
ATOM    102  O   UNL A   1      32.312  18.124  26.485  1.00  0.00    -0.272 OA
ATOM    103  O   UNL A   1      34.222  15.482  24.870  1.00  0.00    -0.370 OA
ENDBRANCH  96  97
ENDBRANCH  89  91
ENDBRANCH  86  89
ENDBRANCH  80  82
ENDBRANCH  76  80
ENDBRANCH  72  74
ENDBRANCH   1  72
TORSDOF 16
ENDMDL
MODEL 2
REMARK VINA RESULT:     -13.1      3.364      9.078
REMARK SMILES O=C(OCCOC(=O)c1ccccc1Nc1nc(Cl)nc(Nc2ccc(N3CCOCC3=O)cc2)n1)c1ccc(-c2c3nc(c(-c4c(F)c(F)c(F)c(F)c4F)c4ccc([nH]4)c(-c4c(F)c(F)c(F)c(F)c4F)c4nc(c(-c5c(F)c(F)c(F)c(F)c5F)c5ccc2[nH]5)C=C4)C=C3)cc1
REMARK SMILES IDX 6 1 5 2 4 3 3 4 2 5 1 6 37 7 38 8 99 9 39 10 98 11 40 12
REMARK SMILES IDX 41 13 42 14 92 15 43 16 97 17 91 18 93 19 44 20 96 21 90 22
REMARK SMILES IDX 89 23 45 25 77 26 57 27 76 28 58 29 61 30 75 31 94 32 59 33
REMARK SMILES IDX 60 34 74 36 95 37 62 38 46 39 47 40 55 41 48 42 49 43 53 44
REMARK SMILES IDX 56 45 50 46 51 47 54 48 52 49 78 50 79 51 87 52 80 53 81 54
REMARK SMILES IDX 85 55 88 56 82 57 83 58 86 59 84 60 63 61 64 62 72 63 65 64
REMARK SMILES IDX 66 65 70 66 73 67 67 68 68 69 71 70 69 71 7 72 8 73 9 74
REMARK SMILES IDX 10 75 14 76 11 77 13 78 12 79 15 80 16 82 17 83 36 84 18 85
REMARK SMILES IDX 21 86 19 87 20 88 22 89 23 91 24 92 35 93 25 94 34 95 26 96
REMARK SMILES IDX 27 97 28 98 32 99 29 100 31 101 33 102 30 103
REMARK H PARENT 93 24 61 35 15 81 22 90
REMARK Flexibility Score: inf
ROOT
ATOM      1  O   UNL A   1      40.261  20.641  26.586  1.00  0.00    -0.458 OA
ENDROOT
BRANCH   1   2
ATOM      2  C   UNL A   1      41.509  20.100  26.127  1.00  0.00     0.275 C 
BRANCH   2   3
ATOM      3  C   UNL A   1      42.632  21.138  26.127  1.00  0.00     0.275 C 
BRANCH   3   4
ATOM      4  O   UNL A   1      42.312  22.335  25.396  1.00  0.00    -0.458 OA
BRANCH   4   5
ATOM      5  C   UNL A   1      42.853  23.573  25.417  1.00  0.00     0.338 C 
ATOM      6  O   UNL A   1      43.734  23.830  24.596  1.00  0.00    -0.246 OA
BRANCH   5   7
ATOM      7  C   UNL A   1      42.527  24.649  26.418  1.00  0.00     0.060 A 
ATOM      8  C   UNL A   1      43.037  25.949  26.447  1.00  0.00     0.016 A 
ATOM      9  C   UNL A   1      41.604  24.294  27.427  1.00  0.00     0.016 A 
ATOM     10  C   UNL A   1      42.636  26.865  27.428  1.00  0.00     0.010 A 
ATOM     11  C   UNL A   1      41.199  25.203  28.410  1.00  0.00     0.010 A 
ATOM     12  C   UNL A   1      41.726  26.494  28.421  1.00  0.00    -0.014 A 
BRANCH  12  13
ATOM     13  C   UNL A   1      41.413  27.444  29.512  1.00  0.00     0.031 A 
ATOM     14  C   UNL A   1      40.206  28.307  29.388  1.00  0.00     0.074 A 
ATOM     15  C   UNL A   1      42.177  27.491  30.617  1.00  0.00     0.049 A 
ATOM     16  N   UNL A   1      39.703  29.143  30.256  1.00  0.00    -0.248 NA
ATOM     17  C   UNL A   1      39.466  28.220  28.121  1.00  0.00     0.031 C 
ATOM     18  C   UNL A   1      43.355  26.667  30.807  1.00  0.00     0.029 A 
ATOM     19  N   UNL A   1      42.094  28.214  31.777  1.00  0.00    -0.354 N 
ATOM     20  C   UNL A   1      38.593  29.692  29.636  1.00  0.00     0.074 A 
ATOM     21  C   UNL A   1      38.502  29.106  28.318  1.00  0.00     0.031 C 
ATOM     22  C   UNL A   1      43.884  26.897  32.016  1.00  0.00     0.029 A 
ATOM     23  C   UNL A   1      43.075  27.898  32.692  1.00  0.00     0.049 A 
ATOM     24  H   UNL A   1      41.402  28.894  31.941  1.00  0.00     0.167 HD
ATOM     25  C   UNL A   1      37.740  30.615  30.135  1.00  0.00     0.037 A 
ATOM     26  C   UNL A   1      43.279  28.352  33.943  1.00  0.00     0.037 A 
ATOM     27  C   UNL A   1      37.877  31.203  31.441  1.00  0.00     0.049 A 
ATOM     28  C   UNL A   1      42.309  29.375  34.469  1.00  0.00     0.074 A 
ATOM     29  C   UNL A   1      37.100  32.176  32.037  1.00  0.00     0.029 A 
ATOM     30  N   UNL A   1      38.878  30.872  32.349  1.00  0.00    -0.354 N 
ATOM     31  N   UNL A   1      41.237  29.865  33.891  1.00  0.00    -0.248 NA
ATOM     32  C   UNL A   1      42.569  29.917  35.809  1.00  0.00     0.031 C 
ATOM     33  C   UNL A   1      37.658  32.472  33.286  1.00  0.00     0.029 A 
ATOM     34  C   UNL A   1      38.754  31.646  33.492  1.00  0.00     0.049 A 
ATOM     35  H   UNL A   1      39.571  30.190  32.202  1.00  0.00     0.167 HD
ATOM     36  C   UNL A   1      40.692  30.764  34.791  1.00  0.00     0.074 A 
ATOM     37  C   UNL A   1      41.527  30.721  35.976  1.00  0.00     0.031 C 
ATOM     38  C   UNL A   1      39.613  31.572  34.649  1.00  0.00     0.037 A 
BRANCH  25  39
ATOM     39  C   UNL A   1      36.650  31.081  29.220  1.00  0.00     0.064 A 
ATOM     40  C   UNL A   1      36.609  32.394  28.727  1.00  0.00     0.173 A 
ATOM     41  C   UNL A   1      35.599  30.217  28.881  1.00  0.00     0.173 A 
ATOM     42  F   UNL A   1      37.573  33.269  29.050  1.00  0.00    -0.203 F 
ATOM     43  C   UNL A   1      35.533  32.835  27.958  1.00  0.00     0.198 A 
ATOM     44  C   UNL A   1      34.540  30.653  28.090  1.00  0.00     0.198 A 
ATOM     45  F   UNL A   1      35.587  28.956  29.337  1.00  0.00    -0.203 F 
ATOM     46  F   UNL A   1      35.478  34.113  27.558  1.00  0.00    -0.200 F 
ATOM     47  C   UNL A   1      34.502  31.964  27.639  1.00  0.00     0.200 A 
ATOM     48  F   UNL A   1      33.545  29.810  27.782  1.00  0.00    -0.200 F 
ATOM     49  F   UNL A   1      33.461  32.393  26.913  1.00  0.00    -0.200 F 
ENDBRANCH  25  39
BRANCH  26  50
ATOM     50  C   UNL A   1      44.403  27.835  34.778  1.00  0.00     0.064 A 
ATOM     51  C   UNL A   1      45.658  28.464  34.772  1.00  0.00     0.173 A 
ATOM     52  C   UNL A   1      44.265  26.689  35.577  1.00  0.00     0.173 A 
ATOM     53  F   UNL A   1      45.853  29.556  34.018  1.00  0.00    -0.203 F 
ATOM     54  C   UNL A   1      46.736  27.940  35.484  1.00  0.00     0.198 A 
ATOM     55  C   UNL A   1      45.332  26.195  36.329  1.00  0.00     0.198 A 
ATOM     56  F   UNL A   1      43.092  26.042  35.633  1.00  0.00    -0.203 F 
ATOM     57  F   UNL A   1      47.947  28.506  35.374  1.00  0.00    -0.200 F 
ATOM     58  C   UNL A   1      46.573  26.807  36.264  1.00  0.00     0.200 A 
ATOM     59  F   UNL A   1      45.162  25.110  37.098  1.00  0.00    -0.200 F 
ATOM     60  F   UNL A   1      47.614  26.282  36.924  1.00  0.00    -0.200 F 
ENDBRANCH  26  50
BRANCH  38  61
ATOM     61  C   UNL A   1      39.292  32.476  35.801  1.00  0.00     0.064 A 
ATOM     62  C   UNL A   1      38.439  32.061  36.834  1.00  0.00     0.173 A 
ATOM     63  C   UNL A   1      39.879  33.746  35.896  1.00  0.00     0.173 A 
ATOM     64  F   UNL A   1      37.841  30.861  36.776  1.00  0.00    -0.203 F 
ATOM     65  C   UNL A   1      38.172  32.893  37.915  1.00  0.00     0.198 A 
ATOM     66  C   UNL A   1      39.632  34.563  36.994  1.00  0.00     0.198 A 
ATOM     67  F   UNL A   1      40.704  34.183  34.934  1.00  0.00    -0.203 F 
ATOM     68  F   UNL A   1      37.322  32.494  38.871  1.00  0.00    -0.200 F 
ATOM     69  C   UNL A   1      38.776  34.139  37.999  1.00  0.00     0.200 A 
ATOM     70  F   UNL A   1      40.227  35.761  37.081  1.00  0.00    -0.200 F 
ATOM     71  F   UNL A   1      38.527  34.935  39.047  1.00  0.00    -0.200 F 
ENDBRANCH  38  61
ENDBRANCH  12  13
ENDBRANCH   5   7
ENDBRANCH   4   5
ENDBRANCH   3   4
ENDBRANCH   2   3
ENDBRANCH   1   2
BRANCH   1  72
ATOM     72  C   UNL A   1      39.203  20.410  25.757  1.00  0.00     0.340 C 
ATOM     73  O   UNL A   1      38.975  19.385  25.149  1.00  0.00    -0.246 OA
BRANCH  72  74
ATOM     74  C   UNL A   1      38.278  21.565  25.772  1.00  0.00     0.083 A 
ATOM     75  C   UNL A   1      38.849  22.815  26.066  1.00  0.00     0.018 A 
ATOM     76  C   UNL A   1      36.899  21.443  25.514  1.00  0.00     0.055 A 
ATOM     77  C   UNL A   1      38.051  23.954  26.128  1.00  0.00     0.001 A 
ATOM     78  C   UNL A   1      36.100  22.573  25.754  1.00  0.00     0.027 A 
ATOM     79  C   UNL A   1      36.672  23.826  26.005  1.00  0.00     0.002 A 
BRANCH  76  80
ATOM     80  N   UNL A   1      36.360  20.240  25.001  1.00  0.00    -0.323 N 
ATOM     81  H   UNL A   1      37.016  19.623  24.602  1.00  0.00     0.170 HD
BRANCH  80  82
ATOM     82  C   UNL A   1      35.040  19.802  24.979  1.00  0.00     0.233 A 
ATOM     83  N   UNL A   1      34.833  18.545  24.626  1.00  0.00    -0.182 NA
ATOM     84  N   UNL A   1      34.072  20.646  25.309  1.00  0.00    -0.176 NA
ATOM     85  C   UNL A   1      33.550  18.229  24.533  1.00  0.00     0.228 A 
ATOM     86  C   UNL A   1      32.830  20.175  25.298  1.00  0.00     0.233 A 
ATOM     87  Cl  UNL A   1      33.199  16.702  23.852  1.00  0.00    -0.041 Cl
ATOM     88  N   UNL A   1      32.505  18.978  24.845  1.00  0.00    -0.182 NA
BRANCH  86  89
ATOM     89  N   UNL A   1      31.879  21.081  25.745  1.00  0.00    -0.324 N 
ATOM     90  H   UNL A   1      31.207  20.671  26.337  1.00  0.00     0.170 HD
BRANCH  89  91
ATOM     91  C   UNL A   1      31.665  22.443  25.539  1.00  0.00     0.041 A 
ATOM     92  C   UNL A   1      32.124  23.327  26.525  1.00  0.00     0.028 A 
ATOM     93  C   UNL A   1      31.117  22.987  24.377  1.00  0.00     0.028 A 
ATOM     94  C   UNL A   1      32.085  24.709  26.333  1.00  0.00     0.028 A 
ATOM     95  C   UNL A   1      31.033  24.377  24.200  1.00  0.00     0.028 A 
ATOM     96  C   UNL A   1      31.555  25.248  25.161  1.00  0.00     0.044 A 
BRANCH  96  97
ATOM     97  N   UNL A   1      31.627  26.651  24.928  1.00  0.00    -0.308 N 
ATOM     98  C   UNL A   1      31.662  27.077  23.522  1.00  0.00     0.154 C 
ATOM     99  C   UNL A   1      31.336  27.576  25.936  1.00  0.00     0.253 C 
ATOM    100  C   UNL A   1      32.080  28.529  23.344  1.00  0.00     0.183 C 
ATOM    101  C   UNL A   1      31.403  29.054  25.508  1.00  0.00     0.260 C 
ATOM    102  O   UNL A   1      31.155  27.288  27.121  1.00  0.00    -0.272 OA
ATOM    103  O   UNL A   1      31.235  29.362  24.133  1.00  0.00    -0.370 OA
ENDBRANCH  96  97
ENDBRANCH  89  91
ENDBRANCH  86  89
ENDBRANCH  80  82
ENDBRANCH  76  80
ENDBRANCH  72  74
ENDBRANCH   1  72
TORSDOF 16
ENDMDL
MODEL 3
REMARK VINA RESULT:     -13.0      5.452     10.064
REMARK SMILES O=C(OCCOC(=O)c1ccccc1Nc1nc(Cl)nc(Nc2ccc(N3CCOCC3=O)cc2)n1)c1ccc(-c2c3nc(c(-c4c(F)c(F)c(F)c(F)c4F)c4ccc([nH]4)c(-c4c(F)c(F)c(F)c(F)c4F)c4nc(c(-c5c(F)c(F)c(F)c(F)c5F)c5ccc2[nH]5)C=C4)C=C3)cc1
REMARK SMILES IDX 6 1 5 2 4 3 3 4 2 5 1 6 37 7 38 8 99 9 39 10 98 11 40 12
REMARK SMILES IDX 41 13 42 14 92 15 43 16 97 17 91 18 93 19 44 20 96 21 90 22
REMARK SMILES IDX 89 23 45 25 77 26 57 27 76 28 58 29 61 30 75 31 94 32 59 33
REMARK SMILES IDX 60 34 74 36 95 37 62 38 46 39 47 40 55 41 48 42 49 43 53 44
REMARK SMILES IDX 56 45 50 46 51 47 54 48 52 49 78 50 79 51 87 52 80 53 81 54
REMARK SMILES IDX 85 55 88 56 82 57 83 58 86 59 84 60 63 61 64 62 72 63 65 64
REMARK SMILES IDX 66 65 70 66 73 67 67 68 68 69 71 70 69 71 7 72 8 73 9 74
REMARK SMILES IDX 10 75 14 76 11 77 13 78 12 79 15 80 16 82 17 83 36 84 18 85
REMARK SMILES IDX 21 86 19 87 20 88 22 89 23 91 24 92 35 93 25 94 34 95 26 96
REMARK SMILES IDX 27 97 28 98 32 99 29 100 31 101 33 102 30 103
REMARK H PARENT 93 24 61 35 15 81 22 90
REMARK Flexibility Score: inf
ROOT
ATOM      1  O   UNL A   1      41.599  20.345  26.320  1.00  0.00    -0.458 OA
ENDROOT
BRANCH   1   2
ATOM      2  C   UNL A   1      42.135  19.231  27.049  1.00  0.00     0.275 C 
BRANCH   2   3
ATOM      3  C   UNL A   1      43.037  18.348  26.186  1.00  0.00     0.275 C 
BRANCH   3   4
ATOM      4  O   UNL A   1      43.324  18.906  24.891  1.00  0.00    -0.458 OA
BRANCH   4   5
ATOM      5  C   UNL A   1      44.371  19.628  24.436  1.00  0.00     0.338 C 
ATOM      6  O   UNL A   1      45.120  19.099  23.613  1.00  0.00    -0.246 OA
BRANCH   5   7
ATOM      7  C   UNL A   1      44.752  21.004  24.910  1.00  0.00     0.060 A 
ATOM      8  C   UNL A   1      45.300  21.343  26.151  1.00  0.00     0.016 A 
ATOM      9  C   UNL A   1      44.530  22.056  23.994  1.00  0.00     0.016 A 
ATOM     10  C   UNL A   1      45.629  22.667  26.463  1.00  0.00     0.010 A 
ATOM     11  C   UNL A   1      44.856  23.382  24.299  1.00  0.00     0.010 A 
ATOM     12  C   UNL A   1      45.398  23.695  25.546  1.00  0.00    -0.014 A 
BRANCH  12  13
ATOM     13  C   UNL A   1      45.644  25.098  25.948  1.00  0.00     0.031 A 
ATOM     14  C   UNL A   1      44.536  25.870  26.577  1.00  0.00     0.074 A 
ATOM     15  C   UNL A   1      46.860  25.650  25.793  1.00  0.00     0.049 A 
ATOM     16  N   UNL A   1      44.557  27.075  27.077  1.00  0.00    -0.248 NA
ATOM     17  C   UNL A   1      43.232  25.197  26.655  1.00  0.00     0.031 C 
ATOM     18  C   UNL A   1      47.983  24.949  25.203  1.00  0.00     0.029 A 
ATOM     19  N   UNL A   1      47.374  26.876  26.117  1.00  0.00    -0.354 N 
ATOM     20  C   UNL A   1      43.267  27.313  27.518  1.00  0.00     0.074 A 
ATOM     21  C   UNL A   1      42.485  26.134  27.218  1.00  0.00     0.031 C 
ATOM     22  C   UNL A   1      49.071  25.730  25.222  1.00  0.00     0.029 A 
ATOM     23  C   UNL A   1      48.716  27.002  25.830  1.00  0.00     0.049 A 
ATOM     24  H   UNL A   1      46.837  27.599  26.516  1.00  0.00     0.167 HD
ATOM     25  C   UNL A   1      42.788  28.430  28.111  1.00  0.00     0.037 A 
ATOM     26  C   UNL A   1      49.564  28.024  26.054  1.00  0.00     0.037 A 
ATOM     27  C   UNL A   1      43.585  29.599  28.367  1.00  0.00     0.049 A 
ATOM     28  C   UNL A   1      49.000  29.251  26.720  1.00  0.00     0.074 A 
ATOM     29  C   UNL A   1      43.201  30.804  28.923  1.00  0.00     0.029 A 
ATOM     30  N   UNL A   1      44.939  29.708  28.065  1.00  0.00    -0.354 N 
ATOM     31  N   UNL A   1      47.784  29.457  27.169  1.00  0.00    -0.248 NA
ATOM     32  C   UNL A   1      49.909  30.388  26.906  1.00  0.00     0.031 C 
ATOM     33  C   UNL A   1      44.308  31.660  28.911  1.00  0.00     0.029 A 
ATOM     34  C   UNL A   1      45.398  30.972  28.396  1.00  0.00     0.049 A 
ATOM     35  H   UNL A   1      45.490  28.993  27.673  1.00  0.00     0.167 HD
ATOM     36  C   UNL A   1      47.780  30.737  27.695  1.00  0.00     0.074 A 
ATOM     37  C   UNL A   1      49.130  31.247  27.549  1.00  0.00     0.031 C 
ATOM     38  C   UNL A   1      46.753  31.441  28.230  1.00  0.00     0.037 A 
BRANCH  25  39
ATOM     39  C   UNL A   1      41.326  28.441  28.434  1.00  0.00     0.064 A 
ATOM     40  C   UNL A   1      40.370  28.919  27.525  1.00  0.00     0.173 A 
ATOM     41  C   UNL A   1      40.882  28.022  29.696  1.00  0.00     0.173 A 
ATOM     42  F   UNL A   1      40.749  29.363  26.317  1.00  0.00    -0.203 F 
ATOM     43  C   UNL A   1      39.027  29.014  27.884  1.00  0.00     0.198 A 
ATOM     44  C   UNL A   1      39.536  28.092  30.041  1.00  0.00     0.198 A 
ATOM     45  F   UNL A   1      41.758  27.567  30.604  1.00  0.00    -0.203 F 
ATOM     46  F   UNL A   1      38.142  29.542  27.026  1.00  0.00    -0.200 F 
ATOM     47  C   UNL A   1      38.611  28.599  29.140  1.00  0.00     0.200 A 
ATOM     48  F   UNL A   1      39.136  27.689  31.255  1.00  0.00    -0.200 F 
ATOM     49  F   UNL A   1      37.322  28.704  29.490  1.00  0.00    -0.200 F 
ENDBRANCH  25  39
BRANCH  26  50
ATOM     50  C   UNL A   1      51.006  27.925  25.685  1.00  0.00     0.064 A 
ATOM     51  C   UNL A   1      51.434  28.154  24.368  1.00  0.00     0.173 A 
ATOM     52  C   UNL A   1      51.988  27.573  26.624  1.00  0.00     0.173 A 
ATOM     53  F   UNL A   1      50.539  28.481  23.423  1.00  0.00    -0.203 F 
ATOM     54  C   UNL A   1      52.767  27.983  23.996  1.00  0.00     0.198 A 
ATOM     55  C   UNL A   1      53.331  27.452  26.262  1.00  0.00     0.198 A 
ATOM     56  F   UNL A   1      51.650  27.345  27.902  1.00  0.00    -0.203 F 
ATOM     57  F   UNL A   1      53.123  28.109  22.710  1.00  0.00    -0.200 F 
ATOM     58  C   UNL A   1      53.715  27.634  24.944  1.00  0.00     0.200 A 
ATOM     59  F   UNL A   1      54.247  27.134  27.187  1.00  0.00    -0.200 F 
ATOM     60  F   UNL A   1      54.992  27.437  24.585  1.00  0.00    -0.200 F 
ENDBRANCH  26  50
BRANCH  38  61
ATOM     61  C   UNL A   1      47.056  32.837  28.682  1.00  0.00     0.064 A 
ATOM     62  C   UNL A   1      47.051  33.910  27.778  1.00  0.00     0.173 A 
ATOM     63  C   UNL A   1      47.305  33.111  30.034  1.00  0.00     0.173 A 
ATOM     64  F   UNL A   1      46.836  33.693  26.472  1.00  0.00    -0.203 F 
ATOM     65  C   UNL A   1      47.302  35.207  28.211  1.00  0.00     0.198 A 
ATOM     66  C   UNL A   1      47.526  34.414  30.467  1.00  0.00     0.198 A 
ATOM     67  F   UNL A   1      47.315  32.117  30.935  1.00  0.00    -0.203 F 
ATOM     68  F   UNL A   1      47.335  36.212  27.325  1.00  0.00    -0.200 F 
ATOM     69  C   UNL A   1      47.530  35.460  29.556  1.00  0.00     0.200 A 
ATOM     70  F   UNL A   1      47.733  34.659  31.769  1.00  0.00    -0.200 F 
ATOM     71  F   UNL A   1      47.760  36.712  29.973  1.00  0.00    -0.200 F 
ENDBRANCH  38  61
ENDBRANCH  12  13
ENDBRANCH   5   7
ENDBRANCH   4   5
ENDBRANCH   3   4
ENDBRANCH   2   3
ENDBRANCH   1   2
BRANCH   1  72
ATOM     72  C   UNL A   1      40.273  20.241  26.019  1.00  0.00     0.340 C 
ATOM     73  O   UNL A   1      39.672  19.221  25.749  1.00  0.00    -0.246 OA
BRANCH  72  74
ATOM     74  C   UNL A   1      39.607  21.555  26.168  1.00  0.00     0.083 A 
ATOM     75  C   UNL A   1      40.356  22.562  26.802  1.00  0.00     0.018 A 
ATOM     76  C   UNL A   1      38.299  21.805  25.714  1.00  0.00     0.055 A 
ATOM     77  C   UNL A   1      39.802  23.821  27.011  1.00  0.00     0.001 A 
ATOM     78  C   UNL A   1      37.711  23.024  26.092  1.00  0.00     0.027 A 
ATOM     79  C   UNL A   1      38.469  24.042  26.685  1.00  0.00     0.002 A 
BRANCH  76  80
ATOM     80  N   UNL A   1      37.629  20.877  24.883  1.00  0.00    -0.323 N 
ATOM     81  H   UNL A   1      38.180  20.477  24.171  1.00  0.00     0.170 HD
BRANCH  80  82
ATOM     82  C   UNL A   1      36.307  20.446  24.925  1.00  0.00     0.233 A 
ATOM     83  N   UNL A   1      36.088  19.162  24.698  1.00  0.00    -0.182 NA
ATOM     84  N   UNL A   1      35.349  21.323  25.190  1.00  0.00    -0.176 NA
ATOM     85  C   UNL A   1      34.803  18.846  24.657  1.00  0.00     0.228 A 
ATOM     86  C   UNL A   1      34.105  20.861  25.245  1.00  0.00     0.233 A 
ATOM     87  Cl  UNL A   1      34.434  17.264  24.130  1.00  0.00    -0.041 Cl
ATOM     88  N   UNL A   1      33.767  19.628  24.914  1.00  0.00    -0.182 NA
BRANCH  86  89
ATOM     89  N   UNL A   1      33.165  21.810  25.620  1.00  0.00    -0.324 N 
ATOM     90  H   UNL A   1      32.634  21.537  26.403  1.00  0.00     0.170 HD
BRANCH  89  91
ATOM     91  C   UNL A   1      32.806  23.065  25.130  1.00  0.00     0.041 A 
ATOM     92  C   UNL A   1      32.263  23.127  23.839  1.00  0.00     0.028 A 
ATOM     93  C   UNL A   1      32.860  24.246  25.873  1.00  0.00     0.028 A 
ATOM     94  C   UNL A   1      31.742  24.316  23.328  1.00  0.00     0.028 A 
ATOM     95  C   UNL A   1      32.379  25.454  25.345  1.00  0.00     0.028 A 
ATOM     96  C   UNL A   1      31.779  25.489  24.083  1.00  0.00     0.044 A 
BRANCH  96  97
ATOM     97  N   UNL A   1      31.141  26.665  23.598  1.00  0.00    -0.308 N 
ATOM     98  C   UNL A   1      31.906  27.474  22.638  1.00  0.00     0.154 C 
ATOM     99  C   UNL A   1      29.764  26.865  23.744  1.00  0.00     0.253 C 
ATOM    100  C   UNL A   1      31.328  28.865  22.427  1.00  0.00     0.183 C 
ATOM    101  C   UNL A   1      29.219  28.160  23.114  1.00  0.00     0.260 C 
ATOM    102  O   UNL A   1      29.021  26.152  24.421  1.00  0.00    -0.272 OA
ATOM    103  O   UNL A   1      29.957  28.753  22.057  1.00  0.00    -0.370 OA
ENDBRANCH  96  97
ENDBRANCH  89  91
ENDBRANCH  86  89
ENDBRANCH  80  82
ENDBRANCH  76  80
ENDBRANCH  72  74
ENDBRANCH   1  72
TORSDOF 16
ENDMDL
