MODEL 1
REMARK VINA RESULT:     -12.9      0.000      0.000
REMARK SMILES CC[C@H](C)[C@H](NC(=O)[C@H](C)Oc1ccc2c(C)c(C)c(=O)oc2c1C)C(=O)OCCOC(=O)c1ccc(-c2c3nc(c(-c4c(F)c(F)c(F)c(F)c4F)c4ccc([nH]4)c(-c4c(F)c(F)c(F)c(F)c4F)c4nc(c(-c5c(F)c(F)c(F)c(F)c5F)c5ccc2[nH]5)C=C4)C=C3)cc1
REMARK SMILES IDX 29 1 28 2 26 3 27 4 5 5 3 6 4 7 2 8 1 9 6 10 7 11 8 13 9 14
REMARK SMILES IDX 10 15 11 16 12 17 13 18 24 19 14 20 23 21 25 22 15 23 22 24
REMARK SMILES IDX 16 25 20 26 17 27 18 28 21 29 19 30 30 31 31 32 32 33 33 34
REMARK SMILES IDX 34 35 35 36 96 37 36 38 95 39 37 40 38 41 39 42 89 43 40 44
REMARK SMILES IDX 94 45 88 46 90 47 41 48 93 49 87 50 86 51 42 53 74 54 54 55
REMARK SMILES IDX 73 56 55 57 58 58 72 59 91 60 56 61 57 62 71 64 92 65 59 66
REMARK SMILES IDX 43 67 44 68 52 69 45 70 46 71 50 72 53 73 47 74 48 75 51 76
REMARK SMILES IDX 49 77 75 78 76 79 84 80 77 81 78 82 82 83 85 84 79 85 80 86
REMARK SMILES IDX 83 87 81 88 60 89 61 90 69 91 62 92 63 93 67 94 70 95 64 96
REMARK SMILES IDX 65 97 68 98 66 99
REMARK H PARENT 6 12 90 52 58 63
REMARK Flexibility Score: inf
ROOT
ATOM      1  C   UNL A   1      36.154  21.286  25.432  1.00  0.00     0.274 C 
ENDROOT
BRANCH   1   2
ATOM      2  O   UNL A   1      35.470  21.528  24.180  1.00  0.00    -0.461 OA
BRANCH   2   3
ATOM      3  C   UNL A   1      34.124  21.363  24.212  1.00  0.00     0.329 C 
ATOM      4  O   UNL A   1      33.344  21.970  23.486  1.00  0.00    -0.250 OA
BRANCH   3   5
ATOM      5  C   UNL A   1      33.632  20.411  25.320  1.00  0.00     0.195 C 
BRANCH   5   6
ATOM      6  C   UNL A   1      33.127  19.064  24.670  1.00  0.00     0.019 C 
ATOM      7  C   UNL A   1      32.301  19.213  23.377  1.00  0.00     0.010 C 
BRANCH   6   8
ATOM      8  C   UNL A   1      34.299  18.102  24.374  1.00  0.00     0.002 C 
ATOM      9  C   UNL A   1      33.977  17.076  23.298  1.00  0.00     0.004 C 
ENDBRANCH   6   8
ENDBRANCH   5   6
BRANCH   5  10
ATOM     10  N   UNL A   1      32.639  20.921  26.314  1.00  0.00    -0.339 N 
ATOM     11  C   UNL A   1      32.790  22.147  26.954  1.00  0.00     0.261 C 
ATOM     12  H   UNL A   1      31.850  20.369  26.525  1.00  0.00     0.164 HD
ATOM     13  O   UNL A   1      33.455  22.180  27.989  1.00  0.00    -0.271 OA
BRANCH  11  14
ATOM     14  C   UNL A   1      31.890  23.324  26.484  1.00  0.00     0.258 C 
ATOM     15  C   UNL A   1      30.443  22.945  26.275  1.00  0.00     0.064 C 
BRANCH  14  16
ATOM     16  O   UNL A   1      32.415  24.192  25.484  1.00  0.00    -0.480 OA
BRANCH  16  17
ATOM     17  C   UNL A   1      32.195  25.533  25.371  1.00  0.00     0.127 A 
ATOM     18  C   UNL A   1      32.547  26.511  26.298  1.00  0.00     0.047 A 
ATOM     19  C   UNL A   1      31.544  25.935  24.189  1.00  0.00     0.035 A 
ATOM     20  C   UNL A   1      32.239  27.865  26.080  1.00  0.00     0.016 A 
ATOM     21  C   UNL A   1      31.148  27.281  24.051  1.00  0.00     0.145 A 
ATOM     22  C   UNL A   1      31.206  24.943  23.107  1.00  0.00     0.052 C 
ATOM     23  C   UNL A   1      31.480  28.265  24.978  1.00  0.00     0.021 A 
ATOM     24  O   UNL A   1      30.340  27.600  22.941  1.00  0.00    -0.422 OA
ATOM     25  C   UNL A   1      30.955  29.634  24.802  1.00  0.00    -0.030 A 
ATOM     26  C   UNL A   1      29.687  28.816  22.837  1.00  0.00     0.339 A 
ATOM     27  C   UNL A   1      31.409  30.693  25.775  1.00  0.00     0.045 C 
ATOM     28  C   UNL A   1      30.052  29.867  23.826  1.00  0.00     0.038 A 
ATOM     29  O   UNL A   1      28.871  29.015  21.944  1.00  0.00    -0.246 OA
ATOM     30  C   UNL A   1      29.327  31.178  23.669  1.00  0.00     0.052 C 
ENDBRANCH  16  17
ENDBRANCH  14  16
ENDBRANCH  11  14
ENDBRANCH   5  10
ENDBRANCH   3   5
ENDBRANCH   2   3
ENDBRANCH   1   2
BRANCH   1  31
ATOM     31  C   UNL A   1      37.558  20.700  25.224  1.00  0.00     0.275 C 
BRANCH  31  32
ATOM     32  O   UNL A   1      38.562  21.723  25.379  1.00  0.00    -0.458 OA
BRANCH  32  33
ATOM     33  C   UNL A   1      39.580  21.439  26.223  1.00  0.00     0.338 C 
ATOM     34  O   UNL A   1      40.005  20.329  26.493  1.00  0.00    -0.246 OA
BRANCH  33  35
ATOM     35  C   UNL A   1      40.137  22.678  26.826  1.00  0.00     0.060 A 
ATOM     36  C   UNL A   1      41.102  22.670  27.840  1.00  0.00     0.016 A 
ATOM     37  C   UNL A   1      39.653  23.900  26.348  1.00  0.00     0.016 A 
ATOM     38  C   UNL A   1      41.604  23.872  28.351  1.00  0.00     0.010 A 
ATOM     39  C   UNL A   1      40.178  25.100  26.830  1.00  0.00     0.010 A 
ATOM     40  C   UNL A   1      41.169  25.093  27.821  1.00  0.00    -0.014 A 
BRANCH  40  41
ATOM     41  C   UNL A   1      41.838  26.369  28.168  1.00  0.00     0.031 A 
ATOM     42  C   UNL A   1      41.097  27.462  28.873  1.00  0.00     0.074 A 
ATOM     43  C   UNL A   1      43.093  26.563  27.723  1.00  0.00     0.049 A 
ATOM     44  N   UNL A   1      41.465  28.699  29.094  1.00  0.00    -0.248 NA
ATOM     45  C   UNL A   1      39.762  27.128  29.390  1.00  0.00     0.031 C 
ATOM     46  C   UNL A   1      43.896  25.560  27.020  1.00  0.00     0.029 A 
ATOM     47  N   UNL A   1      43.902  27.669  27.761  1.00  0.00    -0.354 N 
ATOM     48  C   UNL A   1      40.411  29.293  29.773  1.00  0.00     0.074 A 
ATOM     49  C   UNL A   1      39.376  28.289  29.906  1.00  0.00     0.031 C 
ATOM     50  C   UNL A   1      45.075  26.099  26.681  1.00  0.00     0.029 A 
ATOM     51  C   UNL A   1      45.094  27.496  27.103  1.00  0.00     0.049 A 
ATOM     52  H   UNL A   1      43.653  28.506  28.217  1.00  0.00     0.167 HD
ATOM     53  C   UNL A   1      40.327  30.562  30.240  1.00  0.00     0.037 A 
ATOM     54  C   UNL A   1      46.082  28.372  26.842  1.00  0.00     0.037 A 
ATOM     55  C   UNL A   1      41.364  31.551  30.082  1.00  0.00     0.049 A 
ATOM     56  C   UNL A   1      45.942  29.785  27.325  1.00  0.00     0.074 A 
ATOM     57  C   UNL A   1      41.389  32.860  30.531  1.00  0.00     0.029 A 
ATOM     58  N   UNL A   1      42.562  31.338  29.411  1.00  0.00    -0.354 N 
ATOM     59  N   UNL A   1      44.949  30.334  27.981  1.00  0.00    -0.248 NA
ATOM     60  C   UNL A   1      47.053  30.699  27.034  1.00  0.00     0.031 C 
ATOM     61  C   UNL A   1      42.581  33.450  30.097  1.00  0.00     0.029 A 
ATOM     62  C   UNL A   1      43.321  32.497  29.416  1.00  0.00     0.049 A 
ATOM     63  H   UNL A   1      42.832  30.488  28.992  1.00  0.00     0.167 HD
ATOM     64  C   UNL A   1      45.315  31.653  28.194  1.00  0.00     0.074 A 
ATOM     65  C   UNL A   1      46.633  31.818  27.609  1.00  0.00     0.031 C 
ATOM     66  C   UNL A   1      44.624  32.639  28.816  1.00  0.00     0.037 A 
BRANCH  53  67
ATOM     67  C   UNL A   1      39.072  30.964  30.962  1.00  0.00     0.064 A 
ATOM     68  C   UNL A   1      37.959  31.467  30.272  1.00  0.00     0.173 A 
ATOM     69  C   UNL A   1      38.953  30.782  32.349  1.00  0.00     0.173 A 
ATOM     70  F   UNL A   1      38.022  31.669  28.948  1.00  0.00    -0.203 F 
ATOM     71  C   UNL A   1      36.781  31.786  30.944  1.00  0.00     0.198 A 
ATOM     72  C   UNL A   1      37.767  31.079  33.015  1.00  0.00     0.198 A 
ATOM     73  F   UNL A   1      39.985  30.297  33.058  1.00  0.00    -0.203 F 
ATOM     74  F   UNL A   1      35.742  32.295  30.267  1.00  0.00    -0.200 F 
ATOM     75  C   UNL A   1      36.683  31.585  32.312  1.00  0.00     0.200 A 
ATOM     76  F   UNL A   1      37.669  30.872  34.336  1.00  0.00    -0.200 F 
ATOM     77  F   UNL A   1      35.545  31.881  32.956  1.00  0.00    -0.200 F 
ENDBRANCH  53  67
BRANCH  54  78
ATOM     78  C   UNL A   1      47.285  27.907  26.107  1.00  0.00     0.064 A 
ATOM     79  C   UNL A   1      48.405  27.434  26.802  1.00  0.00     0.173 A 
ATOM     80  C   UNL A   1      47.309  27.843  24.705  1.00  0.00     0.173 A 
ATOM     81  F   UNL A   1      48.434  27.492  28.142  1.00  0.00    -0.203 F 
ATOM     82  C   UNL A   1      49.500  26.904  26.124  1.00  0.00     0.198 A 
ATOM     83  C   UNL A   1      48.395  27.290  24.029  1.00  0.00     0.198 A 
ATOM     84  F   UNL A   1      46.257  28.276  23.995  1.00  0.00    -0.203 F 
ATOM     85  F   UNL A   1      50.562  26.465  26.814  1.00  0.00    -0.200 F 
ATOM     86  C   UNL A   1      49.490  26.821  24.740  1.00  0.00     0.200 A 
ATOM     87  F   UNL A   1      48.373  27.194  22.693  1.00  0.00    -0.200 F 
ATOM     88  F   UNL A   1      50.531  26.282  24.091  1.00  0.00    -0.200 F 
ENDBRANCH  54  78
BRANCH  66  89
ATOM     89  C   UNL A   1      45.283  33.983  28.899  1.00  0.00     0.064 A 
ATOM     90  C   UNL A   1      46.145  34.308  29.957  1.00  0.00     0.173 A 
ATOM     91  C   UNL A   1      45.088  34.935  27.888  1.00  0.00     0.173 A 
ATOM     92  F   UNL A   1      46.348  33.435  30.955  1.00  0.00    -0.203 F 
ATOM     93  C   UNL A   1      46.779  35.547  30.005  1.00  0.00     0.198 A 
ATOM     94  C   UNL A   1      45.742  36.163  27.928  1.00  0.00     0.198 A 
ATOM     95  F   UNL A   1      44.276  34.667  26.855  1.00  0.00    -0.203 F 
ATOM     96  F   UNL A   1      47.571  35.851  31.042  1.00  0.00    -0.200 F 
ATOM     97  C   UNL A   1      46.581  36.470  28.988  1.00  0.00     0.200 A 
ATOM     98  F   UNL A   1      45.559  37.050  26.940  1.00  0.00    -0.200 F 
ATOM     99  F   UNL A   1      47.199  37.658  29.033  1.00  0.00    -0.200 F 
ENDBRANCH  66  89
ENDBRANCH  40  41
ENDBRANCH  33  35
ENDBRANCH  32  33
ENDBRANCH  31  32
ENDBRANCH   1  31
TORSDOF 17
ENDMDL
MODEL 2
REMARK VINA RESULT:     -12.6      4.196     10.298
REMARK SMILES CC[C@H](C)[C@H](NC(=O)[C@H](C)Oc1ccc2c(C)c(C)c(=O)oc2c1C)C(=O)OCCOC(=O)c1ccc(-c2c3nc(c(-c4c(F)c(F)c(F)c(F)c4F)c4ccc([nH]4)c(-c4c(F)c(F)c(F)c(F)c4F)c4nc(c(-c5c(F)c(F)c(F)c(F)c5F)c5ccc2[nH]5)C=C4)C=C3)cc1
REMARK SMILES IDX 29 1 28 2 26 3 27 4 5 5 3 6 4 7 2 8 1 9 6 10 7 11 8 13 9 14
REMARK SMILES IDX 10 15 11 16 12 17 13 18 24 19 14 20 23 21 25 22 15 23 22 24
REMARK SMILES IDX 16 25 20 26 17 27 18 28 21 29 19 30 30 31 31 32 32 33 33 34
REMARK SMILES IDX 34 35 35 36 96 37 36 38 95 39 37 40 38 41 39 42 89 43 40 44
REMARK SMILES IDX 94 45 88 46 90 47 41 48 93 49 87 50 86 51 42 53 74 54 54 55
REMARK SMILES IDX 73 56 55 57 58 58 72 59 91 60 56 61 57 62 71 64 92 65 59 66
REMARK SMILES IDX 43 67 44 68 52 69 45 70 46 71 50 72 53 73 47 74 48 75 51 76
REMARK SMILES IDX 49 77 75 78 76 79 84 80 77 81 78 82 82 83 85 84 79 85 80 86
REMARK SMILES IDX 83 87 81 88 60 89 61 90 69 91 62 92 63 93 67 94 70 95 64 96
REMARK SMILES IDX 65 97 68 98 66 99
REMARK H PARENT 6 12 90 52 58 63
REMARK Flexibility Score: inf
ROOT
ATOM      1  C   UNL A   1      31.701  30.702  26.741  1.00  0.00     0.274 C 
ENDROOT
BRANCH   1   2
ATOM      2  O   UNL A   1      32.601  30.462  25.635  1.00  0.00    -0.461 OA
BRANCH   2   3
ATOM      3  C   UNL A   1      32.265  29.425  24.827  1.00  0.00     0.329 C 
ATOM      4  O   UNL A   1      31.195  29.343  24.230  1.00  0.00    -0.250 OA
BRANCH   3   5
ATOM      5  C   UNL A   1      33.306  28.289  24.793  1.00  0.00     0.195 C 
BRANCH   5   6
ATOM      6  C   UNL A   1      33.307  27.619  23.364  1.00  0.00     0.019 C 
ATOM      7  C   UNL A   1      34.135  28.345  22.284  1.00  0.00     0.010 C 
BRANCH   6   8
ATOM      8  C   UNL A   1      33.791  26.153  23.424  1.00  0.00     0.002 C 
ATOM      9  C   UNL A   1      33.202  25.280  22.326  1.00  0.00     0.004 C 
ENDBRANCH   6   8
ENDBRANCH   5   6
BRANCH   5  10
ATOM     10  N   UNL A   1      33.264  27.247  25.864  1.00  0.00    -0.339 N 
ATOM     11  C   UNL A   1      32.082  26.882  26.500  1.00  0.00     0.261 C 
ATOM     12  H   UNL A   1      34.103  26.804  26.129  1.00  0.00     0.164 HD
ATOM     13  O   UNL A   1      31.730  27.535  27.482  1.00  0.00    -0.271 OA
BRANCH  11  14
ATOM     14  C   UNL A   1      31.441  25.520  26.110  1.00  0.00     0.258 C 
ATOM     15  C   UNL A   1      29.931  25.544  26.065  1.00  0.00     0.064 C 
BRANCH  14  16
ATOM     16  O   UNL A   1      31.988  24.345  26.703  1.00  0.00    -0.480 OA
BRANCH  16  17
ATOM     17  C   UNL A   1      32.210  23.150  26.086  1.00  0.00     0.127 A 
ATOM     18  C   UNL A   1      31.245  22.213  25.723  1.00  0.00     0.047 A 
ATOM     19  C   UNL A   1      33.559  22.864  25.805  1.00  0.00     0.035 A 
ATOM     20  C   UNL A   1      31.603  20.998  25.115  1.00  0.00     0.016 A 
ATOM     21  C   UNL A   1      33.897  21.591  25.300  1.00  0.00     0.145 A 
ATOM     22  C   UNL A   1      34.648  23.863  26.097  1.00  0.00     0.052 C 
ATOM     23  C   UNL A   1      32.944  20.641  24.947  1.00  0.00     0.021 A 
ATOM     24  O   UNL A   1      35.269  21.283  25.207  1.00  0.00    -0.422 OA
ATOM     25  C   UNL A   1      33.382  19.302  24.504  1.00  0.00    -0.030 A 
ATOM     26  C   UNL A   1      35.715  19.994  24.971  1.00  0.00     0.339 A 
ATOM     27  C   UNL A   1      32.325  18.330  24.044  1.00  0.00     0.045 C 
ATOM     28  C   UNL A   1      34.692  18.984  24.586  1.00  0.00     0.038 A 
ATOM     29  O   UNL A   1      36.908  19.719  25.046  1.00  0.00    -0.246 OA
ATOM     30  C   UNL A   1      35.221  17.598  24.326  1.00  0.00     0.052 C 
ENDBRANCH  16  17
ENDBRANCH  14  16
ENDBRANCH  11  14
ENDBRANCH   5  10
ENDBRANCH   3   5
ENDBRANCH   2   3
ENDBRANCH   1   2
BRANCH   1  31
ATOM     31  C   UNL A   1      31.520  32.199  27.029  1.00  0.00     0.275 C 
BRANCH  31  32
ATOM     32  O   UNL A   1      32.766  32.902  26.856  1.00  0.00    -0.458 OA
BRANCH  32  33
ATOM     33  C   UNL A   1      33.228  33.576  27.935  1.00  0.00     0.338 C 
ATOM     34  O   UNL A   1      32.687  34.522  28.479  1.00  0.00    -0.246 OA
BRANCH  33  35
ATOM     35  C   UNL A   1      34.531  33.026  28.392  1.00  0.00     0.060 A 
ATOM     36  C   UNL A   1      35.743  33.710  28.251  1.00  0.00     0.016 A 
ATOM     37  C   UNL A   1      34.523  31.757  28.981  1.00  0.00     0.016 A 
ATOM     38  C   UNL A   1      36.935  33.149  28.723  1.00  0.00     0.010 A 
ATOM     39  C   UNL A   1      35.704  31.210  29.485  1.00  0.00     0.010 A 
ATOM     40  C   UNL A   1      36.913  31.910  29.375  1.00  0.00    -0.014 A 
BRANCH  40  41
ATOM     41  C   UNL A   1      38.103  31.390  30.089  1.00  0.00     0.031 A 
ATOM     42  C   UNL A   1      38.979  30.346  29.471  1.00  0.00     0.074 A 
ATOM     43  C   UNL A   1      38.303  31.796  31.357  1.00  0.00     0.049 A 
ATOM     44  N   UNL A   1      39.948  29.653  30.016  1.00  0.00    -0.248 NA
ATOM     45  C   UNL A   1      38.731  30.028  28.058  1.00  0.00     0.031 C 
ATOM     46  C   UNL A   1      37.499  32.805  32.049  1.00  0.00     0.029 A 
ATOM     47  N   UNL A   1      39.214  31.392  32.299  1.00  0.00    -0.354 N 
ATOM     48  C   UNL A   1      40.424  28.816  29.017  1.00  0.00     0.074 A 
ATOM     49  C   UNL A   1      39.622  29.068  27.837  1.00  0.00     0.031 C 
ATOM     50  C   UNL A   1      37.942  32.932  33.308  1.00  0.00     0.029 A 
ATOM     51  C   UNL A   1      39.030  31.984  33.524  1.00  0.00     0.049 A 
ATOM     52  H   UNL A   1      39.930  30.742  32.115  1.00  0.00     0.167 HD
ATOM     53  C   UNL A   1      41.441  27.924  29.088  1.00  0.00     0.037 A 
ATOM     54  C   UNL A   1      39.648  31.766  34.699  1.00  0.00     0.037 A 
ATOM     55  C   UNL A   1      42.217  27.678  30.278  1.00  0.00     0.049 A 
ATOM     56  C   UNL A   1      40.737  30.736  34.765  1.00  0.00     0.074 A 
ATOM     57  C   UNL A   1      43.280  26.809  30.455  1.00  0.00     0.029 A 
ATOM     58  N   UNL A   1      42.003  28.300  31.502  1.00  0.00    -0.354 N 
ATOM     59  N   UNL A   1      41.192  29.961  33.811  1.00  0.00    -0.248 NA
ATOM     60  C   UNL A   1      41.396  30.548  36.063  1.00  0.00     0.031 C 
ATOM     61  C   UNL A   1      43.682  26.875  31.793  1.00  0.00     0.029 A 
ATOM     62  C   UNL A   1      42.900  27.817  32.442  1.00  0.00     0.049 A 
ATOM     63  H   UNL A   1      41.315  28.982  31.676  1.00  0.00     0.167 HD
ATOM     64  C   UNL A   1      42.199  29.201  34.385  1.00  0.00     0.074 A 
ATOM     65  C   UNL A   1      42.297  29.621  35.771  1.00  0.00     0.031 C 
ATOM     66  C   UNL A   1      42.970  28.242  33.818  1.00  0.00     0.037 A 
BRANCH  53  67
ATOM     67  C   UNL A   1      41.776  27.140  27.851  1.00  0.00     0.064 A 
ATOM     68  C   UNL A   1      42.752  27.582  26.945  1.00  0.00     0.173 A 
ATOM     69  C   UNL A   1      41.167  25.900  27.601  1.00  0.00     0.173 A 
ATOM     70  F   UNL A   1      43.358  28.764  27.131  1.00  0.00    -0.203 F 
ATOM     71  C   UNL A   1      43.093  26.821  25.829  1.00  0.00     0.198 A 
ATOM     72  C   UNL A   1      41.527  25.130  26.498  1.00  0.00     0.198 A 
ATOM     73  F   UNL A   1      40.232  25.425  28.439  1.00  0.00    -0.203 F 
ATOM     74  F   UNL A   1      44.006  27.280  24.961  1.00  0.00    -0.200 F 
ATOM     75  C   UNL A   1      42.487  25.594  25.611  1.00  0.00     0.200 A 
ATOM     76  F   UNL A   1      40.949  23.938  26.295  1.00  0.00    -0.200 F 
ATOM     77  F   UNL A   1      42.825  24.856  24.543  1.00  0.00    -0.200 F 
ENDBRANCH  53  67
BRANCH  54  78
ATOM     78  C   UNL A   1      39.251  32.568  35.884  1.00  0.00     0.064 A 
ATOM     79  C   UNL A   1      38.343  32.054  36.819  1.00  0.00     0.173 A 
ATOM     80  C   UNL A   1      39.832  33.816  36.153  1.00  0.00     0.173 A 
ATOM     81  F   UNL A   1      37.750  30.872  36.595  1.00  0.00    -0.203 F 
ATOM     82  C   UNL A   1      38.039  32.753  37.984  1.00  0.00     0.198 A 
ATOM     83  C   UNL A   1      39.544  34.505  37.330  1.00  0.00     0.198 A 
ATOM     84  F   UNL A   1      40.713  34.347  35.292  1.00  0.00    -0.203 F 
ATOM     85  F   UNL A   1      37.161  32.243  38.859  1.00  0.00    -0.200 F 
ATOM     86  C   UNL A   1      38.648  33.972  38.245  1.00  0.00     0.200 A 
ATOM     87  F   UNL A   1      40.150  35.672  37.588  1.00  0.00    -0.200 F 
ATOM     88  F   UNL A   1      38.377  34.629  39.381  1.00  0.00    -0.200 F 
ENDBRANCH  54  78
BRANCH  66  89
ATOM     89  C   UNL A   1      43.992  27.584  34.695  1.00  0.00     0.064 A 
ATOM     90  C   UNL A   1      45.271  28.135  34.864  1.00  0.00     0.173 A 
ATOM     91  C   UNL A   1      43.673  26.421  35.411  1.00  0.00     0.173 A 
ATOM     92  F   UNL A   1      45.626  29.237  34.187  1.00  0.00    -0.203 F 
ATOM     93  C   UNL A   1      46.200  27.534  35.709  1.00  0.00     0.198 A 
ATOM     94  C   UNL A   1      44.596  25.837  36.273  1.00  0.00     0.198 A 
ATOM     95  F   UNL A   1      42.460  25.861  35.285  1.00  0.00    -0.203 F 
ATOM     96  F   UNL A   1      47.428  28.056  35.829  1.00  0.00    -0.200 F 
ATOM     97  C   UNL A   1      45.860  26.390  36.417  1.00  0.00     0.200 A 
ATOM     98  F   UNL A   1      44.264  24.738  36.963  1.00  0.00    -0.200 F 
ATOM     99  F   UNL A   1      46.753  25.819  37.236  1.00  0.00    -0.200 F 
ENDBRANCH  66  89
ENDBRANCH  40  41
ENDBRANCH  33  35
ENDBRANCH  32  33
ENDBRANCH  31  32
ENDBRANCH   1  31
TORSDOF 17
ENDMDL
MODEL 3
REMARK VINA RESULT:     -12.2      0.696      7.081
REMARK SMILES CC[C@H](C)[C@H](NC(=O)[C@H](C)Oc1ccc2c(C)c(C)c(=O)oc2c1C)C(=O)OCCOC(=O)c1ccc(-c2c3nc(c(-c4c(F)c(F)c(F)c(F)c4F)c4ccc([nH]4)c(-c4c(F)c(F)c(F)c(F)c4F)c4nc(c(-c5c(F)c(F)c(F)c(F)c5F)c5ccc2[nH]5)C=C4)C=C3)cc1
REMARK SMILES IDX 29 1 28 2 26 3 27 4 5 5 3 6 4 7 2 8 1 9 6 10 7 11 8 13 9 14
REMARK SMILES IDX 10 15 11 16 12 17 13 18 24 19 14 20 23 21 25 22 15 23 22 24
REMARK SMILES IDX 16 25 20 26 17 27 18 28 21 29 19 30 30 31 31 32 32 33 33 34
REMARK SMILES IDX 34 35 35 36 96 37 36 38 95 39 37 40 38 41 39 42 89 43 40 44
REMARK SMILES IDX 94 45 88 46 90 47 41 48 93 49 87 50 86 51 42 53 74 54 54 55
REMARK SMILES IDX 73 56 55 57 58 58 72 59 91 60 56 61 57 62 71 64 92 65 59 66
REMARK SMILES IDX 43 67 44 68 52 69 45 70 46 71 50 72 53 73 47 74 48 75 51 76
REMARK SMILES IDX 49 77 75 78 76 79 84 80 77 81 78 82 82 83 85 84 79 85 80 86
REMARK SMILES IDX 83 87 81 88 60 89 61 90 69 91 62 92 63 93 67 94 70 95 64 96
REMARK SMILES IDX 65 97 68 98 66 99
REMARK H PARENT 6 12 90 52 58 63
REMARK Flexibility Score: inf
ROOT
ATOM      1  C   UNL A   1      35.996  21.565  25.508  1.00  0.00     0.274 C 
ENDROOT
BRANCH   1   2
ATOM      2  O   UNL A   1      35.352  21.794  24.233  1.00  0.00    -0.461 OA
BRANCH   2   3
ATOM      3  C   UNL A   1      34.021  21.536  24.200  1.00  0.00     0.329 C 
ATOM      4  O   UNL A   1      33.238  22.077  23.425  1.00  0.00    -0.250 OA
BRANCH   3   5
ATOM      5  C   UNL A   1      33.539  20.565  25.297  1.00  0.00     0.195 C 
BRANCH   5   6
ATOM      6  C   UNL A   1      33.009  19.238  24.629  1.00  0.00     0.019 C 
ATOM      7  C   UNL A   1      32.477  19.379  23.188  1.00  0.00     0.010 C 
BRANCH   6   8
ATOM      8  C   UNL A   1      34.087  18.131  24.629  1.00  0.00     0.002 C 
ATOM      9  C   UNL A   1      34.017  17.224  23.410  1.00  0.00     0.004 C 
ENDBRANCH   6   8
ENDBRANCH   5   6
BRANCH   5  10
ATOM     10  N   UNL A   1      32.570  21.065  26.320  1.00  0.00    -0.339 N 
ATOM     11  C   UNL A   1      32.773  22.249  27.020  1.00  0.00     0.261 C 
ATOM     12  H   UNL A   1      31.760  20.536  26.505  1.00  0.00     0.164 HD
ATOM     13  O   UNL A   1      33.441  22.202  28.053  1.00  0.00    -0.271 OA
BRANCH  11  14
ATOM     14  C   UNL A   1      31.921  23.485  26.615  1.00  0.00     0.258 C 
ATOM     15  C   UNL A   1      30.447  23.193  26.468  1.00  0.00     0.064 C 
BRANCH  14  16
ATOM     16  O   UNL A   1      32.449  24.342  25.607  1.00  0.00    -0.480 OA
BRANCH  16  17
ATOM     17  C   UNL A   1      32.206  25.676  25.462  1.00  0.00     0.127 A 
ATOM     18  C   UNL A   1      32.558  26.684  26.357  1.00  0.00     0.047 A 
ATOM     19  C   UNL A   1      31.530  26.036  24.281  1.00  0.00     0.035 A 
ATOM     20  C   UNL A   1      32.226  28.026  26.109  1.00  0.00     0.016 A 
ATOM     21  C   UNL A   1      31.111  27.373  24.114  1.00  0.00     0.145 A 
ATOM     22  C   UNL A   1      31.190  25.011  23.231  1.00  0.00     0.052 C 
ATOM     23  C   UNL A   1      31.443  28.386  25.009  1.00  0.00     0.021 A 
ATOM     24  O   UNL A   1      30.281  27.650  23.011  1.00  0.00    -0.422 OA
ATOM     25  C   UNL A   1      30.895  29.742  24.807  1.00  0.00    -0.030 A 
ATOM     26  C   UNL A   1      29.607  28.853  22.885  1.00  0.00     0.339 A 
ATOM     27  C   UNL A   1      31.348  30.833  25.743  1.00  0.00     0.045 C 
ATOM     28  C   UNL A   1      29.972  29.935  23.840  1.00  0.00     0.038 A 
ATOM     29  O   UNL A   1      28.773  29.016  22.001  1.00  0.00    -0.246 OA
ATOM     30  C   UNL A   1      29.225  31.230  23.660  1.00  0.00     0.052 C 
ENDBRANCH  16  17
ENDBRANCH  14  16
ENDBRANCH  11  14
ENDBRANCH   5  10
ENDBRANCH   3   5
ENDBRANCH   2   3
ENDBRANCH   1   2
BRANCH   1  31
ATOM     31  C   UNL A   1      37.220  20.647  25.384  1.00  0.00     0.275 C 
BRANCH  31  32
ATOM     32  O   UNL A   1      38.424  21.425  25.240  1.00  0.00    -0.458 OA
BRANCH  32  33
ATOM     33  C   UNL A   1      39.351  21.280  26.216  1.00  0.00     0.338 C 
ATOM     34  O   UNL A   1      39.741  20.226  26.688  1.00  0.00    -0.246 OA
BRANCH  33  35
ATOM     35  C   UNL A   1      39.850  22.600  26.680  1.00  0.00     0.060 A 
ATOM     36  C   UNL A   1      40.874  22.743  27.623  1.00  0.00     0.016 A 
ATOM     37  C   UNL A   1      39.248  23.742  26.143  1.00  0.00     0.016 A 
ATOM     38  C   UNL A   1      41.317  24.015  28.004  1.00  0.00     0.010 A 
ATOM     39  C   UNL A   1      39.711  25.011  26.493  1.00  0.00     0.010 A 
ATOM     40  C   UNL A   1      40.760  25.154  27.412  1.00  0.00    -0.014 A 
BRANCH  40  41
ATOM     41  C   UNL A   1      41.352  26.498  27.611  1.00  0.00     0.031 A 
ATOM     42  C   UNL A   1      42.787  26.767  27.282  1.00  0.00     0.074 A 
ATOM     43  C   UNL A   1      40.594  27.436  28.210  1.00  0.00     0.049 A 
ATOM     44  N   UNL A   1      43.513  27.822  27.556  1.00  0.00    -0.248 NA
ATOM     45  C   UNL A   1      43.507  25.710  26.558  1.00  0.00     0.031 C 
ATOM     46  C   UNL A   1      39.186  27.266  28.575  1.00  0.00     0.029 A 
ATOM     47  N   UNL A   1      40.902  28.699  28.647  1.00  0.00    -0.354 N 
ATOM     48  C   UNL A   1      44.775  27.558  27.043  1.00  0.00     0.074 A 
ATOM     49  C   UNL A   1      44.724  26.232  26.461  1.00  0.00     0.031 C 
ATOM     50  C   UNL A   1      38.756  28.375  29.193  1.00  0.00     0.029 A 
ATOM     51  C   UNL A   1      39.867  29.315  29.306  1.00  0.00     0.049 A 
ATOM     52  H   UNL A   1      41.779  29.122  28.503  1.00  0.00     0.167 HD
ATOM     53  C   UNL A   1      45.868  28.359  27.058  1.00  0.00     0.037 A 
ATOM     54  C   UNL A   1      39.824  30.492  29.955  1.00  0.00     0.037 A 
ATOM     55  C   UNL A   1      45.899  29.670  27.657  1.00  0.00     0.049 A 
ATOM     56  C   UNL A   1      41.063  31.338  30.003  1.00  0.00     0.074 A 
ATOM     57  C   UNL A   1      46.948  30.571  27.713  1.00  0.00     0.029 A 
ATOM     58  N   UNL A   1      44.828  30.264  28.313  1.00  0.00    -0.354 N 
ATOM     59  N   UNL A   1      42.247  31.088  29.500  1.00  0.00    -0.248 NA
ATOM     60  C   UNL A   1      40.963  32.623  30.705  1.00  0.00     0.031 C 
ATOM     61  C   UNL A   1      46.526  31.691  28.439  1.00  0.00     0.029 A 
ATOM     62  C   UNL A   1      45.199  31.509  28.796  1.00  0.00     0.049 A 
ATOM     63  H   UNL A   1      43.937  29.859  28.421  1.00  0.00     0.167 HD
ATOM     64  C   UNL A   1      43.033  32.186  29.811  1.00  0.00     0.074 A 
ATOM     65  C   UNL A   1      42.183  33.113  30.536  1.00  0.00     0.031 C 
ATOM     66  C   UNL A   1      44.339  32.407  29.525  1.00  0.00     0.037 A 
BRANCH  53  67
ATOM     67  C   UNL A   1      47.125  27.844  26.416  1.00  0.00     0.064 A 
ATOM     68  C   UNL A   1      48.116  27.194  27.166  1.00  0.00     0.173 A 
ATOM     69  C   UNL A   1      47.313  27.942  25.029  1.00  0.00     0.173 A 
ATOM     70  F   UNL A   1      47.990  27.082  28.497  1.00  0.00    -0.203 F 
ATOM     71  C   UNL A   1      49.254  26.673  26.553  1.00  0.00     0.198 A 
ATOM     72  C   UNL A   1      48.440  27.399  24.416  1.00  0.00     0.198 A 
ATOM     73  F   UNL A   1      46.393  28.548  24.262  1.00  0.00    -0.203 F 
ATOM     74  F   UNL A   1      50.201  26.082  27.295  1.00  0.00    -0.200 F 
ATOM     75  C   UNL A   1      49.411  26.769  25.179  1.00  0.00     0.200 A 
ATOM     76  F   UNL A   1      48.585  27.482  23.086  1.00  0.00    -0.200 F 
ATOM     77  F   UNL A   1      50.500  26.257  24.589  1.00  0.00    -0.200 F 
ENDBRANCH  53  67
BRANCH  54  78
ATOM     78  C   UNL A   1      38.551  30.927  30.581  1.00  0.00     0.064 A 
ATOM     79  C   UNL A   1      38.364  30.819  31.966  1.00  0.00     0.173 A 
ATOM     80  C   UNL A   1      37.535  31.537  29.830  1.00  0.00     0.173 A 
ATOM     81  F   UNL A   1      39.301  30.228  32.722  1.00  0.00    -0.203 F 
ATOM     82  C   UNL A   1      37.215  31.314  32.576  1.00  0.00     0.198 A 
ATOM     83  C   UNL A   1      36.396  32.053  30.445  1.00  0.00     0.198 A 
ATOM     84  F   UNL A   1      37.670  31.671  28.502  1.00  0.00    -0.203 F 
ATOM     85  F   UNL A   1      37.058  31.192  33.902  1.00  0.00    -0.200 F 
ATOM     86  C   UNL A   1      36.237  31.942  31.818  1.00  0.00     0.200 A 
ATOM     87  F   UNL A   1      35.463  32.676  29.712  1.00  0.00    -0.200 F 
ATOM     88  F   UNL A   1      35.146  32.445  32.412  1.00  0.00    -0.200 F 
ENDBRANCH  54  78
BRANCH  66  89
ATOM     89  C   UNL A   1      44.928  33.704  29.992  1.00  0.00     0.064 A 
ATOM     90  C   UNL A   1      45.566  33.807  31.237  1.00  0.00     0.173 A 
ATOM     91  C   UNL A   1      44.896  34.839  29.169  1.00  0.00     0.173 A 
ATOM     92  F   UNL A   1      45.606  32.753  32.065  1.00  0.00    -0.203 F 
ATOM     93  C   UNL A   1      46.140  35.008  31.646  1.00  0.00     0.198 A 
ATOM     94  C   UNL A   1      45.492  36.030  29.571  1.00  0.00     0.198 A 
ATOM     95  F   UNL A   1      44.300  34.785  27.968  1.00  0.00    -0.203 F 
ATOM     96  F   UNL A   1      46.714  35.096  32.854  1.00  0.00    -0.200 F 
ATOM     97  C   UNL A   1      46.108  36.115  30.810  1.00  0.00     0.200 A 
ATOM     98  F   UNL A   1      45.469  37.096  28.760  1.00  0.00    -0.200 F 
ATOM     99  F   UNL A   1      46.669  37.268  31.203  1.00  0.00    -0.200 F 
ENDBRANCH  66  89
ENDBRANCH  40  41
ENDBRANCH  33  35
ENDBRANCH  32  33
ENDBRANCH  31  32
ENDBRANCH   1  31
TORSDOF 17
ENDMDL
