MODEL 1
REMARK VINA RESULT:     -11.1      0.000      0.000
REMARK SMILES CCc1nnsc1C(=O)N[C@](C)(CC)C(=O)OCCOC(=O)c1ccc(-c2c3nc(c(-c4c(F)c(F)c(F)c(F)c4F)c4ccc([nH]4)c(-c4c(F)c(F)c(F)c(F)c4F)c4nc(c(-c5c(F)c(F)c(F)c(F)c5F)c5ccc2[nH]5)C=C4)C=C3)cc1
REMARK SMILES IDX 18 1 17 2 15 3 16 4 11 5 12 6 10 7 8 8 9 9 7 11 3 12 4 13
REMARK SMILES IDX 5 14 6 15 2 16 1 17 13 18 14 19 19 20 20 21 21 22 22 23
REMARK SMILES IDX 23 24 24 25 85 26 25 27 84 28 26 29 27 30 28 31 78 32 29 33
REMARK SMILES IDX 83 34 77 35 79 36 30 37 82 38 76 39 75 40 31 42 63 43 43 44
REMARK SMILES IDX 62 45 44 46 47 47 61 48 80 49 45 50 46 51 60 53 81 54 48 55
REMARK SMILES IDX 32 56 33 57 41 58 34 59 35 60 39 61 42 62 36 63 37 64 40 65
REMARK SMILES IDX 38 66 64 67 65 68 73 69 66 70 67 71 71 72 74 73 68 74 69 75
REMARK SMILES IDX 72 76 70 77 49 78 50 79 58 80 51 81 52 82 56 83 59 84 53 85
REMARK SMILES IDX 54 86 57 87 55 88
REMARK H PARENT 10 10 79 41 47 52
REMARK Flexibility Score: inf
ROOT
ATOM      1  C   UNL A   1      31.773  28.416  26.307  1.00  0.00     0.274 C 
ENDROOT
BRANCH   1   2
ATOM      2  O   UNL A   1      31.935  27.279  25.431  1.00  0.00    -0.460 OA
BRANCH   2   3
ATOM      3  C   UNL A   1      31.319  26.155  25.886  1.00  0.00     0.331 C 
ATOM      4  O   UNL A   1      30.330  26.172  26.613  1.00  0.00    -0.249 OA
BRANCH   3   5
ATOM      5  C   UNL A   1      32.050  24.856  25.457  1.00  0.00     0.135 C 
ATOM      6  C   UNL A   1      31.495  24.041  24.283  1.00  0.00     0.047 C 
BRANCH   5   7
ATOM      7  N   UNL A   1      32.110  23.953  26.630  1.00  0.00    -0.336 N 
ATOM      8  C   UNL A   1      32.868  22.868  27.005  1.00  0.00     0.265 C 
ATOM      9  O   UNL A   1      32.717  22.585  28.201  1.00  0.00    -0.268 OA
ATOM     10  H   UNL A   1      31.441  24.188  27.312  1.00  0.00     0.165 HD
BRANCH   8  11
ATOM     11  C   UNL A   1      33.692  22.043  26.138  1.00  0.00     0.136 A 
ATOM     12  C   UNL A   1      35.002  21.951  25.661  1.00  0.00     0.088 A 
ATOM     13  N   UNL A   1      35.265  20.828  24.871  1.00  0.00    -0.142 NA
ATOM     14  N   UNL A   1      34.219  20.045  24.737  1.00  0.00    -0.090 NA
ATOM     15  S   UNL A   1      32.883  20.619  25.535  1.00  0.00    -0.006 S 
BRANCH  12  16
ATOM     16  C   UNL A   1      36.205  22.792  25.892  1.00  0.00     0.056 C 
ATOM     17  C   UNL A   1      37.238  22.678  24.784  1.00  0.00     0.011 C 
ENDBRANCH  12  16
ENDBRANCH   8  11
ENDBRANCH   5   7
BRANCH   5  18
ATOM     18  C   UNL A   1      33.504  25.290  25.090  1.00  0.00     0.037 C 
ATOM     19  C   UNL A   1      33.931  24.982  23.652  1.00  0.00     0.007 C 
ENDBRANCH   5  18
ENDBRANCH   3   5
ENDBRANCH   2   3
ENDBRANCH   1   2
BRANCH   1  20
ATOM     20  C   UNL A   1      31.964  29.700  25.507  1.00  0.00     0.275 C 
BRANCH  20  21
ATOM     21  O   UNL A   1      33.273  30.200  25.815  1.00  0.00    -0.458 OA
BRANCH  21  22
ATOM     22  C   UNL A   1      33.350  31.074  26.840  1.00  0.00     0.338 C 
ATOM     23  O   UNL A   1      32.516  31.905  27.170  1.00  0.00    -0.246 OA
BRANCH  22  24
ATOM     24  C   UNL A   1      34.626  30.843  27.545  1.00  0.00     0.060 A 
ATOM     25  C   UNL A   1      34.975  29.547  27.941  1.00  0.00     0.016 A 
ATOM     26  C   UNL A   1      35.454  31.917  27.869  1.00  0.00     0.016 A 
ATOM     27  C   UNL A   1      36.145  29.326  28.660  1.00  0.00     0.010 A 
ATOM     28  C   UNL A   1      36.658  31.683  28.544  1.00  0.00     0.010 A 
ATOM     29  C   UNL A   1      37.012  30.383  28.951  1.00  0.00    -0.014 A 
BRANCH  29  30
ATOM     30  C   UNL A   1      38.232  30.139  29.763  1.00  0.00     0.031 A 
ATOM     31  C   UNL A   1      39.343  29.317  29.181  1.00  0.00     0.074 A 
ATOM     32  C   UNL A   1      38.388  30.688  30.985  1.00  0.00     0.049 A 
ATOM     33  N   UNL A   1      40.366  28.761  29.774  1.00  0.00    -0.248 NA
ATOM     34  C   UNL A   1      39.288  29.088  27.728  1.00  0.00     0.031 C 
ATOM     35  C   UNL A   1      37.453  31.609  31.632  1.00  0.00     0.029 A 
ATOM     36  N   UNL A   1      39.407  30.557  31.897  1.00  0.00    -0.354 N 
ATOM     37  C   UNL A   1      41.030  28.049  28.785  1.00  0.00     0.074 A 
ATOM     38  C   UNL A   1      40.316  28.271  27.546  1.00  0.00     0.031 C 
ATOM     39  C   UNL A   1      37.960  31.991  32.814  1.00  0.00     0.029 A 
ATOM     40  C   UNL A   1      39.200  31.261  33.059  1.00  0.00     0.049 A 
ATOM     41  H   UNL A   1      40.209  30.012  31.733  1.00  0.00     0.167 HD
ATOM     42  C   UNL A   1      42.124  27.262  28.913  1.00  0.00     0.037 A 
ATOM     43  C   UNL A   1      39.900  31.269  34.211  1.00  0.00     0.037 A 
ATOM     44  C   UNL A   1      42.859  27.098  30.139  1.00  0.00     0.049 A 
ATOM     45  C   UNL A   1      41.089  30.354  34.347  1.00  0.00     0.074 A 
ATOM     46  C   UNL A   1      43.949  26.286  30.395  1.00  0.00     0.029 A 
ATOM     47  N   UNL A   1      42.589  27.790  31.311  1.00  0.00    -0.354 N 
ATOM     48  N   UNL A   1      41.628  29.558  33.456  1.00  0.00    -0.248 NA
ATOM     49  C   UNL A   1      41.740  30.307  35.665  1.00  0.00     0.031 C 
ATOM     50  C   UNL A   1      44.327  26.470  31.731  1.00  0.00     0.029 A 
ATOM     51  C   UNL A   1      43.493  27.424  32.295  1.00  0.00     0.049 A 
ATOM     52  H   UNL A   1      41.863  28.443  31.427  1.00  0.00     0.167 HD
ATOM     53  C   UNL A   1      42.674  28.913  34.103  1.00  0.00     0.074 A 
ATOM     54  C   UNL A   1      42.716  29.435  35.454  1.00  0.00     0.031 C 
ATOM     55  C   UNL A   1      43.515  27.962  33.630  1.00  0.00     0.037 A 
BRANCH  42  56
ATOM     56  C   UNL A   1      42.536  26.464  27.715  1.00  0.00     0.064 A 
ATOM     57  C   UNL A   1      43.517  26.911  26.819  1.00  0.00     0.173 A 
ATOM     58  C   UNL A   1      41.926  25.226  27.458  1.00  0.00     0.173 A 
ATOM     59  F   UNL A   1      44.110  28.099  27.006  1.00  0.00    -0.203 F 
ATOM     60  C   UNL A   1      43.854  26.159  25.696  1.00  0.00     0.198 A 
ATOM     61  C   UNL A   1      42.282  24.465  26.350  1.00  0.00     0.198 A 
ATOM     62  F   UNL A   1      40.978  24.756  28.284  1.00  0.00    -0.203 F 
ATOM     63  F   UNL A   1      44.756  26.629  24.824  1.00  0.00    -0.200 F 
ATOM     64  C   UNL A   1      43.240  24.936  25.464  1.00  0.00     0.200 A 
ATOM     65  F   UNL A   1      41.691  23.282  26.132  1.00  0.00    -0.200 F 
ATOM     66  F   UNL A   1      43.563  24.216  24.381  1.00  0.00    -0.200 F 
ENDBRANCH  42  56
BRANCH  43  67
ATOM     67  C   UNL A   1      39.451  32.106  35.356  1.00  0.00     0.064 A 
ATOM     68  C   UNL A   1      38.543  31.611  36.303  1.00  0.00     0.173 A 
ATOM     69  C   UNL A   1      39.901  33.426  35.517  1.00  0.00     0.173 A 
ATOM     70  F   UNL A   1      38.055  30.368  36.175  1.00  0.00    -0.203 F 
ATOM     71  C   UNL A   1      38.100  32.404  37.360  1.00  0.00     0.198 A 
ATOM     72  C   UNL A   1      39.483  34.207  36.592  1.00  0.00     0.198 A 
ATOM     73  F   UNL A   1      40.759  33.955  34.631  1.00  0.00    -0.203 F 
ATOM     74  F   UNL A   1      37.198  31.920  38.225  1.00  0.00    -0.200 F 
ATOM     75  C   UNL A   1      38.577  33.697  37.510  1.00  0.00     0.200 A 
ATOM     76  F   UNL A   1      39.955  35.452  36.736  1.00  0.00    -0.200 F 
ATOM     77  F   UNL A   1      38.156  34.457  38.529  1.00  0.00    -0.200 F 
ENDBRANCH  43  67
BRANCH  55  78
ATOM     78  C   UNL A   1      44.555  27.439  34.573  1.00  0.00     0.064 A 
ATOM     79  C   UNL A   1      44.325  26.296  35.351  1.00  0.00     0.173 A 
ATOM     80  C   UNL A   1      45.807  28.063  34.668  1.00  0.00     0.173 A 
ATOM     81  F   UNL A   1      43.137  25.674  35.304  1.00  0.00    -0.203 F 
ATOM     82  C   UNL A   1      45.309  25.807  36.207  1.00  0.00     0.198 A 
ATOM     83  C   UNL A   1      46.795  27.559  35.508  1.00  0.00     0.198 A 
ATOM     84  F   UNL A   1      46.075  29.158  33.939  1.00  0.00    -0.203 F 
ATOM     85  F   UNL A   1      45.056  24.734  36.970  1.00  0.00    -0.200 F 
ATOM     86  C   UNL A   1      46.543  26.434  36.281  1.00  0.00     0.200 A 
ATOM     87  F   UNL A   1      47.990  28.161  35.573  1.00  0.00    -0.200 F 
ATOM     88  F   UNL A   1      47.490  25.960  37.103  1.00  0.00    -0.200 F 
ENDBRANCH  55  78
ENDBRANCH  29  30
ENDBRANCH  22  24
ENDBRANCH  21  22
ENDBRANCH  20  21
ENDBRANCH   1  20
TORSDOF 15
ENDMDL
MODEL 2
REMARK VINA RESULT:     -11.1      1.113      2.227
REMARK SMILES CCc1nnsc1C(=O)N[C@](C)(CC)C(=O)OCCOC(=O)c1ccc(-c2c3nc(c(-c4c(F)c(F)c(F)c(F)c4F)c4ccc([nH]4)c(-c4c(F)c(F)c(F)c(F)c4F)c4nc(c(-c5c(F)c(F)c(F)c(F)c5F)c5ccc2[nH]5)C=C4)C=C3)cc1
REMARK SMILES IDX 18 1 17 2 15 3 16 4 11 5 12 6 10 7 8 8 9 9 7 11 3 12 4 13
REMARK SMILES IDX 5 14 6 15 2 16 1 17 13 18 14 19 19 20 20 21 21 22 22 23
REMARK SMILES IDX 23 24 24 25 85 26 25 27 84 28 26 29 27 30 28 31 78 32 29 33
REMARK SMILES IDX 83 34 77 35 79 36 30 37 82 38 76 39 75 40 31 42 63 43 43 44
REMARK SMILES IDX 62 45 44 46 47 47 61 48 80 49 45 50 46 51 60 53 81 54 48 55
REMARK SMILES IDX 32 56 33 57 41 58 34 59 35 60 39 61 42 62 36 63 37 64 40 65
REMARK SMILES IDX 38 66 64 67 65 68 73 69 66 70 67 71 71 72 74 73 68 74 69 75
REMARK SMILES IDX 72 76 70 77 49 78 50 79 58 80 51 81 52 82 56 83 59 84 53 85
REMARK SMILES IDX 54 86 57 87 55 88
REMARK H PARENT 10 10 79 41 47 52
REMARK Flexibility Score: inf
ROOT
ATOM      1  C   UNL A   1      31.878  28.137  25.763  1.00  0.00     0.274 C 
ENDROOT
BRANCH   1   2
ATOM      2  O   UNL A   1      32.295  27.288  24.671  1.00  0.00    -0.460 OA
BRANCH   2   3
ATOM      3  C   UNL A   1      31.660  26.085  24.650  1.00  0.00     0.331 C 
ATOM      4  O   UNL A   1      30.441  25.965  24.567  1.00  0.00    -0.249 OA
BRANCH   3   5
ATOM      5  C   UNL A   1      32.633  24.890  24.826  1.00  0.00     0.135 C 
ATOM      6  C   UNL A   1      33.885  25.070  25.693  1.00  0.00     0.047 C 
BRANCH   5   7
ATOM      7  N   UNL A   1      33.086  24.463  23.481  1.00  0.00    -0.336 N 
ATOM      8  C   UNL A   1      33.854  23.440  22.975  1.00  0.00     0.265 C 
ATOM      9  O   UNL A   1      33.755  23.349  21.744  1.00  0.00    -0.268 OA
ATOM     10  H   UNL A   1      32.753  25.060  22.773  1.00  0.00     0.165 HD
BRANCH   8  11
ATOM     11  C   UNL A   1      34.771  22.594  23.719  1.00  0.00     0.136 A 
ATOM     12  C   UNL A   1      34.768  21.490  24.575  1.00  0.00     0.088 A 
ATOM     13  N   UNL A   1      36.035  21.020  24.937  1.00  0.00    -0.142 NA
ATOM     14  N   UNL A   1      37.008  21.705  24.381  1.00  0.00    -0.090 NA
ATOM     15  S   UNL A   1      36.456  22.935  23.417  1.00  0.00    -0.006 S 
BRANCH  12  16
ATOM     16  C   UNL A   1      33.664  20.664  25.127  1.00  0.00     0.056 C 
ATOM     17  C   UNL A   1      32.703  20.159  24.064  1.00  0.00     0.011 C 
ENDBRANCH  12  16
ENDBRANCH   8  11
ENDBRANCH   5   7
BRANCH   5  18
ATOM     18  C   UNL A   1      31.782  23.740  25.452  1.00  0.00     0.037 C 
ATOM     19  C   UNL A   1      31.833  23.652  26.980  1.00  0.00     0.007 C 
ENDBRANCH   5  18
ENDBRANCH   3   5
ENDBRANCH   2   3
ENDBRANCH   1   2
BRANCH   1  20
ATOM     20  C   UNL A   1      31.900  29.592  25.306  1.00  0.00     0.275 C 
BRANCH  20  21
ATOM     21  O   UNL A   1      33.175  30.133  25.680  1.00  0.00    -0.458 OA
BRANCH  21  22
ATOM     22  C   UNL A   1      33.186  30.932  26.768  1.00  0.00     0.338 C 
ATOM     23  O   UNL A   1      32.296  31.679  27.148  1.00  0.00    -0.246 OA
BRANCH  22  24
ATOM     24  C   UNL A   1      34.469  30.733  27.470  1.00  0.00     0.060 A 
ATOM     25  C   UNL A   1      34.846  29.449  27.876  1.00  0.00     0.016 A 
ATOM     26  C   UNL A   1      35.277  31.828  27.780  1.00  0.00     0.016 A 
ATOM     27  C   UNL A   1      36.024  29.258  28.593  1.00  0.00     0.010 A 
ATOM     28  C   UNL A   1      36.488  31.624  28.452  1.00  0.00     0.010 A 
ATOM     29  C   UNL A   1      36.870  30.336  28.869  1.00  0.00    -0.014 A 
BRANCH  29  30
ATOM     30  C   UNL A   1      38.098  30.124  29.679  1.00  0.00     0.031 A 
ATOM     31  C   UNL A   1      39.221  29.316  29.100  1.00  0.00     0.074 A 
ATOM     32  C   UNL A   1      38.249  30.690  30.893  1.00  0.00     0.049 A 
ATOM     33  N   UNL A   1      40.257  28.786  29.696  1.00  0.00    -0.248 NA
ATOM     34  C   UNL A   1      39.164  29.068  27.651  1.00  0.00     0.031 C 
ATOM     35  C   UNL A   1      37.301  31.602  31.533  1.00  0.00     0.029 A 
ATOM     36  N   UNL A   1      39.275  30.590  31.801  1.00  0.00    -0.354 N 
ATOM     37  C   UNL A   1      40.930  28.075  28.712  1.00  0.00     0.074 A 
ATOM     38  C   UNL A   1      40.206  28.269  27.474  1.00  0.00     0.031 C 
ATOM     39  C   UNL A   1      37.805  32.007  32.708  1.00  0.00     0.029 A 
ATOM     40  C   UNL A   1      39.060  31.304  32.956  1.00  0.00     0.049 A 
ATOM     41  H   UNL A   1      40.087  30.058  31.640  1.00  0.00     0.167 HD
ATOM     42  C   UNL A   1      42.039  27.310  28.845  1.00  0.00     0.037 A 
ATOM     43  C   UNL A   1      39.765  31.339  34.104  1.00  0.00     0.037 A 
ATOM     44  C   UNL A   1      42.782  27.174  30.068  1.00  0.00     0.049 A 
ATOM     45  C   UNL A   1      40.972  30.449  34.246  1.00  0.00     0.074 A 
ATOM     46  C   UNL A   1      43.889  26.386  30.329  1.00  0.00     0.029 A 
ATOM     47  N   UNL A   1      42.506  27.875  31.233  1.00  0.00    -0.354 N 
ATOM     48  N   UNL A   1      41.522  29.652  33.362  1.00  0.00    -0.248 NA
ATOM     49  C   UNL A   1      41.630  30.429  35.561  1.00  0.00     0.031 C 
ATOM     50  C   UNL A   1      44.270  26.594  31.660  1.00  0.00     0.029 A 
ATOM     51  C   UNL A   1      43.421  27.539  32.217  1.00  0.00     0.049 A 
ATOM     52  H   UNL A   1      41.767  28.517  31.345  1.00  0.00     0.167 HD
ATOM     53  C   UNL A   1      42.583  29.035  34.011  1.00  0.00     0.074 A 
ATOM     54  C   UNL A   1      42.621  29.573  35.355  1.00  0.00     0.031 C 
ATOM     55  C   UNL A   1      43.439  28.093  33.545  1.00  0.00     0.037 A 
BRANCH  42  56
ATOM     56  C   UNL A   1      42.461  26.505  27.654  1.00  0.00     0.064 A 
ATOM     57  C   UNL A   1      41.921  25.242  27.374  1.00  0.00     0.173 A 
ATOM     58  C   UNL A   1      43.434  27.013  26.779  1.00  0.00     0.173 A 
ATOM     59  F   UNL A   1      41.007  24.702  28.195  1.00  0.00    -0.203 F 
ATOM     60  C   UNL A   1      42.359  24.506  26.276  1.00  0.00     0.198 A 
ATOM     61  C   UNL A   1      43.851  26.286  25.669  1.00  0.00     0.198 A 
ATOM     62  F   UNL A   1      43.984  28.216  27.005  1.00  0.00    -0.203 F 
ATOM     63  F   UNL A   1      41.868  23.279  26.057  1.00  0.00    -0.200 F 
ATOM     64  C   UNL A   1      43.319  25.029  25.422  1.00  0.00     0.200 A 
ATOM     65  F   UNL A   1      44.776  26.797  24.843  1.00  0.00    -0.200 F 
ATOM     66  F   UNL A   1      43.743  24.318  24.368  1.00  0.00    -0.200 F 
ENDBRANCH  42  56
BRANCH  43  67
ATOM     67  C   UNL A   1      39.306  32.182  35.241  1.00  0.00     0.064 A 
ATOM     68  C   UNL A   1      38.513  31.646  36.265  1.00  0.00     0.173 A 
ATOM     69  C   UNL A   1      39.630  33.545  35.317  1.00  0.00     0.173 A 
ATOM     70  F   UNL A   1      38.146  30.356  36.221  1.00  0.00    -0.203 F 
ATOM     71  C   UNL A   1      38.059  32.441  37.316  1.00  0.00     0.198 A 
ATOM     72  C   UNL A   1      39.203  34.332  36.385  1.00  0.00     0.198 A 
ATOM     73  F   UNL A   1      40.374  34.113  34.356  1.00  0.00    -0.203 F 
ATOM     74  F   UNL A   1      37.265  31.912  38.258  1.00  0.00    -0.200 F 
ATOM     75  C   UNL A   1      38.412  33.780  37.381  1.00  0.00     0.200 A 
ATOM     76  F   UNL A   1      39.555  35.623  36.446  1.00  0.00    -0.200 F 
ATOM     77  F   UNL A   1      37.980  34.543  38.394  1.00  0.00    -0.200 F 
ENDBRANCH  43  67
BRANCH  55  78
ATOM     78  C   UNL A   1      44.493  27.601  34.489  1.00  0.00     0.064 A 
ATOM     79  C   UNL A   1      45.724  28.262  34.616  1.00  0.00     0.173 A 
ATOM     80  C   UNL A   1      44.255  26.484  35.302  1.00  0.00     0.173 A 
ATOM     81  F   UNL A   1      46.002  29.326  33.848  1.00  0.00    -0.203 F 
ATOM     82  C   UNL A   1      46.687  27.807  35.513  1.00  0.00     0.198 A 
ATOM     83  C   UNL A   1      45.212  26.047  36.213  1.00  0.00     0.198 A 
ATOM     84  F   UNL A   1      43.091  25.822  35.219  1.00  0.00    -0.203 F 
ATOM     85  F   UNL A   1      47.871  28.431  35.593  1.00  0.00    -0.200 F 
ATOM     86  C   UNL A   1      46.429  26.705  36.314  1.00  0.00     0.200 A 
ATOM     87  F   UNL A   1      44.958  24.986  36.992  1.00  0.00    -0.200 F 
ATOM     88  F   UNL A   1      47.356  26.272  37.180  1.00  0.00    -0.200 F 
ENDBRANCH  55  78
ENDBRANCH  29  30
ENDBRANCH  22  24
ENDBRANCH  21  22
ENDBRANCH  20  21
ENDBRANCH   1  20
TORSDOF 15
ENDMDL
MODEL 3
REMARK VINA RESULT:     -11.1      0.904      1.953
REMARK SMILES CCc1nnsc1C(=O)N[C@](C)(CC)C(=O)OCCOC(=O)c1ccc(-c2c3nc(c(-c4c(F)c(F)c(F)c(F)c4F)c4ccc([nH]4)c(-c4c(F)c(F)c(F)c(F)c4F)c4nc(c(-c5c(F)c(F)c(F)c(F)c5F)c5ccc2[nH]5)C=C4)C=C3)cc1
REMARK SMILES IDX 18 1 17 2 15 3 16 4 11 5 12 6 10 7 8 8 9 9 7 11 3 12 4 13
REMARK SMILES IDX 5 14 6 15 2 16 1 17 13 18 14 19 19 20 20 21 21 22 22 23
REMARK SMILES IDX 23 24 24 25 85 26 25 27 84 28 26 29 27 30 28 31 78 32 29 33
REMARK SMILES IDX 83 34 77 35 79 36 30 37 82 38 76 39 75 40 31 42 63 43 43 44
REMARK SMILES IDX 62 45 44 46 47 47 61 48 80 49 45 50 46 51 60 53 81 54 48 55
REMARK SMILES IDX 32 56 33 57 41 58 34 59 35 60 39 61 42 62 36 63 37 64 40 65
REMARK SMILES IDX 38 66 64 67 65 68 73 69 66 70 67 71 71 72 74 73 68 74 69 75
REMARK SMILES IDX 72 76 70 77 49 78 50 79 58 80 51 81 52 82 56 83 59 84 53 85
REMARK SMILES IDX 54 86 57 87 55 88
REMARK H PARENT 10 10 79 41 47 52
REMARK Flexibility Score: inf
ROOT
ATOM      1  C   UNL A   1      31.501  29.069  25.052  1.00  0.00     0.274 C 
ENDROOT
BRANCH   1   2
ATOM      2  O   UNL A   1      32.310  28.081  25.728  1.00  0.00    -0.460 OA
BRANCH   2   3
ATOM      3  C   UNL A   1      31.585  27.062  26.262  1.00  0.00     0.331 C 
ATOM      4  O   UNL A   1      30.815  27.202  27.208  1.00  0.00    -0.249 OA
BRANCH   3   5
ATOM      5  C   UNL A   1      31.899  25.694  25.602  1.00  0.00     0.135 C 
ATOM      6  C   UNL A   1      31.562  25.485  24.121  1.00  0.00     0.047 C 
BRANCH   5   7
ATOM      7  N   UNL A   1      31.191  24.640  26.368  1.00  0.00    -0.336 N 
ATOM      8  C   UNL A   1      31.485  23.370  26.804  1.00  0.00     0.265 C 
ATOM      9  O   UNL A   1      30.658  22.958  27.630  1.00  0.00    -0.268 OA
ATOM     10  H   UNL A   1      30.285  24.920  26.629  1.00  0.00     0.165 HD
BRANCH   8  11
ATOM     11  C   UNL A   1      32.559  22.514  26.329  1.00  0.00     0.136 A 
ATOM     12  C   UNL A   1      33.018  21.909  25.157  1.00  0.00     0.088 A 
ATOM     13  N   UNL A   1      34.232  21.225  25.282  1.00  0.00    -0.142 NA
ATOM     14  N   UNL A   1      34.731  21.296  26.495  1.00  0.00    -0.090 NA
ATOM     15  S   UNL A   1      33.775  22.168  27.532  1.00  0.00    -0.006 S 
BRANCH  12  16
ATOM     16  C   UNL A   1      32.495  21.910  23.767  1.00  0.00     0.056 C 
ATOM     17  C   UNL A   1      32.162  20.521  23.251  1.00  0.00     0.011 C 
ENDBRANCH  12  16
ENDBRANCH   8  11
ENDBRANCH   5   7
BRANCH   5  18
ATOM     18  C   UNL A   1      33.437  25.484  25.775  1.00  0.00     0.037 C 
ATOM     19  C   UNL A   1      34.224  25.341  24.469  1.00  0.00     0.007 C 
ENDBRANCH   5  18
ENDBRANCH   3   5
ENDBRANCH   2   3
ENDBRANCH   1   2
BRANCH   1  20
ATOM     20  C   UNL A   1      31.667  30.417  25.744  1.00  0.00     0.275 C 
BRANCH  20  21
ATOM     21  O   UNL A   1      33.001  30.461  26.269  1.00  0.00    -0.458 OA
BRANCH  21  22
ATOM     22  C   UNL A   1      33.290  31.507  27.072  1.00  0.00     0.338 C 
ATOM     23  O   UNL A   1      32.630  32.524  27.232  1.00  0.00    -0.246 OA
BRANCH  22  24
ATOM     24  C   UNL A   1      34.551  31.209  27.778  1.00  0.00     0.060 A 
ATOM     25  C   UNL A   1      34.796  29.913  28.244  1.00  0.00     0.016 A 
ATOM     26  C   UNL A   1      35.471  32.226  28.032  1.00  0.00     0.016 A 
ATOM     27  C   UNL A   1      35.954  29.635  28.965  1.00  0.00     0.010 A 
ATOM     28  C   UNL A   1      36.660  31.930  28.708  1.00  0.00     0.010 A 
ATOM     29  C   UNL A   1      36.910  30.630  29.186  1.00  0.00    -0.014 A 
BRANCH  29  30
ATOM     30  C   UNL A   1      38.116  30.330  30.000  1.00  0.00     0.031 A 
ATOM     31  C   UNL A   1      39.215  29.506  29.398  1.00  0.00     0.074 A 
ATOM     32  C   UNL A   1      38.272  30.830  31.242  1.00  0.00     0.049 A 
ATOM     33  N   UNL A   1      40.220  28.907  29.980  1.00  0.00    -0.248 NA
ATOM     34  C   UNL A   1      39.170  29.331  27.938  1.00  0.00     0.031 C 
ATOM     35  C   UNL A   1      37.351  31.748  31.914  1.00  0.00     0.029 A 
ATOM     36  N   UNL A   1      39.279  30.645  32.158  1.00  0.00    -0.354 N 
ATOM     37  C   UNL A   1      40.879  28.217  28.971  1.00  0.00     0.074 A 
ATOM     38  C   UNL A   1      40.182  28.500  27.735  1.00  0.00     0.031 C 
ATOM     39  C   UNL A   1      37.853  32.075  33.114  1.00  0.00     0.029 A 
ATOM     40  C   UNL A   1      39.075  31.310  33.343  1.00  0.00     0.049 A 
ATOM     41  H   UNL A   1      40.071  30.088  31.982  1.00  0.00     0.167 HD
ATOM     42  C   UNL A   1      41.954  27.402  29.081  1.00  0.00     0.037 A 
ATOM     43  C   UNL A   1      39.764  31.261  34.501  1.00  0.00     0.037 A 
ATOM     44  C   UNL A   1      42.673  27.178  30.306  1.00  0.00     0.049 A 
ATOM     45  C   UNL A   1      40.932  30.317  34.615  1.00  0.00     0.074 A 
ATOM     46  C   UNL A   1      43.743  26.334  30.542  1.00  0.00     0.029 A 
ATOM     47  N   UNL A   1      42.407  27.832  31.500  1.00  0.00    -0.354 N 
ATOM     48  N   UNL A   1      41.463  29.542  33.700  1.00  0.00    -0.248 NA
ATOM     49  C   UNL A   1      41.569  30.207  35.936  1.00  0.00     0.031 C 
ATOM     50  C   UNL A   1      44.112  26.462  31.887  1.00  0.00     0.029 A 
ATOM     51  C   UNL A   1      43.293  27.412  32.478  1.00  0.00     0.049 A 
ATOM     52  H   UNL A   1      41.694  28.497  31.633  1.00  0.00     0.167 HD
ATOM     53  C   UNL A   1      42.489  28.852  34.332  1.00  0.00     0.074 A 
ATOM     54  C   UNL A   1      42.528  29.323  35.701  1.00  0.00     0.031 C 
ATOM     55  C   UNL A   1      43.314  27.900  33.832  1.00  0.00     0.037 A 
BRANCH  42  56
ATOM     56  C   UNL A   1      42.361  26.640  27.857  1.00  0.00     0.064 A 
ATOM     57  C   UNL A   1      43.334  27.116  26.967  1.00  0.00     0.173 A 
ATOM     58  C   UNL A   1      41.754  25.407  27.571  1.00  0.00     0.173 A 
ATOM     59  F   UNL A   1      43.923  28.301  27.183  1.00  0.00    -0.203 F 
ATOM     60  C   UNL A   1      43.666  26.397  25.822  1.00  0.00     0.198 A 
ATOM     61  C   UNL A   1      42.106  24.679  26.439  1.00  0.00     0.198 A 
ATOM     62  F   UNL A   1      40.815  24.910  28.390  1.00  0.00    -0.203 F 
ATOM     63  F   UNL A   1      44.560  26.895  24.956  1.00  0.00    -0.200 F 
ATOM     64  C   UNL A   1      43.056  25.178  25.560  1.00  0.00     0.200 A 
ATOM     65  F   UNL A   1      41.519  23.500  26.193  1.00  0.00    -0.200 F 
ATOM     66  F   UNL A   1      43.374  24.490  24.455  1.00  0.00    -0.200 F 
ENDBRANCH  42  56
BRANCH  43  67
ATOM     67  C   UNL A   1      39.322  32.065  35.671  1.00  0.00     0.064 A 
ATOM     68  C   UNL A   1      39.845  33.344  35.910  1.00  0.00     0.173 A 
ATOM     69  C   UNL A   1      38.385  31.566  36.589  1.00  0.00     0.173 A 
ATOM     70  F   UNL A   1      40.770  33.853  35.082  1.00  0.00    -0.203 F 
ATOM     71  C   UNL A   1      39.453  34.088  37.022  1.00  0.00     0.198 A 
ATOM     72  C   UNL A   1      37.969  32.323  37.682  1.00  0.00     0.198 A 
ATOM     73  F   UNL A   1      37.863  30.342  36.417  1.00  0.00    -0.203 F 
ATOM     74  F   UNL A   1      40.003  35.288  37.250  1.00  0.00    -0.200 F 
ATOM     75  C   UNL A   1      38.508  33.581  37.902  1.00  0.00     0.200 A 
ATOM     76  F   UNL A   1      37.049  31.832  38.523  1.00  0.00    -0.200 F 
ATOM     77  F   UNL A   1      38.127  34.298  38.967  1.00  0.00    -0.200 F 
ENDBRANCH  43  67
BRANCH  55  78
ATOM     78  C   UNL A   1      44.334  27.321  34.764  1.00  0.00     0.064 A 
ATOM     79  C   UNL A   1      45.583  27.930  34.948  1.00  0.00     0.173 A 
ATOM     80  C   UNL A   1      44.043  26.170  35.510  1.00  0.00     0.173 A 
ATOM     81  F   UNL A   1      45.911  29.024  34.244  1.00  0.00    -0.203 F 
ATOM     82  C   UNL A   1      46.514  27.394  35.834  1.00  0.00     0.198 A 
ATOM     83  C   UNL A   1      44.968  25.650  36.411  1.00  0.00     0.198 A 
ATOM     84  F   UNL A   1      42.859  25.555  35.371  1.00  0.00    -0.203 F 
ATOM     85  F   UNL A   1      47.717  27.971  35.967  1.00  0.00    -0.200 F 
ATOM     86  C   UNL A   1      46.204  26.260  36.568  1.00  0.00     0.200 A 
ATOM     87  F   UNL A   1      44.664  24.558  37.126  1.00  0.00    -0.200 F 
ATOM     88  F   UNL A   1      47.100  25.748  37.424  1.00  0.00    -0.200 F 
ENDBRANCH  55  78
ENDBRANCH  29  30
ENDBRANCH  22  24
ENDBRANCH  21  22
ENDBRANCH  20  21
ENDBRANCH   1  20
TORSDOF 15
ENDMDL
