MODEL 1
REMARK VINA RESULT:     -12.5      0.000      0.000
REMARK SMILES O=C(C[C@@H]1COc2ccccc2N1Cc1ccccc1)OCCOC(=O)c1ccc(-c2c3nc(c(-c4c(F)c(F)c(F)c(F)c4F)c4ccc([nH]4)c(-c4c(F)c(F)c(F)c(F)c4F)c4nc(c(-c5c(F)c(F)c(F)c(F)c5F)c5ccc2[nH]5)C=C4)C=C3)cc1
REMARK SMILES IDX 22 1 21 2 2 3 1 4 3 5 4 6 5 7 13 8 6 9 12 10 7 11 11 12 8 13
REMARK SMILES IDX 10 14 9 15 14 16 15 17 16 18 20 19 17 20 19 21 18 22 23 23
REMARK SMILES IDX 24 24 25 25 26 26 27 27 28 28 89 29 29 30 88 31 30 32 31 33
REMARK SMILES IDX 32 34 82 35 33 36 87 37 81 38 83 39 34 40 86 41 80 42 79 43
REMARK SMILES IDX 35 45 67 46 47 47 66 48 48 49 51 50 65 51 84 52 49 53 50 54
REMARK SMILES IDX 64 56 85 57 52 58 36 59 37 60 45 61 38 62 39 63 43 64 46 65
REMARK SMILES IDX 40 66 41 67 44 68 42 69 68 70 69 71 77 72 70 73 71 74 75 75
REMARK SMILES IDX 78 76 72 77 73 78 76 79 74 80 53 81 54 82 62 83 55 84 56 85
REMARK SMILES IDX 60 86 63 87 57 88 58 89 61 90 59 91
REMARK H PARENT 83 44 51 55
REMARK Flexibility Score: inf
ROOT
ATOM      1  C   UNL A   1      37.680  19.946  25.001  1.00  0.00     0.274 C 
ENDROOT
BRANCH   1   2
ATOM      2  O   UNL A   1      37.634  21.381  24.880  1.00  0.00    -0.462 OA
BRANCH   2   3
ATOM      3  C   UNL A   1      36.687  22.176  25.433  1.00  0.00     0.308 C 
ATOM      4  O   UNL A   1      36.990  23.289  25.853  1.00  0.00    -0.252 OA
BRANCH   3   5
ATOM      5  C   UNL A   1      35.281  21.639  25.551  1.00  0.00     0.151 C 
BRANCH   5   6
ATOM      6  C   UNL A   1      34.438  21.551  24.279  1.00  0.00     0.131 C 
ATOM      7  C   UNL A   1      34.424  22.759  23.334  1.00  0.00     0.255 C 
ATOM      8  N   UNL A   1      33.061  21.179  24.645  1.00  0.00    -0.357 N 
ATOM      9  O   UNL A   1      33.751  23.904  23.844  1.00  0.00    -0.489 OA
ATOM     10  C   UNL A   1      32.337  22.308  25.075  1.00  0.00     0.080 A 
ATOM     11  C   UNL A   1      32.677  23.612  24.654  1.00  0.00     0.142 A 
ATOM     12  C   UNL A   1      31.320  22.189  26.029  1.00  0.00     0.030 A 
ATOM     13  C   UNL A   1      31.978  24.732  25.115  1.00  0.00     0.048 A 
ATOM     14  C   UNL A   1      30.622  23.308  26.498  1.00  0.00     0.002 A 
ATOM     15  C   UNL A   1      30.942  24.578  26.031  1.00  0.00     0.004 A 
BRANCH   8  16
ATOM     16  C   UNL A   1      32.399  20.164  23.813  1.00  0.00     0.152 C 
BRANCH  16  17
ATOM     17  C   UNL A   1      32.732  18.728  24.148  1.00  0.00    -0.029 A 
ATOM     18  C   UNL A   1      32.529  18.216  25.438  1.00  0.00     0.005 A 
ATOM     19  C   UNL A   1      33.305  17.896  23.174  1.00  0.00     0.005 A 
ATOM     20  C   UNL A   1      32.925  16.913  25.750  1.00  0.00     0.000 A 
ATOM     21  C   UNL A   1      33.655  16.581  23.474  1.00  0.00     0.000 A 
ATOM     22  C   UNL A   1      33.483  16.098  24.767  1.00  0.00     0.000 A 
ENDBRANCH  16  17
ENDBRANCH   8  16
ENDBRANCH   5   6
ENDBRANCH   3   5
ENDBRANCH   2   3
ENDBRANCH   1   2
BRANCH   1  23
ATOM     23  C   UNL A   1      39.017  19.455  25.571  1.00  0.00     0.275 C 
BRANCH  23  24
ATOM     24  O   UNL A   1      39.971  20.534  25.666  1.00  0.00    -0.458 OA
BRANCH  24  25
ATOM     25  C   UNL A   1      40.763  20.528  26.769  1.00  0.00     0.338 C 
ATOM     26  O   UNL A   1      41.344  19.561  27.231  1.00  0.00    -0.246 OA
BRANCH  25  27
ATOM     27  C   UNL A   1      40.939  21.906  27.293  1.00  0.00     0.060 A 
ATOM     28  C   UNL A   1      40.258  22.944  26.644  1.00  0.00     0.016 A 
ATOM     29  C   UNL A   1      41.776  22.196  28.375  1.00  0.00     0.016 A 
ATOM     30  C   UNL A   1      40.478  24.274  27.014  1.00  0.00     0.010 A 
ATOM     31  C   UNL A   1      41.992  23.530  28.750  1.00  0.00     0.010 A 
ATOM     32  C   UNL A   1      41.387  24.580  28.035  1.00  0.00    -0.014 A 
BRANCH  32  33
ATOM     33  C   UNL A   1      41.856  25.981  28.208  1.00  0.00     0.031 A 
ATOM     34  C   UNL A   1      43.223  26.356  27.699  1.00  0.00     0.074 A 
ATOM     35  C   UNL A   1      41.082  26.939  28.748  1.00  0.00     0.049 A 
ATOM     36  N   UNL A   1      43.818  27.524  27.690  1.00  0.00    -0.248 NA
ATOM     37  C   UNL A   1      44.022  25.271  27.108  1.00  0.00     0.031 C 
ATOM     38  C   UNL A   1      39.714  26.757  29.217  1.00  0.00     0.029 A 
ATOM     39  N   UNL A   1      41.350  28.266  28.990  1.00  0.00    -0.354 N 
ATOM     40  C   UNL A   1      45.038  27.321  27.060  1.00  0.00     0.074 A 
ATOM     41  C   UNL A   1      45.135  25.906  26.772  1.00  0.00     0.031 C 
ATOM     42  C   UNL A   1      39.271  27.925  29.715  1.00  0.00     0.029 A 
ATOM     43  C   UNL A   1      40.332  28.924  29.631  1.00  0.00     0.049 A 
ATOM     44  H   UNL A   1      42.193  28.703  28.728  1.00  0.00     0.167 HD
ATOM     45  C   UNL A   1      45.976  28.232  26.712  1.00  0.00     0.037 A 
ATOM     46  C   UNL A   1      40.259  30.181  30.109  1.00  0.00     0.037 A 
ATOM     47  C   UNL A   1      45.902  29.641  26.993  1.00  0.00     0.049 A 
ATOM     48  C   UNL A   1      41.379  31.148  29.846  1.00  0.00     0.074 A 
ATOM     49  C   UNL A   1      46.793  30.641  26.641  1.00  0.00     0.029 A 
ATOM     50  N   UNL A   1      44.883  30.249  27.710  1.00  0.00    -0.354 N 
ATOM     51  N   UNL A   1      42.498  30.961  29.193  1.00  0.00    -0.248 NA
ATOM     52  C   UNL A   1      41.203  32.519  30.352  1.00  0.00     0.031 C 
ATOM     53  C   UNL A   1      46.337  31.847  27.188  1.00  0.00     0.029 A 
ATOM     54  C   UNL A   1      45.139  31.606  27.837  1.00  0.00     0.049 A 
ATOM     55  H   UNL A   1      44.095  29.786  28.075  1.00  0.00     0.167 HD
ATOM     56  C   UNL A   1      43.123  32.200  29.143  1.00  0.00     0.074 A 
ATOM     57  C   UNL A   1      42.272  33.128  29.856  1.00  0.00     0.031 C 
ATOM     58  C   UNL A   1      44.285  32.537  28.529  1.00  0.00     0.037 A 
BRANCH  45  59
ATOM     59  C   UNL A   1      47.177  27.716  25.978  1.00  0.00     0.064 A 
ATOM     60  C   UNL A   1      48.324  27.287  26.664  1.00  0.00     0.173 A 
ATOM     61  C   UNL A   1      47.181  27.645  24.578  1.00  0.00     0.173 A 
ATOM     62  F   UNL A   1      48.374  27.351  28.003  1.00  0.00    -0.203 F 
ATOM     63  C   UNL A   1      49.445  26.837  25.972  1.00  0.00     0.198 A 
ATOM     64  C   UNL A   1      48.294  27.169  23.891  1.00  0.00     0.198 A 
ATOM     65  F   UNL A   1      46.109  28.042  23.878  1.00  0.00    -0.203 F 
ATOM     66  F   UNL A   1      50.550  26.484  26.645  1.00  0.00    -0.200 F 
ATOM     67  C   UNL A   1      49.427  26.775  24.587  1.00  0.00     0.200 A 
ATOM     68  F   UNL A   1      48.275  27.103  22.552  1.00  0.00    -0.200 F 
ATOM     69  F   UNL A   1      50.508  26.345  23.921  1.00  0.00    -0.200 F 
ENDBRANCH  45  59
BRANCH  46  70
ATOM     70  C   UNL A   1      39.068  30.609  30.886  1.00  0.00     0.064 A 
ATOM     71  C   UNL A   1      39.007  30.445  32.276  1.00  0.00     0.173 A 
ATOM     72  C   UNL A   1      37.952  31.160  30.240  1.00  0.00     0.173 A 
ATOM     73  F   UNL A   1      40.038  29.893  32.930  1.00  0.00    -0.203 F 
ATOM     74  C   UNL A   1      37.865  30.804  32.990  1.00  0.00     0.198 A 
ATOM     75  C   UNL A   1      36.818  31.533  30.957  1.00  0.00     0.198 A 
ATOM     76  F   UNL A   1      37.965  31.336  28.910  1.00  0.00    -0.203 F 
ATOM     77  F   UNL A   1      37.813  30.599  34.313  1.00  0.00    -0.200 F 
ATOM     78  C   UNL A   1      36.774  31.351  32.331  1.00  0.00     0.200 A 
ATOM     79  F   UNL A   1      35.771  32.071  30.318  1.00  0.00    -0.200 F 
ATOM     80  F   UNL A   1      35.676  31.694  33.019  1.00  0.00    -0.200 F 
ENDBRANCH  46  70
BRANCH  58  81
ATOM     81  C   UNL A   1      44.665  33.990  28.526  1.00  0.00     0.064 A 
ATOM     82  C   UNL A   1      45.496  34.546  29.509  1.00  0.00     0.173 A 
ATOM     83  C   UNL A   1      44.190  34.837  27.512  1.00  0.00     0.173 A 
ATOM     84  F   UNL A   1      45.962  33.783  30.510  1.00  0.00    -0.203 F 
ATOM     85  C   UNL A   1      45.808  35.903  29.497  1.00  0.00     0.198 A 
ATOM     86  C   UNL A   1      44.529  36.187  27.486  1.00  0.00     0.198 A 
ATOM     87  F   UNL A   1      43.395  34.355  26.545  1.00  0.00    -0.203 F 
ATOM     88  F   UNL A   1      46.556  36.425  30.478  1.00  0.00    -0.200 F 
ATOM     89  C   UNL A   1      45.329  36.721  28.484  1.00  0.00     0.200 A 
ATOM     90  F   UNL A   1      44.073  36.972  26.501  1.00  0.00    -0.200 F 
ATOM     91  F   UNL A   1      45.629  38.027  28.476  1.00  0.00    -0.200 F 
ENDBRANCH  58  81
ENDBRANCH  32  33
ENDBRANCH  25  27
ENDBRANCH  24  25
ENDBRANCH  23  24
ENDBRANCH   1  23
TORSDOF 14
ENDMDL
MODEL 2
REMARK VINA RESULT:     -12.5      5.056     10.846
REMARK SMILES O=C(C[C@@H]1COc2ccccc2N1Cc1ccccc1)OCCOC(=O)c1ccc(-c2c3nc(c(-c4c(F)c(F)c(F)c(F)c4F)c4ccc([nH]4)c(-c4c(F)c(F)c(F)c(F)c4F)c4nc(c(-c5c(F)c(F)c(F)c(F)c5F)c5ccc2[nH]5)C=C4)C=C3)cc1
REMARK SMILES IDX 22 1 21 2 2 3 1 4 3 5 4 6 5 7 13 8 6 9 12 10 7 11 11 12 8 13
REMARK SMILES IDX 10 14 9 15 14 16 15 17 16 18 20 19 17 20 19 21 18 22 23 23
REMARK SMILES IDX 24 24 25 25 26 26 27 27 28 28 89 29 29 30 88 31 30 32 31 33
REMARK SMILES IDX 32 34 82 35 33 36 87 37 81 38 83 39 34 40 86 41 80 42 79 43
REMARK SMILES IDX 35 45 67 46 47 47 66 48 48 49 51 50 65 51 84 52 49 53 50 54
REMARK SMILES IDX 64 56 85 57 52 58 36 59 37 60 45 61 38 62 39 63 43 64 46 65
REMARK SMILES IDX 40 66 41 67 44 68 42 69 68 70 69 71 77 72 70 73 71 74 75 75
REMARK SMILES IDX 78 76 72 77 73 78 76 79 74 80 53 81 54 82 62 83 55 84 56 85
REMARK SMILES IDX 60 86 63 87 57 88 58 89 61 90 59 91
REMARK H PARENT 83 44 51 55
REMARK Flexibility Score: inf
ROOT
ATOM      1  C   UNL A   1      31.455  31.700  26.522  1.00  0.00     0.274 C 
ENDROOT
BRANCH   1   2
ATOM      2  O   UNL A   1      32.142  30.637  27.212  1.00  0.00    -0.462 OA
BRANCH   2   3
ATOM      3  C   UNL A   1      32.875  29.669  26.611  1.00  0.00     0.308 C 
ATOM      4  O   UNL A   1      33.843  29.184  27.192  1.00  0.00    -0.252 OA
BRANCH   3   5
ATOM      5  C   UNL A   1      32.495  29.246  25.213  1.00  0.00     0.151 C 
BRANCH   5   6
ATOM      6  C   UNL A   1      31.355  28.239  25.054  1.00  0.00     0.131 C 
ATOM      7  C   UNL A   1      31.009  27.343  26.249  1.00  0.00     0.255 C 
ATOM      8  N   UNL A   1      31.611  27.415  23.861  1.00  0.00    -0.357 N 
ATOM      9  O   UNL A   1      31.992  26.361  26.561  1.00  0.00    -0.489 OA
ATOM     10  C   UNL A   1      32.517  26.379  24.155  1.00  0.00     0.080 A 
ATOM     11  C   UNL A   1      32.665  25.871  25.465  1.00  0.00     0.142 A 
ATOM     12  C   UNL A   1      33.392  25.888  23.178  1.00  0.00     0.030 A 
ATOM     13  C   UNL A   1      33.594  24.868  25.757  1.00  0.00     0.048 A 
ATOM     14  C   UNL A   1      34.328  24.889  23.468  1.00  0.00     0.002 A 
ATOM     15  C   UNL A   1      34.420  24.370  24.755  1.00  0.00     0.004 A 
BRANCH   8  16
ATOM     16  C   UNL A   1      30.470  27.153  22.973  1.00  0.00     0.152 C 
BRANCH  16  17
ATOM     17  C   UNL A   1      29.521  28.312  22.771  1.00  0.00    -0.029 A 
ATOM     18  C   UNL A   1      29.960  29.526  22.220  1.00  0.00     0.005 A 
ATOM     19  C   UNL A   1      28.185  28.205  23.189  1.00  0.00     0.005 A 
ATOM     20  C   UNL A   1      29.088  30.613  22.124  1.00  0.00     0.000 A 
ATOM     21  C   UNL A   1      27.304  29.275  23.048  1.00  0.00     0.000 A 
ATOM     22  C   UNL A   1      27.762  30.484  22.534  1.00  0.00     0.000 A 
ENDBRANCH  16  17
ENDBRANCH   8  16
ENDBRANCH   5   6
ENDBRANCH   3   5
ENDBRANCH   2   3
ENDBRANCH   1   2
BRANCH   1  23
ATOM     23  C   UNL A   1      32.071  33.074  26.816  1.00  0.00     0.275 C 
BRANCH  23  24
ATOM     24  O   UNL A   1      32.693  33.098  28.118  1.00  0.00    -0.458 OA
BRANCH  24  25
ATOM     25  C   UNL A   1      33.774  33.911  28.241  1.00  0.00     0.338 C 
ATOM     26  O   UNL A   1      33.762  35.130  28.235  1.00  0.00    -0.246 OA
BRANCH  25  27
ATOM     27  C   UNL A   1      34.998  33.115  28.513  1.00  0.00     0.060 A 
ATOM     28  C   UNL A   1      34.834  31.791  28.942  1.00  0.00     0.016 A 
ATOM     29  C   UNL A   1      36.284  33.648  28.387  1.00  0.00     0.016 A 
ATOM     30  C   UNL A   1      35.942  31.031  29.330  1.00  0.00     0.010 A 
ATOM     31  C   UNL A   1      37.396  32.884  28.769  1.00  0.00     0.010 A 
ATOM     32  C   UNL A   1      37.226  31.590  29.295  1.00  0.00    -0.014 A 
BRANCH  32  33
ATOM     33  C   UNL A   1      38.346  30.907  29.998  1.00  0.00     0.031 A 
ATOM     34  C   UNL A   1      38.630  31.269  31.432  1.00  0.00     0.074 A 
ATOM     35  C   UNL A   1      39.074  29.935  29.420  1.00  0.00     0.049 A 
ATOM     36  N   UNL A   1      39.515  30.768  32.259  1.00  0.00    -0.248 NA
ATOM     37  C   UNL A   1      37.795  32.330  32.017  1.00  0.00     0.031 C 
ATOM     38  C   UNL A   1      38.876  29.419  28.071  1.00  0.00     0.029 A 
ATOM     39  N   UNL A   1      40.136  29.211  29.909  1.00  0.00    -0.354 N 
ATOM     40  C   UNL A   1      39.316  31.422  33.466  1.00  0.00     0.074 A 
ATOM     41  C   UNL A   1      38.283  32.412  33.246  1.00  0.00     0.031 C 
ATOM     42  C   UNL A   1      39.806  28.476  27.832  1.00  0.00     0.029 A 
ATOM     43  C   UNL A   1      40.681  28.349  28.993  1.00  0.00     0.049 A 
ATOM     44  H   UNL A   1      40.473  29.303  30.830  1.00  0.00     0.167 HD
ATOM     45  C   UNL A   1      39.906  31.195  34.664  1.00  0.00     0.037 A 
ATOM     46  C   UNL A   1      41.766  27.554  29.067  1.00  0.00     0.037 A 
ATOM     47  C   UNL A   1      40.938  30.221  34.902  1.00  0.00     0.049 A 
ATOM     48  C   UNL A   1      42.509  27.424  30.368  1.00  0.00     0.074 A 
ATOM     49  C   UNL A   1      41.563  29.901  36.095  1.00  0.00     0.029 A 
ATOM     50  N   UNL A   1      41.508  29.421  33.925  1.00  0.00    -0.354 N 
ATOM     51  N   UNL A   1      42.271  27.999  31.519  1.00  0.00    -0.248 NA
ATOM     52  C   UNL A   1      43.650  26.495  30.387  1.00  0.00     0.031 C 
ATOM     53  C   UNL A   1      42.547  28.940  35.830  1.00  0.00     0.029 A 
ATOM     54  C   UNL A   1      42.500  28.629  34.482  1.00  0.00     0.049 A 
ATOM     55  H   UNL A   1      41.247  29.417  32.975  1.00  0.00     0.167 HD
ATOM     56  C   UNL A   1      43.178  27.449  32.415  1.00  0.00     0.074 A 
ATOM     57  C   UNL A   1      43.991  26.514  31.668  1.00  0.00     0.031 C 
ATOM     58  C   UNL A   1      43.298  27.682  33.746  1.00  0.00     0.037 A 
BRANCH  45  59
ATOM     59  C   UNL A   1      39.436  32.031  35.816  1.00  0.00     0.064 A 
ATOM     60  C   UNL A   1      40.010  33.281  36.094  1.00  0.00     0.173 A 
ATOM     61  C   UNL A   1      38.400  31.582  36.647  1.00  0.00     0.173 A 
ATOM     62  F   UNL A   1      41.016  33.746  35.337  1.00  0.00    -0.203 F 
ATOM     63  C   UNL A   1      39.588  34.036  37.184  1.00  0.00     0.198 A 
ATOM     64  C   UNL A   1      37.961  32.352  37.720  1.00  0.00     0.198 A 
ATOM     65  F   UNL A   1      37.818  30.395  36.421  1.00  0.00    -0.203 F 
ATOM     66  F   UNL A   1      40.188  35.202  37.464  1.00  0.00    -0.200 F 
ATOM     67  C   UNL A   1      38.561  33.573  37.993  1.00  0.00     0.200 A 
ATOM     68  F   UNL A   1      36.964  31.907  38.498  1.00  0.00    -0.200 F 
ATOM     69  F   UNL A   1      38.155  34.298  39.044  1.00  0.00    -0.200 F 
ENDBRANCH  45  59
BRANCH  46  70
ATOM     70  C   UNL A   1      42.217  26.804  27.869  1.00  0.00     0.064 A 
ATOM     71  C   UNL A   1      41.771  25.500  27.614  1.00  0.00     0.173 A 
ATOM     72  C   UNL A   1      43.136  27.370  26.974  1.00  0.00     0.173 A 
ATOM     73  F   UNL A   1      40.917  24.908  28.460  1.00  0.00    -0.203 F 
ATOM     74  C   UNL A   1      42.240  24.785  26.513  1.00  0.00     0.198 A 
ATOM     75  C   UNL A   1      43.591  26.660  25.866  1.00  0.00     0.198 A 
ATOM     76  F   UNL A   1      43.592  28.615  27.177  1.00  0.00    -0.203 F 
ATOM     77  F   UNL A   1      41.830  23.525  26.312  1.00  0.00    -0.200 F 
ATOM     78  C   UNL A   1      43.145  25.367  25.639  1.00  0.00     0.200 A 
ATOM     79  F   UNL A   1      44.457  27.229  25.017  1.00  0.00    -0.200 F 
ATOM     80  F   UNL A   1      43.596  24.677  24.581  1.00  0.00    -0.200 F 
ENDBRANCH  46  70
BRANCH  58  81
ATOM     81  C   UNL A   1      44.291  26.848  34.503  1.00  0.00     0.064 A 
ATOM     82  C   UNL A   1      45.610  27.272  34.722  1.00  0.00     0.173 A 
ATOM     83  C   UNL A   1      43.908  25.601  35.025  1.00  0.00     0.173 A 
ATOM     84  F   UNL A   1      46.031  28.448  34.230  1.00  0.00    -0.203 F 
ATOM     85  C   UNL A   1      46.518  26.465  35.403  1.00  0.00     0.198 A 
ATOM     86  C   UNL A   1      44.810  24.810  35.731  1.00  0.00     0.198 A 
ATOM     87  F   UNL A   1      42.657  25.150  34.847  1.00  0.00    -0.203 F 
ATOM     88  F   UNL A   1      47.788  26.864  35.550  1.00  0.00    -0.200 F 
ATOM     89  C   UNL A   1      46.116  25.238  35.910  1.00  0.00     0.200 A 
ATOM     90  F   UNL A   1      44.416  23.630  36.228  1.00  0.00    -0.200 F 
ATOM     91  F   UNL A   1      46.991  24.461  36.563  1.00  0.00    -0.200 F 
ENDBRANCH  58  81
ENDBRANCH  32  33
ENDBRANCH  25  27
ENDBRANCH  24  25
ENDBRANCH  23  24
ENDBRANCH   1  23
TORSDOF 14
ENDMDL
MODEL 3
REMARK VINA RESULT:     -12.4      4.811     10.512
REMARK SMILES O=C(C[C@@H]1COc2ccccc2N1Cc1ccccc1)OCCOC(=O)c1ccc(-c2c3nc(c(-c4c(F)c(F)c(F)c(F)c4F)c4ccc([nH]4)c(-c4c(F)c(F)c(F)c(F)c4F)c4nc(c(-c5c(F)c(F)c(F)c(F)c5F)c5ccc2[nH]5)C=C4)C=C3)cc1
REMARK SMILES IDX 22 1 21 2 2 3 1 4 3 5 4 6 5 7 13 8 6 9 12 10 7 11 11 12 8 13
REMARK SMILES IDX 10 14 9 15 14 16 15 17 16 18 20 19 17 20 19 21 18 22 23 23
REMARK SMILES IDX 24 24 25 25 26 26 27 27 28 28 89 29 29 30 88 31 30 32 31 33
REMARK SMILES IDX 32 34 82 35 33 36 87 37 81 38 83 39 34 40 86 41 80 42 79 43
REMARK SMILES IDX 35 45 67 46 47 47 66 48 48 49 51 50 65 51 84 52 49 53 50 54
REMARK SMILES IDX 64 56 85 57 52 58 36 59 37 60 45 61 38 62 39 63 43 64 46 65
REMARK SMILES IDX 40 66 41 67 44 68 42 69 68 70 69 71 77 72 70 73 71 74 75 75
REMARK SMILES IDX 78 76 72 77 73 78 76 79 74 80 53 81 54 82 62 83 55 84 56 85
REMARK SMILES IDX 60 86 63 87 57 88 58 89 61 90 59 91
REMARK H PARENT 83 44 51 55
REMARK Flexibility Score: inf
ROOT
ATOM      1  C   UNL A   1      31.624  30.186  25.743  1.00  0.00     0.274 C 
ENDROOT
BRANCH   1   2
ATOM      2  O   UNL A   1      32.358  29.111  26.362  1.00  0.00    -0.462 OA
BRANCH   2   3
ATOM      3  C   UNL A   1      31.798  28.016  26.931  1.00  0.00     0.308 C 
ATOM      4  O   UNL A   1      31.203  28.119  28.001  1.00  0.00    -0.252 OA
BRANCH   3   5
ATOM      5  C   UNL A   1      31.964  26.685  26.240  1.00  0.00     0.151 C 
BRANCH   5   6
ATOM      6  C   UNL A   1      30.705  25.973  25.744  1.00  0.00     0.131 C 
ATOM      7  C   UNL A   1      30.493  24.510  26.151  1.00  0.00     0.255 C 
ATOM      8  N   UNL A   1      30.628  26.107  24.280  1.00  0.00    -0.357 N 
ATOM      9  O   UNL A   1      31.396  23.588  25.549  1.00  0.00    -0.489 OA
ATOM     10  C   UNL A   1      31.446  25.151  23.647  1.00  0.00     0.080 A 
ATOM     11  C   UNL A   1      31.783  23.931  24.274  1.00  0.00     0.142 A 
ATOM     12  C   UNL A   1      32.052  25.426  22.416  1.00  0.00     0.030 A 
ATOM     13  C   UNL A   1      32.627  23.004  23.656  1.00  0.00     0.048 A 
ATOM     14  C   UNL A   1      32.903  24.503  21.797  1.00  0.00     0.002 A 
ATOM     15  C   UNL A   1      33.180  23.286  22.411  1.00  0.00     0.004 A 
BRANCH   8  16
ATOM     16  C   UNL A   1      29.314  26.433  23.707  1.00  0.00     0.152 C 
BRANCH  16  17
ATOM     17  C   UNL A   1      29.178  27.827  23.140  1.00  0.00    -0.029 A 
ATOM     18  C   UNL A   1      27.941  28.490  23.126  1.00  0.00     0.005 A 
ATOM     19  C   UNL A   1      30.289  28.461  22.564  1.00  0.00     0.005 A 
ATOM     20  C   UNL A   1      27.818  29.742  22.518  1.00  0.00     0.000 A 
ATOM     21  C   UNL A   1      30.176  29.731  22.001  1.00  0.00     0.000 A 
ATOM     22  C   UNL A   1      28.936  30.361  21.961  1.00  0.00     0.000 A 
ENDBRANCH  16  17
ENDBRANCH   8  16
ENDBRANCH   5   6
ENDBRANCH   3   5
ENDBRANCH   2   3
ENDBRANCH   1   2
BRANCH   1  23
ATOM     23  C   UNL A   1      31.787  31.510  26.501  1.00  0.00     0.275 C 
BRANCH  23  24
ATOM     24  O   UNL A   1      32.741  31.381  27.575  1.00  0.00    -0.458 OA
BRANCH  24  25
ATOM     25  C   UNL A   1      33.646  32.387  27.685  1.00  0.00     0.338 C 
ATOM     26  O   UNL A   1      33.406  33.581  27.626  1.00  0.00    -0.246 OA
BRANCH  25  27
ATOM     27  C   UNL A   1      34.989  31.847  28.017  1.00  0.00     0.060 A 
ATOM     28  C   UNL A   1      35.130  30.456  28.107  1.00  0.00     0.016 A 
ATOM     29  C   UNL A   1      36.089  32.673  28.271  1.00  0.00     0.016 A 
ATOM     30  C   UNL A   1      36.337  29.894  28.535  1.00  0.00     0.010 A 
ATOM     31  C   UNL A   1      37.301  32.109  28.692  1.00  0.00     0.010 A 
ATOM     32  C   UNL A   1      37.415  30.718  28.880  1.00  0.00    -0.014 A 
BRANCH  32  33
ATOM     33  C   UNL A   1      38.569  30.148  29.628  1.00  0.00     0.031 A 
ATOM     34  C   UNL A   1      38.834  30.631  31.030  1.00  0.00     0.074 A 
ATOM     35  C   UNL A   1      39.346  29.176  29.120  1.00  0.00     0.049 A 
ATOM     36  N   UNL A   1      39.743  30.239  31.888  1.00  0.00    -0.248 NA
ATOM     37  C   UNL A   1      37.945  31.687  31.537  1.00  0.00     0.031 C 
ATOM     38  C   UNL A   1      39.176  28.550  27.815  1.00  0.00     0.029 A 
ATOM     39  N   UNL A   1      40.444  28.546  29.658  1.00  0.00    -0.354 N 
ATOM     40  C   UNL A   1      39.510  30.970  33.044  1.00  0.00     0.074 A 
ATOM     41  C   UNL A   1      38.427  31.885  32.754  1.00  0.00     0.031 C 
ATOM     42  C   UNL A   1      40.153  27.642  27.642  1.00  0.00     0.029 A 
ATOM     43  C   UNL A   1      41.033  27.647  28.806  1.00  0.00     0.049 A 
ATOM     44  H   UNL A   1      40.775  28.723  30.568  1.00  0.00     0.167 HD
ATOM     45  C   UNL A   1      40.111  30.863  34.253  1.00  0.00     0.037 A 
ATOM     46  C   UNL A   1      42.158  26.917  28.936  1.00  0.00     0.037 A 
ATOM     47  C   UNL A   1      41.191  29.964  34.559  1.00  0.00     0.049 A 
ATOM     48  C   UNL A   1      42.907  26.922  30.239  1.00  0.00     0.074 A 
ATOM     49  C   UNL A   1      41.832  29.766  35.770  1.00  0.00     0.029 A 
ATOM     50  N   UNL A   1      41.803  29.125  33.642  1.00  0.00    -0.354 N 
ATOM     51  N   UNL A   1      42.639  27.568  31.346  1.00  0.00    -0.248 NA
ATOM     52  C   UNL A   1      44.094  26.058  30.324  1.00  0.00     0.031 C 
ATOM     53  C   UNL A   1      42.865  28.841  35.574  1.00  0.00     0.029 A 
ATOM     54  C   UNL A   1      42.834  28.428  34.253  1.00  0.00     0.049 A 
ATOM     55  H   UNL A   1      41.543  29.036  32.696  1.00  0.00     0.167 HD
ATOM     56  C   UNL A   1      43.573  27.135  32.277  1.00  0.00     0.074 A 
ATOM     57  C   UNL A   1      44.434  26.190  31.598  1.00  0.00     0.031 C 
ATOM     58  C   UNL A   1      43.681  27.472  33.587  1.00  0.00     0.037 A 
BRANCH  45  59
ATOM     59  C   UNL A   1      39.597  31.757  35.342  1.00  0.00     0.064 A 
ATOM     60  C   UNL A   1      38.625  31.316  36.252  1.00  0.00     0.173 A 
ATOM     61  C   UNL A   1      40.084  33.064  35.479  1.00  0.00     0.173 A 
ATOM     62  F   UNL A   1      38.116  30.078  36.150  1.00  0.00    -0.203 F 
ATOM     63  C   UNL A   1      38.132  32.163  37.240  1.00  0.00     0.198 A 
ATOM     64  C   UNL A   1      39.610  33.900  36.486  1.00  0.00     0.198 A 
ATOM     65  F   UNL A   1      41.015  33.532  34.635  1.00  0.00    -0.203 F 
ATOM     66  F   UNL A   1      37.164  31.739  38.064  1.00  0.00    -0.200 F 
ATOM     67  C   UNL A   1      38.628  33.453  37.358  1.00  0.00     0.200 A 
ATOM     68  F   UNL A   1      40.094  35.145  36.605  1.00  0.00    -0.200 F 
ATOM     69  F   UNL A   1      38.153  34.270  38.308  1.00  0.00    -0.200 F 
ENDBRANCH  45  59
BRANCH  46  70
ATOM     70  C   UNL A   1      42.648  26.104  27.795  1.00  0.00     0.064 A 
ATOM     71  C   UNL A   1      43.613  26.599  26.907  1.00  0.00     0.173 A 
ATOM     72  C   UNL A   1      42.129  24.824  27.553  1.00  0.00     0.173 A 
ATOM     73  F   UNL A   1      44.113  27.830  27.082  1.00  0.00    -0.203 F 
ATOM     74  C   UNL A   1      44.030  25.848  25.810  1.00  0.00     0.198 A 
ATOM     75  C   UNL A   1      42.559  24.068  26.465  1.00  0.00     0.198 A 
ATOM     76  F   UNL A   1      41.203  24.308  28.375  1.00  0.00    -0.203 F 
ATOM     77  F   UNL A   1      44.923  26.359  24.952  1.00  0.00    -0.200 F 
ATOM     78  C   UNL A   1      43.505  24.582  25.592  1.00  0.00     0.200 A 
ATOM     79  F   UNL A   1      42.058  22.842  26.265  1.00  0.00    -0.200 F 
ATOM     80  F   UNL A   1      43.906  23.861  24.536  1.00  0.00    -0.200 F 
ENDBRANCH  46  70
BRANCH  58  81
ATOM     81  C   UNL A   1      44.716  26.749  34.400  1.00  0.00     0.064 A 
ATOM     82  C   UNL A   1      44.445  25.533  35.043  1.00  0.00     0.173 A 
ATOM     83  C   UNL A   1      46.007  27.286  34.529  1.00  0.00     0.173 A 
ATOM     84  F   UNL A   1      43.222  24.986  34.965  1.00  0.00    -0.203 F 
ATOM     85  C   UNL A   1      45.416  24.900  35.815  1.00  0.00     0.198 A 
ATOM     86  C   UNL A   1      46.985  26.636  35.276  1.00  0.00     0.198 A 
ATOM     87  F   UNL A   1      46.321  28.445  33.930  1.00  0.00    -0.203 F 
ATOM     88  F   UNL A   1      45.119  23.769  36.468  1.00  0.00    -0.200 F 
ATOM     89  C   UNL A   1      46.686  25.449  35.927  1.00  0.00     0.200 A 
ATOM     90  F   UNL A   1      48.212  27.163  35.375  1.00  0.00    -0.200 F 
ATOM     91  F   UNL A   1      47.618  24.839  36.672  1.00  0.00    -0.200 F 
ENDBRANCH  58  81
ENDBRANCH  32  33
ENDBRANCH  25  27
ENDBRANCH  24  25
ENDBRANCH  23  24
ENDBRANCH   1  23
TORSDOF 14
ENDMDL
