MODEL 1
REMARK VINA RESULT:     -12.4      0.000      0.000
REMARK SMILES Cc1cc(F)ccc1CCNc1ccc(Cl)c(C(=O)OCCOC(=O)c2ccc(-c3c4nc(c(-c5c(F)c(F)c(F)c(F)c5F)c5ccc([nH]5)c(-c5c(F)c(F)c(F)c(F)c5F)c5nc(c(-c6c(F)c(F)c(F)c(F)c6F)c6ccc3[nH]6)C=C5)C=C4)cc2)n1
REMARK SMILES IDX 21 1 20 2 18 3 19 4 17 5 12 6 13 7 89 8 14 9 15 10 16 11
REMARK SMILES IDX 11 12 10 14 9 15 8 16 1 17 2 18 3 19 4 20 7 21 5 22 6 23
REMARK SMILES IDX 22 24 23 25 24 26 25 27 26 28 27 29 88 30 28 31 87 32 29 33
REMARK SMILES IDX 30 34 31 35 81 36 32 37 86 38 80 39 82 40 33 41 85 42 79 43
REMARK SMILES IDX 78 44 34 46 66 47 46 48 65 49 47 50 50 51 64 52 83 53 48 54
REMARK SMILES IDX 49 55 63 57 84 58 51 59 35 60 36 61 44 62 37 63 38 64 42 65
REMARK SMILES IDX 45 66 39 67 40 68 43 69 41 70 67 71 68 72 76 73 69 74 70 75
REMARK SMILES IDX 74 76 77 77 71 78 72 79 75 80 73 81 52 82 53 83 61 84 54 85
REMARK SMILES IDX 55 86 59 87 62 88 56 89 57 90 60 91 58 92
REMARK H PARENT 11 13 82 45 50 56
REMARK Flexibility Score: inf
ROOT
ATOM      1  C   UNL A   1      44.633  24.458  26.519  1.00  0.00     0.275 C 
ENDROOT
BRANCH   1   2
ATOM      2  O   UNL A   1      44.862  23.044  26.332  1.00  0.00    -0.457 OA
BRANCH   2   3
ATOM      3  C   UNL A   1      44.425  22.494  25.168  1.00  0.00     0.358 C 
ATOM      4  O   UNL A   1      44.671  22.938  24.051  1.00  0.00    -0.244 OA
BRANCH   3   5
ATOM      5  C   UNL A   1      43.708  21.197  25.387  1.00  0.00     0.169 A 
ATOM      6  C   UNL A   1      41.690  20.264  26.122  1.00  0.00     0.127 A 
ATOM      7  C   UNL A   1      42.217  18.988  26.024  1.00  0.00     0.048 A 
ATOM      8  N   UNL A   1      42.413  21.355  25.814  1.00  0.00    -0.222 NA
ATOM      9  C   UNL A   1      43.529  18.830  25.571  1.00  0.00     0.027 A 
ATOM     10  C   UNL A   1      44.301  19.948  25.249  1.00  0.00     0.074 A 
ATOM     11  Cl  UNL A   1      45.937  19.670  24.787  1.00  0.00    -0.082 Cl
BRANCH   6  12
ATOM     12  N   UNL A   1      40.395  20.521  26.497  1.00  0.00    -0.370 N 
ATOM     13  H   UNL A   1      40.016  20.011  27.248  1.00  0.00     0.162 HD
BRANCH  12  14
ATOM     14  C   UNL A   1      39.554  21.512  25.839  1.00  0.00     0.119 C 
BRANCH  14  15
ATOM     15  C   UNL A   1      38.225  20.871  25.374  1.00  0.00     0.057 C 
BRANCH  15  16
ATOM     16  C   UNL A   1      37.020  21.800  25.423  1.00  0.00    -0.043 A 
ATOM     17  C   UNL A   1      35.299  19.924  24.995  1.00  0.00     0.045 C 
ATOM     18  C   UNL A   1      35.693  21.360  25.216  1.00  0.00    -0.045 A 
ATOM     19  C   UNL A   1      34.641  22.295  25.296  1.00  0.00     0.043 A 
ATOM     20  C   UNL A   1      34.896  23.636  25.547  1.00  0.00     0.123 A 
ATOM     21  C   UNL A   1      37.240  23.167  25.702  1.00  0.00     0.007 A 
ATOM     22  F   UNL A   1      33.878  24.504  25.610  1.00  0.00    -0.207 F 
ATOM     23  C   UNL A   1      36.189  24.081  25.750  1.00  0.00     0.039 A 
ENDBRANCH  15  16
ENDBRANCH  14  15
ENDBRANCH  12  14
ENDBRANCH   6  12
ENDBRANCH   3   5
ENDBRANCH   2   3
ENDBRANCH   1   2
BRANCH   1  24
ATOM     24  C   UNL A   1      43.477  24.728  27.481  1.00  0.00     0.275 C 
BRANCH  24  25
ATOM     25  O   UNL A   1      42.230  24.741  26.780  1.00  0.00    -0.458 OA
BRANCH  25  26
ATOM     26  C   UNL A   1      41.188  24.397  27.566  1.00  0.00     0.338 C 
ATOM     27  O   UNL A   1      41.008  23.324  28.126  1.00  0.00    -0.246 OA
BRANCH  26  28
ATOM     28  C   UNL A   1      40.125  25.401  27.508  1.00  0.00     0.060 A 
ATOM     29  C   UNL A   1      40.419  26.510  26.701  1.00  0.00     0.016 A 
ATOM     30  C   UNL A   1      39.370  25.502  28.677  1.00  0.00     0.016 A 
ATOM     31  C   UNL A   1      40.242  27.770  27.232  1.00  0.00     0.010 A 
ATOM     32  C   UNL A   1      39.206  26.756  29.209  1.00  0.00     0.010 A 
ATOM     33  C   UNL A   1      39.739  27.860  28.529  1.00  0.00    -0.014 A 
BRANCH  33  34
ATOM     34  C   UNL A   1      39.793  29.089  29.284  1.00  0.00     0.031 A 
ATOM     35  C   UNL A   1      38.770  30.105  29.030  1.00  0.00     0.074 A 
ATOM     36  C   UNL A   1      40.749  29.249  30.222  1.00  0.00     0.049 A 
ATOM     37  N   UNL A   1      38.926  31.365  29.238  1.00  0.00    -0.248 NA
ATOM     38  C   UNL A   1      37.479  29.760  28.447  1.00  0.00     0.031 C 
ATOM     39  C   UNL A   1      40.803  30.276  31.254  1.00  0.00     0.029 A 
ATOM     40  N   UNL A   1      41.989  28.593  30.304  1.00  0.00    -0.354 N 
ATOM     41  C   UNL A   1      37.688  31.949  29.116  1.00  0.00     0.074 A 
ATOM     42  C   UNL A   1      36.845  30.932  28.527  1.00  0.00     0.031 C 
ATOM     43  C   UNL A   1      42.069  30.384  31.687  1.00  0.00     0.029 A 
ATOM     44  C   UNL A   1      42.889  29.539  30.836  1.00  0.00     0.049 A 
ATOM     45  H   UNL A   1      42.189  27.665  30.043  1.00  0.00     0.167 HD
ATOM     46  C   UNL A   1      37.475  33.165  29.694  1.00  0.00     0.037 A 
ATOM     47  C   UNL A   1      43.950  29.989  30.109  1.00  0.00     0.037 A 
ATOM     48  C   UNL A   1      38.704  33.679  30.294  1.00  0.00     0.049 A 
ATOM     49  C   UNL A   1      43.922  31.476  29.852  1.00  0.00     0.074 A 
ATOM     50  C   UNL A   1      39.194  33.622  31.589  1.00  0.00     0.029 A 
ATOM     51  N   UNL A   1      39.784  34.022  29.482  1.00  0.00    -0.354 N 
ATOM     52  N   UNL A   1      42.832  32.193  29.846  1.00  0.00    -0.248 NA
ATOM     53  C   UNL A   1      45.118  32.270  29.595  1.00  0.00     0.031 C 
ATOM     54  C   UNL A   1      40.583  33.885  31.551  1.00  0.00     0.029 A 
ATOM     55  C   UNL A   1      40.938  34.124  30.235  1.00  0.00     0.049 A 
ATOM     56  H   UNL A   1      39.731  34.170  28.510  1.00  0.00     0.167 HD
ATOM     57  C   UNL A   1      43.155  33.510  29.635  1.00  0.00     0.074 A 
ATOM     58  C   UNL A   1      44.599  33.504  29.481  1.00  0.00     0.031 C 
ATOM     59  C   UNL A   1      42.210  34.499  29.637  1.00  0.00     0.037 A 
BRANCH  46  60
ATOM     60  C   UNL A   1      36.086  33.653  30.035  1.00  0.00     0.064 A 
ATOM     61  C   UNL A   1      35.230  34.163  29.035  1.00  0.00     0.173 A 
ATOM     62  C   UNL A   1      35.576  33.728  31.343  1.00  0.00     0.173 A 
ATOM     63  F   UNL A   1      35.521  34.045  27.735  1.00  0.00    -0.203 F 
ATOM     64  C   UNL A   1      34.039  34.826  29.337  1.00  0.00     0.198 A 
ATOM     65  C   UNL A   1      34.413  34.442  31.652  1.00  0.00     0.198 A 
ATOM     66  F   UNL A   1      36.171  33.081  32.355  1.00  0.00    -0.203 F 
ATOM     67  F   UNL A   1      33.279  35.310  28.344  1.00  0.00    -0.200 F 
ATOM     68  C   UNL A   1      33.653  35.006  30.649  1.00  0.00     0.200 A 
ATOM     69  F   UNL A   1      34.040  34.585  32.932  1.00  0.00    -0.200 F 
ATOM     70  F   UNL A   1      32.541  35.694  30.940  1.00  0.00    -0.200 F 
ENDBRANCH  46  60
BRANCH  47  71
ATOM     71  C   UNL A   1      44.529  28.972  29.199  1.00  0.00     0.064 A 
ATOM     72  C   UNL A   1      44.103  28.949  27.858  1.00  0.00     0.173 A 
ATOM     73  C   UNL A   1      45.702  28.276  29.515  1.00  0.00     0.173 A 
ATOM     74  F   UNL A   1      42.986  29.604  27.501  1.00  0.00    -0.203 F 
ATOM     75  C   UNL A   1      44.853  28.321  26.865  1.00  0.00     0.198 A 
ATOM     76  C   UNL A   1      46.451  27.648  28.518  1.00  0.00     0.198 A 
ATOM     77  F   UNL A   1      46.165  28.268  30.773  1.00  0.00    -0.203 F 
ATOM     78  F   UNL A   1      44.446  28.370  25.588  1.00  0.00    -0.200 F 
ATOM     79  C   UNL A   1      46.037  27.684  27.193  1.00  0.00     0.200 A 
ATOM     80  F   UNL A   1      47.596  27.036  28.840  1.00  0.00    -0.200 F 
ATOM     81  F   UNL A   1      46.774  27.103  26.236  1.00  0.00    -0.200 F 
ENDBRANCH  47  71
BRANCH  59  82
ATOM     82  C   UNL A   1      42.417  35.945  29.244  1.00  0.00     0.064 A 
ATOM     83  C   UNL A   1      43.214  36.852  29.960  1.00  0.00     0.173 A 
ATOM     84  C   UNL A   1      41.892  36.439  28.021  1.00  0.00     0.173 A 
ATOM     85  F   UNL A   1      43.885  36.476  31.057  1.00  0.00    -0.203 F 
ATOM     86  C   UNL A   1      43.398  38.172  29.536  1.00  0.00     0.198 A 
ATOM     87  C   UNL A   1      42.129  37.737  27.571  1.00  0.00     0.198 A 
ATOM     88  F   UNL A   1      41.151  35.672  27.209  1.00  0.00    -0.203 F 
ATOM     89  F   UNL A   1      44.124  39.012  30.287  1.00  0.00    -0.200 F 
ATOM     90  C   UNL A   1      42.863  38.611  28.340  1.00  0.00     0.200 A 
ATOM     91  F   UNL A   1      41.650  38.125  26.381  1.00  0.00    -0.200 F 
ATOM     92  F   UNL A   1      43.074  39.866  27.920  1.00  0.00    -0.200 F 
ENDBRANCH  59  82
ENDBRANCH  33  34
ENDBRANCH  26  28
ENDBRANCH  25  26
ENDBRANCH  24  25
ENDBRANCH   1  24
TORSDOF 15
ENDMDL
MODEL 2
REMARK VINA RESULT:     -12.2      5.358     12.309
REMARK SMILES Cc1cc(F)ccc1CCNc1ccc(Cl)c(C(=O)OCCOC(=O)c2ccc(-c3c4nc(c(-c5c(F)c(F)c(F)c(F)c5F)c5ccc([nH]5)c(-c5c(F)c(F)c(F)c(F)c5F)c5nc(c(-c6c(F)c(F)c(F)c(F)c6F)c6ccc3[nH]6)C=C5)C=C4)cc2)n1
REMARK SMILES IDX 21 1 20 2 18 3 19 4 17 5 12 6 13 7 89 8 14 9 15 10 16 11
REMARK SMILES IDX 11 12 10 14 9 15 8 16 1 17 2 18 3 19 4 20 7 21 5 22 6 23
REMARK SMILES IDX 22 24 23 25 24 26 25 27 26 28 27 29 88 30 28 31 87 32 29 33
REMARK SMILES IDX 30 34 31 35 81 36 32 37 86 38 80 39 82 40 33 41 85 42 79 43
REMARK SMILES IDX 78 44 34 46 66 47 46 48 65 49 47 50 50 51 64 52 83 53 48 54
REMARK SMILES IDX 49 55 63 57 84 58 51 59 35 60 36 61 44 62 37 63 38 64 42 65
REMARK SMILES IDX 45 66 39 67 40 68 43 69 41 70 67 71 68 72 76 73 69 74 70 75
REMARK SMILES IDX 74 76 77 77 71 78 72 79 75 80 73 81 52 82 53 83 61 84 54 85
REMARK SMILES IDX 55 86 59 87 62 88 56 89 57 90 60 91 58 92
REMARK H PARENT 11 13 82 45 50 56
REMARK Flexibility Score: inf
ROOT
ATOM      1  C   UNL A   1      35.745  32.254  32.461  1.00  0.00     0.275 C 
ENDROOT
BRANCH   1   2
ATOM      2  O   UNL A   1      35.622  33.688  32.346  1.00  0.00    -0.457 OA
BRANCH   2   3
ATOM      3  C   UNL A   1      34.413  34.233  32.643  1.00  0.00     0.358 C 
ATOM      4  O   UNL A   1      33.869  34.168  33.740  1.00  0.00    -0.244 OA
BRANCH   3   5
ATOM      5  C   UNL A   1      33.862  35.044  31.510  1.00  0.00     0.169 A 
ATOM      6  C   UNL A   1      33.187  34.931  29.270  1.00  0.00     0.127 A 
ATOM      7  C   UNL A   1      33.005  36.302  29.232  1.00  0.00     0.048 A 
ATOM      8  N   UNL A   1      33.610  34.304  30.382  1.00  0.00    -0.222 NA
ATOM      9  C   UNL A   1      33.244  37.050  30.388  1.00  0.00     0.027 A 
ATOM     10  C   UNL A   1      33.687  36.422  31.552  1.00  0.00     0.074 A 
ATOM     11  Cl  UNL A   1      34.047  37.428  32.904  1.00  0.00    -0.082 Cl
BRANCH   6  12
ATOM     12  N   UNL A   1      32.921  34.102  28.209  1.00  0.00    -0.370 N 
ATOM     13  H   UNL A   1      32.011  34.100  27.835  1.00  0.00     0.162 HD
BRANCH  12  14
ATOM     14  C   UNL A   1      33.918  33.226  27.610  1.00  0.00     0.119 C 
BRANCH  14  15
ATOM     15  C   UNL A   1      33.677  31.759  28.037  1.00  0.00     0.057 C 
BRANCH  15  16
ATOM     16  C   UNL A   1      32.926  30.915  27.016  1.00  0.00    -0.043 A 
ATOM     17  C   UNL A   1      34.510  28.887  27.223  1.00  0.00     0.045 C 
ATOM     18  C   UNL A   1      33.335  29.618  26.630  1.00  0.00    -0.045 A 
ATOM     19  C   UNL A   1      32.564  28.909  25.687  1.00  0.00     0.043 A 
ATOM     20  C   UNL A   1      31.432  29.477  25.119  1.00  0.00     0.123 A 
ATOM     21  C   UNL A   1      31.754  31.451  26.438  1.00  0.00     0.007 A 
ATOM     22  F   UNL A   1      30.722  28.782  24.220  1.00  0.00    -0.207 F 
ATOM     23  C   UNL A   1      31.020  30.744  25.486  1.00  0.00     0.039 A 
ENDBRANCH  15  16
ENDBRANCH  14  15
ENDBRANCH  12  14
ENDBRANCH   6  12
ENDBRANCH   3   5
ENDBRANCH   2   3
ENDBRANCH   1   2
BRANCH   1  24
ATOM     24  C   UNL A   1      35.744  31.568  31.096  1.00  0.00     0.275 C 
BRANCH  24  25
ATOM     25  O   UNL A   1      37.072  31.200  30.714  1.00  0.00    -0.458 OA
BRANCH  25  26
ATOM     26  C   UNL A   1      37.248  31.200  29.376  1.00  0.00     0.338 C 
ATOM     27  O   UNL A   1      37.053  32.131  28.606  1.00  0.00    -0.246 OA
BRANCH  26  28
ATOM     28  C   UNL A   1      37.495  29.849  28.873  1.00  0.00     0.060 A 
ATOM     29  C   UNL A   1      37.572  28.864  29.869  1.00  0.00     0.016 A 
ATOM     30  C   UNL A   1      38.268  29.804  27.711  1.00  0.00     0.016 A 
ATOM     31  C   UNL A   1      38.657  28.012  29.864  1.00  0.00     0.010 A 
ATOM     32  C   UNL A   1      39.354  28.965  27.715  1.00  0.00     0.010 A 
ATOM     33  C   UNL A   1      39.588  28.159  28.837  1.00  0.00    -0.014 A 
BRANCH  33  34
ATOM     34  C   UNL A   1      40.891  27.538  28.896  1.00  0.00     0.031 A 
ATOM     35  C   UNL A   1      40.992  26.109  28.591  1.00  0.00     0.074 A 
ATOM     36  C   UNL A   1      41.972  28.291  29.183  1.00  0.00     0.049 A 
ATOM     37  N   UNL A   1      41.919  25.334  29.033  1.00  0.00    -0.248 NA
ATOM     38  C   UNL A   1      39.984  25.425  27.792  1.00  0.00     0.031 C 
ATOM     39  C   UNL A   1      43.371  27.916  29.024  1.00  0.00     0.029 A 
ATOM     40  N   UNL A   1      42.005  29.517  29.870  1.00  0.00    -0.354 N 
ATOM     41  C   UNL A   1      41.813  24.149  28.345  1.00  0.00     0.074 A 
ATOM     42  C   UNL A   1      40.541  24.218  27.663  1.00  0.00     0.031 C 
ATOM     43  C   UNL A   1      44.120  28.710  29.804  1.00  0.00     0.029 A 
ATOM     44  C   UNL A   1      43.211  29.513  30.603  1.00  0.00     0.049 A 
ATOM     45  H   UNL A   1      41.328  30.230  29.846  1.00  0.00     0.167 HD
ATOM     46  C   UNL A   1      42.897  23.323  28.288  1.00  0.00     0.037 A 
ATOM     47  C   UNL A   1      43.207  29.534  31.966  1.00  0.00     0.037 A 
ATOM     48  C   UNL A   1      43.998  23.852  29.090  1.00  0.00     0.049 A 
ATOM     49  C   UNL A   1      43.855  28.323  32.592  1.00  0.00     0.074 A 
ATOM     50  C   UNL A   1      45.099  24.624  28.752  1.00  0.00     0.029 A 
ATOM     51  N   UNL A   1      43.872  23.934  30.475  1.00  0.00    -0.354 N 
ATOM     52  N   UNL A   1      43.956  27.164  32.002  1.00  0.00    -0.248 NA
ATOM     53  C   UNL A   1      44.448  28.329  33.925  1.00  0.00     0.031 C 
ATOM     54  C   UNL A   1      45.609  25.211  29.934  1.00  0.00     0.029 A 
ATOM     55  C   UNL A   1      44.834  24.780  30.996  1.00  0.00     0.049 A 
ATOM     56  H   UNL A   1      43.196  23.458  31.008  1.00  0.00     0.167 HD
ATOM     57  C   UNL A   1      44.641  26.297  32.816  1.00  0.00     0.074 A 
ATOM     58  C   UNL A   1      44.924  27.074  34.009  1.00  0.00     0.031 C 
ATOM     59  C   UNL A   1      44.946  25.022  32.426  1.00  0.00     0.037 A 
BRANCH  46  60
ATOM     60  C   UNL A   1      43.050  22.284  27.202  1.00  0.00     0.064 A 
ATOM     61  C   UNL A   1      42.306  21.085  27.234  1.00  0.00     0.173 A 
ATOM     62  C   UNL A   1      43.982  22.372  26.153  1.00  0.00     0.173 A 
ATOM     63  F   UNL A   1      41.296  20.909  28.094  1.00  0.00    -0.203 F 
ATOM     64  C   UNL A   1      42.579  20.011  26.384  1.00  0.00     0.198 A 
ATOM     65  C   UNL A   1      44.297  21.278  25.339  1.00  0.00     0.198 A 
ATOM     66  F   UNL A   1      44.589  23.531  25.862  1.00  0.00    -0.203 F 
ATOM     67  F   UNL A   1      41.852  18.889  26.479  1.00  0.00    -0.200 F 
ATOM     68  C   UNL A   1      43.605  20.091  25.467  1.00  0.00     0.200 A 
ATOM     69  F   UNL A   1      45.281  21.382  24.435  1.00  0.00    -0.200 F 
ATOM     70  F   UNL A   1      43.907  19.040  24.693  1.00  0.00    -0.200 F 
ENDBRANCH  46  60
BRANCH  47  71
ATOM     71  C   UNL A   1      42.085  30.306  32.551  1.00  0.00     0.064 A 
ATOM     72  C   UNL A   1      42.187  31.709  32.600  1.00  0.00     0.173 A 
ATOM     73  C   UNL A   1      40.816  29.745  32.736  1.00  0.00     0.173 A 
ATOM     74  F   UNL A   1      43.381  32.298  32.424  1.00  0.00    -0.203 F 
ATOM     75  C   UNL A   1      41.061  32.516  32.754  1.00  0.00     0.198 A 
ATOM     76  C   UNL A   1      39.690  30.556  32.890  1.00  0.00     0.198 A 
ATOM     77  F   UNL A   1      40.652  28.414  32.691  1.00  0.00    -0.203 F 
ATOM     78  F   UNL A   1      41.188  33.852  32.736  1.00  0.00    -0.200 F 
ATOM     79  C   UNL A   1      39.809  31.940  32.883  1.00  0.00     0.200 A 
ATOM     80  F   UNL A   1      38.483  29.994  33.011  1.00  0.00    -0.200 F 
ATOM     81  F   UNL A   1      38.722  32.715  33.002  1.00  0.00    -0.200 F 
ENDBRANCH  47  71
BRANCH  59  82
ATOM     82  C   UNL A   1      45.532  23.929  33.293  1.00  0.00     0.064 A 
ATOM     83  C   UNL A   1      46.831  23.954  33.823  1.00  0.00     0.173 A 
ATOM     84  C   UNL A   1      44.723  22.845  33.726  1.00  0.00     0.173 A 
ATOM     85  F   UNL A   1      47.652  24.991  33.611  1.00  0.00    -0.203 F 
ATOM     86  C   UNL A   1      47.314  22.932  34.646  1.00  0.00     0.198 A 
ATOM     87  C   UNL A   1      45.189  21.861  34.596  1.00  0.00     0.198 A 
ATOM     88  F   UNL A   1      43.447  22.717  33.339  1.00  0.00    -0.203 F 
ATOM     89  F   UNL A   1      48.582  22.976  35.080  1.00  0.00    -0.200 F 
ATOM     90  C   UNL A   1      46.493  21.891  35.038  1.00  0.00     0.200 A 
ATOM     91  F   UNL A   1      44.359  20.894  35.010  1.00  0.00    -0.200 F 
ATOM     92  F   UNL A   1      46.950  20.935  35.857  1.00  0.00    -0.200 F 
ENDBRANCH  59  82
ENDBRANCH  33  34
ENDBRANCH  26  28
ENDBRANCH  25  26
ENDBRANCH  24  25
ENDBRANCH   1  24
TORSDOF 15
ENDMDL
MODEL 3
REMARK VINA RESULT:     -12.2      5.283     13.008
REMARK SMILES Cc1cc(F)ccc1CCNc1ccc(Cl)c(C(=O)OCCOC(=O)c2ccc(-c3c4nc(c(-c5c(F)c(F)c(F)c(F)c5F)c5ccc([nH]5)c(-c5c(F)c(F)c(F)c(F)c5F)c5nc(c(-c6c(F)c(F)c(F)c(F)c6F)c6ccc3[nH]6)C=C5)C=C4)cc2)n1
REMARK SMILES IDX 21 1 20 2 18 3 19 4 17 5 12 6 13 7 89 8 14 9 15 10 16 11
REMARK SMILES IDX 11 12 10 14 9 15 8 16 1 17 2 18 3 19 4 20 7 21 5 22 6 23
REMARK SMILES IDX 22 24 23 25 24 26 25 27 26 28 27 29 88 30 28 31 87 32 29 33
REMARK SMILES IDX 30 34 31 35 81 36 32 37 86 38 80 39 82 40 33 41 85 42 79 43
REMARK SMILES IDX 78 44 34 46 66 47 46 48 65 49 47 50 50 51 64 52 83 53 48 54
REMARK SMILES IDX 49 55 63 57 84 58 51 59 35 60 36 61 44 62 37 63 38 64 42 65
REMARK SMILES IDX 45 66 39 67 40 68 43 69 41 70 67 71 68 72 76 73 69 74 70 75
REMARK SMILES IDX 74 76 77 77 71 78 72 79 75 80 73 81 52 82 53 83 61 84 54 85
REMARK SMILES IDX 55 86 59 87 62 88 56 89 57 90 60 91 58 92
REMARK H PARENT 11 13 82 45 50 56
REMARK Flexibility Score: inf
ROOT
ATOM      1  C   UNL A   1      37.051  33.867  30.164  1.00  0.00     0.275 C 
ENDROOT
BRANCH   1   2
ATOM      2  O   UNL A   1      35.739  34.141  29.626  1.00  0.00    -0.457 OA
BRANCH   2   3
ATOM      3  C   UNL A   1      34.670  33.790  30.389  1.00  0.00     0.358 C 
ATOM      4  O   UNL A   1      34.057  32.733  30.286  1.00  0.00    -0.244 OA
BRANCH   3   5
ATOM      5  C   UNL A   1      34.392  34.789  31.471  1.00  0.00     0.169 A 
ATOM      6  C   UNL A   1      34.573  35.166  33.775  1.00  0.00     0.127 A 
ATOM      7  C   UNL A   1      33.866  36.350  33.660  1.00  0.00     0.048 A 
ATOM      8  N   UNL A   1      34.834  34.391  32.708  1.00  0.00    -0.222 NA
ATOM      9  C   UNL A   1      33.433  36.761  32.397  1.00  0.00     0.027 A 
ATOM     10  C   UNL A   1      33.689  35.971  31.275  1.00  0.00     0.074 A 
ATOM     11  Cl  UNL A   1      33.041  36.505  29.771  1.00  0.00    -0.082 Cl
BRANCH   6  12
ATOM     12  N   UNL A   1      35.094  34.706  34.959  1.00  0.00    -0.370 N 
ATOM     13  H   UNL A   1      34.709  35.042  35.800  1.00  0.00     0.162 HD
BRANCH  12  14
ATOM     14  C   UNL A   1      36.187  33.746  35.033  1.00  0.00     0.119 C 
BRANCH  14  15
ATOM     15  C   UNL A   1      36.807  33.740  36.449  1.00  0.00     0.057 C 
BRANCH  15  16
ATOM     16  C   UNL A   1      38.312  33.513  36.483  1.00  0.00    -0.043 A 
ATOM     17  C   UNL A   1      38.126  30.945  36.686  1.00  0.00     0.045 C 
ATOM     18  C   UNL A   1      38.901  32.235  36.624  1.00  0.00    -0.045 A 
ATOM     19  C   UNL A   1      40.306  32.125  36.630  1.00  0.00     0.043 A 
ATOM     20  C   UNL A   1      41.110  33.252  36.526  1.00  0.00     0.123 A 
ATOM     21  C   UNL A   1      39.161  34.634  36.353  1.00  0.00     0.007 A 
ATOM     22  F   UNL A   1      42.443  33.119  36.542  1.00  0.00    -0.207 F 
ATOM     23  C   UNL A   1      40.548  34.508  36.389  1.00  0.00     0.039 A 
ENDBRANCH  15  16
ENDBRANCH  14  15
ENDBRANCH  12  14
ENDBRANCH   6  12
ENDBRANCH   3   5
ENDBRANCH   2   3
ENDBRANCH   1   2
BRANCH   1  24
ATOM     24  C   UNL A   1      37.825  32.868  29.307  1.00  0.00     0.275 C 
BRANCH  24  25
ATOM     25  O   UNL A   1      37.302  31.547  29.475  1.00  0.00    -0.458 OA
BRANCH  25  26
ATOM     26  C   UNL A   1      36.752  31.057  28.344  1.00  0.00     0.338 C 
ATOM     27  O   UNL A   1      35.800  31.517  27.726  1.00  0.00    -0.246 OA
BRANCH  26  28
ATOM     28  C   UNL A   1      37.282  29.731  28.027  1.00  0.00     0.060 A 
ATOM     29  C   UNL A   1      37.368  28.863  29.125  1.00  0.00     0.016 A 
ATOM     30  C   UNL A   1      38.214  29.722  26.988  1.00  0.00     0.016 A 
ATOM     31  C   UNL A   1      38.563  28.214  29.354  1.00  0.00     0.010 A 
ATOM     32  C   UNL A   1      39.407  29.087  27.224  1.00  0.00     0.010 A 
ATOM     33  C   UNL A   1      39.600  28.432  28.449  1.00  0.00    -0.014 A 
BRANCH  33  34
ATOM     34  C   UNL A   1      40.961  28.052  28.744  1.00  0.00     0.031 A 
ATOM     35  C   UNL A   1      41.455  26.777  28.221  1.00  0.00     0.074 A 
ATOM     36  C   UNL A   1      41.746  28.894  29.449  1.00  0.00     0.049 A 
ATOM     37  N   UNL A   1      42.410  26.094  28.748  1.00  0.00    -0.248 NA
ATOM     38  C   UNL A   1      40.841  26.136  27.065  1.00  0.00     0.031 C 
ATOM     39  C   UNL A   1      43.191  28.817  29.611  1.00  0.00     0.029 A 
ATOM     40  N   UNL A   1      41.338  29.908  30.333  1.00  0.00    -0.354 N 
ATOM     41  C   UNL A   1      42.739  25.106  27.851  1.00  0.00     0.074 A 
ATOM     42  C   UNL A   1      41.674  25.111  26.873  1.00  0.00     0.031 C 
ATOM     43  C   UNL A   1      43.540  29.522  30.698  1.00  0.00     0.029 A 
ATOM     44  C   UNL A   1      42.313  29.941  31.353  1.00  0.00     0.049 A 
ATOM     45  H   UNL A   1      40.540  30.477  30.257  1.00  0.00     0.167 HD
ATOM     46  C   UNL A   1      43.967  24.521  27.940  1.00  0.00     0.037 A 
ATOM     47  C   UNL A   1      41.994  29.638  32.642  1.00  0.00     0.037 A 
ATOM     48  C   UNL A   1      44.704  25.029  29.095  1.00  0.00     0.049 A 
ATOM     49  C   UNL A   1      42.742  28.446  33.187  1.00  0.00     0.074 A 
ATOM     50  C   UNL A   1      45.645  26.039  29.218  1.00  0.00     0.029 A 
ATOM     51  N   UNL A   1      44.250  24.757  30.384  1.00  0.00    -0.354 N 
ATOM     52  N   UNL A   1      43.239  27.496  32.444  1.00  0.00    -0.248 NA
ATOM     53  C   UNL A   1      42.998  28.239  34.608  1.00  0.00     0.031 C 
ATOM     54  C   UNL A   1      45.724  26.409  30.581  1.00  0.00     0.029 A 
ATOM     55  C   UNL A   1      44.847  25.610  31.294  1.00  0.00     0.049 A 
ATOM     56  H   UNL A   1      43.599  24.056  30.615  1.00  0.00     0.167 HD
ATOM     57  C   UNL A   1      43.901  26.594  33.239  1.00  0.00     0.074 A 
ATOM     58  C   UNL A   1      43.717  27.104  34.587  1.00  0.00     0.031 C 
ATOM     59  C   UNL A   1      44.571  25.522  32.719  1.00  0.00     0.037 A 
BRANCH  46  60
ATOM     60  C   UNL A   1      44.599  23.812  26.765  1.00  0.00     0.064 A 
ATOM     61  C   UNL A   1      44.325  22.451  26.505  1.00  0.00     0.173 A 
ATOM     62  C   UNL A   1      45.553  24.395  25.913  1.00  0.00     0.173 A 
ATOM     63  F   UNL A   1      43.350  21.797  27.146  1.00  0.00    -0.203 F 
ATOM     64  C   UNL A   1      45.053  21.706  25.575  1.00  0.00     0.198 A 
ATOM     65  C   UNL A   1      46.323  23.637  25.023  1.00  0.00     0.198 A 
ATOM     66  F   UNL A   1      45.743  25.721  25.892  1.00  0.00    -0.203 F 
ATOM     67  F   UNL A   1      44.761  20.411  25.389  1.00  0.00    -0.200 F 
ATOM     68  C   UNL A   1      46.083  22.287  24.867  1.00  0.00     0.200 A 
ATOM     69  F   UNL A   1      47.304  24.225  24.324  1.00  0.00    -0.200 F 
ATOM     70  F   UNL A   1      46.821  21.558  24.020  1.00  0.00    -0.200 F 
ENDBRANCH  46  60
BRANCH  47  71
ATOM     71  C   UNL A   1      40.621  30.040  33.032  1.00  0.00     0.064 A 
ATOM     72  C   UNL A   1      40.331  31.412  33.154  1.00  0.00     0.173 A 
ATOM     73  C   UNL A   1      39.538  29.158  32.949  1.00  0.00     0.173 A 
ATOM     74  F   UNL A   1      41.335  32.302  33.234  1.00  0.00    -0.203 F 
ATOM     75  C   UNL A   1      39.021  31.886  33.121  1.00  0.00     0.198 A 
ATOM     76  C   UNL A   1      38.227  29.636  32.915  1.00  0.00     0.198 A 
ATOM     77  F   UNL A   1      39.748  27.839  32.821  1.00  0.00    -0.203 F 
ATOM     78  F   UNL A   1      38.785  33.206  33.181  1.00  0.00    -0.200 F 
ATOM     79  C   UNL A   1      37.968  30.998  32.985  1.00  0.00     0.200 A 
ATOM     80  F   UNL A   1      37.213  28.773  32.781  1.00  0.00    -0.200 F 
ATOM     81  F   UNL A   1      36.709  31.455  32.925  1.00  0.00    -0.200 F 
ENDBRANCH  47  71
BRANCH  59  82
ATOM     82  C   UNL A   1      45.179  24.374  33.496  1.00  0.00     0.064 A 
ATOM     83  C   UNL A   1      44.531  23.153  33.736  1.00  0.00     0.173 A 
ATOM     84  C   UNL A   1      46.529  24.437  33.931  1.00  0.00     0.173 A 
ATOM     85  F   UNL A   1      43.305  22.907  33.255  1.00  0.00    -0.203 F 
ATOM     86  C   UNL A   1      45.150  22.111  34.434  1.00  0.00     0.198 A 
ATOM     87  C   UNL A   1      47.162  23.374  34.572  1.00  0.00     0.198 A 
ATOM     88  F   UNL A   1      47.287  25.523  33.729  1.00  0.00    -0.203 F 
ATOM     89  F   UNL A   1      44.465  20.986  34.685  1.00  0.00    -0.200 F 
ATOM     90  C   UNL A   1      46.464  22.218  34.845  1.00  0.00     0.200 A 
ATOM     91  F   UNL A   1      48.455  23.476  34.909  1.00  0.00    -0.200 F 
ATOM     92  F   UNL A   1      47.064  21.202  35.479  1.00  0.00    -0.200 F 
ENDBRANCH  59  82
ENDBRANCH  33  34
ENDBRANCH  26  28
ENDBRANCH  25  26
ENDBRANCH  24  25
ENDBRANCH   1  24
TORSDOF 15
ENDMDL
