MODEL 1
REMARK VINA RESULT:     -12.4      0.000      0.000
REMARK SMILES C/C(=C(\C#N)C(=O)OCCOC(=O)c1ccc(-c2c3nc(c(-c4c(F)c(F)c(F)c(F)c4F)c4ccc([nH]4)c(-c4c(F)c(F)c(F)c(F)c4F)c4nc(c(-c5c(F)c(F)c(F)c(F)c5F)c5ccc2[nH]5)C=C4)C=C3)cc1)c1cccc2ccccc12
REMARK SMILES IDX 10 1 9 2 8 3 6 4 7 5 3 6 1 7 2 8 77 9 78 10 86 11 79 12
REMARK SMILES IDX 81 13 85 14 80 15 82 16 84 17 83 18 4 19 5 20 11 21 12 22
REMARK SMILES IDX 13 23 14 24 15 25 76 26 16 27 75 28 17 29 18 30 19 31 69 32
REMARK SMILES IDX 20 33 74 34 68 35 70 36 21 37 73 38 67 39 66 40 22 42 54 43
REMARK SMILES IDX 34 44 53 45 35 46 38 47 52 48 71 49 36 50 37 51 51 53 72 54
REMARK SMILES IDX 39 55 23 56 24 57 32 58 25 59 26 60 30 61 33 62 27 63 28 64
REMARK SMILES IDX 31 65 29 66 55 67 56 68 64 69 57 70 58 71 62 72 65 73 59 74
REMARK SMILES IDX 60 75 63 76 61 77 40 78 41 79 49 80 42 81 43 82 47 83 50 84
REMARK SMILES IDX 44 85 45 86 48 87 46 88
REMARK H PARENT 70 41 38 52
REMARK Flexibility Score: inf
ROOT
ATOM      1  C   UNL A   1      31.445  29.710  24.723  1.00  0.00     0.275 C 
ENDROOT
BRANCH   1   2
ATOM      2  C   UNL A   1      31.823  28.738  23.608  1.00  0.00     0.275 C 
BRANCH   2   3
ATOM      3  O   UNL A   1      31.678  27.386  24.094  1.00  0.00    -0.458 OA
BRANCH   3   4
ATOM      4  C   UNL A   1      32.801  26.755  24.539  1.00  0.00     0.349 C 
ATOM      5  O   UNL A   1      33.896  26.799  24.006  1.00  0.00    -0.245 OA
BRANCH   4   6
ATOM      6  C   UNL A   1      32.443  25.860  25.670  1.00  0.00     0.140 C 
ATOM      7  C   UNL A   1      31.774  23.801  26.990  1.00  0.00     0.047 C 
ATOM      8  C   UNL A   1      32.497  24.493  25.850  1.00  0.00    -0.018 C 
BRANCH   8   9
ATOM      9  C   UNL A   1      33.085  23.470  24.880  1.00  0.00    -0.013 A 
ATOM     10  C   UNL A   1      32.029  22.252  24.059  1.00  0.00     0.009 A 
ATOM     11  C   UNL A   1      34.736  23.014  25.298  1.00  0.00    -0.011 A 
ATOM     12  C   UNL A   1      32.716  20.337  23.961  1.00  0.00     0.001 A 
ATOM     13  C   UNL A   1      35.325  21.347  25.246  1.00  0.00    -0.018 A 
ATOM     14  C   UNL A   1      35.729  23.982  25.214  1.00  0.00     0.009 A 
ATOM     15  C   UNL A   1      34.340  20.007  24.664  1.00  0.00     0.009 A 
ATOM     16  C   UNL A   1      36.686  21.180  25.401  1.00  0.00     0.009 A 
ATOM     17  C   UNL A   1      37.062  23.600  25.005  1.00  0.00     0.001 A 
ATOM     18  C   UNL A   1      37.525  22.276  25.158  1.00  0.00     0.001 A 
ENDBRANCH   8   9
BRANCH   6  19
ATOM     19  C   UNL A   1      31.681  26.712  26.672  1.00  0.00     0.107 C 
ATOM     20  N   UNL A   1      31.049  27.419  27.503  1.00  0.00    -0.192 NA
ENDBRANCH   6  19
ENDBRANCH   4   6
ENDBRANCH   3   4
ENDBRANCH   2   3
ENDBRANCH   1   2
BRANCH   1  21
ATOM     21  O   UNL A   1      32.655  30.129  25.375  1.00  0.00    -0.458 OA
BRANCH  21  22
ATOM     22  C   UNL A   1      32.427  30.997  26.375  1.00  0.00     0.338 C 
ATOM     23  O   UNL A   1      31.492  31.771  26.513  1.00  0.00    -0.246 OA
BRANCH  22  24
ATOM     24  C   UNL A   1      33.450  30.896  27.396  1.00  0.00     0.060 A 
ATOM     25  C   UNL A   1      34.524  32.281  27.870  1.00  0.00     0.016 A 
ATOM     26  C   UNL A   1      34.047  29.249  27.629  1.00  0.00     0.016 A 
ATOM     27  C   UNL A   1      36.355  31.789  28.616  1.00  0.00     0.010 A 
ATOM     28  C   UNL A   1      35.632  28.871  28.327  1.00  0.00     0.010 A 
ATOM     29  C   UNL A   1      36.798  30.072  28.838  1.00  0.00    -0.014 A 
BRANCH  29  30
ATOM     30  C   UNL A   1      38.056  29.759  29.613  1.00  0.00     0.031 A 
ATOM     31  C   UNL A   1      39.208  29.017  29.009  1.00  0.00     0.074 A 
ATOM     32  C   UNL A   1      38.170  30.129  30.911  1.00  0.00     0.049 A 
ATOM     33  N   UNL A   1      40.297  28.586  29.600  1.00  0.00    -0.248 NA
ATOM     34  C   UNL A   1      39.104  28.631  27.599  1.00  0.00     0.031 C 
ATOM     35  C   UNL A   1      37.078  30.646  31.711  1.00  0.00     0.029 A 
ATOM     36  N   UNL A   1      39.222  30.178  31.798  1.00  0.00    -0.354 N 
ATOM     37  C   UNL A   1      40.948  27.791  28.669  1.00  0.00     0.074 A 
ATOM     38  C   UNL A   1      40.135  27.808  27.470  1.00  0.00     0.031 C 
ATOM     39  C   UNL A   1      37.528  31.211  32.832  1.00  0.00     0.029 A 
ATOM     40  C   UNL A   1      38.931  30.877  32.958  1.00  0.00     0.049 A 
ATOM     41  H   UNL A   1      40.095  29.758  31.624  1.00  0.00     0.167 HD
ATOM     42  C   UNL A   1      42.107  27.103  28.823  1.00  0.00     0.037 A 
ATOM     43  C   UNL A   1      39.680  31.168  34.040  1.00  0.00     0.037 A 
ATOM     44  C   UNL A   1      42.926  27.158  30.011  1.00  0.00     0.049 A 
ATOM     45  C   UNL A   1      41.024  30.515  34.122  1.00  0.00     0.074 A 
ATOM     46  C   UNL A   1      44.130  26.522  30.262  1.00  0.00     0.029 A 
ATOM     47  N   UNL A   1      42.633  27.910  31.145  1.00  0.00    -0.354 N 
ATOM     48  N   UNL A   1      41.609  29.738  33.244  1.00  0.00    -0.248 NA
ATOM     49  C   UNL A   1      41.782  30.706  35.363  1.00  0.00     0.031 C 
ATOM     50  C   UNL A   1      44.546  26.861  31.555  1.00  0.00     0.029 A 
ATOM     51  C   UNL A   1      43.636  27.757  32.092  1.00  0.00     0.049 A 
ATOM     52  H   UNL A   1      41.831  28.470  31.258  1.00  0.00     0.167 HD
ATOM     53  C   UNL A   1      42.784  29.316  33.835  1.00  0.00     0.074 A 
ATOM     54  C   UNL A   1      42.864  29.981  35.121  1.00  0.00     0.031 C 
ATOM     55  C   UNL A   1      43.694  28.427  33.369  1.00  0.00     0.037 A 
BRANCH  42  56
ATOM     56  C   UNL A   1      42.524  26.197  27.697  1.00  0.00     0.064 A 
ATOM     57  C   UNL A   1      43.486  26.574  26.747  1.00  0.00     0.173 A 
ATOM     58  C   UNL A   1      41.936  24.928  27.557  1.00  0.00     0.173 A 
ATOM     59  F   UNL A   1      44.072  27.777  26.821  1.00  0.00    -0.203 F 
ATOM     60  C   UNL A   1      43.802  25.741  25.674  1.00  0.00     0.198 A 
ATOM     61  C   UNL A   1      42.284  24.082  26.506  1.00  0.00     0.198 A 
ATOM     62  F   UNL A   1      41.016  24.506  28.439  1.00  0.00    -0.203 F 
ATOM     63  F   UNL A   1      44.664  26.159  24.738  1.00  0.00    -0.200 F 
ATOM     64  C   UNL A   1      43.204  24.496  25.557  1.00  0.00     0.200 A 
ATOM     65  F   UNL A   1      41.716  22.872  26.405  1.00  0.00    -0.200 F 
ATOM     66  F   UNL A   1      43.506  23.700  24.521  1.00  0.00    -0.200 F 
ENDBRANCH  42  56
BRANCH  43  67
ATOM     67  C   UNL A   1      39.171  32.054  35.131  1.00  0.00     0.064 A 
ATOM     68  C   UNL A   1      38.462  31.510  36.214  1.00  0.00     0.173 A 
ATOM     69  C   UNL A   1      39.384  33.442  35.143  1.00  0.00     0.173 A 
ATOM     70  F   UNL A   1      38.196  30.196  36.246  1.00  0.00    -0.203 F 
ATOM     71  C   UNL A   1      37.992  32.313  37.255  1.00  0.00     0.198 A 
ATOM     72  C   UNL A   1      38.961  34.236  36.209  1.00  0.00     0.198 A 
ATOM     73  F   UNL A   1      40.035  34.034  34.130  1.00  0.00    -0.203 F 
ATOM     74  F   UNL A   1      37.277  31.767  38.248  1.00  0.00    -0.200 F 
ATOM     75  C   UNL A   1      38.258  33.672  37.260  1.00  0.00     0.200 A 
ATOM     76  F   UNL A   1      39.245  35.545  36.220  1.00  0.00    -0.200 F 
ATOM     77  F   UNL A   1      37.829  34.439  38.273  1.00  0.00    -0.200 F 
ENDBRANCH  43  67
BRANCH  55  78
ATOM     78  C   UNL A   1      44.865  28.151  34.261  1.00  0.00     0.064 A 
ATOM     79  C   UNL A   1      44.846  27.108  35.200  1.00  0.00     0.173 A 
ATOM     80  C   UNL A   1      46.017  28.943  34.176  1.00  0.00     0.173 A 
ATOM     81  F   UNL A   1      43.755  26.339  35.336  1.00  0.00    -0.203 F 
ATOM     82  C   UNL A   1      45.931  26.890  36.044  1.00  0.00     0.198 A 
ATOM     83  C   UNL A   1      47.113  28.700  34.998  1.00  0.00     0.198 A 
ATOM     84  F   UNL A   1      46.081  29.953  33.295  1.00  0.00    -0.203 F 
ATOM     85  F   UNL A   1      45.868  25.930  36.977  1.00  0.00    -0.200 F 
ATOM     86  C   UNL A   1      47.065  27.681  35.938  1.00  0.00     0.200 A 
ATOM     87  F   UNL A   1      48.211  29.459  34.887  1.00  0.00    -0.200 F 
ATOM     88  F   UNL A   1      48.108  27.470  36.751  1.00  0.00    -0.200 F 
ENDBRANCH  55  78
ENDBRANCH  29  30
ENDBRANCH  22  24
ENDBRANCH  21  22
ENDBRANCH   1  21
TORSDOF 13
ENDMDL
MODEL 2
REMARK VINA RESULT:     -12.2      0.509      7.405
REMARK SMILES C/C(=C(\C#N)C(=O)OCCOC(=O)c1ccc(-c2c3nc(c(-c4c(F)c(F)c(F)c(F)c4F)c4ccc([nH]4)c(-c4c(F)c(F)c(F)c(F)c4F)c4nc(c(-c5c(F)c(F)c(F)c(F)c5F)c5ccc2[nH]5)C=C4)C=C3)cc1)c1cccc2ccccc12
REMARK SMILES IDX 10 1 9 2 8 3 6 4 7 5 3 6 1 7 2 8 77 9 78 10 86 11 79 12
REMARK SMILES IDX 81 13 85 14 80 15 82 16 84 17 83 18 4 19 5 20 11 21 12 22
REMARK SMILES IDX 13 23 14 24 15 25 76 26 16 27 75 28 17 29 18 30 19 31 69 32
REMARK SMILES IDX 20 33 74 34 68 35 70 36 21 37 73 38 67 39 66 40 22 42 54 43
REMARK SMILES IDX 34 44 53 45 35 46 38 47 52 48 71 49 36 50 37 51 51 53 72 54
REMARK SMILES IDX 39 55 23 56 24 57 32 58 25 59 26 60 30 61 33 62 27 63 28 64
REMARK SMILES IDX 31 65 29 66 55 67 56 68 64 69 57 70 58 71 62 72 65 73 59 74
REMARK SMILES IDX 60 75 63 76 61 77 40 78 41 79 49 80 42 81 43 82 47 83 50 84
REMARK SMILES IDX 44 85 45 86 48 87 46 88
REMARK H PARENT 70 41 38 52
REMARK Flexibility Score: inf
ROOT
ATOM      1  C   UNL A   1      31.610  29.456  24.543  1.00  0.00     0.275 C 
ENDROOT
BRANCH   1   2
ATOM      2  C   UNL A   1      32.126  28.482  23.486  1.00  0.00     0.275 C 
BRANCH   2   3
ATOM      3  O   UNL A   1      32.717  27.342  24.147  1.00  0.00    -0.458 OA
BRANCH   3   4
ATOM      4  C   UNL A   1      32.071  26.148  24.036  1.00  0.00     0.349 C 
ATOM      5  O   UNL A   1      31.398  25.792  23.084  1.00  0.00    -0.245 OA
BRANCH   4   6
ATOM      6  C   UNL A   1      32.161  25.422  25.330  1.00  0.00     0.140 C 
ATOM      7  C   UNL A   1      32.197  23.552  27.043  1.00  0.00     0.047 C 
ATOM      8  C   UNL A   1      32.486  24.124  25.668  1.00  0.00    -0.018 C 
BRANCH   8   9
ATOM      9  C   UNL A   1      32.976  23.033  24.719  1.00  0.00    -0.013 A 
ATOM     10  C   UNL A   1      31.847  21.762  24.099  1.00  0.00     0.009 A 
ATOM     11  C   UNL A   1      34.663  22.602  24.996  1.00  0.00    -0.011 A 
ATOM     12  C   UNL A   1      32.528  19.843  24.068  1.00  0.00     0.001 A 
ATOM     13  C   UNL A   1      35.251  20.934  25.004  1.00  0.00    -0.018 A 
ATOM     14  C   UNL A   1      35.638  23.558  24.742  1.00  0.00     0.009 A 
ATOM     15  C   UNL A   1      34.216  19.558  24.623  1.00  0.00     0.009 A 
ATOM     16  C   UNL A   1      36.621  20.774  25.030  1.00  0.00     0.009 A 
ATOM     17  C   UNL A   1      36.945  23.158  24.426  1.00  0.00     0.001 A 
ATOM     18  C   UNL A   1      37.427  21.847  24.625  1.00  0.00     0.001 A 
ENDBRANCH   8   9
BRANCH   6  19
ATOM     19  C   UNL A   1      31.542  26.330  26.380  1.00  0.00     0.107 C 
ATOM     20  N   UNL A   1      31.028  27.084  27.250  1.00  0.00    -0.192 NA
ENDBRANCH   6  19
ENDBRANCH   4   6
ENDBRANCH   3   4
ENDBRANCH   2   3
ENDBRANCH   1   2
BRANCH   1  21
ATOM     21  O   UNL A   1      32.747  30.078  25.164  1.00  0.00    -0.458 OA
BRANCH  21  22
ATOM     22  C   UNL A   1      32.405  30.843  26.214  1.00  0.00     0.338 C 
ATOM     23  O   UNL A   1      31.386  31.496  26.382  1.00  0.00    -0.246 OA
BRANCH  22  24
ATOM     24  C   UNL A   1      33.416  30.786  27.251  1.00  0.00     0.060 A 
ATOM     25  C   UNL A   1      34.514  32.176  27.648  1.00  0.00     0.016 A 
ATOM     26  C   UNL A   1      33.976  29.145  27.595  1.00  0.00     0.016 A 
ATOM     27  C   UNL A   1      36.327  31.695  28.444  1.00  0.00     0.010 A 
ATOM     28  C   UNL A   1      35.546  28.780  28.332  1.00  0.00     0.010 A 
ATOM     29  C   UNL A   1      36.732  29.988  28.779  1.00  0.00    -0.014 A 
BRANCH  29  30
ATOM     30  C   UNL A   1      37.976  29.698  29.586  1.00  0.00     0.031 A 
ATOM     31  C   UNL A   1      38.125  30.127  31.013  1.00  0.00     0.074 A 
ATOM     32  C   UNL A   1      39.021  29.049  29.021  1.00  0.00     0.049 A 
ATOM     33  N   UNL A   1      39.185  30.040  31.781  1.00  0.00    -0.248 NA
ATOM     34  C   UNL A   1      36.991  30.811  31.640  1.00  0.00     0.031 C 
ATOM     35  C   UNL A   1      39.138  28.766  27.605  1.00  0.00     0.029 A 
ATOM     36  N   UNL A   1      40.166  28.471  29.523  1.00  0.00    -0.354 N 
ATOM     37  C   UNL A   1      38.883  30.751  32.932  1.00  0.00     0.074 A 
ATOM     38  C   UNL A   1      37.536  31.255  32.764  1.00  0.00     0.031 C 
ATOM     39  C   UNL A   1      40.091  27.864  27.371  1.00  0.00     0.029 A 
ATOM     40  C   UNL A   1      40.833  27.681  28.601  1.00  0.00     0.049 A 
ATOM     41  H   UNL A   1      40.478  28.605  30.447  1.00  0.00     0.167 HD
ATOM     42  C   UNL A   1      39.675  30.969  34.011  1.00  0.00     0.037 A 
ATOM     43  C   UNL A   1      41.953  26.939  28.701  1.00  0.00     0.037 A 
ATOM     44  C   UNL A   1      40.992  30.399  34.173  1.00  0.00     0.049 A 
ATOM     45  C   UNL A   1      42.740  27.079  29.967  1.00  0.00     0.074 A 
ATOM     46  C   UNL A   1      41.867  30.534  35.238  1.00  0.00     0.029 A 
ATOM     47  N   UNL A   1      41.618  29.567  33.251  1.00  0.00    -0.354 N 
ATOM     48  N   UNL A   1      42.453  27.784  31.032  1.00  0.00    -0.248 NA
ATOM     49  C   UNL A   1      44.035  26.393  30.023  1.00  0.00     0.031 C 
ATOM     50  C   UNL A   1      43.032  29.814  34.944  1.00  0.00     0.029 A 
ATOM     51  C   UNL A   1      42.863  29.178  33.725  1.00  0.00     0.049 A 
ATOM     52  H   UNL A   1      41.233  29.293  32.387  1.00  0.00     0.167 HD
ATOM     53  C   UNL A   1      43.542  27.660  31.873  1.00  0.00     0.074 A 
ATOM     54  C   UNL A   1      44.468  26.753  31.223  1.00  0.00     0.031 C 
ATOM     55  C   UNL A   1      43.770  28.275  33.058  1.00  0.00     0.037 A 
BRANCH  42  56
ATOM     56  C   UNL A   1      39.153  31.901  35.071  1.00  0.00     0.064 A 
ATOM     57  C   UNL A   1      39.383  33.284  35.034  1.00  0.00     0.173 A 
ATOM     58  C   UNL A   1      38.417  31.394  36.155  1.00  0.00     0.173 A 
ATOM     59  F   UNL A   1      40.090  33.824  34.030  1.00  0.00    -0.203 F 
ATOM     60  C   UNL A   1      38.946  34.115  36.065  1.00  0.00     0.198 A 
ATOM     61  C   UNL A   1      37.947  32.232  37.164  1.00  0.00     0.198 A 
ATOM     62  F   UNL A   1      38.155  30.080  36.243  1.00  0.00    -0.203 F 
ATOM     63  F   UNL A   1      39.249  35.419  36.045  1.00  0.00    -0.200 F 
ATOM     64  C   UNL A   1      38.225  33.588  37.126  1.00  0.00     0.200 A 
ATOM     65  F   UNL A   1      37.236  31.723  38.181  1.00  0.00    -0.200 F 
ATOM     66  F   UNL A   1      37.811  34.388  38.120  1.00  0.00    -0.200 F 
ENDBRANCH  42  56
BRANCH  43  67
ATOM     67  C   UNL A   1      42.417  26.063  27.582  1.00  0.00     0.064 A 
ATOM     68  C   UNL A   1      41.878  24.776  27.419  1.00  0.00     0.173 A 
ATOM     69  C   UNL A   1      43.379  26.473  26.644  1.00  0.00     0.173 A 
ATOM     70  F   UNL A   1      40.980  24.311  28.300  1.00  0.00    -0.203 F 
ATOM     71  C   UNL A   1      42.279  23.945  26.372  1.00  0.00     0.198 A 
ATOM     72  C   UNL A   1      43.740  25.663  25.568  1.00  0.00     0.198 A 
ATOM     73  F   UNL A   1      43.952  27.681  26.750  1.00  0.00    -0.203 F 
ATOM     74  F   UNL A   1      41.780  22.705  26.275  1.00  0.00    -0.200 F 
ATOM     75  C   UNL A   1      43.197  24.396  25.438  1.00  0.00     0.200 A 
ATOM     76  F   UNL A   1      44.608  26.116  24.654  1.00  0.00    -0.200 F 
ATOM     77  F   UNL A   1      43.563  23.607  24.417  1.00  0.00    -0.200 F 
ENDBRANCH  43  67
BRANCH  55  78
ATOM     78  C   UNL A   1      45.071  27.956  33.729  1.00  0.00     0.064 A 
ATOM     79  C   UNL A   1      45.192  26.890  34.632  1.00  0.00     0.173 A 
ATOM     80  C   UNL A   1      46.208  28.732  33.466  1.00  0.00     0.173 A 
ATOM     81  F   UNL A   1      44.124  26.135  34.936  1.00  0.00    -0.203 F 
ATOM     82  C   UNL A   1      46.400  26.631  35.273  1.00  0.00     0.198 A 
ATOM     83  C   UNL A   1      47.423  28.449  34.082  1.00  0.00     0.198 A 
ATOM     84  F   UNL A   1      46.140  29.763  32.611  1.00  0.00    -0.203 F 
ATOM     85  F   UNL A   1      46.479  25.648  36.180  1.00  0.00    -0.200 F 
ATOM     86  C   UNL A   1      47.515  27.407  34.992  1.00  0.00     0.200 A 
ATOM     87  F   UNL A   1      48.502  29.193  33.801  1.00  0.00    -0.200 F 
ATOM     88  F   UNL A   1      48.678  27.157  35.609  1.00  0.00    -0.200 F 
ENDBRANCH  55  78
ENDBRANCH  29  30
ENDBRANCH  22  24
ENDBRANCH  21  22
ENDBRANCH   1  21
TORSDOF 13
ENDMDL
MODEL 3
REMARK VINA RESULT:     -12.0      3.935      9.499
REMARK SMILES C/C(=C(\C#N)C(=O)OCCOC(=O)c1ccc(-c2c3nc(c(-c4c(F)c(F)c(F)c(F)c4F)c4ccc([nH]4)c(-c4c(F)c(F)c(F)c(F)c4F)c4nc(c(-c5c(F)c(F)c(F)c(F)c5F)c5ccc2[nH]5)C=C4)C=C3)cc1)c1cccc2ccccc12
REMARK SMILES IDX 10 1 9 2 8 3 6 4 7 5 3 6 1 7 2 8 77 9 78 10 86 11 79 12
REMARK SMILES IDX 81 13 85 14 80 15 82 16 84 17 83 18 4 19 5 20 11 21 12 22
REMARK SMILES IDX 13 23 14 24 15 25 76 26 16 27 75 28 17 29 18 30 19 31 69 32
REMARK SMILES IDX 20 33 74 34 68 35 70 36 21 37 73 38 67 39 66 40 22 42 54 43
REMARK SMILES IDX 34 44 53 45 35 46 38 47 52 48 71 49 36 50 37 51 51 53 72 54
REMARK SMILES IDX 39 55 23 56 24 57 32 58 25 59 26 60 30 61 33 62 27 63 28 64
REMARK SMILES IDX 31 65 29 66 55 67 56 68 64 69 57 70 58 71 62 72 65 73 59 74
REMARK SMILES IDX 60 75 63 76 61 77 40 78 41 79 49 80 42 81 43 82 47 83 50 84
REMARK SMILES IDX 44 85 45 86 48 87 46 88
REMARK H PARENT 70 41 38 52
REMARK Flexibility Score: inf
ROOT
ATOM      1  C   UNL A   1      35.247  20.786  25.259  1.00  0.00     0.275 C 
ENDROOT
BRANCH   1   2
ATOM      2  C   UNL A   1      33.995  21.441  25.838  1.00  0.00     0.275 C 
BRANCH   2   3
ATOM      3  O   UNL A   1      34.079  22.869  25.645  1.00  0.00    -0.458 OA
BRANCH   3   4
ATOM      4  C   UNL A   1      33.033  23.481  25.022  1.00  0.00     0.349 C 
ATOM      5  O   UNL A   1      31.861  23.164  25.129  1.00  0.00    -0.245 OA
BRANCH   4   6
ATOM      6  C   UNL A   1      33.558  24.476  24.050  1.00  0.00     0.140 C 
ATOM      7  C   UNL A   1      33.667  26.376  22.375  1.00  0.00     0.047 C 
ATOM      8  C   UNL A   1      33.102  25.702  23.611  1.00  0.00    -0.018 C 
BRANCH   8   9
ATOM      9  C   UNL A   1      31.883  26.460  24.132  1.00  0.00    -0.013 A 
ATOM     10  C   UNL A   1      30.338  26.498  23.192  1.00  0.00     0.009 A 
ATOM     11  C   UNL A   1      32.324  27.871  25.091  1.00  0.00    -0.011 A 
ATOM     12  C   UNL A   1      29.374  28.287  23.053  1.00  0.00     0.001 A 
ATOM     13  C   UNL A   1      31.511  29.436  24.948  1.00  0.00    -0.018 A 
ATOM     14  C   UNL A   1      32.982  27.670  26.298  1.00  0.00     0.009 A 
ATOM     15  C   UNL A   1      30.111  29.689  23.908  1.00  0.00     0.009 A 
ATOM     16  C   UNL A   1      31.832  30.377  25.905  1.00  0.00     0.009 A 
ATOM     17  C   UNL A   1      32.884  28.629  27.317  1.00  0.00     0.001 A 
ATOM     18  C   UNL A   1      32.396  29.937  27.110  1.00  0.00     0.001 A 
ENDBRANCH   8   9
BRANCH   6  19
ATOM     19  C   UNL A   1      34.699  23.798  23.310  1.00  0.00     0.107 C 
ATOM     20  N   UNL A   1      35.645  23.234  22.696  1.00  0.00    -0.192 NA
ENDBRANCH   6  19
ENDBRANCH   4   6
ENDBRANCH   3   4
ENDBRANCH   2   3
ENDBRANCH   1   2
BRANCH   1  21
ATOM     21  O   UNL A   1      36.364  21.163  26.079  1.00  0.00    -0.458 OA
BRANCH  21  22
ATOM     22  C   UNL A   1      37.541  20.793  25.548  1.00  0.00     0.338 C 
ATOM     23  O   UNL A   1      37.817  19.766  24.947  1.00  0.00    -0.246 OA
BRANCH  22  24
ATOM     24  C   UNL A   1      38.539  21.830  25.718  1.00  0.00     0.060 A 
ATOM     25  C   UNL A   1      40.031  21.620  26.731  1.00  0.00     0.016 A 
ATOM     26  C   UNL A   1      37.901  23.462  25.489  1.00  0.00     0.016 A 
ATOM     27  C   UNL A   1      40.821  23.316  27.538  1.00  0.00     0.010 A 
ATOM     28  C   UNL A   1      38.653  24.914  26.173  1.00  0.00     0.010 A 
ATOM     29  C   UNL A   1      40.089  24.904  27.174  1.00  0.00    -0.014 A 
BRANCH  29  30
ATOM     30  C   UNL A   1      40.843  26.145  27.589  1.00  0.00     0.031 A 
ATOM     31  C   UNL A   1      40.278  27.144  28.551  1.00  0.00     0.074 A 
ATOM     32  C   UNL A   1      42.068  26.405  27.073  1.00  0.00     0.049 A 
ATOM     33  N   UNL A   1      40.776  28.306  28.902  1.00  0.00    -0.248 NA
ATOM     34  C   UNL A   1      38.963  26.861  29.131  1.00  0.00     0.031 C 
ATOM     35  C   UNL A   1      42.662  25.675  25.972  1.00  0.00     0.029 A 
ATOM     36  N   UNL A   1      43.063  27.302  27.391  1.00  0.00    -0.354 N 
ATOM     37  C   UNL A   1      39.792  28.934  29.649  1.00  0.00     0.074 A 
ATOM     38  C   UNL A   1      38.671  28.019  29.709  1.00  0.00     0.031 C 
ATOM     39  C   UNL A   1      43.967  25.927  25.876  1.00  0.00     0.029 A 
ATOM     40  C   UNL A   1      44.266  27.037  26.757  1.00  0.00     0.049 A 
ATOM     41  H   UNL A   1      42.933  28.057  28.010  1.00  0.00     0.167 HD
ATOM     42  C   UNL A   1      39.828  30.169  30.210  1.00  0.00     0.037 A 
ATOM     43  C   UNL A   1      45.465  27.649  26.817  1.00  0.00     0.037 A 
ATOM     44  C   UNL A   1      40.986  31.031  30.185  1.00  0.00     0.049 A 
ATOM     45  C   UNL A   1      45.522  28.941  27.571  1.00  0.00     0.074 A 
ATOM     46  C   UNL A   1      41.139  32.288  30.745  1.00  0.00     0.029 A 
ATOM     47  N   UNL A   1      42.199  30.717  29.582  1.00  0.00    -0.354 N 
ATOM     48  N   UNL A   1      44.569  29.535  28.245  1.00  0.00    -0.248 NA
ATOM     49  C   UNL A   1      46.783  29.687  27.516  1.00  0.00     0.031 C 
ATOM     50  C   UNL A   1      42.429  32.747  30.451  1.00  0.00     0.029 A 
ATOM     51  C   UNL A   1      43.105  31.753  29.761  1.00  0.00     0.049 A 
ATOM     52  H   UNL A   1      42.389  29.880  29.098  1.00  0.00     0.167 HD
ATOM     53  C   UNL A   1      45.097  30.741  28.664  1.00  0.00     0.074 A 
ATOM     54  C   UNL A   1      46.480  30.763  28.228  1.00  0.00     0.031 C 
ATOM     55  C   UNL A   1      44.478  31.755  29.315  1.00  0.00     0.037 A 
BRANCH  42  56
ATOM     56  C   UNL A   1      38.564  30.670  30.852  1.00  0.00     0.064 A 
ATOM     57  C   UNL A   1      37.500  31.198  30.104  1.00  0.00     0.173 A 
ATOM     58  C   UNL A   1      38.419  30.635  32.250  1.00  0.00     0.173 A 
ATOM     59  F   UNL A   1      37.586  31.269  28.768  1.00  0.00    -0.203 F 
ATOM     60  C   UNL A   1      36.368  31.719  30.730  1.00  0.00     0.198 A 
ATOM     61  C   UNL A   1      37.270  31.120  32.870  1.00  0.00     0.198 A 
ATOM     62  F   UNL A   1      39.398  30.134  33.020  1.00  0.00    -0.203 F 
ATOM     63  F   UNL A   1      35.404  32.290  29.997  1.00  0.00    -0.200 F 
ATOM     64  C   UNL A   1      36.253  31.676  32.111  1.00  0.00     0.200 A 
ATOM     65  F   UNL A   1      37.155  31.062  34.205  1.00  0.00    -0.200 F 
ATOM     66  F   UNL A   1      35.167  32.183  32.711  1.00  0.00    -0.200 F 
ENDBRANCH  42  56
BRANCH  43  67
ATOM     67  C   UNL A   1      46.665  27.094  26.119  1.00  0.00     0.064 A 
ATOM     68  C   UNL A   1      46.940  27.453  24.789  1.00  0.00     0.173 A 
ATOM     69  C   UNL A   1      47.571  26.222  26.743  1.00  0.00     0.173 A 
ATOM     70  F   UNL A   1      46.096  28.257  24.125  1.00  0.00    -0.203 F 
ATOM     71  C   UNL A   1      48.063  26.965  24.120  1.00  0.00     0.198 A 
ATOM     72  C   UNL A   1      48.721  25.776  26.092  1.00  0.00     0.198 A 
ATOM     73  F   UNL A   1      47.360  25.819  28.005  1.00  0.00    -0.203 F 
ATOM     74  F   UNL A   1      48.269  27.289  22.836  1.00  0.00    -0.200 F 
ATOM     75  C   UNL A   1      48.962  26.142  24.778  1.00  0.00     0.200 A 
ATOM     76  F   UNL A   1      49.599  25.002  26.743  1.00  0.00    -0.200 F 
ATOM     77  F   UNL A   1      50.055  25.694  24.144  1.00  0.00    -0.200 F 
ENDBRANCH  43  67
BRANCH  55  78
ATOM     78  C   UNL A   1      45.317  32.960  29.612  1.00  0.00     0.064 A 
ATOM     79  C   UNL A   1      46.070  33.061  30.791  1.00  0.00     0.173 A 
ATOM     80  C   UNL A   1      45.362  34.027  28.705  1.00  0.00     0.173 A 
ATOM     81  F   UNL A   1      46.038  32.076  31.702  1.00  0.00    -0.203 F 
ATOM     82  C   UNL A   1      46.815  34.204  31.065  1.00  0.00     0.198 A 
ATOM     83  C   UNL A   1      46.135  35.153  28.966  1.00  0.00     0.198 A 
ATOM     84  F   UNL A   1      44.656  33.976  27.565  1.00  0.00    -0.203 F 
ATOM     85  F   UNL A   1      47.477  34.308  32.225  1.00  0.00    -0.200 F 
ATOM     86  C   UNL A   1      46.852  35.245  30.149  1.00  0.00     0.200 A 
ATOM     87  F   UNL A   1      46.177  36.154  28.076  1.00  0.00    -0.200 F 
ATOM     88  F   UNL A   1      47.569  36.345  30.414  1.00  0.00    -0.200 F 
ENDBRANCH  55  78
ENDBRANCH  29  30
ENDBRANCH  22  24
ENDBRANCH  21  22
ENDBRANCH   1  21
TORSDOF 13
ENDMDL
