MODEL 1
REMARK VINA RESULT:     -12.0      0.000      0.000
REMARK SMILES CO[C@H](C)c1noc(C[C@](C)(C(=O)OCCOC(=O)c2ccc(-c3c4nc(c(-c5c(F)c(F)c(F)c(F)c5F)c5ccc([nH]5)c(-c5c(F)c(F)c(F)c(F)c5F)c5nc(c(-c6c(F)c(F)c(F)c(F)c6F)c6ccc3[nH]6)C=C5)C=C4)cc2)c2ccccc2)n1
REMARK SMILES IDX 15 1 14 2 12 3 13 4 10 5 11 6 9 7 8 8 5 9 6 10 89 11 7 12
REMARK SMILES IDX 3 13 4 14 2 15 1 16 83 17 84 18 88 19 85 20 87 21 86 22
REMARK SMILES IDX 16 23 17 24 18 25 19 26 20 27 21 28 82 29 22 30 81 31 23 32
REMARK SMILES IDX 24 33 25 34 75 35 26 36 80 37 74 38 76 39 27 40 79 41 73 42
REMARK SMILES IDX 72 43 28 45 60 46 40 47 59 48 41 49 44 50 58 51 77 52 42 53
REMARK SMILES IDX 43 54 57 56 78 57 45 58 29 59 30 60 38 61 31 62 32 63 36 64
REMARK SMILES IDX 39 65 33 66 34 67 37 68 35 69 61 70 62 71 70 72 63 73 64 74
REMARK SMILES IDX 68 75 71 76 65 77 66 78 69 79 67 80 46 81 47 82 55 83 48 84
REMARK SMILES IDX 49 85 53 86 56 87 50 88 51 89 54 90 52 91
REMARK H PARENT 76 44 44 55
REMARK Flexibility Score: inf
ROOT
ATOM      1  C   UNL A   1      36.396  22.590  23.921  1.00  0.00     0.274 C 
ENDROOT
BRANCH   1   2
ATOM      2  O   UNL A   1      35.093  22.670  24.547  1.00  0.00    -0.461 OA
BRANCH   2   3
ATOM      3  C   UNL A   1      34.051  22.115  23.859  1.00  0.00     0.316 C 
ATOM      4  O   UNL A   1      33.700  22.504  22.754  1.00  0.00    -0.251 OA
BRANCH   3   5
ATOM      5  C   UNL A   1      33.268  21.082  24.705  1.00  0.00     0.099 C 
ATOM      6  C   UNL A   1      33.798  21.076  26.157  1.00  0.00     0.029 C 
BRANCH   5   7
ATOM      7  C   UNL A   1      31.809  21.637  24.696  1.00  0.00     0.123 C 
BRANCH   7   8
ATOM      8  C   UNL A   1      31.606  22.896  25.479  1.00  0.00     0.228 A 
ATOM      9  C   UNL A   1      31.671  24.807  26.333  1.00  0.00     0.200 A 
ATOM     10  N   UNL A   1      31.016  24.081  27.251  1.00  0.00    -0.060 NA
ATOM     11  N   UNL A   1      32.006  24.114  25.190  1.00  0.00    -0.193 NA
ATOM     12  O   UNL A   1      30.958  22.813  26.675  1.00  0.00    -0.339 OA
BRANCH   9  13
ATOM     13  C   UNL A   1      31.976  26.267  26.500  1.00  0.00     0.186 C 
ATOM     14  C   UNL A   1      33.271  26.652  25.787  1.00  0.00     0.047 C 
BRANCH  13  15
ATOM     15  O   UNL A   1      30.909  27.097  26.005  1.00  0.00    -0.374 OA
ATOM     16  C   UNL A   1      31.149  27.578  24.691  1.00  0.00     0.195 C 
ENDBRANCH  13  15
ENDBRANCH   9  13
ENDBRANCH   7   8
ENDBRANCH   5   7
BRANCH   5  17
ATOM     17  C   UNL A   1      33.415  19.626  24.195  1.00  0.00    -0.030 A 
ATOM     18  C   UNL A   1      34.474  18.811  24.626  1.00  0.00     0.005 A 
ATOM     19  C   UNL A   1      32.480  19.037  23.325  1.00  0.00     0.005 A 
ATOM     20  C   UNL A   1      34.664  17.525  24.105  1.00  0.00     0.000 A 
ATOM     21  C   UNL A   1      32.677  17.761  22.788  1.00  0.00     0.000 A 
ATOM     22  C   UNL A   1      33.783  17.012  23.160  1.00  0.00     0.000 A 
ENDBRANCH   5  17
ENDBRANCH   3   5
ENDBRANCH   2   3
ENDBRANCH   1   2
BRANCH   1  23
ATOM     23  C   UNL A   1      37.195  21.383  24.412  1.00  0.00     0.275 C 
BRANCH  23  24
ATOM     24  O   UNL A   1      37.584  21.600  25.776  1.00  0.00    -0.458 OA
BRANCH  24  25
ATOM     25  C   UNL A   1      38.892  21.429  26.070  1.00  0.00     0.338 C 
ATOM     26  O   UNL A   1      39.568  20.436  25.865  1.00  0.00    -0.246 OA
BRANCH  25  27
ATOM     27  C   UNL A   1      39.436  22.680  26.646  1.00  0.00     0.060 A 
ATOM     28  C   UNL A   1      38.986  23.908  26.173  1.00  0.00     0.016 A 
ATOM     29  C   UNL A   1      40.487  22.647  27.562  1.00  0.00     0.016 A 
ATOM     30  C   UNL A   1      39.647  25.083  26.504  1.00  0.00     0.010 A 
ATOM     31  C   UNL A   1      41.088  23.846  27.978  1.00  0.00     0.010 A 
ATOM     32  C   UNL A   1      40.708  25.077  27.412  1.00  0.00    -0.014 A 
BRANCH  32  33
ATOM     33  C   UNL A   1      41.462  26.340  27.659  1.00  0.00     0.031 A 
ATOM     34  C   UNL A   1      40.876  27.398  28.559  1.00  0.00     0.074 A 
ATOM     35  C   UNL A   1      42.721  26.503  27.201  1.00  0.00     0.049 A 
ATOM     36  N   UNL A   1      41.289  28.622  28.781  1.00  0.00    -0.248 NA
ATOM     37  C   UNL A   1      39.671  27.030  29.321  1.00  0.00     0.031 C 
ATOM     38  C   UNL A   1      43.480  25.516  26.432  1.00  0.00     0.029 A 
ATOM     39  N   UNL A   1      43.609  27.540  27.365  1.00  0.00    -0.354 N 
ATOM     40  C   UNL A   1      40.363  29.185  29.649  1.00  0.00     0.074 A 
ATOM     41  C   UNL A   1      39.374  28.169  29.931  1.00  0.00     0.031 C 
ATOM     42  C   UNL A   1      44.740  25.951  26.274  1.00  0.00     0.029 A 
ATOM     43  C   UNL A   1      44.843  27.302  26.811  1.00  0.00     0.049 A 
ATOM     44  H   UNL A   1      43.381  28.374  27.836  1.00  0.00     0.167 HD
ATOM     45  C   UNL A   1      40.339  30.440  30.157  1.00  0.00     0.037 A 
ATOM     46  C   UNL A   1      45.924  28.099  26.697  1.00  0.00     0.037 A 
ATOM     47  C   UNL A   1      41.354  31.432  29.921  1.00  0.00     0.049 A 
ATOM     48  C   UNL A   1      45.835  29.517  27.189  1.00  0.00     0.074 A 
ATOM     49  C   UNL A   1      41.380  32.759  30.314  1.00  0.00     0.029 A 
ATOM     50  N   UNL A   1      42.545  31.190  29.252  1.00  0.00    -0.354 N 
ATOM     51  N   UNL A   1      44.876  30.102  27.863  1.00  0.00    -0.248 NA
ATOM     52  C   UNL A   1      46.962  30.401  26.858  1.00  0.00     0.031 C 
ATOM     53  C   UNL A   1      42.579  33.326  29.867  1.00  0.00     0.029 A 
ATOM     54  C   UNL A   1      43.312  32.343  29.223  1.00  0.00     0.049 A 
ATOM     55  H   UNL A   1      42.807  30.327  28.857  1.00  0.00     0.167 HD
ATOM     56  C   UNL A   1      45.280  31.419  28.032  1.00  0.00     0.074 A 
ATOM     57  C   UNL A   1      46.587  31.539  27.423  1.00  0.00     0.031 C 
ATOM     58  C   UNL A   1      44.615  32.443  28.621  1.00  0.00     0.037 A 
BRANCH  45  59
ATOM     59  C   UNL A   1      39.146  30.832  30.975  1.00  0.00     0.064 A 
ATOM     60  C   UNL A   1      39.111  30.664  32.365  1.00  0.00     0.173 A 
ATOM     61  C   UNL A   1      38.032  31.418  30.352  1.00  0.00     0.173 A 
ATOM     62  F   UNL A   1      40.141  30.088  33.003  1.00  0.00    -0.203 F 
ATOM     63  C   UNL A   1      37.996  31.057  33.103  1.00  0.00     0.198 A 
ATOM     64  C   UNL A   1      36.931  31.831  31.094  1.00  0.00     0.198 A 
ATOM     65  F   UNL A   1      38.020  31.601  29.023  1.00  0.00    -0.203 F 
ATOM     66  F   UNL A   1      37.966  30.856  34.427  1.00  0.00    -0.200 F 
ATOM     67  C   UNL A   1      36.911  31.646  32.469  1.00  0.00     0.200 A 
ATOM     68  F   UNL A   1      35.888  32.406  30.481  1.00  0.00    -0.200 F 
ATOM     69  F   UNL A   1      35.843  32.031  33.182  1.00  0.00    -0.200 F 
ENDBRANCH  45  59
BRANCH  46  70
ATOM     70  C   UNL A   1      47.155  27.610  26.019  1.00  0.00     0.064 A 
ATOM     71  C   UNL A   1      48.225  27.082  26.755  1.00  0.00     0.173 A 
ATOM     72  C   UNL A   1      47.301  27.689  24.625  1.00  0.00     0.173 A 
ATOM     73  F   UNL A   1      48.152  27.021  28.093  1.00  0.00    -0.203 F 
ATOM     74  C   UNL A   1      49.395  26.664  26.124  1.00  0.00     0.198 A 
ATOM     75  C   UNL A   1      48.457  27.237  23.993  1.00  0.00     0.198 A 
ATOM     76  F   UNL A   1      46.317  28.204  23.874  1.00  0.00    -0.203 F 
ATOM     77  F   UNL A   1      50.425  26.217  26.856  1.00  0.00    -0.200 F 
ATOM     78  C   UNL A   1      49.506  26.733  24.744  1.00  0.00     0.200 A 
ATOM     79  F   UNL A   1      48.555  27.299  22.658  1.00  0.00    -0.200 F 
ATOM     80  F   UNL A   1      50.633  26.330  24.138  1.00  0.00    -0.200 F 
ENDBRANCH  46  70
BRANCH  58  81
ATOM     81  C   UNL A   1      45.303  33.773  28.649  1.00  0.00     0.064 A 
ATOM     82  C   UNL A   1      46.170  34.123  29.694  1.00  0.00     0.173 A 
ATOM     83  C   UNL A   1      45.112  34.697  27.611  1.00  0.00     0.173 A 
ATOM     84  F   UNL A   1      46.370  33.279  30.717  1.00  0.00    -0.203 F 
ATOM     85  C   UNL A   1      46.806  35.362  29.710  1.00  0.00     0.198 A 
ATOM     86  C   UNL A   1      45.767  35.924  27.619  1.00  0.00     0.198 A 
ATOM     87  F   UNL A   1      44.295  34.405  26.589  1.00  0.00    -0.203 F 
ATOM     88  F   UNL A   1      47.596  35.694  30.740  1.00  0.00    -0.200 F 
ATOM     89  C   UNL A   1      46.608  36.258  28.671  1.00  0.00     0.200 A 
ATOM     90  F   UNL A   1      45.582  36.787  26.611  1.00  0.00    -0.200 F 
ATOM     91  F   UNL A   1      47.220  37.450  28.687  1.00  0.00    -0.200 F 
ENDBRANCH  58  81
ENDBRANCH  32  33
ENDBRANCH  25  27
ENDBRANCH  24  25
ENDBRANCH  23  24
ENDBRANCH   1  23
TORSDOF 16
ENDMDL
MODEL 2
REMARK VINA RESULT:     -11.9      1.265      3.630
REMARK SMILES CO[C@H](C)c1noc(C[C@](C)(C(=O)OCCOC(=O)c2ccc(-c3c4nc(c(-c5c(F)c(F)c(F)c(F)c5F)c5ccc([nH]5)c(-c5c(F)c(F)c(F)c(F)c5F)c5nc(c(-c6c(F)c(F)c(F)c(F)c6F)c6ccc3[nH]6)C=C5)C=C4)cc2)c2ccccc2)n1
REMARK SMILES IDX 15 1 14 2 12 3 13 4 10 5 11 6 9 7 8 8 5 9 6 10 89 11 7 12
REMARK SMILES IDX 3 13 4 14 2 15 1 16 83 17 84 18 88 19 85 20 87 21 86 22
REMARK SMILES IDX 16 23 17 24 18 25 19 26 20 27 21 28 82 29 22 30 81 31 23 32
REMARK SMILES IDX 24 33 25 34 75 35 26 36 80 37 74 38 76 39 27 40 79 41 73 42
REMARK SMILES IDX 72 43 28 45 60 46 40 47 59 48 41 49 44 50 58 51 77 52 42 53
REMARK SMILES IDX 43 54 57 56 78 57 45 58 29 59 30 60 38 61 31 62 32 63 36 64
REMARK SMILES IDX 39 65 33 66 34 67 37 68 35 69 61 70 62 71 70 72 63 73 64 74
REMARK SMILES IDX 68 75 71 76 65 77 66 78 69 79 67 80 46 81 47 82 55 83 48 84
REMARK SMILES IDX 49 85 53 86 56 87 50 88 51 89 54 90 52 91
REMARK H PARENT 76 44 44 55
REMARK Flexibility Score: inf
ROOT
ATOM      1  C   UNL A   1      36.648  22.691  23.745  1.00  0.00     0.274 C 
ENDROOT
BRANCH   1   2
ATOM      2  O   UNL A   1      35.354  23.035  24.296  1.00  0.00    -0.461 OA
BRANCH   2   3
ATOM      3  C   UNL A   1      34.308  23.079  23.417  1.00  0.00     0.316 C 
ATOM      4  O   UNL A   1      34.410  23.524  22.283  1.00  0.00    -0.251 OA
BRANCH   3   5
ATOM      5  C   UNL A   1      32.967  22.679  24.076  1.00  0.00     0.099 C 
ATOM      6  C   UNL A   1      32.156  21.773  23.121  1.00  0.00     0.029 C 
BRANCH   5   7
ATOM      7  C   UNL A   1      33.407  21.845  25.319  1.00  0.00     0.123 C 
BRANCH   7   8
ATOM      8  C   UNL A   1      33.272  20.362  25.168  1.00  0.00     0.228 A 
ATOM      9  C   UNL A   1      33.382  18.344  24.620  1.00  0.00     0.200 A 
ATOM     10  N   UNL A   1      32.210  18.426  25.268  1.00  0.00    -0.060 NA
ATOM     11  N   UNL A   1      34.098  19.521  24.586  1.00  0.00    -0.193 NA
ATOM     12  O   UNL A   1      32.146  19.765  25.647  1.00  0.00    -0.339 OA
BRANCH   9  13
ATOM     13  C   UNL A   1      33.906  17.072  24.020  1.00  0.00     0.186 C 
ATOM     14  C   UNL A   1      33.304  15.845  24.703  1.00  0.00     0.047 C 
BRANCH  13  15
ATOM     15  O   UNL A   1      33.637  16.996  22.607  1.00  0.00    -0.374 OA
ATOM     16  C   UNL A   1      32.550  17.818  22.208  1.00  0.00     0.195 C 
ENDBRANCH  13  15
ENDBRANCH   9  13
ENDBRANCH   7   8
ENDBRANCH   5   7
BRANCH   5  17
ATOM     17  C   UNL A   1      32.050  23.888  24.393  1.00  0.00    -0.030 A 
ATOM     18  C   UNL A   1      30.985  24.231  23.545  1.00  0.00     0.005 A 
ATOM     19  C   UNL A   1      32.203  24.662  25.558  1.00  0.00     0.005 A 
ATOM     20  C   UNL A   1      30.205  25.371  23.778  1.00  0.00     0.000 A 
ATOM     21  C   UNL A   1      31.440  25.811  25.783  1.00  0.00     0.000 A 
ATOM     22  C   UNL A   1      30.454  26.181  24.879  1.00  0.00     0.000 A 
ENDBRANCH   5  17
ENDBRANCH   3   5
ENDBRANCH   2   3
ENDBRANCH   1   2
BRANCH   1  23
ATOM     23  C   UNL A   1      37.220  21.421  24.373  1.00  0.00     0.275 C 
BRANCH  23  24
ATOM     24  O   UNL A   1      37.576  21.691  25.737  1.00  0.00    -0.458 OA
BRANCH  24  25
ATOM     25  C   UNL A   1      38.866  21.477  26.082  1.00  0.00     0.338 C 
ATOM     26  O   UNL A   1      39.517  20.465  25.899  1.00  0.00    -0.246 OA
BRANCH  25  27
ATOM     27  C   UNL A   1      39.424  22.708  26.687  1.00  0.00     0.060 A 
ATOM     28  C   UNL A   1      38.904  23.947  26.330  1.00  0.00     0.016 A 
ATOM     29  C   UNL A   1      40.551  22.653  27.507  1.00  0.00     0.016 A 
ATOM     30  C   UNL A   1      39.560  25.120  26.677  1.00  0.00     0.010 A 
ATOM     31  C   UNL A   1      41.154  23.844  27.945  1.00  0.00     0.010 A 
ATOM     32  C   UNL A   1      40.695  25.093  27.489  1.00  0.00    -0.014 A 
BRANCH  32  33
ATOM     33  C   UNL A   1      41.435  26.363  27.751  1.00  0.00     0.031 A 
ATOM     34  C   UNL A   1      40.837  27.405  28.660  1.00  0.00     0.074 A 
ATOM     35  C   UNL A   1      42.693  26.543  27.296  1.00  0.00     0.049 A 
ATOM     36  N   UNL A   1      41.236  28.631  28.894  1.00  0.00    -0.248 NA
ATOM     37  C   UNL A   1      39.635  27.016  29.416  1.00  0.00     0.031 C 
ATOM     38  C   UNL A   1      43.463  25.573  26.517  1.00  0.00     0.029 A 
ATOM     39  N   UNL A   1      43.569  27.589  27.471  1.00  0.00    -0.354 N 
ATOM     40  C   UNL A   1      40.303  29.175  29.767  1.00  0.00     0.074 A 
ATOM     41  C   UNL A   1      39.325  28.146  30.038  1.00  0.00     0.031 C 
ATOM     42  C   UNL A   1      44.718  26.023  26.366  1.00  0.00     0.029 A 
ATOM     43  C   UNL A   1      44.806  27.370  26.916  1.00  0.00     0.049 A 
ATOM     44  H   UNL A   1      43.332  28.416  27.949  1.00  0.00     0.167 HD
ATOM     45  C   UNL A   1      40.264  30.424  30.287  1.00  0.00     0.037 A 
ATOM     46  C   UNL A   1      45.879  28.179  26.811  1.00  0.00     0.037 A 
ATOM     47  C   UNL A   1      41.269  31.430  30.062  1.00  0.00     0.049 A 
ATOM     48  C   UNL A   1      45.773  29.592  27.317  1.00  0.00     0.074 A 
ATOM     49  C   UNL A   1      41.279  32.753  30.468  1.00  0.00     0.029 A 
ATOM     50  N   UNL A   1      42.463  31.208  29.393  1.00  0.00    -0.354 N 
ATOM     51  N   UNL A   1      44.807  30.160  27.995  1.00  0.00    -0.248 NA
ATOM     52  C   UNL A   1      46.890  30.491  26.996  1.00  0.00     0.031 C 
ATOM     53  C   UNL A   1      42.472  33.338  30.029  1.00  0.00     0.029 A 
ATOM     54  C   UNL A   1      43.217  32.369  29.375  1.00  0.00     0.049 A 
ATOM     55  H   UNL A   1      42.734  30.352  28.989  1.00  0.00     0.167 HD
ATOM     56  C   UNL A   1      45.196  31.479  28.178  1.00  0.00     0.074 A 
ATOM     57  C   UNL A   1      46.502  31.619  27.571  1.00  0.00     0.031 C 
ATOM     58  C   UNL A   1      44.520  32.490  28.776  1.00  0.00     0.037 A 
BRANCH  45  59
ATOM     59  C   UNL A   1      39.066  30.796  31.107  1.00  0.00     0.064 A 
ATOM     60  C   UNL A   1      39.031  30.613  32.496  1.00  0.00     0.173 A 
ATOM     61  C   UNL A   1      37.947  31.376  30.489  1.00  0.00     0.173 A 
ATOM     62  F   UNL A   1      40.067  30.042  33.129  1.00  0.00    -0.203 F 
ATOM     63  C   UNL A   1      37.911  30.986  33.236  1.00  0.00     0.198 A 
ATOM     64  C   UNL A   1      36.840  31.769  31.234  1.00  0.00     0.198 A 
ATOM     65  F   UNL A   1      37.934  31.572  29.162  1.00  0.00    -0.203 F 
ATOM     66  F   UNL A   1      37.881  30.772  34.558  1.00  0.00    -0.200 F 
ATOM     67  C   UNL A   1      36.821  31.570  32.607  1.00  0.00     0.200 A 
ATOM     68  F   UNL A   1      35.791  32.339  30.625  1.00  0.00    -0.200 F 
ATOM     69  F   UNL A   1      35.748  31.936  33.322  1.00  0.00    -0.200 F 
ENDBRANCH  45  59
BRANCH  46  70
ATOM     70  C   UNL A   1      47.116  27.710  26.130  1.00  0.00     0.064 A 
ATOM     71  C   UNL A   1      47.224  27.736  24.733  1.00  0.00     0.173 A 
ATOM     72  C   UNL A   1      48.200  27.197  26.857  1.00  0.00     0.173 A 
ATOM     73  F   UNL A   1      46.201  28.180  23.989  1.00  0.00    -0.203 F 
ATOM     74  C   UNL A   1      48.365  27.257  24.091  1.00  0.00     0.198 A 
ATOM     75  C   UNL A   1      49.354  26.752  26.217  1.00  0.00     0.198 A 
ATOM     76  F   UNL A   1      48.142  27.130  28.195  1.00  0.00    -0.203 F 
ATOM     77  F   UNL A   1      48.421  27.239  22.752  1.00  0.00    -0.200 F 
ATOM     78  C   UNL A   1      49.432  26.774  24.834  1.00  0.00     0.200 A 
ATOM     79  F   UNL A   1      50.385  26.294  26.940  1.00  0.00    -0.200 F 
ATOM     80  F   UNL A   1      50.529  26.313  24.215  1.00  0.00    -0.200 F 
ENDBRANCH  46  70
BRANCH  58  81
ATOM     81  C   UNL A   1      45.193  33.827  28.818  1.00  0.00     0.064 A 
ATOM     82  C   UNL A   1      44.977  34.783  27.815  1.00  0.00     0.173 A 
ATOM     83  C   UNL A   1      46.041  34.165  29.882  1.00  0.00     0.173 A 
ATOM     84  F   UNL A   1      44.187  34.499  26.769  1.00  0.00    -0.203 F 
ATOM     85  C   UNL A   1      45.607  36.024  27.865  1.00  0.00     0.198 A 
ATOM     86  C   UNL A   1      46.651  35.415  29.940  1.00  0.00     0.198 A 
ATOM     87  F   UNL A   1      46.275  33.285  30.866  1.00  0.00    -0.203 F 
ATOM     88  F   UNL A   1      45.421  36.907  26.874  1.00  0.00    -0.200 F 
ATOM     89  C   UNL A   1      46.438  36.340  28.929  1.00  0.00     0.200 A 
ATOM     90  F   UNL A   1      47.448  35.723  30.972  1.00  0.00    -0.200 F 
ATOM     91  F   UNL A   1      47.043  37.535  28.976  1.00  0.00    -0.200 F 
ENDBRANCH  58  81
ENDBRANCH  32  33
ENDBRANCH  25  27
ENDBRANCH  24  25
ENDBRANCH  23  24
ENDBRANCH   1  23
TORSDOF 16
ENDMDL
MODEL 3
REMARK VINA RESULT:     -11.9      4.358     10.124
REMARK SMILES CO[C@H](C)c1noc(C[C@](C)(C(=O)OCCOC(=O)c2ccc(-c3c4nc(c(-c5c(F)c(F)c(F)c(F)c5F)c5ccc([nH]5)c(-c5c(F)c(F)c(F)c(F)c5F)c5nc(c(-c6c(F)c(F)c(F)c(F)c6F)c6ccc3[nH]6)C=C5)C=C4)cc2)c2ccccc2)n1
REMARK SMILES IDX 15 1 14 2 12 3 13 4 10 5 11 6 9 7 8 8 5 9 6 10 89 11 7 12
REMARK SMILES IDX 3 13 4 14 2 15 1 16 83 17 84 18 88 19 85 20 87 21 86 22
REMARK SMILES IDX 16 23 17 24 18 25 19 26 20 27 21 28 82 29 22 30 81 31 23 32
REMARK SMILES IDX 24 33 25 34 75 35 26 36 80 37 74 38 76 39 27 40 79 41 73 42
REMARK SMILES IDX 72 43 28 45 60 46 40 47 59 48 41 49 44 50 58 51 77 52 42 53
REMARK SMILES IDX 43 54 57 56 78 57 45 58 29 59 30 60 38 61 31 62 32 63 36 64
REMARK SMILES IDX 39 65 33 66 34 67 37 68 35 69 61 70 62 71 70 72 63 73 64 74
REMARK SMILES IDX 68 75 71 76 65 77 66 78 69 79 67 80 46 81 47 82 55 83 48 84
REMARK SMILES IDX 49 85 53 86 56 87 50 88 51 89 54 90 52 91
REMARK H PARENT 76 44 44 55
REMARK Flexibility Score: inf
ROOT
ATOM      1  C   UNL A   1      31.773  28.504  27.238  1.00  0.00     0.274 C 
ENDROOT
BRANCH   1   2
ATOM      2  O   UNL A   1      32.093  27.462  26.286  1.00  0.00    -0.461 OA
BRANCH   2   3
ATOM      3  C   UNL A   1      31.036  26.817  25.708  1.00  0.00     0.316 C 
ATOM      4  O   UNL A   1      30.284  26.081  26.331  1.00  0.00    -0.251 OA
BRANCH   3   5
ATOM      5  C   UNL A   1      31.015  26.979  24.169  1.00  0.00     0.099 C 
ATOM      6  C   UNL A   1      32.351  27.586  23.683  1.00  0.00     0.029 C 
BRANCH   5   7
ATOM      7  C   UNL A   1      30.903  25.510  23.652  1.00  0.00     0.123 C 
BRANCH   7   8
ATOM      8  C   UNL A   1      32.208  24.799  23.478  1.00  0.00     0.228 A 
ATOM      9  C   UNL A   1      34.071  23.864  23.682  1.00  0.00     0.200 A 
ATOM     10  N   UNL A   1      34.029  24.191  22.382  1.00  0.00    -0.060 NA
ATOM     11  N   UNL A   1      32.929  24.178  24.386  1.00  0.00    -0.193 NA
ATOM     12  O   UNL A   1      32.782  24.797  22.243  1.00  0.00    -0.339 OA
BRANCH   9  13
ATOM     13  C   UNL A   1      35.237  23.168  24.321  1.00  0.00     0.186 C 
ATOM     14  C   UNL A   1      36.371  22.949  23.321  1.00  0.00     0.047 C 
BRANCH  13  15
ATOM     15  O   UNL A   1      35.748  23.905  25.448  1.00  0.00    -0.374 OA
ATOM     16  C   UNL A   1      37.139  23.704  25.653  1.00  0.00     0.195 C 
ENDBRANCH  13  15
ENDBRANCH   9  13
ENDBRANCH   7   8
ENDBRANCH   5   7
BRANCH   5  17
ATOM     17  C   UNL A   1      29.906  27.935  23.663  1.00  0.00    -0.030 A 
ATOM     18  C   UNL A   1      30.202  29.257  23.294  1.00  0.00     0.005 A 
ATOM     19  C   UNL A   1      28.572  27.519  23.499  1.00  0.00     0.005 A 
ATOM     20  C   UNL A   1      29.194  30.153  22.918  1.00  0.00     0.000 A 
ATOM     21  C   UNL A   1      27.560  28.415  23.143  1.00  0.00     0.000 A 
ATOM     22  C   UNL A   1      27.867  29.742  22.875  1.00  0.00     0.000 A 
ENDBRANCH   5  17
ENDBRANCH   3   5
ENDBRANCH   2   3
ENDBRANCH   1   2
BRANCH   1  23
ATOM     23  C   UNL A   1      31.709  29.882  26.582  1.00  0.00     0.275 C 
BRANCH  23  24
ATOM     24  O   UNL A   1      33.044  30.344  26.327  1.00  0.00    -0.458 OA
BRANCH  24  25
ATOM     25  C   UNL A   1      33.494  31.358  27.100  1.00  0.00     0.338 C 
ATOM     26  O   UNL A   1      32.907  32.389  27.373  1.00  0.00    -0.246 OA
BRANCH  25  27
ATOM     27  C   UNL A   1      34.827  31.010  27.640  1.00  0.00     0.060 A 
ATOM     28  C   UNL A   1      35.134  29.682  27.916  1.00  0.00     0.016 A 
ATOM     29  C   UNL A   1      35.734  32.007  28.001  1.00  0.00     0.016 A 
ATOM     30  C   UNL A   1      36.264  29.351  28.651  1.00  0.00     0.010 A 
ATOM     31  C   UNL A   1      36.929  31.661  28.652  1.00  0.00     0.010 A 
ATOM     32  C   UNL A   1      37.184  30.330  29.032  1.00  0.00    -0.014 A 
BRANCH  32  33
ATOM     33  C   UNL A   1      38.328  29.953  29.912  1.00  0.00     0.031 A 
ATOM     34  C   UNL A   1      39.477  29.157  29.348  1.00  0.00     0.074 A 
ATOM     35  C   UNL A   1      38.422  30.422  31.174  1.00  0.00     0.049 A 
ATOM     36  N   UNL A   1      40.484  28.596  29.970  1.00  0.00    -0.248 NA
ATOM     37  C   UNL A   1      39.505  28.976  27.887  1.00  0.00     0.031 C 
ATOM     38  C   UNL A   1      37.461  31.314  31.823  1.00  0.00     0.029 A 
ATOM     39  N   UNL A   1      39.405  30.258  32.122  1.00  0.00    -0.354 N 
ATOM     40  C   UNL A   1      41.222  27.946  28.990  1.00  0.00     0.074 A 
ATOM     41  C   UNL A   1      40.562  28.192  27.728  1.00  0.00     0.031 C 
ATOM     42  C   UNL A   1      37.945  31.693  33.017  1.00  0.00     0.029 A 
ATOM     43  C   UNL A   1      39.182  30.967  33.277  1.00  0.00     0.049 A 
ATOM     44  H   UNL A   1      40.194  29.685  31.985  1.00  0.00     0.167 HD
ATOM     45  C   UNL A   1      42.345  27.203  29.135  1.00  0.00     0.037 A 
ATOM     46  C   UNL A   1      39.865  30.994  34.438  1.00  0.00     0.037 A 
ATOM     47  C   UNL A   1      43.034  27.006  30.384  1.00  0.00     0.049 A 
ATOM     48  C   UNL A   1      41.055  30.089  34.600  1.00  0.00     0.074 A 
ATOM     49  C   UNL A   1      44.126  26.201  30.655  1.00  0.00     0.029 A 
ATOM     50  N   UNL A   1      42.710  27.653  31.567  1.00  0.00    -0.354 N 
ATOM     51  N   UNL A   1      41.650  29.334  33.711  1.00  0.00    -0.248 NA
ATOM     52  C   UNL A   1      41.637  30.003  35.947  1.00  0.00     0.031 C 
ATOM     53  C   UNL A   1      44.453  26.346  32.008  1.00  0.00     0.029 A 
ATOM     54  C   UNL A   1      43.582  27.265  32.571  1.00  0.00     0.049 A 
ATOM     55  H   UNL A   1      41.970  28.293  31.678  1.00  0.00     0.167 HD
ATOM     56  C   UNL A   1      42.671  28.682  34.388  1.00  0.00     0.074 A 
ATOM     57  C   UNL A   1      42.638  29.157  35.755  1.00  0.00     0.031 C 
ATOM     58  C   UNL A   1      43.543  27.755  33.923  1.00  0.00     0.037 A 
BRANCH  45  59
ATOM     59  C   UNL A   1      42.871  26.500  27.921  1.00  0.00     0.064 A 
ATOM     60  C   UNL A   1      43.823  27.085  27.077  1.00  0.00     0.173 A 
ATOM     61  C   UNL A   1      42.433  25.200  27.620  1.00  0.00     0.173 A 
ATOM     62  F   UNL A   1      44.256  28.333  27.310  1.00  0.00    -0.203 F 
ATOM     63  C   UNL A   1      44.310  26.399  25.966  1.00  0.00     0.198 A 
ATOM     64  C   UNL A   1      42.937  24.509  26.524  1.00  0.00     0.198 A 
ATOM     65  F   UNL A   1      41.522  24.597  28.400  1.00  0.00    -0.203 F 
ATOM     66  F   UNL A   1      45.195  26.988  25.151  1.00  0.00    -0.200 F 
ATOM     67  C   UNL A   1      43.873  25.110  25.695  1.00  0.00     0.200 A 
ATOM     68  F   UNL A   1      42.519  23.261  26.269  1.00  0.00    -0.200 F 
ATOM     69  F   UNL A   1      44.348  24.448  24.630  1.00  0.00    -0.200 F 
ENDBRANCH  45  59
BRANCH  46  70
ATOM     70  C   UNL A   1      39.397  31.840  35.570  1.00  0.00     0.064 A 
ATOM     71  C   UNL A   1      39.876  33.146  35.741  1.00  0.00     0.173 A 
ATOM     72  C   UNL A   1      38.489  31.349  36.521  1.00  0.00     0.173 A 
ATOM     73  F   UNL A   1      40.775  33.648  34.883  1.00  0.00    -0.203 F 
ATOM     74  C   UNL A   1      39.472  33.924  36.825  1.00  0.00     0.198 A 
ATOM     75  C   UNL A   1      38.059  32.140  37.584  1.00  0.00     0.198 A 
ATOM     76  F   UNL A   1      38.015  30.100  36.417  1.00  0.00    -0.203 F 
ATOM     77  F   UNL A   1      39.988  35.148  36.998  1.00  0.00    -0.200 F 
ATOM     78  C   UNL A   1      38.557  33.423  37.740  1.00  0.00     0.200 A 
ATOM     79  F   UNL A   1      37.168  31.654  38.459  1.00  0.00    -0.200 F 
ATOM     80  F   UNL A   1      38.169  34.172  38.782  1.00  0.00    -0.200 F 
ENDBRANCH  46  70
BRANCH  58  81
ATOM     81  C   UNL A   1      44.542  27.212  34.897  1.00  0.00     0.064 A 
ATOM     82  C   UNL A   1      45.772  27.851  35.111  1.00  0.00     0.173 A 
ATOM     83  C   UNL A   1      44.259  26.057  35.640  1.00  0.00     0.173 A 
ATOM     84  F   UNL A   1      46.094  28.949  34.411  1.00  0.00    -0.203 F 
ATOM     85  C   UNL A   1      46.694  27.339  36.021  1.00  0.00     0.198 A 
ATOM     86  C   UNL A   1      45.173  25.561  36.565  1.00  0.00     0.198 A 
ATOM     87  F   UNL A   1      43.095  25.414  35.472  1.00  0.00    -0.203 F 
ATOM     88  F   UNL A   1      47.881  27.940  36.178  1.00  0.00    -0.200 F 
ATOM     89  C   UNL A   1      46.392  26.198  36.749  1.00  0.00     0.200 A 
ATOM     90  F   UNL A   1      44.878  24.464  37.274  1.00  0.00    -0.200 F 
ATOM     91  F   UNL A   1      47.280  25.707  37.624  1.00  0.00    -0.200 F 
ENDBRANCH  58  81
ENDBRANCH  32  33
ENDBRANCH  25  27
ENDBRANCH  24  25
ENDBRANCH  23  24
ENDBRANCH   1  23
TORSDOF 16
ENDMDL
