MODEL 1
REMARK VINA RESULT:     -12.2      0.000      0.000
REMARK SMILES Cc1cc(F)c(-c2ccc(F)c(C(=O)OCCOC(=O)c3ccc(-c4c5nc(c(-c6c(F)c(F)c(F)c(F)c6F)c6ccc([nH]6)c(-c6c(F)c(F)c(F)c(F)c6F)c6nc(c(-c7c(F)c(F)c(F)c(F)c7F)c7ccc4[nH]7)C=C6)C=C5)cc3)c2)cc1F
REMARK SMILES IDX 17 1 16 2 15 3 13 4 14 5 12 6 7 7 8 8 84 9 9 10 10 11 11 12
REMARK SMILES IDX 6 13 1 14 2 15 3 16 86 17 4 18 85 19 87 20 5 21 18 22 19 23
REMARK SMILES IDX 20 24 21 25 22 26 83 27 23 28 82 29 24 30 25 31 26 32 76 33
REMARK SMILES IDX 27 34 81 35 75 36 77 37 28 38 80 39 74 40 73 41 29 43 61 44
REMARK SMILES IDX 41 45 60 46 42 47 45 48 59 49 78 50 43 51 44 52 58 54 79 55
REMARK SMILES IDX 46 56 30 57 31 58 39 59 32 60 33 61 37 62 40 63 34 64 35 65
REMARK SMILES IDX 38 66 36 67 62 68 63 69 71 70 64 71 65 72 69 73 72 74 66 75
REMARK SMILES IDX 67 76 70 77 68 78 47 79 48 80 56 81 49 82 50 83 54 84 57 85
REMARK SMILES IDX 51 86 52 87 55 88 53 89
REMARK H PARENT 77 42 45 53
REMARK Flexibility Score: inf
ROOT
ATOM      1  C   UNL A   1      31.872  30.082  26.411  1.00  0.00     0.275 C 
ENDROOT
BRANCH   1   2
ATOM      2  C   UNL A   1      31.760  28.731  27.120  1.00  0.00     0.275 C 
BRANCH   2   3
ATOM      3  O   UNL A   1      32.576  27.745  26.456  1.00  0.00    -0.458 OA
BRANCH   3   4
ATOM      4  C   UNL A   1      32.029  26.512  26.283  1.00  0.00     0.341 C 
ATOM      5  O   UNL A   1      30.992  26.110  26.770  1.00  0.00    -0.246 OA
BRANCH   4   6
ATOM      6  C   UNL A   1      32.850  25.745  25.314  1.00  0.00     0.096 A 
ATOM      7  C   UNL A   1      34.789  24.366  24.777  1.00  0.00    -0.014 A 
ATOM      8  C   UNL A   1      34.403  24.390  23.424  1.00  0.00     0.012 A 
ATOM      9  C   UNL A   1      34.020  25.084  25.711  1.00  0.00     0.027 A 
ATOM     10  C   UNL A   1      33.232  25.032  23.029  1.00  0.00     0.041 A 
ATOM     11  C   UNL A   1      32.444  25.667  23.981  1.00  0.00     0.137 A 
ATOM     12  F   UNL A   1      31.287  26.201  23.565  1.00  0.00    -0.206 F 
BRANCH   7  13
ATOM     13  C   UNL A   1      35.909  23.519  25.199  1.00  0.00     0.020 A 
ATOM     14  C   UNL A   1      39.384  21.054  25.957  1.00  0.00     0.047 C 
ATOM     15  C   UNL A   1      38.164  21.896  25.750  1.00  0.00    -0.012 A 
ATOM     16  C   UNL A   1      37.030  21.346  25.148  1.00  0.00     0.046 A 
ATOM     17  C   UNL A   1      38.147  23.251  26.096  1.00  0.00     0.126 A 
ATOM     18  C   UNL A   1      35.923  22.150  24.884  1.00  0.00     0.131 A 
ATOM     19  C   UNL A   1      37.039  24.056  25.831  1.00  0.00     0.051 A 
ATOM     20  F   UNL A   1      39.221  23.808  26.670  1.00  0.00    -0.207 F 
ATOM     21  F   UNL A   1      34.869  21.592  24.268  1.00  0.00    -0.206 F 
ENDBRANCH   7  13
ENDBRANCH   4   6
ENDBRANCH   3   4
ENDBRANCH   2   3
ENDBRANCH   1   2
BRANCH   1  22
ATOM     22  O   UNL A   1      33.252  30.481  26.328  1.00  0.00    -0.458 OA
BRANCH  22  23
ATOM     23  C   UNL A   1      33.635  31.457  27.182  1.00  0.00     0.338 C 
ATOM     24  O   UNL A   1      33.021  32.456  27.506  1.00  0.00    -0.246 OA
BRANCH  23  25
ATOM     25  C   UNL A   1      34.910  31.060  27.793  1.00  0.00     0.060 A 
ATOM     26  C   UNL A   1      35.932  31.974  28.029  1.00  0.00     0.016 A 
ATOM     27  C   UNL A   1      35.036  29.741  28.219  1.00  0.00     0.016 A 
ATOM     28  C   UNL A   1      37.093  31.542  28.685  1.00  0.00     0.010 A 
ATOM     29  C   UNL A   1      36.155  29.328  28.932  1.00  0.00     0.010 A 
ATOM     30  C   UNL A   1      37.208  30.220  29.164  1.00  0.00    -0.014 A 
BRANCH  30  31
ATOM     31  C   UNL A   1      38.396  29.765  29.936  1.00  0.00     0.031 A 
ATOM     32  C   UNL A   1      38.652  30.271  31.334  1.00  0.00     0.074 A 
ATOM     33  C   UNL A   1      39.296  28.954  29.345  1.00  0.00     0.049 A 
ATOM     34  N   UNL A   1      39.664  30.021  32.130  1.00  0.00    -0.248 NA
ATOM     35  C   UNL A   1      37.666  31.203  31.901  1.00  0.00     0.031 C 
ATOM     36  C   UNL A   1      39.218  28.470  27.967  1.00  0.00     0.029 A 
ATOM     37  N   UNL A   1      40.459  28.401  29.825  1.00  0.00    -0.354 N 
ATOM     38  C   UNL A   1      39.445  30.779  33.274  1.00  0.00     0.074 A 
ATOM     39  C   UNL A   1      38.229  31.531  33.056  1.00  0.00     0.031 C 
ATOM     40  C   UNL A   1      40.264  27.665  27.722  1.00  0.00     0.029 A 
ATOM     41  C   UNL A   1      41.105  27.601  28.913  1.00  0.00     0.049 A 
ATOM     42  H   UNL A   1      40.797  28.562  30.735  1.00  0.00     0.167 HD
ATOM     43  C   UNL A   1      40.178  30.825  34.413  1.00  0.00     0.037 A 
ATOM     44  C   UNL A   1      42.246  26.893  29.023  1.00  0.00     0.037 A 
ATOM     45  C   UNL A   1      41.362  30.040  34.651  1.00  0.00     0.049 A 
ATOM     46  C   UNL A   1      42.999  26.905  30.325  1.00  0.00     0.074 A 
ATOM     47  C   UNL A   1      42.125  29.960  35.803  1.00  0.00     0.029 A 
ATOM     48  N   UNL A   1      41.947  29.192  33.724  1.00  0.00    -0.354 N 
ATOM     49  N   UNL A   1      42.736  27.567  31.425  1.00  0.00    -0.248 NA
ATOM     50  C   UNL A   1      44.200  26.060  30.406  1.00  0.00     0.031 C 
ATOM     51  C   UNL A   1      43.191  29.088  35.564  1.00  0.00     0.029 A 
ATOM     52  C   UNL A   1      43.064  28.588  34.278  1.00  0.00     0.049 A 
ATOM     53  H   UNL A   1      41.618  29.040  32.808  1.00  0.00     0.167 HD
ATOM     54  C   UNL A   1      43.720  27.202  32.333  1.00  0.00     0.074 A 
ATOM     55  C   UNL A   1      44.575  26.246  31.664  1.00  0.00     0.031 C 
ATOM     56  C   UNL A   1      43.899  27.627  33.607  1.00  0.00     0.037 A 
BRANCH  43  57
ATOM     57  C   UNL A   1      39.715  31.726  35.521  1.00  0.00     0.064 A 
ATOM     58  C   UNL A   1      40.203  33.036  35.648  1.00  0.00     0.173 A 
ATOM     59  C   UNL A   1      38.692  31.320  36.393  1.00  0.00     0.173 A 
ATOM     60  F   UNL A   1      41.181  33.473  34.841  1.00  0.00    -0.203 F 
ATOM     61  C   UNL A   1      39.689  33.902  36.610  1.00  0.00     0.198 A 
ATOM     62  C   UNL A   1      38.163  32.196  37.337  1.00  0.00     0.198 A 
ATOM     63  F   UNL A   1      38.183  30.082  36.306  1.00  0.00    -0.203 F 
ATOM     64  F   UNL A   1      40.183  35.142  36.724  1.00  0.00    -0.200 F 
ATOM     65  C   UNL A   1      38.663  33.486  37.445  1.00  0.00     0.200 A 
ATOM     66  F   UNL A   1      37.158  31.801  38.129  1.00  0.00    -0.200 F 
ATOM     67  F   UNL A   1      38.149  34.331  38.350  1.00  0.00    -0.200 F 
ENDBRANCH  43  57
BRANCH  44  68
ATOM     68  C   UNL A   1      42.720  26.076  27.876  1.00  0.00     0.064 A 
ATOM     69  C   UNL A   1      42.257  24.766  27.688  1.00  0.00     0.173 A 
ATOM     70  C   UNL A   1      43.631  26.587  26.940  1.00  0.00     0.173 A 
ATOM     71  F   UNL A   1      41.399  24.227  28.568  1.00  0.00    -0.203 F 
ATOM     72  C   UNL A   1      42.702  23.991  26.620  1.00  0.00     0.198 A 
ATOM     73  C   UNL A   1      44.052  25.821  25.856  1.00  0.00     0.198 A 
ATOM     74  F   UNL A   1      44.097  27.837  27.071  1.00  0.00    -0.203 F 
ATOM     75  F   UNL A   1      42.277  22.727  26.489  1.00  0.00    -0.200 F 
ATOM     76  C   UNL A   1      43.594  24.521  25.700  1.00  0.00     0.200 A 
ATOM     77  F   UNL A   1      44.903  26.342  24.960  1.00  0.00    -0.200 F 
ATOM     78  F   UNL A   1      44.016  23.778  24.669  1.00  0.00    -0.200 F 
ENDBRANCH  44  68
BRANCH  56  79
ATOM     79  C   UNL A   1      45.043  27.040  34.378  1.00  0.00     0.064 A 
ATOM     80  C   UNL A   1      46.304  27.653  34.405  1.00  0.00     0.173 A 
ATOM     81  C   UNL A   1      44.860  25.878  35.144  1.00  0.00     0.173 A 
ATOM     82  F   UNL A   1      46.532  28.758  33.681  1.00  0.00    -0.203 F 
ATOM     83  C   UNL A   1      47.346  27.112  35.152  1.00  0.00     0.198 A 
ATOM     84  C   UNL A   1      45.896  25.356  35.912  1.00  0.00     0.198 A 
ATOM     85  F   UNL A   1      43.670  25.259  35.160  1.00  0.00    -0.203 F 
ATOM     86  F   UNL A   1      48.555  27.691  35.130  1.00  0.00    -0.200 F 
ATOM     87  C   UNL A   1      47.140  25.969  35.911  1.00  0.00     0.200 A 
ATOM     88  F   UNL A   1      45.691  24.260  36.656  1.00  0.00    -0.200 F 
ATOM     89  F   UNL A   1      48.142  25.454  36.637  1.00  0.00    -0.200 F 
ENDBRANCH  56  79
ENDBRANCH  30  31
ENDBRANCH  23  25
ENDBRANCH  22  23
ENDBRANCH   1  22
TORSDOF 12
ENDMDL
MODEL 2
REMARK VINA RESULT:     -12.2      2.964      5.115
REMARK SMILES Cc1cc(F)c(-c2ccc(F)c(C(=O)OCCOC(=O)c3ccc(-c4c5nc(c(-c6c(F)c(F)c(F)c(F)c6F)c6ccc([nH]6)c(-c6c(F)c(F)c(F)c(F)c6F)c6nc(c(-c7c(F)c(F)c(F)c(F)c7F)c7ccc4[nH]7)C=C6)C=C5)cc3)c2)cc1F
REMARK SMILES IDX 17 1 16 2 15 3 13 4 14 5 12 6 7 7 8 8 84 9 9 10 10 11 11 12
REMARK SMILES IDX 6 13 1 14 2 15 3 16 86 17 4 18 85 19 87 20 5 21 18 22 19 23
REMARK SMILES IDX 20 24 21 25 22 26 83 27 23 28 82 29 24 30 25 31 26 32 76 33
REMARK SMILES IDX 27 34 81 35 75 36 77 37 28 38 80 39 74 40 73 41 29 43 61 44
REMARK SMILES IDX 41 45 60 46 42 47 45 48 59 49 78 50 43 51 44 52 58 54 79 55
REMARK SMILES IDX 46 56 30 57 31 58 39 59 32 60 33 61 37 62 40 63 34 64 35 65
REMARK SMILES IDX 38 66 36 67 62 68 63 69 71 70 64 71 65 72 69 73 72 74 66 75
REMARK SMILES IDX 67 76 70 77 68 78 47 79 48 80 56 81 49 82 50 83 54 84 57 85
REMARK SMILES IDX 51 86 52 87 55 88 53 89
REMARK H PARENT 77 42 45 53
REMARK Flexibility Score: inf
ROOT
ATOM      1  C   UNL A   1      32.932  36.026  29.622  1.00  0.00     0.275 C 
ENDROOT
BRANCH   1   2
ATOM      2  C   UNL A   1      33.950  35.241  28.795  1.00  0.00     0.275 C 
BRANCH   2   3
ATOM      3  O   UNL A   1      33.771  33.823  28.990  1.00  0.00    -0.458 OA
BRANCH   3   4
ATOM      4  C   UNL A   1      33.166  33.136  27.985  1.00  0.00     0.341 C 
ATOM      5  O   UNL A   1      32.227  33.518  27.317  1.00  0.00    -0.246 OA
BRANCH   4   6
ATOM      6  C   UNL A   1      33.896  31.866  27.752  1.00  0.00     0.096 A 
ATOM      7  C   UNL A   1      33.933  29.502  27.151  1.00  0.00    -0.014 A 
ATOM      8  C   UNL A   1      35.314  29.480  27.416  1.00  0.00     0.012 A 
ATOM      9  C   UNL A   1      33.225  30.699  27.361  1.00  0.00     0.027 A 
ATOM     10  C   UNL A   1      35.987  30.640  27.787  1.00  0.00     0.041 A 
ATOM     11  C   UNL A   1      35.282  31.831  27.911  1.00  0.00     0.137 A 
ATOM     12  F   UNL A   1      35.986  32.937  28.192  1.00  0.00    -0.206 F 
BRANCH   7  13
ATOM     13  C   UNL A   1      33.284  28.323  26.569  1.00  0.00     0.020 A 
ATOM     14  C   UNL A   1      31.047  25.173  24.619  1.00  0.00     0.047 C 
ATOM     15  C   UNL A   1      31.852  26.221  25.323  1.00  0.00    -0.012 A 
ATOM     16  C   UNL A   1      31.360  26.816  26.486  1.00  0.00     0.046 A 
ATOM     17  C   UNL A   1      33.073  26.667  24.809  1.00  0.00     0.126 A 
ATOM     18  C   UNL A   1      32.072  27.846  27.096  1.00  0.00     0.131 A 
ATOM     19  C   UNL A   1      33.787  27.700  25.419  1.00  0.00     0.051 A 
ATOM     20  F   UNL A   1      33.570  26.119  23.691  1.00  0.00    -0.207 F 
ATOM     21  F   UNL A   1      31.544  28.418  28.190  1.00  0.00    -0.206 F 
ENDBRANCH   7  13
ENDBRANCH   4   6
ENDBRANCH   3   4
ENDBRANCH   2   3
ENDBRANCH   1   2
BRANCH   1  22
ATOM     22  O   UNL A   1      32.496  35.236  30.744  1.00  0.00    -0.458 OA
BRANCH  22  23
ATOM     23  C   UNL A   1      32.802  35.730  31.965  1.00  0.00     0.338 C 
ATOM     24  O   UNL A   1      32.199  36.566  32.612  1.00  0.00    -0.246 OA
BRANCH  23  25
ATOM     25  C   UNL A   1      33.957  34.987  32.486  1.00  0.00     0.060 A 
ATOM     26  C   UNL A   1      33.839  33.692  32.980  1.00  0.00     0.016 A 
ATOM     27  C   UNL A   1      35.207  35.589  32.387  1.00  0.00     0.016 A 
ATOM     28  C   UNL A   1      34.994  33.013  33.391  1.00  0.00     0.010 A 
ATOM     29  C   UNL A   1      36.361  34.893  32.728  1.00  0.00     0.010 A 
ATOM     30  C   UNL A   1      36.270  33.598  33.248  1.00  0.00    -0.014 A 
BRANCH  30  31
ATOM     31  C   UNL A   1      37.515  32.861  33.600  1.00  0.00     0.031 A 
ATOM     32  C   UNL A   1      38.259  33.163  34.878  1.00  0.00     0.074 A 
ATOM     33  C   UNL A   1      38.027  31.973  32.725  1.00  0.00     0.049 A 
ATOM     34  N   UNL A   1      39.386  32.656  35.317  1.00  0.00    -0.248 NA
ATOM     35  C   UNL A   1      37.683  34.187  35.762  1.00  0.00     0.031 C 
ATOM     36  C   UNL A   1      37.460  31.660  31.413  1.00  0.00     0.029 A 
ATOM     37  N   UNL A   1      39.144  31.177  32.802  1.00  0.00    -0.354 N 
ATOM     38  C   UNL A   1      39.661  33.314  36.510  1.00  0.00     0.074 A 
ATOM     39  C   UNL A   1      38.609  34.287  36.707  1.00  0.00     0.031 C 
ATOM     40  C   UNL A   1      38.209  30.715  30.823  1.00  0.00     0.029 A 
ATOM     41  C   UNL A   1      39.327  30.378  31.699  1.00  0.00     0.049 A 
ATOM     42  H   UNL A   1      39.754  31.178  33.574  1.00  0.00     0.167 HD
ATOM     43  C   UNL A   1      40.685  33.109  37.373  1.00  0.00     0.037 A 
ATOM     44  C   UNL A   1      40.287  29.473  31.423  1.00  0.00     0.037 A 
ATOM     45  C   UNL A   1      41.706  32.108  37.202  1.00  0.00     0.049 A 
ATOM     46  C   UNL A   1      41.369  29.214  32.434  1.00  0.00     0.074 A 
ATOM     47  C   UNL A   1      42.736  31.773  38.063  1.00  0.00     0.029 A 
ATOM     48  N   UNL A   1      41.818  31.274  36.101  1.00  0.00    -0.354 N 
ATOM     49  N   UNL A   1      41.571  29.790  33.593  1.00  0.00    -0.248 NA
ATOM     50  C   UNL A   1      42.349  28.168  32.106  1.00  0.00     0.031 C 
ATOM     51  C   UNL A   1      43.492  30.758  37.470  1.00  0.00     0.029 A 
ATOM     52  C   UNL A   1      42.904  30.428  36.260  1.00  0.00     0.049 A 
ATOM     53  H   UNL A   1      41.216  31.281  35.321  1.00  0.00     0.167 HD
ATOM     54  C   UNL A   1      42.682  29.164  34.142  1.00  0.00     0.074 A 
ATOM     55  C   UNL A   1      43.099  28.150  33.198  1.00  0.00     0.031 C 
ATOM     56  C   UNL A   1      43.301  29.413  35.321  1.00  0.00     0.037 A 
BRANCH  43  57
ATOM     57  C   UNL A   1      40.750  33.955  38.613  1.00  0.00     0.064 A 
ATOM     58  C   UNL A   1      41.454  35.168  38.632  1.00  0.00     0.173 A 
ATOM     59  C   UNL A   1      40.009  33.607  39.754  1.00  0.00     0.173 A 
ATOM     60  F   UNL A   1      42.178  35.545  37.568  1.00  0.00    -0.203 F 
ATOM     61  C   UNL A   1      41.419  36.000  39.749  1.00  0.00     0.198 A 
ATOM     62  C   UNL A   1      39.956  34.453  40.859  1.00  0.00     0.198 A 
ATOM     63  F   UNL A   1      39.309  32.463  39.783  1.00  0.00    -0.203 F 
ATOM     64  F   UNL A   1      42.113  37.145  39.750  1.00  0.00    -0.200 F 
ATOM     65  C   UNL A   1      40.661  35.647  40.856  1.00  0.00     0.200 A 
ATOM     66  F   UNL A   1      39.208  34.122  41.920  1.00  0.00    -0.200 F 
ATOM     67  F   UNL A   1      40.605  36.463  41.918  1.00  0.00    -0.200 F 
ENDBRANCH  43  57
BRANCH  44  68
ATOM     68  C   UNL A   1      40.237  28.712  30.147  1.00  0.00     0.064 A 
ATOM     69  C   UNL A   1      39.558  27.489  30.067  1.00  0.00     0.173 A 
ATOM     70  C   UNL A   1      40.854  29.195  28.984  1.00  0.00     0.173 A 
ATOM     71  F   UNL A   1      38.969  26.978  31.159  1.00  0.00    -0.203 F 
ATOM     72  C   UNL A   1      39.513  26.767  28.877  1.00  0.00     0.198 A 
ATOM     73  C   UNL A   1      40.783  28.485  27.787  1.00  0.00     0.198 A 
ATOM     74  F   UNL A   1      41.510  30.363  29.006  1.00  0.00    -0.203 F 
ATOM     75  F   UNL A   1      38.894  25.579  28.840  1.00  0.00    -0.200 F 
ATOM     76  C   UNL A   1      40.121  27.268  27.736  1.00  0.00     0.200 A 
ATOM     77  F   UNL A   1      41.358  28.980  26.682  1.00  0.00    -0.200 F 
ATOM     78  F   UNL A   1      40.071  26.576  26.590  1.00  0.00    -0.200 F 
ENDBRANCH  44  68
BRANCH  56  79
ATOM     79  C   UNL A   1      44.478  28.555  35.679  1.00  0.00     0.064 A 
ATOM     80  C   UNL A   1      45.786  28.913  35.320  1.00  0.00     0.173 A 
ATOM     81  C   UNL A   1      44.300  27.388  36.438  1.00  0.00     0.173 A 
ATOM     82  F   UNL A   1      46.006  30.013  34.585  1.00  0.00    -0.203 F 
ATOM     83  C   UNL A   1      46.870  28.122  35.689  1.00  0.00     0.198 A 
ATOM     84  C   UNL A   1      45.389  26.615  36.828  1.00  0.00     0.198 A 
ATOM     85  F   UNL A   1      43.070  27.007  36.814  1.00  0.00    -0.203 F 
ATOM     86  F   UNL A   1      48.107  28.461  35.299  1.00  0.00    -0.200 F 
ATOM     87  C   UNL A   1      46.672  26.978  36.448  1.00  0.00     0.200 A 
ATOM     88  F   UNL A   1      45.198  25.518  37.575  1.00  0.00    -0.200 F 
ATOM     89  F   UNL A   1      47.718  26.223  36.810  1.00  0.00    -0.200 F 
ENDBRANCH  56  79
ENDBRANCH  30  31
ENDBRANCH  23  25
ENDBRANCH  22  23
ENDBRANCH   1  22
TORSDOF 12
ENDMDL
MODEL 3
REMARK VINA RESULT:     -12.2      0.345      1.646
REMARK SMILES Cc1cc(F)c(-c2ccc(F)c(C(=O)OCCOC(=O)c3ccc(-c4c5nc(c(-c6c(F)c(F)c(F)c(F)c6F)c6ccc([nH]6)c(-c6c(F)c(F)c(F)c(F)c6F)c6nc(c(-c7c(F)c(F)c(F)c(F)c7F)c7ccc4[nH]7)C=C6)C=C5)cc3)c2)cc1F
REMARK SMILES IDX 17 1 16 2 15 3 13 4 14 5 12 6 7 7 8 8 84 9 9 10 10 11 11 12
REMARK SMILES IDX 6 13 1 14 2 15 3 16 86 17 4 18 85 19 87 20 5 21 18 22 19 23
REMARK SMILES IDX 20 24 21 25 22 26 83 27 23 28 82 29 24 30 25 31 26 32 76 33
REMARK SMILES IDX 27 34 81 35 75 36 77 37 28 38 80 39 74 40 73 41 29 43 61 44
REMARK SMILES IDX 41 45 60 46 42 47 45 48 59 49 78 50 43 51 44 52 58 54 79 55
REMARK SMILES IDX 46 56 30 57 31 58 39 59 32 60 33 61 37 62 40 63 34 64 35 65
REMARK SMILES IDX 38 66 36 67 62 68 63 69 71 70 64 71 65 72 69 73 72 74 66 75
REMARK SMILES IDX 67 76 70 77 68 78 47 79 48 80 56 81 49 82 50 83 54 84 57 85
REMARK SMILES IDX 51 86 52 87 55 88 53 89
REMARK H PARENT 77 42 45 53
REMARK Flexibility Score: inf
ROOT
ATOM      1  C   UNL A   1      31.781  30.097  25.801  1.00  0.00     0.275 C 
ENDROOT
BRANCH   1   2
ATOM      2  C   UNL A   1      31.463  28.638  25.472  1.00  0.00     0.275 C 
BRANCH   2   3
ATOM      3  O   UNL A   1      32.538  27.779  25.905  1.00  0.00    -0.458 OA
BRANCH   3   4
ATOM      4  C   UNL A   1      32.231  26.471  26.118  1.00  0.00     0.341 C 
ATOM      5  O   UNL A   1      31.383  26.046  26.875  1.00  0.00    -0.246 OA
BRANCH   4   6
ATOM      6  C   UNL A   1      33.032  25.626  25.199  1.00  0.00     0.096 A 
ATOM      7  C   UNL A   1      34.976  24.230  24.728  1.00  0.00    -0.014 A 
ATOM      8  C   UNL A   1      34.544  24.116  23.395  1.00  0.00     0.012 A 
ATOM      9  C   UNL A   1      34.227  25.024  25.616  1.00  0.00     0.027 A 
ATOM     10  C   UNL A   1      33.348  24.699  22.982  1.00  0.00     0.041 A 
ATOM     11  C   UNL A   1      32.582  25.412  23.896  1.00  0.00     0.137 A 
ATOM     12  F   UNL A   1      31.401  25.885  23.472  1.00  0.00    -0.206 F 
BRANCH   7  13
ATOM     13  C   UNL A   1      36.126  23.446  25.190  1.00  0.00     0.020 A 
ATOM     14  C   UNL A   1      39.693  21.158  26.066  1.00  0.00     0.047 C 
ATOM     15  C   UNL A   1      38.441  21.939  25.819  1.00  0.00    -0.012 A 
ATOM     16  C   UNL A   1      37.341  21.324  25.216  1.00  0.00     0.046 A 
ATOM     17  C   UNL A   1      38.359  23.301  26.125  1.00  0.00     0.126 A 
ATOM     18  C   UNL A   1      36.205  22.070  24.914  1.00  0.00     0.131 A 
ATOM     19  C   UNL A   1      37.221  24.049  25.823  1.00  0.00     0.051 A 
ATOM     20  F   UNL A   1      39.399  23.921  26.699  1.00  0.00    -0.207 F 
ATOM     21  F   UNL A   1      35.186  21.449  24.299  1.00  0.00    -0.206 F 
ENDBRANCH   7  13
ENDBRANCH   4   6
ENDBRANCH   3   4
ENDBRANCH   2   3
ENDBRANCH   1   2
BRANCH   1  22
ATOM     22  O   UNL A   1      33.174  30.234  26.135  1.00  0.00    -0.458 OA
BRANCH  22  23
ATOM     23  C   UNL A   1      33.474  31.218  27.014  1.00  0.00     0.338 C 
ATOM     24  O   UNL A   1      32.788  32.169  27.341  1.00  0.00    -0.246 OA
BRANCH  23  25
ATOM     25  C   UNL A   1      34.758  30.893  27.648  1.00  0.00     0.060 A 
ATOM     26  C   UNL A   1      35.680  31.876  27.993  1.00  0.00     0.016 A 
ATOM     27  C   UNL A   1      34.993  29.563  27.980  1.00  0.00     0.016 A 
ATOM     28  C   UNL A   1      36.853  31.503  28.664  1.00  0.00     0.010 A 
ATOM     29  C   UNL A   1      36.121  29.200  28.707  1.00  0.00     0.010 A 
ATOM     30  C   UNL A   1      37.076  30.164  29.048  1.00  0.00    -0.014 A 
BRANCH  30  31
ATOM     31  C   UNL A   1      38.274  29.762  29.834  1.00  0.00     0.031 A 
ATOM     32  C   UNL A   1      38.501  30.293  31.228  1.00  0.00     0.074 A 
ATOM     33  C   UNL A   1      39.207  28.978  29.259  1.00  0.00     0.049 A 
ATOM     34  N   UNL A   1      39.515  30.090  32.034  1.00  0.00    -0.248 NA
ATOM     35  C   UNL A   1      37.477  31.194  31.777  1.00  0.00     0.031 C 
ATOM     36  C   UNL A   1      39.158  28.475  27.886  1.00  0.00     0.029 A 
ATOM     37  N   UNL A   1      40.386  28.473  29.754  1.00  0.00    -0.354 N 
ATOM     38  C   UNL A   1      39.260  30.851  33.168  1.00  0.00     0.074 A 
ATOM     39  C   UNL A   1      38.019  31.556  32.932  1.00  0.00     0.031 C 
ATOM     40  C   UNL A   1      40.234  27.706  27.658  1.00  0.00     0.029 A 
ATOM     41  C   UNL A   1      41.068  27.687  28.856  1.00  0.00     0.049 A 
ATOM     42  H   UNL A   1      40.711  28.657  30.665  1.00  0.00     0.167 HD
ATOM     43  C   UNL A   1      39.982  30.938  34.311  1.00  0.00     0.037 A 
ATOM     44  C   UNL A   1      42.233  27.023  28.982  1.00  0.00     0.037 A 
ATOM     45  C   UNL A   1      41.192  30.199  34.566  1.00  0.00     0.049 A 
ATOM     46  C   UNL A   1      42.975  27.077  30.289  1.00  0.00     0.074 A 
ATOM     47  C   UNL A   1      41.949  30.160  35.725  1.00  0.00     0.029 A 
ATOM     48  N   UNL A   1      41.814  29.362  33.654  1.00  0.00    -0.354 N 
ATOM     49  N   UNL A   1      42.680  27.741  31.380  1.00  0.00    -0.248 NA
ATOM     50  C   UNL A   1      44.205  26.278  30.389  1.00  0.00     0.031 C 
ATOM     51  C   UNL A   1      43.047  29.325  35.504  1.00  0.00     0.029 A 
ATOM     52  C   UNL A   1      42.949  28.806  34.223  1.00  0.00     0.049 A 
ATOM     53  H   UNL A   1      41.499  29.188  32.738  1.00  0.00     0.167 HD
ATOM     54  C   UNL A   1      43.670  27.423  32.299  1.00  0.00     0.074 A 
ATOM     55  C   UNL A   1      44.564  26.491  31.647  1.00  0.00     0.031 C 
ATOM     56  C   UNL A   1      43.823  27.869  33.569  1.00  0.00     0.037 A 
BRANCH  43  57
ATOM     57  C   UNL A   1      39.478  31.834  35.405  1.00  0.00     0.064 A 
ATOM     58  C   UNL A   1      39.834  33.190  35.459  1.00  0.00     0.173 A 
ATOM     59  C   UNL A   1      38.542  31.364  36.340  1.00  0.00     0.173 A 
ATOM     60  F   UNL A   1      40.726  33.689  34.591  1.00  0.00    -0.203 F 
ATOM     61  C   UNL A   1      39.277  34.040  36.411  1.00  0.00     0.198 A 
ATOM     62  C   UNL A   1      37.968  32.222  37.274  1.00  0.00     0.198 A 
ATOM     63  F   UNL A   1      38.158  30.078  36.324  1.00  0.00    -0.203 F 
ATOM     64  F   UNL A   1      39.646  35.327  36.454  1.00  0.00    -0.200 F 
ATOM     65  C   UNL A   1      38.336  33.559  37.310  1.00  0.00     0.200 A 
ATOM     66  F   UNL A   1      37.044  31.761  38.128  1.00  0.00    -0.200 F 
ATOM     67  F   UNL A   1      37.779  34.386  38.206  1.00  0.00    -0.200 F 
ENDBRANCH  43  57
BRANCH  44  68
ATOM     68  C   UNL A   1      42.745  26.210  27.848  1.00  0.00     0.064 A 
ATOM     69  C   UNL A   1      43.614  26.768  26.900  1.00  0.00     0.173 A 
ATOM     70  C   UNL A   1      42.389  24.863  27.695  1.00  0.00     0.173 A 
ATOM     71  F   UNL A   1      43.968  28.059  26.996  1.00  0.00    -0.203 F 
ATOM     72  C   UNL A   1      44.093  26.015  25.831  1.00  0.00     0.198 A 
ATOM     73  C   UNL A   1      42.891  24.102  26.641  1.00  0.00     0.198 A 
ATOM     74  F   UNL A   1      41.566  24.280  28.578  1.00  0.00    -0.203 F 
ATOM     75  F   UNL A   1      44.887  26.586  24.916  1.00  0.00    -0.200 F 
ATOM     76  C   UNL A   1      43.736  24.681  25.705  1.00  0.00     0.200 A 
ATOM     77  F   UNL A   1      42.557  22.809  26.531  1.00  0.00    -0.200 F 
ATOM     78  F   UNL A   1      44.202  23.955  24.680  1.00  0.00    -0.200 F 
ENDBRANCH  44  68
BRANCH  56  79
ATOM     79  C   UNL A   1      44.983  27.332  34.355  1.00  0.00     0.064 A 
ATOM     80  C   UNL A   1      44.881  26.149  35.101  1.00  0.00     0.173 A 
ATOM     81  C   UNL A   1      46.226  27.982  34.317  1.00  0.00     0.173 A 
ATOM     82  F   UNL A   1      43.711  25.498  35.177  1.00  0.00    -0.203 F 
ATOM     83  C   UNL A   1      45.976  25.647  35.798  1.00  0.00     0.198 A 
ATOM     84  C   UNL A   1      47.326  27.462  34.993  1.00  0.00     0.198 A 
ATOM     85  F   UNL A   1      46.378  29.112  33.611  1.00  0.00    -0.203 F 
ATOM     86  F   UNL A   1      45.845  24.537  36.538  1.00  0.00    -0.200 F 
ATOM     87  C   UNL A   1      47.199  26.300  35.738  1.00  0.00     0.200 A 
ATOM     88  F   UNL A   1      48.510  28.085  34.923  1.00  0.00    -0.200 F 
ATOM     89  F   UNL A   1      48.254  25.810  36.403  1.00  0.00    -0.200 F 
ENDBRANCH  56  79
ENDBRANCH  30  31
ENDBRANCH  23  25
ENDBRANCH  22  23
ENDBRANCH   1  22
TORSDOF 12
ENDMDL
