MODEL 1
REMARK VINA RESULT:      -9.8      0.000      0.000
REMARK SMILES O=C(OCCOC(=O)c1ccc(-c2c3nc(c(-c4c(F)c(F)c(F)c(F)c4F)c4ccc([nH]4)c(-c4c(F)c(F)c(F)c(F)c4F)c4nc(c(-c5c(F)c(F)c(F)c(F)c5F)c5ccc2[nH]5)C=C4)C=C3)cc1)c1ccc(/N=C\c2ccccc2O)cc1
REMARK SMILES IDX 4 1 3 2 2 3 1 4 72 5 73 6 86 7 74 8 85 9 75 10 76 11 77 12
REMARK SMILES IDX 78 13 79 14 83 15 80 16 82 17 81 18 84 19 5 21 6 22 7 23
REMARK SMILES IDX 8 24 9 25 10 26 71 27 11 28 70 29 12 30 13 31 14 32 64 33
REMARK SMILES IDX 15 34 69 35 63 36 65 37 16 38 68 39 62 40 61 41 17 43 49 44
REMARK SMILES IDX 29 45 48 46 30 47 33 48 47 49 66 50 31 51 32 52 46 54 67 55
REMARK SMILES IDX 34 56 18 57 19 58 27 59 20 60 21 61 25 62 28 63 22 64 23 65
REMARK SMILES IDX 26 66 24 67 50 68 51 69 59 70 52 71 53 72 57 73 60 74 54 75
REMARK SMILES IDX 55 76 58 77 56 78 35 79 36 80 44 81 37 82 38 83 42 84 45 85
REMARK SMILES IDX 39 86 40 87 43 88 41 89
REMARK H PARENT 84 20 65 42 33 53
REMARK Flexibility Score: inf
ROOT
ATOM      1  C   UNL A   1      34.328  33.855  28.743  1.00  0.00     0.275 C 
ENDROOT
BRANCH   1   2
ATOM      2  O   UNL A   1      35.682  34.293  28.961  1.00  0.00    -0.458 OA
BRANCH   2   3
ATOM      3  C   UNL A   1      36.750  33.608  29.431  1.00  0.00     0.338 C 
ATOM      4  O   UNL A   1      37.550  33.121  28.633  1.00  0.00    -0.246 OA
BRANCH   3   5
ATOM      5  C   UNL A   1      36.950  33.300  30.875  1.00  0.00     0.060 A 
ATOM      6  C   UNL A   1      38.076  33.631  31.631  1.00  0.00     0.018 A 
ATOM      7  C   UNL A   1      35.934  32.554  31.493  1.00  0.00     0.018 A 
ATOM      8  C   UNL A   1      38.165  33.261  32.980  1.00  0.00     0.029 A 
ATOM      9  C   UNL A   1      36.032  32.184  32.837  1.00  0.00     0.029 A 
ATOM     10  C   UNL A   1      37.171  32.487  33.579  1.00  0.00     0.063 A 
BRANCH  10  11
ATOM     11  N   UNL A   1      37.397  32.000  34.875  1.00  0.00    -0.256 NA
ATOM     12  C   UNL A   1      38.127  30.945  35.105  1.00  0.00     0.123 C 
BRANCH  12  13
ATOM     13  C   UNL A   1      38.863  30.100  34.138  1.00  0.00     0.035 A 
ATOM     14  C   UNL A   1      40.239  30.326  34.043  1.00  0.00     0.013 A 
ATOM     15  C   UNL A   1      38.279  29.058  33.408  1.00  0.00     0.124 A 
ATOM     16  C   UNL A   1      41.027  29.456  33.289  1.00  0.00     0.001 A 
ATOM     17  C   UNL A   1      39.080  28.168  32.696  1.00  0.00     0.047 A 
ATOM     18  C   UNL A   1      40.459  28.357  32.651  1.00  0.00     0.004 A 
BRANCH  15  19
ATOM     19  O   UNL A   1      36.933  28.837  33.340  1.00  0.00    -0.507 OA
ATOM     20  H   UNL A   1      36.580  28.308  32.653  1.00  0.00     0.293 HD
ENDBRANCH  15  19
ENDBRANCH  12  13
ENDBRANCH  10  11
ENDBRANCH   3   5
ENDBRANCH   2   3
ENDBRANCH   1   2
BRANCH   1  21
ATOM     21  C   UNL A   1      34.191  32.609  27.868  1.00  0.00     0.275 C 
BRANCH  21  22
ATOM     22  O   UNL A   1      34.057  31.402  28.635  1.00  0.00    -0.458 OA
BRANCH  22  23
ATOM     23  C   UNL A   1      34.492  30.278  28.006  1.00  0.00     0.338 C 
ATOM     24  O   UNL A   1      33.856  29.608  27.208  1.00  0.00    -0.246 OA
BRANCH  23  25
ATOM     25  C   UNL A   1      35.913  29.995  28.329  1.00  0.00     0.060 A 
ATOM     26  C   UNL A   1      36.842  30.090  27.285  1.00  0.00     0.016 A 
ATOM     27  C   UNL A   1      36.352  29.657  29.613  1.00  0.00     0.016 A 
ATOM     28  C   UNL A   1      38.197  29.833  27.514  1.00  0.00     0.010 A 
ATOM     29  C   UNL A   1      37.717  29.415  29.845  1.00  0.00     0.010 A 
ATOM     30  C   UNL A   1      38.650  29.480  28.792  1.00  0.00    -0.014 A 
BRANCH  30  31
ATOM     31  C   UNL A   1      40.072  29.081  28.987  1.00  0.00     0.031 A 
ATOM     32  C   UNL A   1      41.037  30.056  29.606  1.00  0.00     0.074 A 
ATOM     33  C   UNL A   1      40.514  27.843  28.688  1.00  0.00     0.049 A 
ATOM     34  N   UNL A   1      42.279  29.863  29.978  1.00  0.00    -0.248 NA
ATOM     35  C   UNL A   1      40.533  31.412  29.869  1.00  0.00     0.031 C 
ATOM     36  C   UNL A   1      39.708  26.755  28.145  1.00  0.00     0.029 A 
ATOM     37  N   UNL A   1      41.773  27.298  28.800  1.00  0.00    -0.354 N 
ATOM     38  C   UNL A   1      42.675  31.043  30.590  1.00  0.00     0.074 A 
ATOM     39  C   UNL A   1      41.584  31.983  30.440  1.00  0.00     0.031 C 
ATOM     40  C   UNL A   1      40.503  25.697  27.910  1.00  0.00     0.029 A 
ATOM     41  C   UNL A   1      41.871  26.027  28.291  1.00  0.00     0.049 A 
ATOM     42  H   UNL A   1      42.532  27.775  29.206  1.00  0.00     0.167 HD
ATOM     43  C   UNL A   1      43.814  31.303  31.275  1.00  0.00     0.037 A 
ATOM     44  C   UNL A   1      42.937  25.218  28.146  1.00  0.00     0.037 A 
ATOM     45  C   UNL A   1      44.926  30.400  31.409  1.00  0.00     0.049 A 
ATOM     46  C   UNL A   1      44.259  25.597  28.748  1.00  0.00     0.074 A 
ATOM     47  C   UNL A   1      46.103  30.577  32.117  1.00  0.00     0.029 A 
ATOM     48  N   UNL A   1      45.014  29.157  30.801  1.00  0.00    -0.354 N 
ATOM     49  N   UNL A   1      44.588  26.677  29.408  1.00  0.00    -0.248 NA
ATOM     50  C   UNL A   1      45.342  24.606  28.637  1.00  0.00     0.031 C 
ATOM     51  C   UNL A   1      46.923  29.466  31.897  1.00  0.00     0.029 A 
ATOM     52  C   UNL A   1      46.238  28.573  31.090  1.00  0.00     0.049 A 
ATOM     53  H   UNL A   1      44.311  28.750  30.246  1.00  0.00     0.167 HD
ATOM     54  C   UNL A   1      45.890  26.473  29.844  1.00  0.00     0.074 A 
ATOM     55  C   UNL A   1      46.298  25.172  29.358  1.00  0.00     0.031 C 
ATOM     56  C   UNL A   1      46.659  27.284  30.609  1.00  0.00     0.037 A 
BRANCH  43  57
ATOM     57  C   UNL A   1      43.893  32.624  31.977  1.00  0.00     0.064 A 
ATOM     58  C   UNL A   1      44.225  33.792  31.271  1.00  0.00     0.173 A 
ATOM     59  C   UNL A   1      43.598  32.737  33.340  1.00  0.00     0.173 A 
ATOM     60  F   UNL A   1      44.526  33.730  29.965  1.00  0.00    -0.203 F 
ATOM     61  C   UNL A   1      44.277  35.024  31.913  1.00  0.00     0.198 A 
ATOM     62  C   UNL A   1      43.628  33.976  33.974  1.00  0.00     0.198 A 
ATOM     63  F   UNL A   1      43.273  31.650  34.056  1.00  0.00    -0.203 F 
ATOM     64  F   UNL A   1      44.631  36.121  31.229  1.00  0.00    -0.200 F 
ATOM     65  C   UNL A   1      43.972  35.117  33.262  1.00  0.00     0.200 A 
ATOM     66  F   UNL A   1      43.323  34.067  35.276  1.00  0.00    -0.200 F 
ATOM     67  F   UNL A   1      44.015  36.306  33.879  1.00  0.00    -0.200 F 
ENDBRANCH  43  57
BRANCH  44  68
ATOM     68  C   UNL A   1      42.819  23.951  27.385  1.00  0.00     0.064 A 
ATOM     69  C   UNL A   1      42.434  22.753  27.999  1.00  0.00     0.173 A 
ATOM     70  C   UNL A   1      43.177  23.911  26.030  1.00  0.00     0.173 A 
ATOM     71  F   UNL A   1      42.126  22.740  29.303  1.00  0.00    -0.203 F 
ATOM     72  C   UNL A   1      42.421  21.556  27.285  1.00  0.00     0.198 A 
ATOM     73  C   UNL A   1      43.148  22.717  25.314  1.00  0.00     0.198 A 
ATOM     74  F   UNL A   1      43.548  25.036  25.400  1.00  0.00    -0.203 F 
ATOM     75  F   UNL A   1      42.090  20.414  27.902  1.00  0.00    -0.200 F 
ATOM     76  C   UNL A   1      42.776  21.539  25.943  1.00  0.00     0.200 A 
ATOM     77  F   UNL A   1      43.476  22.711  24.015  1.00  0.00    -0.200 F 
ATOM     78  F   UNL A   1      42.764  20.388  25.258  1.00  0.00    -0.200 F 
ENDBRANCH  44  68
BRANCH  56  79
ATOM     79  C   UNL A   1      48.008  26.766  31.018  1.00  0.00     0.064 A 
ATOM     80  C   UNL A   1      49.169  27.065  30.292  1.00  0.00     0.173 A 
ATOM     81  C   UNL A   1      48.136  25.947  32.152  1.00  0.00     0.173 A 
ATOM     82  F   UNL A   1      49.099  27.824  29.188  1.00  0.00    -0.203 F 
ATOM     83  C   UNL A   1      50.403  26.537  30.664  1.00  0.00     0.198 A 
ATOM     84  C   UNL A   1      49.376  25.446  32.539  1.00  0.00     0.198 A 
ATOM     85  F   UNL A   1      47.057  25.630  32.883  1.00  0.00    -0.203 F 
ATOM     86  F   UNL A   1      51.489  26.784  29.919  1.00  0.00    -0.200 F 
ATOM     87  C   UNL A   1      50.506  25.732  31.789  1.00  0.00     0.200 A 
ATOM     88  F   UNL A   1      49.474  24.676  33.631  1.00  0.00    -0.200 F 
ATOM     89  F   UNL A   1      51.694  25.220  32.143  1.00  0.00    -0.200 F 
ENDBRANCH  56  79
ENDBRANCH  30  31
ENDBRANCH  23  25
ENDBRANCH  22  23
ENDBRANCH  21  22
ENDBRANCH   1  21
TORSDOF 14
ENDMDL
MODEL 2
REMARK VINA RESULT:      -9.7      3.701     10.026
REMARK SMILES O=C(OCCOC(=O)c1ccc(-c2c3nc(c(-c4c(F)c(F)c(F)c(F)c4F)c4ccc([nH]4)c(-c4c(F)c(F)c(F)c(F)c4F)c4nc(c(-c5c(F)c(F)c(F)c(F)c5F)c5ccc2[nH]5)C=C4)C=C3)cc1)c1ccc(/N=C\c2ccccc2O)cc1
REMARK SMILES IDX 4 1 3 2 2 3 1 4 72 5 73 6 86 7 74 8 85 9 75 10 76 11 77 12
REMARK SMILES IDX 78 13 79 14 83 15 80 16 82 17 81 18 84 19 5 21 6 22 7 23
REMARK SMILES IDX 8 24 9 25 10 26 71 27 11 28 70 29 12 30 13 31 14 32 64 33
REMARK SMILES IDX 15 34 69 35 63 36 65 37 16 38 68 39 62 40 61 41 17 43 49 44
REMARK SMILES IDX 29 45 48 46 30 47 33 48 47 49 66 50 31 51 32 52 46 54 67 55
REMARK SMILES IDX 34 56 18 57 19 58 27 59 20 60 21 61 25 62 28 63 22 64 23 65
REMARK SMILES IDX 26 66 24 67 50 68 51 69 59 70 52 71 53 72 57 73 60 74 54 75
REMARK SMILES IDX 55 76 58 77 56 78 35 79 36 80 44 81 37 82 38 83 42 84 45 85
REMARK SMILES IDX 39 86 40 87 43 88 41 89
REMARK H PARENT 84 20 65 42 33 53
REMARK Flexibility Score: inf
ROOT
ATOM      1  C   UNL A   1      40.856  20.932  27.608  1.00  0.00     0.275 C 
ENDROOT
BRANCH   1   2
ATOM      2  O   UNL A   1      42.187  21.475  27.532  1.00  0.00    -0.458 OA
BRANCH   2   3
ATOM      3  C   UNL A   1      42.674  22.645  28.006  1.00  0.00     0.338 C 
ATOM      4  O   UNL A   1      42.251  23.083  29.075  1.00  0.00    -0.246 OA
BRANCH   3   5
ATOM      5  C   UNL A   1      43.617  23.506  27.239  1.00  0.00     0.060 A 
ATOM      6  C   UNL A   1      44.644  24.278  27.785  1.00  0.00     0.018 A 
ATOM      7  C   UNL A   1      43.395  23.583  25.855  1.00  0.00     0.018 A 
ATOM      8  C   UNL A   1      45.453  25.076  26.963  1.00  0.00     0.029 A 
ATOM      9  C   UNL A   1      44.202  24.384  25.043  1.00  0.00     0.029 A 
ATOM     10  C   UNL A   1      45.204  25.179  25.595  1.00  0.00     0.063 A 
BRANCH  10  11
ATOM     11  N   UNL A   1      45.931  26.124  24.856  1.00  0.00    -0.256 NA
ATOM     12  C   UNL A   1      45.667  27.400  24.905  1.00  0.00     0.123 C 
BRANCH  12  13
ATOM     13  C   UNL A   1      44.647  28.103  25.714  1.00  0.00     0.035 A 
ATOM     14  C   UNL A   1      45.109  28.744  26.867  1.00  0.00     0.013 A 
ATOM     15  C   UNL A   1      43.304  28.230  25.341  1.00  0.00     0.124 A 
ATOM     16  C   UNL A   1      44.245  29.572  27.584  1.00  0.00     0.001 A 
ATOM     17  C   UNL A   1      42.463  29.095  26.036  1.00  0.00     0.047 A 
ATOM     18  C   UNL A   1      42.939  29.781  27.150  1.00  0.00     0.004 A 
BRANCH  15  19
ATOM     19  O   UNL A   1      42.734  27.545  24.306  1.00  0.00    -0.507 OA
ATOM     20  H   UNL A   1      42.910  26.632  24.194  1.00  0.00     0.293 HD
ENDBRANCH  15  19
ENDBRANCH  12  13
ENDBRANCH  10  11
ENDBRANCH   3   5
ENDBRANCH   2   3
ENDBRANCH   1   2
BRANCH   1  21
ATOM     21  C   UNL A   1      40.032  21.075  26.329  1.00  0.00     0.275 C 
BRANCH  21  22
ATOM     22  O   UNL A   1      40.109  22.393  25.760  1.00  0.00    -0.458 OA
BRANCH  22  23
ATOM     23  C   UNL A   1      39.072  23.211  26.081  1.00  0.00     0.338 C 
ATOM     24  O   UNL A   1      37.892  23.001  25.851  1.00  0.00    -0.246 OA
BRANCH  23  25
ATOM     25  C   UNL A   1      39.534  24.388  26.857  1.00  0.00     0.060 A 
ATOM     26  C   UNL A   1      39.053  24.527  28.166  1.00  0.00     0.016 A 
ATOM     27  C   UNL A   1      40.426  25.338  26.348  1.00  0.00     0.016 A 
ATOM     28  C   UNL A   1      39.442  25.613  28.955  1.00  0.00     0.010 A 
ATOM     29  C   UNL A   1      40.828  26.420  27.149  1.00  0.00     0.010 A 
ATOM     30  C   UNL A   1      40.323  26.580  28.453  1.00  0.00    -0.014 A 
BRANCH  30  31
ATOM     31  C   UNL A   1      40.620  27.797  29.259  1.00  0.00     0.031 A 
ATOM     32  C   UNL A   1      41.933  27.901  29.988  1.00  0.00     0.074 A 
ATOM     33  C   UNL A   1      39.776  28.847  29.305  1.00  0.00     0.049 A 
ATOM     34  N   UNL A   1      42.438  28.923  30.635  1.00  0.00    -0.248 NA
ATOM     35  C   UNL A   1      42.804  26.717  29.959  1.00  0.00     0.031 C 
ATOM     36  C   UNL A   1      38.496  28.946  28.612  1.00  0.00     0.029 A 
ATOM     37  N   UNL A   1      39.878  30.041  29.983  1.00  0.00    -0.354 N 
ATOM     38  C   UNL A   1      43.712  28.533  31.018  1.00  0.00     0.074 A 
ATOM     39  C   UNL A   1      43.862  27.146  30.631  1.00  0.00     0.031 C 
ATOM     40  C   UNL A   1      37.904  30.105  28.951  1.00  0.00     0.029 A 
ATOM     41  C   UNL A   1      38.761  30.832  29.879  1.00  0.00     0.049 A 
ATOM     42  H   UNL A   1      40.677  30.302  30.496  1.00  0.00     0.167 HD
ATOM     43  C   UNL A   1      44.694  29.277  31.579  1.00  0.00     0.037 A 
ATOM     44  C   UNL A   1      38.460  32.008  30.460  1.00  0.00     0.037 A 
ATOM     45  C   UNL A   1      44.560  30.644  32.005  1.00  0.00     0.049 A 
ATOM     46  C   UNL A   1      39.501  32.750  31.247  1.00  0.00     0.074 A 
ATOM     47  C   UNL A   1      45.521  31.478  32.551  1.00  0.00     0.029 A 
ATOM     48  N   UNL A   1      43.383  31.375  31.958  1.00  0.00    -0.354 N 
ATOM     49  N   UNL A   1      40.734  32.406  31.516  1.00  0.00    -0.248 NA
ATOM     50  C   UNL A   1      39.122  34.077  31.755  1.00  0.00     0.031 C 
ATOM     51  C   UNL A   1      44.915  32.695  32.882  1.00  0.00     0.029 A 
ATOM     52  C   UNL A   1      43.586  32.637  32.497  1.00  0.00     0.049 A 
ATOM     53  H   UNL A   1      42.529  31.047  31.596  1.00  0.00     0.167 HD
ATOM     54  C   UNL A   1      41.297  33.495  32.169  1.00  0.00     0.074 A 
ATOM     55  C   UNL A   1      40.264  34.504  32.271  1.00  0.00     0.031 C 
ATOM     56  C   UNL A   1      42.568  33.648  32.610  1.00  0.00     0.037 A 
BRANCH  43  57
ATOM     57  C   UNL A   1      46.035  28.624  31.727  1.00  0.00     0.064 A 
ATOM     58  C   UNL A   1      47.027  28.792  30.747  1.00  0.00     0.173 A 
ATOM     59  C   UNL A   1      46.349  27.867  32.862  1.00  0.00     0.173 A 
ATOM     60  F   UNL A   1      46.767  29.500  29.638  1.00  0.00    -0.203 F 
ATOM     61  C   UNL A   1      48.280  28.208  30.892  1.00  0.00     0.198 A 
ATOM     62  C   UNL A   1      47.613  27.303  33.014  1.00  0.00     0.198 A 
ATOM     63  F   UNL A   1      45.435  27.681  33.826  1.00  0.00    -0.203 F 
ATOM     64  F   UNL A   1      49.200  28.351  29.928  1.00  0.00    -0.200 F 
ATOM     65  C   UNL A   1      48.575  27.470  32.028  1.00  0.00     0.200 A 
ATOM     66  F   UNL A   1      47.900  26.598  34.117  1.00  0.00    -0.200 F 
ATOM     67  F   UNL A   1      49.785  26.913  32.171  1.00  0.00    -0.200 F 
ENDBRANCH  43  57
BRANCH  44  68
ATOM     68  C   UNL A   1      37.097  32.578  30.335  1.00  0.00     0.064 A 
ATOM     69  C   UNL A   1      36.748  33.438  29.287  1.00  0.00     0.173 A 
ATOM     70  C   UNL A   1      36.139  32.328  31.329  1.00  0.00     0.173 A 
ATOM     71  F   UNL A   1      37.648  33.737  28.341  1.00  0.00    -0.203 F 
ATOM     72  C   UNL A   1      35.490  34.037  29.243  1.00  0.00     0.198 A 
ATOM     73  C   UNL A   1      34.878  32.915  31.275  1.00  0.00     0.198 A 
ATOM     74  F   UNL A   1      36.430  31.507  32.350  1.00  0.00    -0.203 F 
ATOM     75  F   UNL A   1      35.191  34.889  28.254  1.00  0.00    -0.200 F 
ATOM     76  C   UNL A   1      34.555  33.773  30.235  1.00  0.00     0.200 A 
ATOM     77  F   UNL A   1      33.975  32.644  32.227  1.00  0.00    -0.200 F 
ATOM     78  F   UNL A   1      33.347  34.350  30.192  1.00  0.00    -0.200 F 
ENDBRANCH  44  68
BRANCH  56  79
ATOM     79  C   UNL A   1      42.936  34.979  33.198  1.00  0.00     0.064 A 
ATOM     80  C   UNL A   1      42.819  35.241  34.571  1.00  0.00     0.173 A 
ATOM     81  C   UNL A   1      43.402  36.013  32.371  1.00  0.00     0.173 A 
ATOM     82  F   UNL A   1      42.358  34.296  35.403  1.00  0.00    -0.203 F 
ATOM     83  C   UNL A   1      43.124  36.498  35.089  1.00  0.00     0.198 A 
ATOM     84  C   UNL A   1      43.734  37.259  32.896  1.00  0.00     0.198 A 
ATOM     85  F   UNL A   1      43.531  35.817  31.050  1.00  0.00    -0.203 F 
ATOM     86  F   UNL A   1      42.945  36.745  36.394  1.00  0.00    -0.200 F 
ATOM     87  C   UNL A   1      43.584  37.504  34.252  1.00  0.00     0.200 A 
ATOM     88  F   UNL A   1      44.187  38.226  32.086  1.00  0.00    -0.200 F 
ATOM     89  F   UNL A   1      43.871  38.715  34.751  1.00  0.00    -0.200 F 
ENDBRANCH  56  79
ENDBRANCH  30  31
ENDBRANCH  23  25
ENDBRANCH  22  23
ENDBRANCH  21  22
ENDBRANCH   1  21
TORSDOF 14
ENDMDL
MODEL 3
REMARK VINA RESULT:      -9.7      3.994      7.031
REMARK SMILES O=C(OCCOC(=O)c1ccc(-c2c3nc(c(-c4c(F)c(F)c(F)c(F)c4F)c4ccc([nH]4)c(-c4c(F)c(F)c(F)c(F)c4F)c4nc(c(-c5c(F)c(F)c(F)c(F)c5F)c5ccc2[nH]5)C=C4)C=C3)cc1)c1ccc(/N=C\c2ccccc2O)cc1
REMARK SMILES IDX 4 1 3 2 2 3 1 4 72 5 73 6 86 7 74 8 85 9 75 10 76 11 77 12
REMARK SMILES IDX 78 13 79 14 83 15 80 16 82 17 81 18 84 19 5 21 6 22 7 23
REMARK SMILES IDX 8 24 9 25 10 26 71 27 11 28 70 29 12 30 13 31 14 32 64 33
REMARK SMILES IDX 15 34 69 35 63 36 65 37 16 38 68 39 62 40 61 41 17 43 49 44
REMARK SMILES IDX 29 45 48 46 30 47 33 48 47 49 66 50 31 51 32 52 46 54 67 55
REMARK SMILES IDX 34 56 18 57 19 58 27 59 20 60 21 61 25 62 28 63 22 64 23 65
REMARK SMILES IDX 26 66 24 67 50 68 51 69 59 70 52 71 53 72 57 73 60 74 54 75
REMARK SMILES IDX 55 76 58 77 56 78 35 79 36 80 44 81 37 82 38 83 42 84 45 85
REMARK SMILES IDX 39 86 40 87 43 88 41 89
REMARK H PARENT 84 20 65 42 33 53
REMARK Flexibility Score: inf
ROOT
ATOM      1  C   UNL A   1      32.055  31.332  26.691  1.00  0.00     0.275 C 
ENDROOT
BRANCH   1   2
ATOM      2  O   UNL A   1      33.373  30.821  26.965  1.00  0.00    -0.458 OA
BRANCH   2   3
ATOM      3  C   UNL A   1      33.783  29.550  27.176  1.00  0.00     0.338 C 
ATOM      4  O   UNL A   1      34.728  29.340  27.934  1.00  0.00    -0.246 OA
BRANCH   3   5
ATOM      5  C   UNL A   1      33.227  28.381  26.436  1.00  0.00     0.060 A 
ATOM      6  C   UNL A   1      33.757  27.827  25.270  1.00  0.00     0.018 A 
ATOM      7  C   UNL A   1      32.029  27.848  26.937  1.00  0.00     0.018 A 
ATOM      8  C   UNL A   1      33.127  26.743  24.643  1.00  0.00     0.029 A 
ATOM      9  C   UNL A   1      31.405  26.769  26.304  1.00  0.00     0.029 A 
ATOM     10  C   UNL A   1      31.918  26.241  25.122  1.00  0.00     0.063 A 
BRANCH  10  11
ATOM     11  N   UNL A   1      31.248  25.275  24.357  1.00  0.00    -0.256 NA
ATOM     12  C   UNL A   1      30.226  25.570  23.603  1.00  0.00     0.123 C 
BRANCH  12  13
ATOM     13  C   UNL A   1      29.603  26.890  23.364  1.00  0.00     0.035 A 
ATOM     14  C   UNL A   1      30.424  27.866  22.793  1.00  0.00     0.013 A 
ATOM     15  C   UNL A   1      28.250  27.168  23.589  1.00  0.00     0.124 A 
ATOM     16  C   UNL A   1      29.866  29.075  22.376  1.00  0.00     0.001 A 
ATOM     17  C   UNL A   1      27.693  28.358  23.128  1.00  0.00     0.047 A 
ATOM     18  C   UNL A   1      28.499  29.307  22.504  1.00  0.00     0.004 A 
BRANCH  15  19
ATOM     19  O   UNL A   1      27.400  26.328  24.251  1.00  0.00    -0.507 OA
ATOM     20  H   UNL A   1      27.724  25.532  24.623  1.00  0.00     0.293 HD
ENDBRANCH  15  19
ENDBRANCH  12  13
ENDBRANCH  10  11
ENDBRANCH   3   5
ENDBRANCH   2   3
ENDBRANCH   1   2
BRANCH   1  21
ATOM     21  C   UNL A   1      31.778  32.727  27.251  1.00  0.00     0.275 C 
BRANCH  21  22
ATOM     22  O   UNL A   1      32.918  33.597  27.167  1.00  0.00    -0.458 OA
BRANCH  22  23
ATOM     23  C   UNL A   1      33.354  34.078  28.362  1.00  0.00     0.338 C 
ATOM     24  O   UNL A   1      32.793  34.915  29.049  1.00  0.00    -0.246 OA
BRANCH  23  25
ATOM     25  C   UNL A   1      34.587  33.380  28.807  1.00  0.00     0.060 A 
ATOM     26  C   UNL A   1      34.445  32.380  29.778  1.00  0.00     0.016 A 
ATOM     27  C   UNL A   1      35.856  33.665  28.292  1.00  0.00     0.016 A 
ATOM     28  C   UNL A   1      35.562  31.683  30.249  1.00  0.00     0.010 A 
ATOM     29  C   UNL A   1      36.975  32.952  28.754  1.00  0.00     0.010 A 
ATOM     30  C   UNL A   1      36.841  31.969  29.753  1.00  0.00    -0.014 A 
BRANCH  30  31
ATOM     31  C   UNL A   1      38.032  31.310  30.360  1.00  0.00     0.031 A 
ATOM     32  C   UNL A   1      38.488  31.725  31.734  1.00  0.00     0.074 A 
ATOM     33  C   UNL A   1      38.681  30.302  29.746  1.00  0.00     0.049 A 
ATOM     34  N   UNL A   1      39.417  31.192  32.490  1.00  0.00    -0.248 NA
ATOM     35  C   UNL A   1      37.791  32.864  32.349  1.00  0.00     0.031 C 
ATOM     36  C   UNL A   1      38.339  29.729  28.449  1.00  0.00     0.029 A 
ATOM     37  N   UNL A   1      39.783  29.579  30.146  1.00  0.00    -0.354 N 
ATOM     38  C   UNL A   1      39.358  31.875  33.694  1.00  0.00     0.074 A 
ATOM     39  C   UNL A   1      38.384  32.934  33.532  1.00  0.00     0.031 C 
ATOM     40  C   UNL A   1      39.250  28.792  28.131  1.00  0.00     0.029 A 
ATOM     41  C   UNL A   1      40.234  28.692  29.201  1.00  0.00     0.049 A 
ATOM     42  H   UNL A   1      40.208  29.689  31.028  1.00  0.00     0.167 HD
ATOM     43  C   UNL A   1      40.004  31.608  34.854  1.00  0.00     0.037 A 
ATOM     44  C   UNL A   1      41.314  27.888  29.194  1.00  0.00     0.037 A 
ATOM     45  C   UNL A   1      41.002  30.587  35.032  1.00  0.00     0.049 A 
ATOM     46  C   UNL A   1      42.148  27.735  30.433  1.00  0.00     0.074 A 
ATOM     47  C   UNL A   1      41.678  30.231  36.187  1.00  0.00     0.029 A 
ATOM     48  N   UNL A   1      41.488  29.771  34.023  1.00  0.00    -0.354 N 
ATOM     49  N   UNL A   1      42.018  28.320  31.596  1.00  0.00    -0.248 NA
ATOM     50  C   UNL A   1      43.244  26.755  30.373  1.00  0.00     0.031 C 
ATOM     51  C   UNL A   1      42.609  29.236  35.866  1.00  0.00     0.029 A 
ATOM     52  C   UNL A   1      42.479  28.939  34.520  1.00  0.00     0.049 A 
ATOM     53  H   UNL A   1      41.176  29.782  33.089  1.00  0.00     0.167 HD
ATOM     54  C   UNL A   1      42.969  27.738  32.422  1.00  0.00     0.074 A 
ATOM     55  C   UNL A   1      43.684  26.766  31.622  1.00  0.00     0.031 C 
ATOM     56  C   UNL A   1      43.200  27.972  33.736  1.00  0.00     0.037 A 
BRANCH  43  57
ATOM     57  C   UNL A   1      39.612  32.423  36.049  1.00  0.00     0.064 A 
ATOM     58  C   UNL A   1      40.300  33.605  36.368  1.00  0.00     0.173 A 
ATOM     59  C   UNL A   1      38.527  32.053  36.851  1.00  0.00     0.173 A 
ATOM     60  F   UNL A   1      41.354  33.993  35.633  1.00  0.00    -0.203 F 
ATOM     61  C   UNL A   1      39.926  34.377  37.462  1.00  0.00     0.198 A 
ATOM     62  C   UNL A   1      38.140  32.841  37.932  1.00  0.00     0.198 A 
ATOM     63  F   UNL A   1      37.837  30.934  36.584  1.00  0.00    -0.203 F 
ATOM     64  F   UNL A   1      40.618  35.482  37.770  1.00  0.00    -0.200 F 
ATOM     65  C   UNL A   1      38.842  33.998  38.239  1.00  0.00     0.200 A 
ATOM     66  F   UNL A   1      37.086  32.480  38.677  1.00  0.00    -0.200 F 
ATOM     67  F   UNL A   1      38.476  34.746  39.289  1.00  0.00    -0.200 F 
ENDBRANCH  43  57
BRANCH  44  68
ATOM     68  C   UNL A   1      41.694  27.154  27.964  1.00  0.00     0.064 A 
ATOM     69  C   UNL A   1      41.301  25.830  27.741  1.00  0.00     0.173 A 
ATOM     70  C   UNL A   1      42.540  27.758  27.021  1.00  0.00     0.173 A 
ATOM     71  F   UNL A   1      40.529  25.203  28.639  1.00  0.00    -0.203 F 
ATOM     72  C   UNL A   1      41.749  25.128  26.623  1.00  0.00     0.198 A 
ATOM     73  C   UNL A   1      42.974  27.061  25.897  1.00  0.00     0.198 A 
ATOM     74  F   UNL A   1      42.938  29.027  27.193  1.00  0.00    -0.203 F 
ATOM     75  F   UNL A   1      41.394  23.849  26.451  1.00  0.00    -0.200 F 
ATOM     76  C   UNL A   1      42.583  25.745  25.700  1.00  0.00     0.200 A 
ATOM     77  F   UNL A   1      43.766  27.667  25.002  1.00  0.00    -0.200 F 
ATOM     78  F   UNL A   1      43.014  25.071  24.626  1.00  0.00    -0.200 F 
ENDBRANCH  44  68
BRANCH  56  79
ATOM     79  C   UNL A   1      44.236  27.122  34.413  1.00  0.00     0.064 A 
ATOM     80  C   UNL A   1      45.576  27.524  34.514  1.00  0.00     0.173 A 
ATOM     81  C   UNL A   1      43.883  25.878  34.959  1.00  0.00     0.173 A 
ATOM     82  F   UNL A   1      45.971  28.693  33.989  1.00  0.00    -0.203 F 
ATOM     83  C   UNL A   1      46.529  26.700  35.107  1.00  0.00     0.198 A 
ATOM     84  C   UNL A   1      44.832  25.069  35.578  1.00  0.00     0.198 A 
ATOM     85  F   UNL A   1      42.616  25.443  34.889  1.00  0.00    -0.203 F 
ATOM     86  F   UNL A   1      47.814  27.077  35.136  1.00  0.00    -0.200 F 
ATOM     87  C   UNL A   1      46.156  25.475  35.642  1.00  0.00     0.200 A 
ATOM     88  F   UNL A   1      44.467  23.891  36.101  1.00  0.00    -0.200 F 
ATOM     89  F   UNL A   1      47.076  24.681  36.207  1.00  0.00    -0.200 F 
ENDBRANCH  56  79
ENDBRANCH  30  31
ENDBRANCH  23  25
ENDBRANCH  22  23
ENDBRANCH  21  22
ENDBRANCH   1  21
TORSDOF 14
ENDMDL
