MODEL 1
REMARK VINA RESULT:      -9.1      0.000      0.000
REMARK SMILES NS(=O)(=O)c1ccc(-n2nc(NC(=O)NCCCCCCCCCCC(=O)OCCOC(=O)c3ccc(-c4c5nc(c(-c6c(F)c(F)c(F)c(F)c6F)c6ccc([nH]6)c(-c6c(F)c(F)c(F)c(F)c6F)c6nc(c(-c7c(F)c(F)c(F)c(F)c7F)c7ccc4[nH]7)C=C6)C=C5)cc3)cc2-c2ccccc2)cc1
REMARK SMILES IDX 22 1 21 2 20 3 19 4 18 5 17 6 16 7 15 8 12 9 13 10 14 12
REMARK SMILES IDX 11 14 9 15 10 16 98 17 97 18 8 19 5 20 6 21 106 22 7 23
REMARK SMILES IDX 105 24 2 25 3 26 4 27 1 28 99 31 100 32 104 33 101 34 103 35
REMARK SMILES IDX 102 36 23 37 24 38 25 39 26 40 27 41 28 42 29 43 30 44 31 45
REMARK SMILES IDX 32 46 33 47 34 48 35 49 96 50 36 51 95 52 37 53 38 54 39 55
REMARK SMILES IDX 89 56 40 57 94 58 88 59 90 60 41 61 93 62 87 63 86 64 42 66
REMARK SMILES IDX 74 67 54 68 73 69 55 70 58 71 72 72 91 73 56 74 57 75 71 77
REMARK SMILES IDX 92 78 59 79 43 80 44 81 52 82 45 83 46 84 50 85 53 86 47 87
REMARK SMILES IDX 48 88 51 89 49 90 75 91 76 92 84 93 77 94 78 95 82 96 85 97
REMARK SMILES IDX 79 98 80 99 83 100 81 101 60 102 61 103 69 104 62 105 63 106
REMARK SMILES IDX 67 107 70 108 64 109 65 110 68 111 66 112
REMARK H PARENT 12 11 15 13 1 29 1 30 90 65 58 76
REMARK Flexibility Score: inf
ROOT
ATOM      1  C   UNL A   1      41.550  28.635  32.792  1.00  0.00     0.000 C 
ENDROOT
BRANCH   1   2
ATOM      2  C   UNL A   1      40.495  28.641  33.894  1.00  0.00     0.000 C 
BRANCH   2   3
ATOM      3  C   UNL A   1      40.501  29.926  34.723  1.00  0.00     0.000 C 
BRANCH   3   4
ATOM      4  C   UNL A   1      39.144  30.640  34.788  1.00  0.00     0.000 C 
BRANCH   4   5
ATOM      5  C   UNL A   1      38.899  31.646  33.656  1.00  0.00     0.002 C 
BRANCH   5   6
ATOM      6  C   UNL A   1      38.038  31.124  32.506  1.00  0.00     0.021 C 
BRANCH   6   7
ATOM      7  C   UNL A   1      38.404  31.683  31.141  1.00  0.00     0.117 C 
BRANCH   7   8
ATOM      8  N   UNL A   1      39.730  31.336  30.681  1.00  0.00    -0.338 N 
ATOM      9  N   UNL A   1      39.211  30.013  28.774  1.00  0.00    -0.291 N 
ATOM     10  C   UNL A   1      40.098  30.551  29.643  1.00  0.00     0.320 C 
ATOM     11  H   UNL A   1      39.526  29.199  28.319  1.00  0.00     0.173 HD
ATOM     12  O   UNL A   1      41.285  30.219  29.564  1.00  0.00    -0.248 OA
ATOM     13  H   UNL A   1      40.472  31.727  31.197  1.00  0.00     0.165 HD
BRANCH   9  14
ATOM     14  C   UNL A   1      37.942  30.413  28.417  1.00  0.00     0.157 A 
ATOM     15  N   UNL A   1      36.159  31.551  28.383  1.00  0.00    -0.231 N 
ATOM     16  N   UNL A   1      37.503  31.672  28.413  1.00  0.00    -0.149 NA
ATOM     17  C   UNL A   1      35.777  30.303  27.906  1.00  0.00     0.076 A 
ATOM     18  C   UNL A   1      36.928  29.537  27.967  1.00  0.00     0.078 A 
BRANCH  15  19
ATOM     19  C   UNL A   1      35.333  32.604  28.864  1.00  0.00     0.065 A 
ATOM     20  C   UNL A   1      33.893  34.773  29.853  1.00  0.00     0.082 A 
ATOM     21  C   UNL A   1      34.221  34.726  28.496  1.00  0.00     0.024 A 
ATOM     22  C   UNL A   1      34.236  33.720  30.709  1.00  0.00     0.024 A 
ATOM     23  C   UNL A   1      34.939  33.639  28.002  1.00  0.00     0.030 A 
ATOM     24  C   UNL A   1      34.935  32.618  30.207  1.00  0.00     0.030 A 
BRANCH  20  25
ATOM     25  S   UNL A   1      33.100  36.232  30.460  1.00  0.00     0.238 S 
ATOM     26  O   UNL A   1      31.813  35.868  30.989  1.00  0.00    -0.207 OA
ATOM     27  O   UNL A   1      33.278  37.286  29.481  1.00  0.00    -0.207 OA
BRANCH  25  28
ATOM     28  N   UNL A   1      34.035  36.704  31.774  1.00  0.00    -0.225 NA
ATOM     29  H   UNL A   1      34.429  37.628  31.596  1.00  0.00     0.137 HD
ATOM     30  H   UNL A   1      34.790  36.032  31.912  1.00  0.00     0.137 HD
ENDBRANCH  25  28
ENDBRANCH  20  25
ENDBRANCH  15  19
BRANCH  17  31
ATOM     31  C   UNL A   1      34.423  29.984  27.456  1.00  0.00     0.000 A 
ATOM     32  C   UNL A   1      33.524  31.027  27.176  1.00  0.00     0.010 A 
ATOM     33  C   UNL A   1      33.978  28.663  27.368  1.00  0.00     0.010 A 
ATOM     34  C   UNL A   1      32.191  30.759  26.874  1.00  0.00     0.001 A 
ATOM     35  C   UNL A   1      32.644  28.395  27.051  1.00  0.00     0.001 A 
ATOM     36  C   UNL A   1      31.750  29.441  26.817  1.00  0.00     0.000 A 
ENDBRANCH  17  31
ENDBRANCH   9  14
ENDBRANCH   7   8
ENDBRANCH   6   7
ENDBRANCH   5   6
ENDBRANCH   4   5
ENDBRANCH   3   4
ENDBRANCH   2   3
ENDBRANCH   1   2
BRANCH   1  37
ATOM     37  C   UNL A   1      42.836  27.939  33.229  1.00  0.00     0.001 C 
BRANCH  37  38
ATOM     38  C   UNL A   1      42.588  26.840  34.267  1.00  0.00     0.012 C 
BRANCH  38  39
ATOM     39  C   UNL A   1      43.383  26.946  35.574  1.00  0.00     0.123 C 
BRANCH  39  40
ATOM     40  C   UNL A   1      43.419  25.734  36.487  1.00  0.00     0.305 C 
ATOM     41  O   UNL A   1      42.530  25.486  37.292  1.00  0.00    -0.252 OA
BRANCH  40  42
ATOM     42  O   UNL A   1      44.508  24.950  36.280  1.00  0.00    -0.462 OA
BRANCH  42  43
ATOM     43  C   UNL A   1      45.146  24.370  37.434  1.00  0.00     0.274 C 
BRANCH  43  44
ATOM     44  C   UNL A   1      46.508  23.784  37.081  1.00  0.00     0.275 C 
BRANCH  44  45
ATOM     45  O   UNL A   1      46.883  24.174  35.762  1.00  0.00    -0.458 OA
BRANCH  45  46
ATOM     46  C   UNL A   1      47.975  24.962  35.710  1.00  0.00     0.338 C 
ATOM     47  O   UNL A   1      48.820  25.117  36.573  1.00  0.00    -0.246 OA
BRANCH  46  48
ATOM     48  C   UNL A   1      47.919  25.810  34.525  1.00  0.00     0.060 A 
ATOM     49  C   UNL A   1      46.921  26.790  34.465  1.00  0.00     0.016 A 
ATOM     50  C   UNL A   1      48.574  25.328  33.389  1.00  0.00     0.016 A 
ATOM     51  C   UNL A   1      46.428  27.142  33.228  1.00  0.00     0.010 A 
ATOM     52  C   UNL A   1      48.057  25.646  32.165  1.00  0.00     0.010 A 
ATOM     53  C   UNL A   1      46.943  26.484  32.108  1.00  0.00    -0.014 A 
BRANCH  53  54
ATOM     54  C   UNL A   1      46.373  26.752  30.806  1.00  0.00     0.031 A 
ATOM     55  C   UNL A   1      45.464  25.670  30.359  1.00  0.00     0.074 A 
ATOM     56  C   UNL A   1      46.525  27.961  30.229  1.00  0.00     0.049 A 
ATOM     57  N   UNL A   1      45.552  24.948  29.293  1.00  0.00    -0.248 NA
ATOM     58  C   UNL A   1      44.424  25.215  31.303  1.00  0.00     0.031 C 
ATOM     59  C   UNL A   1      47.190  29.144  30.790  1.00  0.00     0.029 A 
ATOM     60  N   UNL A   1      46.005  28.434  29.066  1.00  0.00    -0.354 N 
ATOM     61  C   UNL A   1      44.455  24.093  29.336  1.00  0.00     0.074 A 
ATOM     62  C   UNL A   1      43.936  24.149  30.672  1.00  0.00     0.031 C 
ATOM     63  C   UNL A   1      46.826  30.239  30.083  1.00  0.00     0.029 A 
ATOM     64  C   UNL A   1      46.006  29.821  28.962  1.00  0.00     0.049 A 
ATOM     65  H   UNL A   1      45.658  27.845  28.358  1.00  0.00     0.167 HD
ATOM     66  C   UNL A   1      43.879  23.652  28.186  1.00  0.00     0.037 A 
ATOM     67  C   UNL A   1      45.294  30.552  28.066  1.00  0.00     0.037 A 
ATOM     68  C   UNL A   1      44.793  23.771  27.079  1.00  0.00     0.049 A 
ATOM     69  C   UNL A   1      44.875  29.627  26.979  1.00  0.00     0.074 A 
ATOM     70  C   UNL A   1      46.028  23.232  26.776  1.00  0.00     0.029 A 
ATOM     71  N   UNL A   1      44.635  24.849  26.245  1.00  0.00    -0.354 N 
ATOM     72  N   UNL A   1      45.704  29.076  26.137  1.00  0.00    -0.248 NA
ATOM     73  C   UNL A   1      43.596  28.950  27.131  1.00  0.00     0.031 C 
ATOM     74  C   UNL A   1      46.733  24.272  26.100  1.00  0.00     0.029 A 
ATOM     75  C   UNL A   1      45.873  25.363  25.969  1.00  0.00     0.049 A 
ATOM     76  H   UNL A   1      43.779  25.193  25.903  1.00  0.00     0.167 HD
ATOM     77  C   UNL A   1      45.244  27.775  25.993  1.00  0.00     0.074 A 
ATOM     78  C   UNL A   1      43.898  27.781  26.560  1.00  0.00     0.031 C 
ATOM     79  C   UNL A   1      46.111  26.761  25.701  1.00  0.00     0.037 A 
BRANCH  66  80
ATOM     80  C   UNL A   1      42.383  23.550  27.987  1.00  0.00     0.064 A 
ATOM     81  C   UNL A   1      41.865  22.379  27.399  1.00  0.00     0.173 A 
ATOM     82  C   UNL A   1      41.490  24.646  28.040  1.00  0.00     0.173 A 
ATOM     83  F   UNL A   1      42.623  21.278  27.288  1.00  0.00    -0.203 F 
ATOM     84  C   UNL A   1      40.597  22.347  26.814  1.00  0.00     0.198 A 
ATOM     85  C   UNL A   1      40.206  24.591  27.504  1.00  0.00     0.198 A 
ATOM     86  F   UNL A   1      41.847  25.849  28.503  1.00  0.00    -0.203 F 
ATOM     87  F   UNL A   1      40.207  21.257  26.139  1.00  0.00    -0.200 F 
ATOM     88  C   UNL A   1      39.774  23.455  26.858  1.00  0.00     0.200 A 
ATOM     89  F   UNL A   1      39.430  25.683  27.544  1.00  0.00    -0.200 F 
ATOM     90  F   UNL A   1      38.588  23.450  26.235  1.00  0.00    -0.200 F 
ENDBRANCH  66  80
BRANCH  67  91
ATOM     91  C   UNL A   1      44.654  31.879  28.258  1.00  0.00     0.064 A 
ATOM     92  C   UNL A   1      44.128  32.257  29.504  1.00  0.00     0.173 A 
ATOM     93  C   UNL A   1      44.795  32.906  27.304  1.00  0.00     0.173 A 
ATOM     94  F   UNL A   1      44.007  31.353  30.487  1.00  0.00    -0.203 F 
ATOM     95  C   UNL A   1      43.783  33.585  29.785  1.00  0.00     0.198 A 
ATOM     96  C   UNL A   1      44.444  34.229  27.583  1.00  0.00     0.198 A 
ATOM     97  F   UNL A   1      45.368  32.669  26.115  1.00  0.00    -0.203 F 
ATOM     98  F   UNL A   1      43.342  33.918  31.007  1.00  0.00    -0.200 F 
ATOM     99  C   UNL A   1      43.951  34.571  28.828  1.00  0.00     0.200 A 
ATOM    100  F   UNL A   1      44.650  35.179  26.659  1.00  0.00    -0.200 F 
ATOM    101  F   UNL A   1      43.679  35.852  29.115  1.00  0.00    -0.200 F 
ENDBRANCH  67  91
BRANCH  79 102
ATOM    102  C   UNL A   1      47.500  27.139  25.267  1.00  0.00     0.064 A 
ATOM    103  C   UNL A   1      48.624  27.127  26.111  1.00  0.00     0.173 A 
ATOM    104  C   UNL A   1      47.719  27.384  23.905  1.00  0.00     0.173 A 
ATOM    105  F   UNL A   1      48.511  26.802  27.405  1.00  0.00    -0.203 F 
ATOM    106  C   UNL A   1      49.900  27.393  25.619  1.00  0.00     0.198 A 
ATOM    107  C   UNL A   1      48.998  27.610  23.410  1.00  0.00     0.198 A 
ATOM    108  F   UNL A   1      46.690  27.352  23.044  1.00  0.00    -0.203 F 
ATOM    109  F   UNL A   1      50.957  27.387  26.446  1.00  0.00    -0.200 F 
ATOM    110  C   UNL A   1      50.087  27.626  24.267  1.00  0.00     0.200 A 
ATOM    111  F   UNL A   1      49.180  27.783  22.093  1.00  0.00    -0.200 F 
ATOM    112  F   UNL A   1      51.320  27.837  23.783  1.00  0.00    -0.200 F 
ENDBRANCH  79 102
ENDBRANCH  53  54
ENDBRANCH  46  48
ENDBRANCH  45  46
ENDBRANCH  44  45
ENDBRANCH  43  44
ENDBRANCH  42  43
ENDBRANCH  40  42
ENDBRANCH  39  40
ENDBRANCH  38  39
ENDBRANCH  37  38
ENDBRANCH   1  37
TORSDOF 26
ENDMDL
MODEL 2
REMARK VINA RESULT:      -9.0      6.047     12.271
REMARK SMILES NS(=O)(=O)c1ccc(-n2nc(NC(=O)NCCCCCCCCCCC(=O)OCCOC(=O)c3ccc(-c4c5nc(c(-c6c(F)c(F)c(F)c(F)c6F)c6ccc([nH]6)c(-c6c(F)c(F)c(F)c(F)c6F)c6nc(c(-c7c(F)c(F)c(F)c(F)c7F)c7ccc4[nH]7)C=C6)C=C5)cc3)cc2-c2ccccc2)cc1
REMARK SMILES IDX 22 1 21 2 20 3 19 4 18 5 17 6 16 7 15 8 12 9 13 10 14 12
REMARK SMILES IDX 11 14 9 15 10 16 98 17 97 18 8 19 5 20 6 21 106 22 7 23
REMARK SMILES IDX 105 24 2 25 3 26 4 27 1 28 99 31 100 32 104 33 101 34 103 35
REMARK SMILES IDX 102 36 23 37 24 38 25 39 26 40 27 41 28 42 29 43 30 44 31 45
REMARK SMILES IDX 32 46 33 47 34 48 35 49 96 50 36 51 95 52 37 53 38 54 39 55
REMARK SMILES IDX 89 56 40 57 94 58 88 59 90 60 41 61 93 62 87 63 86 64 42 66
REMARK SMILES IDX 74 67 54 68 73 69 55 70 58 71 72 72 91 73 56 74 57 75 71 77
REMARK SMILES IDX 92 78 59 79 43 80 44 81 52 82 45 83 46 84 50 85 53 86 47 87
REMARK SMILES IDX 48 88 51 89 49 90 75 91 76 92 84 93 77 94 78 95 82 96 85 97
REMARK SMILES IDX 79 98 80 99 83 100 81 101 60 102 61 103 69 104 62 105 63 106
REMARK SMILES IDX 67 107 70 108 64 109 65 110 68 111 66 112
REMARK H PARENT 12 11 15 13 1 29 1 30 90 65 58 76
REMARK Flexibility Score: inf
ROOT
ATOM      1  C   UNL A   1      46.495  20.743  35.298  1.00  0.00     0.000 C 
ENDROOT
BRANCH   1   2
ATOM      2  C   UNL A   1      45.815  19.444  34.875  1.00  0.00     0.000 C 
BRANCH   2   3
ATOM      3  C   UNL A   1      45.259  18.647  36.056  1.00  0.00     0.000 C 
BRANCH   3   4
ATOM      4  C   UNL A   1      45.978  18.909  37.386  1.00  0.00     0.000 C 
BRANCH   4   5
ATOM      5  C   UNL A   1      45.521  18.014  38.545  1.00  0.00     0.002 C 
BRANCH   5   6
ATOM      6  C   UNL A   1      44.498  16.943  38.167  1.00  0.00     0.021 C 
BRANCH   6   7
ATOM      7  C   UNL A   1      44.266  15.888  39.235  1.00  0.00     0.117 C 
BRANCH   7   8
ATOM      8  N   UNL A   1      42.896  15.443  39.359  1.00  0.00    -0.338 N 
ATOM      9  N   UNL A   1      42.796  14.942  41.682  1.00  0.00    -0.291 N 
ATOM     10  C   UNL A   1      42.242  14.977  40.447  1.00  0.00     0.320 C 
ATOM     11  H   UNL A   1      42.404  14.271  42.287  1.00  0.00     0.173 HD
ATOM     12  O   UNL A   1      41.138  14.451  40.274  1.00  0.00    -0.248 OA
ATOM     13  H   UNL A   1      42.362  15.486  38.533  1.00  0.00     0.165 HD
BRANCH   9  14
ATOM     14  C   UNL A   1      43.812  15.687  42.235  1.00  0.00     0.157 A 
ATOM     15  N   UNL A   1      45.488  16.974  42.355  1.00  0.00    -0.231 N 
ATOM     16  N   UNL A   1      44.302  16.820  41.730  1.00  0.00    -0.149 NA
ATOM     17  C   UNL A   1      45.530  16.246  43.539  1.00  0.00     0.076 A 
ATOM     18  C   UNL A   1      44.463  15.370  43.449  1.00  0.00     0.078 A 
BRANCH  15  19
ATOM     19  C   UNL A   1      46.519  17.752  41.759  1.00  0.00     0.065 A 
ATOM     20  C   UNL A   1      48.627  19.288  40.784  1.00  0.00     0.082 A 
ATOM     21  C   UNL A   1      48.734  17.895  40.787  1.00  0.00     0.024 A 
ATOM     22  C   UNL A   1      47.454  19.916  41.218  1.00  0.00     0.024 A 
ATOM     23  C   UNL A   1      47.678  17.127  41.272  1.00  0.00     0.030 A 
ATOM     24  C   UNL A   1      46.385  19.144  41.683  1.00  0.00     0.030 A 
BRANCH  20  25
ATOM     25  S   UNL A   1      50.042  20.223  40.285  1.00  0.00     0.238 S 
ATOM     26  O   UNL A   1      50.201  20.088  38.862  1.00  0.00    -0.207 OA
ATOM     27  O   UNL A   1      51.114  19.960  41.225  1.00  0.00    -0.207 OA
BRANCH  25  28
ATOM     28  N   UNL A   1      49.609  21.822  40.563  1.00  0.00    -0.225 NA
ATOM     29  H   UNL A   1      50.434  22.417  40.479  1.00  0.00     0.137 HD
ATOM     30  H   UNL A   1      49.220  21.911  41.502  1.00  0.00     0.137 HD
ENDBRANCH  25  28
ENDBRANCH  20  25
ENDBRANCH  15  19
BRANCH  17  31
ATOM     31  C   UNL A   1      46.529  16.455  44.586  1.00  0.00     0.000 A 
ATOM     32  C   UNL A   1      46.698  17.737  45.135  1.00  0.00     0.010 A 
ATOM     33  C   UNL A   1      47.371  15.421  45.003  1.00  0.00     0.010 A 
ATOM     34  C   UNL A   1      47.728  17.998  46.035  1.00  0.00     0.001 A 
ATOM     35  C   UNL A   1      48.394  15.682  45.918  1.00  0.00     0.001 A 
ATOM     36  C   UNL A   1      48.580  16.969  46.423  1.00  0.00     0.000 A 
ENDBRANCH  17  31
ENDBRANCH   9  14
ENDBRANCH   7   8
ENDBRANCH   6   7
ENDBRANCH   5   6
ENDBRANCH   4   5
ENDBRANCH   3   4
ENDBRANCH   2   3
ENDBRANCH   1   2
BRANCH   1  37
ATOM     37  C   UNL A   1      46.129  21.909  34.383  1.00  0.00     0.001 C 
BRANCH  37  38
ATOM     38  C   UNL A   1      45.391  23.029  35.121  1.00  0.00     0.012 C 
BRANCH  38  39
ATOM     39  C   UNL A   1      45.287  22.887  36.645  1.00  0.00     0.123 C 
BRANCH  39  40
ATOM     40  C   UNL A   1      45.780  24.037  37.504  1.00  0.00     0.305 C 
ATOM     41  O   UNL A   1      45.077  24.584  38.344  1.00  0.00    -0.252 OA
BRANCH  40  42
ATOM     42  O   UNL A   1      47.080  24.350  37.270  1.00  0.00    -0.462 OA
BRANCH  42  43
ATOM     43  C   UNL A   1      48.078  23.364  37.595  1.00  0.00     0.274 C 
BRANCH  43  44
ATOM     44  C   UNL A   1      49.116  23.234  36.486  1.00  0.00     0.275 C 
BRANCH  44  45
ATOM     45  O   UNL A   1      48.784  24.097  35.401  1.00  0.00    -0.458 OA
BRANCH  45  46
ATOM     46  C   UNL A   1      49.519  23.890  34.290  1.00  0.00     0.338 C 
ATOM     47  O   UNL A   1      50.403  23.069  34.127  1.00  0.00    -0.246 OA
BRANCH  46  48
ATOM     48  C   UNL A   1      49.265  24.952  33.324  1.00  0.00     0.060 A 
ATOM     49  C   UNL A   1      48.117  25.735  33.494  1.00  0.00     0.016 A 
ATOM     50  C   UNL A   1      49.935  24.848  32.102  1.00  0.00     0.016 A 
ATOM     51  C   UNL A   1      47.513  26.257  32.371  1.00  0.00     0.010 A 
ATOM     52  C   UNL A   1      49.314  25.331  30.985  1.00  0.00     0.010 A 
ATOM     53  C   UNL A   1      48.074  25.957  31.128  1.00  0.00    -0.014 A 
BRANCH  53  54
ATOM     54  C   UNL A   1      47.405  26.398  29.924  1.00  0.00     0.031 A 
ATOM     55  C   UNL A   1      46.277  25.511  29.553  1.00  0.00     0.074 A 
ATOM     56  C   UNL A   1      47.691  27.600  29.385  1.00  0.00     0.049 A 
ATOM     57  N   UNL A   1      46.111  24.855  28.454  1.00  0.00    -0.248 NA
ATOM     58  C   UNL A   1      45.297  25.173  30.604  1.00  0.00     0.031 C 
ATOM     59  C   UNL A   1      48.611  28.620  29.905  1.00  0.00     0.029 A 
ATOM     60  N   UNL A   1      47.122  28.226  28.322  1.00  0.00    -0.354 N 
ATOM     61  C   UNL A   1      44.896  24.191  28.602  1.00  0.00     0.074 A 
ATOM     62  C   UNL A   1      44.561  24.245  29.996  1.00  0.00     0.031 C 
ATOM     63  C   UNL A   1      48.357  29.802  29.300  1.00  0.00     0.029 A 
ATOM     64  C   UNL A   1      47.347  29.598  28.278  1.00  0.00     0.049 A 
ATOM     65  H   UNL A   1      46.596  27.750  27.640  1.00  0.00     0.167 HD
ATOM     66  C   UNL A   1      44.118  23.926  27.519  1.00  0.00     0.037 A 
ATOM     67  C   UNL A   1      46.667  30.493  27.516  1.00  0.00     0.037 A 
ATOM     68  C   UNL A   1      44.899  23.964  26.309  1.00  0.00     0.049 A 
ATOM     69  C   UNL A   1      45.968  29.722  26.454  1.00  0.00     0.074 A 
ATOM     70  C   UNL A   1      45.977  23.251  25.825  1.00  0.00     0.029 A 
ATOM     71  N   UNL A   1      44.828  25.106  25.551  1.00  0.00    -0.354 N 
ATOM     72  N   UNL A   1      46.583  29.098  25.488  1.00  0.00    -0.248 NA
ATOM     73  C   UNL A   1      44.620  29.255  26.742  1.00  0.00     0.031 C 
ATOM     74  C   UNL A   1      46.762  24.202  25.108  1.00  0.00     0.029 A 
ATOM     75  C   UNL A   1      46.093  25.426  25.138  1.00  0.00     0.049 A 
ATOM     76  H   UNL A   1      44.008  25.607  25.339  1.00  0.00     0.167 HD
ATOM     77  C   UNL A   1      45.892  27.902  25.348  1.00  0.00     0.074 A 
ATOM     78  C   UNL A   1      44.646  28.092  26.086  1.00  0.00     0.031 C 
ATOM     79  C   UNL A   1      46.531  26.781  24.902  1.00  0.00     0.037 A 
BRANCH  66  80
ATOM     80  C   UNL A   1      42.614  24.084  27.513  1.00  0.00     0.064 A 
ATOM     81  C   UNL A   1      41.831  23.004  27.060  1.00  0.00     0.173 A 
ATOM     82  C   UNL A   1      41.938  25.322  27.615  1.00  0.00     0.173 A 
ATOM     83  F   UNL A   1      42.368  21.784  26.918  1.00  0.00    -0.203 F 
ATOM     84  C   UNL A   1      40.510  23.178  26.639  1.00  0.00     0.198 A 
ATOM     85  C   UNL A   1      40.604  25.477  27.246  1.00  0.00     0.198 A 
ATOM     86  F   UNL A   1      42.553  26.457  27.963  1.00  0.00    -0.203 F 
ATOM     87  F   UNL A   1      39.854  22.152  26.079  1.00  0.00    -0.200 F 
ATOM     88  C   UNL A   1      39.902  24.415  26.722  1.00  0.00     0.200 A 
ATOM     89  F   UNL A   1      40.038  26.690  27.321  1.00  0.00    -0.200 F 
ATOM     90  F   UNL A   1      38.662  24.599  26.252  1.00  0.00    -0.200 F 
ENDBRANCH  66  80
BRANCH  67  91
ATOM     91  C   UNL A   1      46.292  31.892  27.847  1.00  0.00     0.064 A 
ATOM     92  C   UNL A   1      46.814  32.974  27.119  1.00  0.00     0.173 A 
ATOM     93  C   UNL A   1      45.205  32.179  28.695  1.00  0.00     0.173 A 
ATOM     94  F   UNL A   1      47.817  32.781  26.250  1.00  0.00    -0.203 F 
ATOM     95  C   UNL A   1      46.268  34.260  27.219  1.00  0.00     0.198 A 
ATOM     96  C   UNL A   1      44.666  33.463  28.800  1.00  0.00     0.198 A 
ATOM     97  F   UNL A   1      44.578  31.203  29.367  1.00  0.00    -0.203 F 
ATOM     98  F   UNL A   1      46.755  35.255  26.462  1.00  0.00    -0.200 F 
ATOM     99  C   UNL A   1      45.190  34.501  28.052  1.00  0.00     0.200 A 
ATOM    100  F   UNL A   1      43.596  33.673  29.580  1.00  0.00    -0.200 F 
ATOM    101  F   UNL A   1      44.628  35.717  28.103  1.00  0.00    -0.200 F 
ENDBRANCH  67  91
BRANCH  79 102
ATOM    102  C   UNL A   1      47.901  26.953  24.307  1.00  0.00     0.064 A 
ATOM    103  C   UNL A   1      48.148  27.486  23.030  1.00  0.00     0.173 A 
ATOM    104  C   UNL A   1      49.010  26.699  25.125  1.00  0.00     0.173 A 
ATOM    105  F   UNL A   1      47.140  27.849  22.228  1.00  0.00    -0.203 F 
ATOM    106  C   UNL A   1      49.448  27.711  22.580  1.00  0.00     0.198 A 
ATOM    107  C   UNL A   1      50.304  26.961  24.689  1.00  0.00     0.198 A 
ATOM    108  F   UNL A   1      48.831  26.243  26.375  1.00  0.00    -0.203 F 
ATOM    109  F   UNL A   1      49.659  28.210  21.352  1.00  0.00    -0.200 F 
ATOM    110  C   UNL A   1      50.524  27.455  23.413  1.00  0.00     0.200 A 
ATOM    111  F   UNL A   1      51.338  26.762  25.518  1.00  0.00    -0.200 F 
ATOM    112  F   UNL A   1      51.773  27.714  23.000  1.00  0.00    -0.200 F 
ENDBRANCH  79 102
ENDBRANCH  53  54
ENDBRANCH  46  48
ENDBRANCH  45  46
ENDBRANCH  44  45
ENDBRANCH  43  44
ENDBRANCH  42  43
ENDBRANCH  40  42
ENDBRANCH  39  40
ENDBRANCH  38  39
ENDBRANCH  37  38
ENDBRANCH   1  37
TORSDOF 26
ENDMDL
MODEL 3
REMARK VINA RESULT:      -8.8      6.747     11.926
REMARK SMILES NS(=O)(=O)c1ccc(-n2nc(NC(=O)NCCCCCCCCCCC(=O)OCCOC(=O)c3ccc(-c4c5nc(c(-c6c(F)c(F)c(F)c(F)c6F)c6ccc([nH]6)c(-c6c(F)c(F)c(F)c(F)c6F)c6nc(c(-c7c(F)c(F)c(F)c(F)c7F)c7ccc4[nH]7)C=C6)C=C5)cc3)cc2-c2ccccc2)cc1
REMARK SMILES IDX 22 1 21 2 20 3 19 4 18 5 17 6 16 7 15 8 12 9 13 10 14 12
REMARK SMILES IDX 11 14 9 15 10 16 98 17 97 18 8 19 5 20 6 21 106 22 7 23
REMARK SMILES IDX 105 24 2 25 3 26 4 27 1 28 99 31 100 32 104 33 101 34 103 35
REMARK SMILES IDX 102 36 23 37 24 38 25 39 26 40 27 41 28 42 29 43 30 44 31 45
REMARK SMILES IDX 32 46 33 47 34 48 35 49 96 50 36 51 95 52 37 53 38 54 39 55
REMARK SMILES IDX 89 56 40 57 94 58 88 59 90 60 41 61 93 62 87 63 86 64 42 66
REMARK SMILES IDX 74 67 54 68 73 69 55 70 58 71 72 72 91 73 56 74 57 75 71 77
REMARK SMILES IDX 92 78 59 79 43 80 44 81 52 82 45 83 46 84 50 85 53 86 47 87
REMARK SMILES IDX 48 88 51 89 49 90 75 91 76 92 84 93 77 94 78 95 82 96 85 97
REMARK SMILES IDX 79 98 80 99 83 100 81 101 60 102 61 103 69 104 62 105 63 106
REMARK SMILES IDX 67 107 70 108 64 109 65 110 68 111 66 112
REMARK H PARENT 12 11 15 13 1 29 1 30 90 65 58 76
REMARK Flexibility Score: inf
ROOT
ATOM      1  C   UNL A   1      38.110  23.165  26.048  1.00  0.00     0.000 C 
ENDROOT
BRANCH   1   2
ATOM      2  C   UNL A   1      36.756  23.381  25.378  1.00  0.00     0.000 C 
BRANCH   2   3
ATOM      3  C   UNL A   1      35.656  23.779  26.363  1.00  0.00     0.000 C 
BRANCH   3   4
ATOM      4  C   UNL A   1      34.232  23.495  25.866  1.00  0.00     0.000 C 
BRANCH   4   5
ATOM      5  C   UNL A   1      34.086  22.199  25.059  1.00  0.00     0.002 C 
BRANCH   5   6
ATOM      6  C   UNL A   1      32.665  21.643  24.984  1.00  0.00     0.021 C 
BRANCH   6   7
ATOM      7  C   UNL A   1      31.572  22.677  25.199  1.00  0.00     0.117 C 
BRANCH   7   8
ATOM      8  N   UNL A   1      30.405  22.187  25.898  1.00  0.00    -0.338 N 
ATOM      9  N   UNL A   1      29.713  24.152  27.046  1.00  0.00    -0.291 N 
ATOM     10  C   UNL A   1      29.591  22.834  26.763  1.00  0.00     0.320 C 
ATOM     11  H   UNL A   1      29.345  24.418  27.920  1.00  0.00     0.173 HD
ATOM     12  O   UNL A   1      28.782  22.158  27.407  1.00  0.00    -0.248 OA
ATOM     13  H   UNL A   1      30.169  21.248  25.720  1.00  0.00     0.165 HD
BRANCH   9  14
ATOM     14  C   UNL A   1      30.263  25.183  26.319  1.00  0.00     0.157 A 
ATOM     15  N   UNL A   1      31.456  26.869  25.860  1.00  0.00    -0.231 N 
ATOM     16  N   UNL A   1      31.493  25.673  26.482  1.00  0.00    -0.149 NA
ATOM     17  C   UNL A   1      30.416  26.925  24.938  1.00  0.00     0.076 A 
ATOM     18  C   UNL A   1      29.606  25.850  25.260  1.00  0.00     0.078 A 
BRANCH  15  19
ATOM     19  C   UNL A   1      32.370  27.897  26.224  1.00  0.00     0.065 A 
ATOM     20  C   UNL A   1      34.170  29.818  27.130  1.00  0.00     0.082 A 
ATOM     21  C   UNL A   1      34.652  28.657  26.521  1.00  0.00     0.024 A 
ATOM     22  C   UNL A   1      32.795  30.049  27.243  1.00  0.00     0.024 A 
ATOM     23  C   UNL A   1      33.751  27.697  26.066  1.00  0.00     0.030 A 
ATOM     24  C   UNL A   1      31.890  29.096  26.764  1.00  0.00     0.030 A 
BRANCH  20  25
ATOM     25  S   UNL A   1      35.352  30.943  27.811  1.00  0.00     0.238 S 
ATOM     26  O   UNL A   1      34.893  32.287  27.577  1.00  0.00    -0.207 OA
ATOM     27  O   UNL A   1      36.677  30.489  27.441  1.00  0.00    -0.207 OA
BRANCH  25  28
ATOM     28  N   UNL A   1      35.261  30.696  29.470  1.00  0.00    -0.225 NA
ATOM     29  H   UNL A   1      34.282  30.644  29.753  1.00  0.00     0.137 HD
ATOM     30  H   UNL A   1      35.715  31.470  29.955  1.00  0.00     0.137 HD
ENDBRANCH  25  28
ENDBRANCH  20  25
ENDBRANCH  15  19
BRANCH  17  31
ATOM     31  C   UNL A   1      30.310  27.941  23.894  1.00  0.00     0.000 A 
ATOM     32  C   UNL A   1      29.042  28.411  23.513  1.00  0.00     0.010 A 
ATOM     33  C   UNL A   1      31.439  28.405  23.213  1.00  0.00     0.010 A 
ATOM     34  C   UNL A   1      28.897  29.279  22.433  1.00  0.00     0.001 A 
ATOM     35  C   UNL A   1      31.293  29.287  22.139  1.00  0.00     0.001 A 
ATOM     36  C   UNL A   1      30.024  29.712  21.743  1.00  0.00     0.000 A 
ENDBRANCH  17  31
ENDBRANCH   9  14
ENDBRANCH   7   8
ENDBRANCH   6   7
ENDBRANCH   5   6
ENDBRANCH   4   5
ENDBRANCH   3   4
ENDBRANCH   2   3
ENDBRANCH   1   2
BRANCH   1  37
ATOM     37  C   UNL A   1      38.538  24.371  26.881  1.00  0.00     0.001 C 
BRANCH  37  38
ATOM     38  C   UNL A   1      39.877  24.958  26.423  1.00  0.00     0.012 C 
BRANCH  38  39
ATOM     39  C   UNL A   1      41.139  24.279  26.969  1.00  0.00     0.123 C 
BRANCH  39  40
ATOM     40  C   UNL A   1      42.313  25.161  27.354  1.00  0.00     0.305 C 
ATOM     41  O   UNL A   1      42.270  26.383  27.295  1.00  0.00    -0.252 OA
BRANCH  40  42
ATOM     42  O   UNL A   1      43.379  24.451  27.806  1.00  0.00    -0.462 OA
BRANCH  42  43
ATOM     43  C   UNL A   1      44.622  25.155  27.995  1.00  0.00     0.274 C 
BRANCH  43  44
ATOM     44  C   UNL A   1      45.334  24.697  29.263  1.00  0.00     0.275 C 
BRANCH  44  45
ATOM     45  O   UNL A   1      44.571  25.059  30.411  1.00  0.00    -0.458 OA
BRANCH  45  46
ATOM     46  C   UNL A   1      44.163  24.011  31.154  1.00  0.00     0.338 C 
ATOM     47  O   UNL A   1      43.370  23.141  30.839  1.00  0.00    -0.246 OA
BRANCH  46  48
ATOM     48  C   UNL A   1      44.646  24.155  32.522  1.00  0.00     0.060 A 
ATOM     49  C   UNL A   1      45.324  25.333  32.858  1.00  0.00     0.016 A 
ATOM     50  C   UNL A   1      44.765  22.976  33.262  1.00  0.00     0.016 A 
ATOM     51  C   UNL A   1      46.296  25.268  33.832  1.00  0.00     0.010 A 
ATOM     52  C   UNL A   1      45.757  22.903  34.199  1.00  0.00     0.010 A 
ATOM     53  C   UNL A   1      46.559  24.024  34.412  1.00  0.00    -0.014 A 
BRANCH  53  54
ATOM     54  C   UNL A   1      47.646  23.901  35.358  1.00  0.00     0.031 A 
ATOM     55  C   UNL A   1      48.914  23.495  34.706  1.00  0.00     0.074 A 
ATOM     56  C   UNL A   1      47.499  24.330  36.627  1.00  0.00     0.049 A 
ATOM     57  N   UNL A   1      49.635  22.454  34.950  1.00  0.00    -0.248 NA
ATOM     58  C   UNL A   1      49.342  24.251  33.513  1.00  0.00     0.031 C 
ATOM     59  C   UNL A   1      46.332  24.998  37.218  1.00  0.00     0.029 A 
ATOM     60  N   UNL A   1      48.411  24.380  37.633  1.00  0.00    -0.354 N 
ATOM     61  C   UNL A   1      50.718  22.544  34.080  1.00  0.00     0.074 A 
ATOM     62  C   UNL A   1      50.376  23.525  33.092  1.00  0.00     0.031 C 
ATOM     63  C   UNL A   1      46.693  25.587  38.380  1.00  0.00     0.029 A 
ATOM     64  C   UNL A   1      48.073  25.243  38.670  1.00  0.00     0.049 A 
ATOM     65  H   UNL A   1      49.241  23.850  37.629  1.00  0.00     0.167 HD
ATOM     66  C   UNL A   1      51.927  22.030  34.428  1.00  0.00     0.037 A 
ATOM     67  C   UNL A   1      48.916  25.703  39.631  1.00  0.00     0.037 A 
ATOM     68  C   UNL A   1      51.783  21.046  35.471  1.00  0.00     0.049 A 
ATOM     69  C   UNL A   1      50.105  24.810  39.634  1.00  0.00     0.074 A 
ATOM     70  C   UNL A   1      51.132  19.833  35.579  1.00  0.00     0.029 A 
ATOM     71  N   UNL A   1      52.057  21.445  36.754  1.00  0.00    -0.354 N 
ATOM     72  N   UNL A   1      50.073  23.562  40.010  1.00  0.00    -0.248 NA
ATOM     73  C   UNL A   1      51.220  25.174  38.772  1.00  0.00     0.031 C 
ATOM     74  C   UNL A   1      50.654  19.785  36.922  1.00  0.00     0.029 A 
ATOM     75  C   UNL A   1      51.090  20.937  37.578  1.00  0.00     0.049 A 
ATOM     76  H   UNL A   1      52.820  22.000  37.035  1.00  0.00     0.167 HD
ATOM     77  C   UNL A   1      50.885  22.900  39.100  1.00  0.00     0.074 A 
ATOM     78  C   UNL A   1      51.629  23.954  38.416  1.00  0.00     0.031 C 
ATOM     79  C   UNL A   1      50.652  21.591  38.787  1.00  0.00     0.037 A 
BRANCH  66  80
ATOM     80  C   UNL A   1      53.241  22.729  34.157  1.00  0.00     0.064 A 
ATOM     81  C   UNL A   1      53.461  23.990  34.746  1.00  0.00     0.173 A 
ATOM     82  C   UNL A   1      54.134  22.384  33.116  1.00  0.00     0.173 A 
ATOM     83  F   UNL A   1      52.672  24.427  35.739  1.00  0.00    -0.203 F 
ATOM     84  C   UNL A   1      54.424  24.875  34.255  1.00  0.00     0.198 A 
ATOM     85  C   UNL A   1      55.129  23.248  32.667  1.00  0.00     0.198 A 
ATOM     86  F   UNL A   1      54.019  21.255  32.409  1.00  0.00    -0.203 F 
ATOM     87  F   UNL A   1      54.496  26.117  34.752  1.00  0.00    -0.200 F 
ATOM     88  C   UNL A   1      55.249  24.507  33.210  1.00  0.00     0.200 A 
ATOM     89  F   UNL A   1      55.908  22.877  31.641  1.00  0.00    -0.200 F 
ATOM     90  F   UNL A   1      56.122  25.380  32.690  1.00  0.00    -0.200 F 
ENDBRANCH  66  80
BRANCH  67  91
ATOM     91  C   UNL A   1      48.935  27.039  40.280  1.00  0.00     0.064 A 
ATOM     92  C   UNL A   1      48.601  28.199  39.563  1.00  0.00     0.173 A 
ATOM     93  C   UNL A   1      49.009  27.173  41.681  1.00  0.00     0.173 A 
ATOM     94  F   UNL A   1      48.459  28.150  38.230  1.00  0.00    -0.203 F 
ATOM     95  C   UNL A   1      48.336  29.413  40.209  1.00  0.00     0.198 A 
ATOM     96  C   UNL A   1      48.753  28.386  42.324  1.00  0.00     0.198 A 
ATOM     97  F   UNL A   1      49.235  26.108  42.464  1.00  0.00    -0.203 F 
ATOM     98  F   UNL A   1      47.960  30.484  39.493  1.00  0.00    -0.200 F 
ATOM     99  C   UNL A   1      48.403  29.503  41.588  1.00  0.00     0.200 A 
ATOM    100  F   UNL A   1      48.782  28.447  43.662  1.00  0.00    -0.200 F 
ATOM    101  F   UNL A   1      48.092  30.648  42.212  1.00  0.00    -0.200 F 
ENDBRANCH  67  91
BRANCH  79 102
ATOM    102  C   UNL A   1      49.692  20.830  39.658  1.00  0.00     0.064 A 
ATOM    103  C   UNL A   1      48.310  20.736  39.418  1.00  0.00     0.173 A 
ATOM    104  C   UNL A   1      50.221  20.049  40.694  1.00  0.00     0.173 A 
ATOM    105  F   UNL A   1      47.745  21.373  38.385  1.00  0.00    -0.203 F 
ATOM    106  C   UNL A   1      47.492  19.931  40.209  1.00  0.00     0.198 A 
ATOM    107  C   UNL A   1      49.409  19.216  41.456  1.00  0.00     0.198 A 
ATOM    108  F   UNL A   1      51.541  20.055  40.930  1.00  0.00    -0.203 F 
ATOM    109  F   UNL A   1      46.173  19.867  39.968  1.00  0.00    -0.200 F 
ATOM    110  C   UNL A   1      48.044  19.166  41.222  1.00  0.00     0.200 A 
ATOM    111  F   UNL A   1      49.956  18.437  42.400  1.00  0.00    -0.200 F 
ATOM    112  F   UNL A   1      47.266  18.355  41.955  1.00  0.00    -0.200 F 
ENDBRANCH  79 102
ENDBRANCH  53  54
ENDBRANCH  46  48
ENDBRANCH  45  46
ENDBRANCH  44  45
ENDBRANCH  43  44
ENDBRANCH  42  43
ENDBRANCH  40  42
ENDBRANCH  39  40
ENDBRANCH  38  39
ENDBRANCH  37  38
ENDBRANCH   1  37
TORSDOF 26
ENDMDL
