MODEL 1
REMARK VINA RESULT:     -13.5      0.000      0.000
REMARK SMILES CC(C)c1cc(N2CCC(C(=O)OCCOC(=O)c3ccc(-c4c5nc(c(-c6c(F)c(F)c(F)c(F)c6F)c6ccc([nH]6)c(-c6c(F)c(F)c(F)c(F)c6F)c6nc(c(-c7c(F)c(F)c(F)c(F)c7F)c7ccc4[nH]7)C=C6)C=C5)cc3)CC2)nc(-c2ccc(F)cc2)n1
REMARK SMILES IDX 14 1 13 2 11 3 12 4 10 5 7 6 8 7 83 8 9 9 82 10 6 11 4 12
REMARK SMILES IDX 5 13 93 14 85 15 84 16 2 17 1 18 3 19 86 20 87 21 92 22
REMARK SMILES IDX 88 23 91 24 89 25 90 26 15 27 16 28 17 29 18 30 19 31 20 32
REMARK SMILES IDX 81 33 21 34 80 35 22 36 23 37 24 38 74 39 25 40 79 41 73 42
REMARK SMILES IDX 75 43 26 44 78 45 72 46 71 47 27 49 59 50 39 51 58 52 40 53
REMARK SMILES IDX 43 54 57 55 76 56 41 57 42 58 56 60 77 61 44 62 28 63 29 64
REMARK SMILES IDX 37 65 30 66 31 67 35 68 38 69 32 70 33 71 36 72 34 73 60 74
REMARK SMILES IDX 61 75 69 76 62 77 63 78 67 79 70 80 64 81 65 82 68 83 66 84
REMARK SMILES IDX 45 85 46 86 54 87 47 88 48 89 52 90 55 91 49 92 50 93 53 94
REMARK SMILES IDX 51 95
REMARK H PARENT 75 48 43 59
REMARK Flexibility Score: inf
ROOT
ATOM      1  C   UNL A   1      31.668  28.845  24.498  1.00  0.00     0.274 C 
ENDROOT
BRANCH   1   2
ATOM      2  O   UNL A   1      31.015  27.696  25.066  1.00  0.00    -0.462 OA
BRANCH   2   3
ATOM      3  C   UNL A   1      30.205  26.984  24.244  1.00  0.00     0.309 C 
ATOM      4  O   UNL A   1      29.402  27.467  23.453  1.00  0.00    -0.252 OA
BRANCH   3   5
ATOM      5  C   UNL A   1      30.418  25.490  24.366  1.00  0.00     0.103 C 
ATOM      6  N   UNL A   1      31.695  22.984  24.553  1.00  0.00    -0.356 N 
ATOM      7  C   UNL A   1      31.063  23.325  23.291  1.00  0.00     0.119 C 
ATOM      8  C   UNL A   1      31.278  23.622  25.789  1.00  0.00     0.119 C 
ATOM      9  C   UNL A   1      31.012  24.835  23.115  1.00  0.00     0.037 C 
ATOM     10  C   UNL A   1      31.247  25.140  25.600  1.00  0.00     0.037 C 
BRANCH   6  11
ATOM     11  C   UNL A   1      32.812  22.181  24.528  1.00  0.00     0.132 A 
ATOM     12  C   UNL A   1      35.160  21.917  24.450  1.00  0.00     0.049 A 
ATOM     13  C   UNL A   1      34.061  22.750  24.379  1.00  0.00     0.071 A 
ATOM     14  N   UNL A   1      35.024  20.589  24.639  1.00  0.00    -0.233 NA
ATOM     15  C   UNL A   1      33.768  20.117  24.737  1.00  0.00     0.161 A 
ATOM     16  N   UNL A   1      32.652  20.862  24.702  1.00  0.00    -0.211 NA
BRANCH  12  17
ATOM     17  C   UNL A   1      36.579  22.445  24.393  1.00  0.00     0.032 C 
ATOM     18  C   UNL A   1      36.813  23.708  25.228  1.00  0.00     0.014 C 
ATOM     19  C   UNL A   1      37.557  21.341  24.804  1.00  0.00     0.014 C 
ENDBRANCH  12  17
BRANCH  15  20
ATOM     20  C   UNL A   1      33.598  18.668  24.870  1.00  0.00     0.019 A 
ATOM     21  C   UNL A   1      32.530  18.125  25.608  1.00  0.00     0.015 A 
ATOM     22  C   UNL A   1      34.507  17.778  24.263  1.00  0.00     0.015 A 
ATOM     23  C   UNL A   1      32.370  16.742  25.729  1.00  0.00     0.040 A 
ATOM     24  C   UNL A   1      34.359  16.395  24.399  1.00  0.00     0.040 A 
ATOM     25  C   UNL A   1      33.289  15.892  25.128  1.00  0.00     0.123 A 
ATOM     26  F   UNL A   1      33.143  14.566  25.253  1.00  0.00    -0.207 F 
ENDBRANCH  15  20
ENDBRANCH   6  11
ENDBRANCH   3   5
ENDBRANCH   2   3
ENDBRANCH   1   2
BRANCH   1  27
ATOM     27  C   UNL A   1      31.708  29.982  25.519  1.00  0.00     0.275 C 
BRANCH  27  28
ATOM     28  O   UNL A   1      33.064  30.258  25.922  1.00  0.00    -0.458 OA
BRANCH  28  29
ATOM     29  C   UNL A   1      33.218  31.220  26.860  1.00  0.00     0.338 C 
ATOM     30  O   UNL A   1      32.459  32.128  27.141  1.00  0.00    -0.246 OA
BRANCH  29  31
ATOM     31  C   UNL A   1      34.458  30.957  27.605  1.00  0.00     0.060 A 
ATOM     32  C   UNL A   1      34.724  29.648  28.011  1.00  0.00     0.016 A 
ATOM     33  C   UNL A   1      35.316  31.997  27.958  1.00  0.00     0.016 A 
ATOM     34  C   UNL A   1      35.862  29.366  28.762  1.00  0.00     0.010 A 
ATOM     35  C   UNL A   1      36.467  31.711  28.700  1.00  0.00     0.010 A 
ATOM     36  C   UNL A   1      36.748  30.395  29.105  1.00  0.00    -0.014 A 
BRANCH  36  37
ATOM     37  C   UNL A   1      37.975  30.088  29.878  1.00  0.00     0.031 A 
ATOM     38  C   UNL A   1      39.024  29.182  29.305  1.00  0.00     0.074 A 
ATOM     39  C   UNL A   1      38.141  30.627  31.101  1.00  0.00     0.049 A 
ATOM     40  N   UNL A   1      40.103  28.704  29.872  1.00  0.00    -0.248 NA
ATOM     41  C   UNL A   1      38.837  28.756  27.910  1.00  0.00     0.031 C 
ATOM     42  C   UNL A   1      37.212  31.556  31.746  1.00  0.00     0.029 A 
ATOM     43  N   UNL A   1      39.145  30.465  32.022  1.00  0.00    -0.354 N 
ATOM     44  C   UNL A   1      40.710  27.903  28.915  1.00  0.00     0.074 A 
ATOM     45  C   UNL A   1      39.880  27.954  27.730  1.00  0.00     0.031 C 
ATOM     46  C   UNL A   1      37.687  31.878  32.959  1.00  0.00     0.029 A 
ATOM     47  C   UNL A   1      38.923  31.139  33.198  1.00  0.00     0.049 A 
ATOM     48  H   UNL A   1      39.946  29.918  31.856  1.00  0.00     0.167 HD
ATOM     49  C   UNL A   1      41.857  27.191  29.021  1.00  0.00     0.037 A 
ATOM     50  C   UNL A   1      39.618  31.131  34.351  1.00  0.00     0.037 A 
ATOM     51  C   UNL A   1      42.693  27.161  30.192  1.00  0.00     0.049 A 
ATOM     52  C   UNL A   1      40.852  30.280  34.459  1.00  0.00     0.074 A 
ATOM     53  C   UNL A   1      43.893  26.498  30.380  1.00  0.00     0.029 A 
ATOM     54  N   UNL A   1      42.413  27.825  31.378  1.00  0.00    -0.354 N 
ATOM     55  N   UNL A   1      41.417  29.524  33.551  1.00  0.00    -0.248 NA
ATOM     56  C   UNL A   1      41.535  30.268  35.760  1.00  0.00     0.031 C 
ATOM     57  C   UNL A   1      44.321  26.729  31.692  1.00  0.00     0.029 A 
ATOM     58  C   UNL A   1      43.406  27.564  32.310  1.00  0.00     0.049 A 
ATOM     59  H   UNL A   1      41.627  28.396  31.534  1.00  0.00     0.167 HD
ATOM     60  C   UNL A   1      42.524  28.954  34.163  1.00  0.00     0.074 A 
ATOM     61  C   UNL A   1      42.564  29.468  35.517  1.00  0.00     0.031 C 
ATOM     62  C   UNL A   1      43.425  28.080  33.654  1.00  0.00     0.037 A 
BRANCH  49  63
ATOM     63  C   UNL A   1      42.271  26.358  27.847  1.00  0.00     0.064 A 
ATOM     64  C   UNL A   1      43.236  26.803  26.933  1.00  0.00     0.173 A 
ATOM     65  C   UNL A   1      41.740  25.070  27.673  1.00  0.00     0.173 A 
ATOM     66  F   UNL A   1      43.764  28.030  27.052  1.00  0.00    -0.203 F 
ATOM     67  C   UNL A   1      43.649  25.991  25.878  1.00  0.00     0.198 A 
ATOM     68  C   UNL A   1      42.169  24.255  26.629  1.00  0.00     0.198 A 
ATOM     69  F   UNL A   1      40.818  24.600  28.524  1.00  0.00    -0.203 F 
ATOM     70  F   UNL A   1      44.555  26.443  25.000  1.00  0.00    -0.200 F 
ATOM     71  C   UNL A   1      43.121  24.716  25.732  1.00  0.00     0.200 A 
ATOM     72  F   UNL A   1      41.665  23.020  26.496  1.00  0.00    -0.200 F 
ATOM     73  F   UNL A   1      43.527  23.931  24.724  1.00  0.00    -0.200 F 
ENDBRANCH  49  63
BRANCH  50  74
ATOM     74  C   UNL A   1      39.137  31.923  35.511  1.00  0.00     0.064 A 
ATOM     75  C   UNL A   1      39.521  33.260  35.680  1.00  0.00     0.173 A 
ATOM     76  C   UNL A   1      38.300  31.354  36.483  1.00  0.00     0.173 A 
ATOM     77  F   UNL A   1      40.343  33.838  34.793  1.00  0.00    -0.203 F 
ATOM     78  C   UNL A   1      39.094  33.995  36.785  1.00  0.00     0.198 A 
ATOM     79  C   UNL A   1      37.854  32.098  37.572  1.00  0.00     0.198 A 
ATOM     80  F   UNL A   1      37.911  30.076  36.368  1.00  0.00    -0.203 F 
ATOM     81  F   UNL A   1      39.510  35.259  36.946  1.00  0.00    -0.200 F 
ATOM     82  C   UNL A   1      38.257  33.415  37.726  1.00  0.00     0.200 A 
ATOM     83  F   UNL A   1      37.037  31.536  38.475  1.00  0.00    -0.200 F 
ATOM     84  F   UNL A   1      37.847  34.123  38.787  1.00  0.00    -0.200 F 
ENDBRANCH  50  74
BRANCH  62  85
ATOM     85  C   UNL A   1      44.532  27.636  34.560  1.00  0.00     0.064 A 
ATOM     86  C   UNL A   1      45.725  28.366  34.664  1.00  0.00     0.173 A 
ATOM     87  C   UNL A   1      44.389  26.488  35.353  1.00  0.00     0.173 A 
ATOM     88  F   UNL A   1      45.915  29.460  33.911  1.00  0.00    -0.203 F 
ATOM     89  C   UNL A   1      46.744  27.951  35.516  1.00  0.00     0.198 A 
ATOM     90  C   UNL A   1      45.401  26.089  36.222  1.00  0.00     0.198 A 
ATOM     91  F   UNL A   1      43.264  25.759  35.291  1.00  0.00    -0.203 F 
ATOM     92  F   UNL A   1      47.893  28.639  35.571  1.00  0.00    -0.200 F 
ATOM     93  C   UNL A   1      46.579  26.817  36.298  1.00  0.00     0.200 A 
ATOM     94  F   UNL A   1      45.237  24.999  36.982  1.00  0.00    -0.200 F 
ATOM     95  F   UNL A   1      47.561  26.420  37.120  1.00  0.00    -0.200 F 
ENDBRANCH  62  85
ENDBRANCH  36  37
ENDBRANCH  29  31
ENDBRANCH  28  29
ENDBRANCH  27  28
ENDBRANCH   1  27
TORSDOF 14
ENDMDL
MODEL 2
REMARK VINA RESULT:     -13.5      0.191      1.982
REMARK SMILES CC(C)c1cc(N2CCC(C(=O)OCCOC(=O)c3ccc(-c4c5nc(c(-c6c(F)c(F)c(F)c(F)c6F)c6ccc([nH]6)c(-c6c(F)c(F)c(F)c(F)c6F)c6nc(c(-c7c(F)c(F)c(F)c(F)c7F)c7ccc4[nH]7)C=C6)C=C5)cc3)CC2)nc(-c2ccc(F)cc2)n1
REMARK SMILES IDX 14 1 13 2 11 3 12 4 10 5 7 6 8 7 83 8 9 9 82 10 6 11 4 12
REMARK SMILES IDX 5 13 93 14 85 15 84 16 2 17 1 18 3 19 86 20 87 21 92 22
REMARK SMILES IDX 88 23 91 24 89 25 90 26 15 27 16 28 17 29 18 30 19 31 20 32
REMARK SMILES IDX 81 33 21 34 80 35 22 36 23 37 24 38 74 39 25 40 79 41 73 42
REMARK SMILES IDX 75 43 26 44 78 45 72 46 71 47 27 49 59 50 39 51 58 52 40 53
REMARK SMILES IDX 43 54 57 55 76 56 41 57 42 58 56 60 77 61 44 62 28 63 29 64
REMARK SMILES IDX 37 65 30 66 31 67 35 68 38 69 32 70 33 71 36 72 34 73 60 74
REMARK SMILES IDX 61 75 69 76 62 77 63 78 67 79 70 80 64 81 65 82 68 83 66 84
REMARK SMILES IDX 45 85 46 86 54 87 47 88 48 89 52 90 55 91 49 92 50 93 53 94
REMARK SMILES IDX 51 95
REMARK H PARENT 75 48 43 59
REMARK Flexibility Score: inf
ROOT
ATOM      1  C   UNL A   1      31.675  28.984  24.513  1.00  0.00     0.274 C 
ENDROOT
BRANCH   1   2
ATOM      2  O   UNL A   1      31.058  27.812  25.075  1.00  0.00    -0.462 OA
BRANCH   2   3
ATOM      3  C   UNL A   1      30.376  27.010  24.221  1.00  0.00     0.309 C 
ATOM      4  O   UNL A   1      29.676  27.401  23.293  1.00  0.00    -0.252 OA
BRANCH   3   5
ATOM      5  C   UNL A   1      30.596  25.539  24.500  1.00  0.00     0.103 C 
ATOM      6  N   UNL A   1      31.873  23.045  24.812  1.00  0.00    -0.356 N 
ATOM      7  C   UNL A   1      31.056  23.240  23.627  1.00  0.00     0.119 C 
ATOM      8  C   UNL A   1      31.654  23.844  26.004  1.00  0.00     0.119 C 
ATOM      9  C   UNL A   1      30.987  24.716  23.268  1.00  0.00     0.037 C 
ATOM     10  C   UNL A   1      31.603  25.327  25.629  1.00  0.00     0.037 C 
BRANCH   6  11
ATOM     11  C   UNL A   1      32.967  22.217  24.722  1.00  0.00     0.132 A 
ATOM     12  C   UNL A   1      35.306  21.900  24.566  1.00  0.00     0.049 A 
ATOM     13  C   UNL A   1      34.227  22.762  24.562  1.00  0.00     0.071 A 
ATOM     14  N   UNL A   1      35.141  20.569  24.702  1.00  0.00    -0.233 NA
ATOM     15  C   UNL A   1      33.876  20.124  24.815  1.00  0.00     0.161 A 
ATOM     16  N   UNL A   1      32.779  20.896  24.843  1.00  0.00    -0.211 NA
BRANCH  12  17
ATOM     17  C   UNL A   1      36.735  22.396  24.493  1.00  0.00     0.032 C 
ATOM     18  C   UNL A   1      36.999  23.673  25.297  1.00  0.00     0.014 C 
ATOM     19  C   UNL A   1      37.691  21.282  24.927  1.00  0.00     0.014 C 
ENDBRANCH  12  17
BRANCH  15  20
ATOM     20  C   UNL A   1      33.674  18.674  24.891  1.00  0.00     0.019 A 
ATOM     21  C   UNL A   1      34.519  17.785  24.202  1.00  0.00     0.015 A 
ATOM     22  C   UNL A   1      32.621  18.134  25.656  1.00  0.00     0.015 A 
ATOM     23  C   UNL A   1      34.324  16.403  24.281  1.00  0.00     0.040 A 
ATOM     24  C   UNL A   1      32.413  16.754  25.720  1.00  0.00     0.040 A 
ATOM     25  C   UNL A   1      33.269  15.902  25.035  1.00  0.00     0.123 A 
ATOM     26  F   UNL A   1      33.076  14.579  25.102  1.00  0.00    -0.207 F 
ENDBRANCH  15  20
ENDBRANCH   6  11
ENDBRANCH   3   5
ENDBRANCH   2   3
ENDBRANCH   1   2
BRANCH   1  27
ATOM     27  C   UNL A   1      31.757  30.089  25.566  1.00  0.00     0.275 C 
BRANCH  27  28
ATOM     28  O   UNL A   1      33.113  30.254  26.026  1.00  0.00    -0.458 OA
BRANCH  28  29
ATOM     29  C   UNL A   1      33.321  31.265  26.900  1.00  0.00     0.338 C 
ATOM     30  O   UNL A   1      32.600  32.217  27.139  1.00  0.00    -0.246 OA
BRANCH  29  31
ATOM     31  C   UNL A   1      34.566  31.002  27.637  1.00  0.00     0.060 A 
ATOM     32  C   UNL A   1      34.809  29.704  28.088  1.00  0.00     0.016 A 
ATOM     33  C   UNL A   1      35.452  32.035  27.937  1.00  0.00     0.016 A 
ATOM     34  C   UNL A   1      35.951  29.425  28.833  1.00  0.00     0.010 A 
ATOM     35  C   UNL A   1      36.608  31.752  28.672  1.00  0.00     0.010 A 
ATOM     36  C   UNL A   1      36.865  30.446  29.123  1.00  0.00    -0.014 A 
BRANCH  36  37
ATOM     37  C   UNL A   1      38.098  30.140  29.890  1.00  0.00     0.031 A 
ATOM     38  C   UNL A   1      39.136  29.220  29.319  1.00  0.00     0.074 A 
ATOM     39  C   UNL A   1      38.277  30.693  31.104  1.00  0.00     0.049 A 
ATOM     40  N   UNL A   1      40.216  28.742  29.883  1.00  0.00    -0.248 NA
ATOM     41  C   UNL A   1      38.934  28.778  27.931  1.00  0.00     0.031 C 
ATOM     42  C   UNL A   1      37.360  31.636  31.745  1.00  0.00     0.029 A 
ATOM     43  N   UNL A   1      39.288  30.536  32.019  1.00  0.00    -0.354 N 
ATOM     44  C   UNL A   1      40.810  27.925  28.930  1.00  0.00     0.074 A 
ATOM     45  C   UNL A   1      39.969  27.967  27.752  1.00  0.00     0.031 C 
ATOM     46  C   UNL A   1      37.848  31.970  32.950  1.00  0.00     0.029 A 
ATOM     47  C   UNL A   1      39.081  31.227  33.187  1.00  0.00     0.049 A 
ATOM     48  H   UNL A   1      40.084  29.982  31.853  1.00  0.00     0.167 HD
ATOM     49  C   UNL A   1      41.952  27.207  29.036  1.00  0.00     0.037 A 
ATOM     50  C   UNL A   1      39.785  31.228  34.334  1.00  0.00     0.037 A 
ATOM     51  C   UNL A   1      42.799  27.187  30.200  1.00  0.00     0.049 A 
ATOM     52  C   UNL A   1      41.015  30.370  34.443  1.00  0.00     0.074 A 
ATOM     53  C   UNL A   1      43.996  26.518  30.386  1.00  0.00     0.029 A 
ATOM     54  N   UNL A   1      42.534  27.867  31.379  1.00  0.00    -0.354 N 
ATOM     55  N   UNL A   1      41.567  29.599  33.539  1.00  0.00    -0.248 NA
ATOM     56  C   UNL A   1      41.710  30.370  35.738  1.00  0.00     0.031 C 
ATOM     57  C   UNL A   1      44.437  26.762  31.691  1.00  0.00     0.029 A 
ATOM     58  C   UNL A   1      43.533  27.611  32.306  1.00  0.00     0.049 A 
ATOM     59  H   UNL A   1      41.753  28.445  31.535  1.00  0.00     0.167 HD
ATOM     60  C   UNL A   1      42.676  29.030  34.149  1.00  0.00     0.074 A 
ATOM     61  C   UNL A   1      42.731  29.560  35.496  1.00  0.00     0.031 C 
ATOM     62  C   UNL A   1      43.566  28.144  33.643  1.00  0.00     0.037 A 
BRANCH  49  63
ATOM     63  C   UNL A   1      42.351  26.356  27.869  1.00  0.00     0.064 A 
ATOM     64  C   UNL A   1      41.792  25.088  27.657  1.00  0.00     0.173 A 
ATOM     65  C   UNL A   1      43.257  26.846  26.915  1.00  0.00     0.173 A 
ATOM     66  F   UNL A   1      40.931  24.572  28.546  1.00  0.00    -0.203 F 
ATOM     67  C   UNL A   1      42.135  24.335  26.536  1.00  0.00     0.198 A 
ATOM     68  C   UNL A   1      43.582  26.099  25.786  1.00  0.00     0.198 A 
ATOM     69  F   UNL A   1      43.814  28.056  27.073  1.00  0.00    -0.203 F 
ATOM     70  F   UNL A   1      41.609  23.114  26.363  1.00  0.00    -0.200 F 
ATOM     71  C   UNL A   1      43.023  24.844  25.599  1.00  0.00     0.200 A 
ATOM     72  F   UNL A   1      44.432  26.597  24.877  1.00  0.00    -0.200 F 
ATOM     73  F   UNL A   1      43.342  24.123  24.515  1.00  0.00    -0.200 F 
ENDBRANCH  49  63
BRANCH  50  74
ATOM     74  C   UNL A   1      39.321  32.038  35.489  1.00  0.00     0.064 A 
ATOM     75  C   UNL A   1      38.479  31.486  36.465  1.00  0.00     0.173 A 
ATOM     76  C   UNL A   1      39.694  33.383  35.631  1.00  0.00     0.173 A 
ATOM     77  F   UNL A   1      38.072  30.213  36.356  1.00  0.00    -0.203 F 
ATOM     78  C   UNL A   1      38.019  32.254  37.533  1.00  0.00     0.198 A 
ATOM     79  C   UNL A   1      39.254  34.141  36.713  1.00  0.00     0.198 A 
ATOM     80  F   UNL A   1      40.493  33.957  34.721  1.00  0.00    -0.203 F 
ATOM     81  F   UNL A   1      37.180  31.715  38.429  1.00  0.00    -0.200 F 
ATOM     82  C   UNL A   1      38.411  33.578  37.659  1.00  0.00     0.200 A 
ATOM     83  F   UNL A   1      39.643  35.418  36.836  1.00  0.00    -0.200 F 
ATOM     84  F   UNL A   1      37.968  34.314  38.686  1.00  0.00    -0.200 F 
ENDBRANCH  50  74
BRANCH  62  85
ATOM     85  C   UNL A   1      44.679  27.703  34.545  1.00  0.00     0.064 A 
ATOM     86  C   UNL A   1      44.560  26.555  35.340  1.00  0.00     0.173 A 
ATOM     87  C   UNL A   1      45.884  28.418  34.594  1.00  0.00     0.173 A 
ATOM     88  F   UNL A   1      43.418  25.849  35.341  1.00  0.00    -0.203 F 
ATOM     89  C   UNL A   1      45.602  26.148  36.168  1.00  0.00     0.198 A 
ATOM     90  C   UNL A   1      46.933  27.995  35.405  1.00  0.00     0.198 A 
ATOM     91  F   UNL A   1      46.047  29.522  33.849  1.00  0.00    -0.203 F 
ATOM     92  F   UNL A   1      45.453  25.070  36.951  1.00  0.00    -0.200 F 
ATOM     93  C   UNL A   1      46.789  26.864  36.196  1.00  0.00     0.200 A 
ATOM     94  F   UNL A   1      48.082  28.683  35.424  1.00  0.00    -0.200 F 
ATOM     95  F   UNL A   1      47.793  26.470  36.991  1.00  0.00    -0.200 F 
ENDBRANCH  62  85
ENDBRANCH  36  37
ENDBRANCH  29  31
ENDBRANCH  28  29
ENDBRANCH  27  28
ENDBRANCH   1  27
TORSDOF 14
ENDMDL
MODEL 3
REMARK VINA RESULT:     -13.4      1.322      2.429
REMARK SMILES CC(C)c1cc(N2CCC(C(=O)OCCOC(=O)c3ccc(-c4c5nc(c(-c6c(F)c(F)c(F)c(F)c6F)c6ccc([nH]6)c(-c6c(F)c(F)c(F)c(F)c6F)c6nc(c(-c7c(F)c(F)c(F)c(F)c7F)c7ccc4[nH]7)C=C6)C=C5)cc3)CC2)nc(-c2ccc(F)cc2)n1
REMARK SMILES IDX 14 1 13 2 11 3 12 4 10 5 7 6 8 7 83 8 9 9 82 10 6 11 4 12
REMARK SMILES IDX 5 13 93 14 85 15 84 16 2 17 1 18 3 19 86 20 87 21 92 22
REMARK SMILES IDX 88 23 91 24 89 25 90 26 15 27 16 28 17 29 18 30 19 31 20 32
REMARK SMILES IDX 81 33 21 34 80 35 22 36 23 37 24 38 74 39 25 40 79 41 73 42
REMARK SMILES IDX 75 43 26 44 78 45 72 46 71 47 27 49 59 50 39 51 58 52 40 53
REMARK SMILES IDX 43 54 57 55 76 56 41 57 42 58 56 60 77 61 44 62 28 63 29 64
REMARK SMILES IDX 37 65 30 66 31 67 35 68 38 69 32 70 33 71 36 72 34 73 60 74
REMARK SMILES IDX 61 75 69 76 62 77 63 78 67 79 70 80 64 81 65 82 68 83 66 84
REMARK SMILES IDX 45 85 46 86 54 87 47 88 48 89 52 90 55 91 49 92 50 93 53 94
REMARK SMILES IDX 51 95
REMARK H PARENT 75 48 43 59
REMARK Flexibility Score: inf
ROOT
ATOM      1  C   UNL A   1      31.743  28.889  24.545  1.00  0.00     0.274 C 
ENDROOT
BRANCH   1   2
ATOM      2  O   UNL A   1      31.024  27.736  25.019  1.00  0.00    -0.462 OA
BRANCH   2   3
ATOM      3  C   UNL A   1      30.259  27.077  24.114  1.00  0.00     0.309 C 
ATOM      4  O   UNL A   1      29.599  27.609  23.228  1.00  0.00    -0.252 OA
BRANCH   3   5
ATOM      5  C   UNL A   1      30.328  25.574  24.276  1.00  0.00     0.103 C 
ATOM      6  N   UNL A   1      31.358  22.974  24.629  1.00  0.00    -0.356 N 
ATOM      7  C   UNL A   1      30.894  23.340  23.302  1.00  0.00     0.119 C 
ATOM      8  C   UNL A   1      30.869  23.670  25.805  1.00  0.00     0.119 C 
ATOM      9  C   UNL A   1      30.993  24.845  23.104  1.00  0.00     0.037 C 
ATOM     10  C   UNL A   1      30.988  25.181  25.596  1.00  0.00     0.037 C 
BRANCH   6  11
ATOM     11  C   UNL A   1      32.397  22.078  24.734  1.00  0.00     0.132 A 
ATOM     12  C   UNL A   1      33.260  19.887  24.516  1.00  0.00     0.049 A 
ATOM     13  C   UNL A   1      32.172  20.737  24.489  1.00  0.00     0.071 A 
ATOM     14  N   UNL A   1      34.500  20.341  24.792  1.00  0.00    -0.233 NA
ATOM     15  C   UNL A   1      34.619  21.655  25.054  1.00  0.00     0.161 A 
ATOM     16  N   UNL A   1      33.617  22.548  25.024  1.00  0.00    -0.211 NA
BRANCH  12  17
ATOM     17  C   UNL A   1      33.145  18.417  24.171  1.00  0.00     0.032 C 
ATOM     18  C   UNL A   1      32.527  18.141  22.796  1.00  0.00     0.014 C 
ATOM     19  C   UNL A   1      34.518  17.751  24.285  1.00  0.00     0.014 C 
ENDBRANCH  12  17
BRANCH  15  20
ATOM     20  C   UNL A   1      35.945  22.153  25.426  1.00  0.00     0.019 A 
ATOM     21  C   UNL A   1      36.134  23.487  25.833  1.00  0.00     0.015 A 
ATOM     22  C   UNL A   1      37.071  21.306  25.382  1.00  0.00     0.015 A 
ATOM     23  C   UNL A   1      37.401  23.956  26.191  1.00  0.00     0.040 A 
ATOM     24  C   UNL A   1      38.341  21.778  25.721  1.00  0.00     0.040 A 
ATOM     25  C   UNL A   1      38.492  23.098  26.125  1.00  0.00     0.123 A 
ATOM     26  F   UNL A   1      39.709  23.550  26.457  1.00  0.00    -0.207 F 
ENDBRANCH  15  20
ENDBRANCH   6  11
ENDBRANCH   3   5
ENDBRANCH   2   3
ENDBRANCH   1   2
BRANCH   1  27
ATOM     27  C   UNL A   1      31.787  29.962  25.633  1.00  0.00     0.275 C 
BRANCH  27  28
ATOM     28  O   UNL A   1      33.142  30.192  26.066  1.00  0.00    -0.458 OA
BRANCH  28  29
ATOM     29  C   UNL A   1      33.316  31.201  26.951  1.00  0.00     0.338 C 
ATOM     30  O   UNL A   1      32.566  32.127  27.196  1.00  0.00    -0.246 OA
BRANCH  29  31
ATOM     31  C   UNL A   1      34.566  30.969  27.689  1.00  0.00     0.060 A 
ATOM     32  C   UNL A   1      34.789  29.706  28.239  1.00  0.00     0.016 A 
ATOM     33  C   UNL A   1      35.479  32.003  27.894  1.00  0.00     0.016 A 
ATOM     34  C   UNL A   1      35.937  29.461  28.988  1.00  0.00     0.010 A 
ATOM     35  C   UNL A   1      36.640  31.752  28.633  1.00  0.00     0.010 A 
ATOM     36  C   UNL A   1      36.876  30.481  29.183  1.00  0.00    -0.014 A 
BRANCH  36  37
ATOM     37  C   UNL A   1      38.114  30.210  29.955  1.00  0.00     0.031 A 
ATOM     38  C   UNL A   1      39.203  29.363  29.365  1.00  0.00     0.074 A 
ATOM     39  C   UNL A   1      38.251  30.727  31.190  1.00  0.00     0.049 A 
ATOM     40  N   UNL A   1      40.299  28.920  29.926  1.00  0.00    -0.248 NA
ATOM     41  C   UNL A   1      39.039  28.962  27.960  1.00  0.00     0.031 C 
ATOM     42  C   UNL A   1      37.281  31.599  31.852  1.00  0.00     0.029 A 
ATOM     43  N   UNL A   1      39.258  30.587  32.112  1.00  0.00    -0.354 N 
ATOM     44  C   UNL A   1      40.944  28.168  28.953  1.00  0.00     0.074 A 
ATOM     45  C   UNL A   1      40.116  28.211  27.766  1.00  0.00     0.031 C 
ATOM     46  C   UNL A   1      37.738  31.913  33.074  1.00  0.00     0.029 A 
ATOM     47  C   UNL A   1      39.004  31.224  33.301  1.00  0.00     0.049 A 
ATOM     48  H   UNL A   1      40.083  30.080  31.937  1.00  0.00     0.167 HD
ATOM     49  C   UNL A   1      42.120  27.504  29.048  1.00  0.00     0.037 A 
ATOM     50  C   UNL A   1      39.694  31.219  34.457  1.00  0.00     0.037 A 
ATOM     51  C   UNL A   1      42.953  27.484  30.222  1.00  0.00     0.049 A 
ATOM     52  C   UNL A   1      40.964  30.420  34.551  1.00  0.00     0.074 A 
ATOM     53  C   UNL A   1      44.181  26.869  30.399  1.00  0.00     0.029 A 
ATOM     54  N   UNL A   1      42.641  28.107  31.421  1.00  0.00    -0.354 N 
ATOM     55  N   UNL A   1      41.564  29.710  33.628  1.00  0.00    -0.248 NA
ATOM     56  C   UNL A   1      41.643  30.407  35.855  1.00  0.00     0.031 C 
ATOM     57  C   UNL A   1      44.593  27.088  31.718  1.00  0.00     0.029 A 
ATOM     58  C   UNL A   1      43.641  27.869  32.352  1.00  0.00     0.049 A 
ATOM     59  H   UNL A   1      41.830  28.640  31.587  1.00  0.00     0.167 HD
ATOM     60  C   UNL A   1      42.693  29.176  34.232  1.00  0.00     0.074 A 
ATOM     61  C   UNL A   1      42.706  29.659  35.597  1.00  0.00     0.031 C 
ATOM     62  C   UNL A   1      43.633  28.353  33.706  1.00  0.00     0.037 A 
BRANCH  49  63
ATOM     63  C   UNL A   1      42.574  26.717  27.857  1.00  0.00     0.064 A 
ATOM     64  C   UNL A   1      43.324  27.306  26.828  1.00  0.00     0.173 A 
ATOM     65  C   UNL A   1      42.310  25.341  27.777  1.00  0.00     0.173 A 
ATOM     66  F   UNL A   1      43.592  28.619  26.854  1.00  0.00    -0.203 F 
ATOM     67  C   UNL A   1      43.784  26.545  25.756  1.00  0.00     0.198 A 
ATOM     68  C   UNL A   1      42.788  24.581  26.714  1.00  0.00     0.198 A 
ATOM     69  F   UNL A   1      41.601  24.734  28.739  1.00  0.00    -0.203 F 
ATOM     70  F   UNL A   1      44.479  27.130  24.769  1.00  0.00    -0.200 F 
ATOM     71  C   UNL A   1      43.523  25.183  25.703  1.00  0.00     0.200 A 
ATOM     72  F   UNL A   1      42.543  23.264  26.670  1.00  0.00    -0.200 F 
ATOM     73  F   UNL A   1      43.977  24.450  24.677  1.00  0.00    -0.200 F 
ENDBRANCH  49  63
BRANCH  50  74
ATOM     74  C   UNL A   1      39.176  31.962  35.633  1.00  0.00     0.064 A 
ATOM     75  C   UNL A   1      39.547  33.293  35.867  1.00  0.00     0.173 A 
ATOM     76  C   UNL A   1      38.313  31.352  36.556  1.00  0.00     0.173 A 
ATOM     77  F   UNL A   1      40.393  33.909  35.028  1.00  0.00    -0.203 F 
ATOM     78  C   UNL A   1      39.085  33.981  36.987  1.00  0.00     0.198 A 
ATOM     79  C   UNL A   1      37.831  32.050  37.661  1.00  0.00     0.198 A 
ATOM     80  F   UNL A   1      37.934  30.078  36.379  1.00  0.00    -0.203 F 
ATOM     81  F   UNL A   1      39.490  35.240  37.210  1.00  0.00    -0.200 F 
ATOM     82  C   UNL A   1      38.223  33.361  37.879  1.00  0.00     0.200 A 
ATOM     83  F   UNL A   1      36.991  31.449  38.515  1.00  0.00    -0.200 F 
ATOM     84  F   UNL A   1      37.779  34.025  38.955  1.00  0.00    -0.200 F 
ENDBRANCH  50  74
BRANCH  62  85
ATOM     85  C   UNL A   1      44.755  27.937  34.607  1.00  0.00     0.064 A 
ATOM     86  C   UNL A   1      45.922  28.706  34.720  1.00  0.00     0.173 A 
ATOM     87  C   UNL A   1      44.652  26.776  35.387  1.00  0.00     0.173 A 
ATOM     88  F   UNL A   1      46.074  29.815  33.979  1.00  0.00    -0.203 F 
ATOM     89  C   UNL A   1      46.956  28.316  35.566  1.00  0.00     0.198 A 
ATOM     90  C   UNL A   1      45.678  26.401  36.250  1.00  0.00     0.198 A 
ATOM     91  F   UNL A   1      43.553  26.009  35.317  1.00  0.00    -0.203 F 
ATOM     92  F   UNL A   1      48.081  29.042  35.628  1.00  0.00    -0.200 F 
ATOM     93  C   UNL A   1      46.831  27.168  36.335  1.00  0.00     0.200 A 
ATOM     94  F   UNL A   1      45.552  25.297  36.998  1.00  0.00    -0.200 F 
ATOM     95  F   UNL A   1      47.826  26.796  37.152  1.00  0.00    -0.200 F 
ENDBRANCH  62  85
ENDBRANCH  36  37
ENDBRANCH  29  31
ENDBRANCH  28  29
ENDBRANCH  27  28
ENDBRANCH   1  27
TORSDOF 14
ENDMDL
