MODEL 1
REMARK VINA RESULT:     -12.5      0.000      0.000
REMARK SMILES CC[C@@H](C)c1ccccc1NC(=O)[C@@H]1[C@@H](C(=O)OCCOC(=O)c2ccc(-c3c4nc(c(-c5c(F)c(F)c(F)c(F)c5F)c5ccc([nH]5)c(-c5c(F)c(F)c(F)c(F)c5F)c5nc(c(-c6c(F)c(F)c(F)c(F)c6F)c6ccc3[nH]6)C=C5)C=C4)cc2)[C@@H]2C=C[C@H]1C2
REMARK SMILES IDX 19 1 18 2 16 3 17 4 15 5 14 6 90 7 87 8 89 9 91 10 88 11
REMARK SMILES IDX 12 12 11 13 13 15 10 16 5 17 6 18 7 19 9 20 8 21 3 22 4 23
REMARK SMILES IDX 2 24 1 25 20 26 21 27 22 28 23 29 24 30 25 31 86 32 26 33
REMARK SMILES IDX 85 34 27 35 28 36 29 37 79 38 30 39 84 40 78 41 80 42 31 43
REMARK SMILES IDX 83 44 77 45 76 46 32 48 64 49 44 50 63 51 45 52 48 53 62 54
REMARK SMILES IDX 81 55 46 56 47 57 61 59 82 60 49 61 33 62 34 63 42 64 35 65
REMARK SMILES IDX 36 66 40 67 43 68 37 69 38 70 41 71 39 72 65 73 66 74 74 75
REMARK SMILES IDX 67 76 68 77 72 78 75 79 69 80 70 81 73 82 71 83 50 84 51 85
REMARK SMILES IDX 59 86 52 87 53 88 57 89 60 90 54 91 55 92 58 93 56 94
REMARK H PARENT 11 14 80 47 48 58
REMARK Flexibility Score: inf
ROOT
ATOM      1  C   UNL A   1      35.725  21.268  25.860  1.00  0.00     0.274 C 
ENDROOT
BRANCH   1   2
ATOM      2  O   UNL A   1      35.512  22.671  25.615  1.00  0.00    -0.462 OA
BRANCH   2   3
ATOM      3  C   UNL A   1      34.348  23.192  26.071  1.00  0.00     0.310 C 
ATOM      4  O   UNL A   1      33.886  23.000  27.191  1.00  0.00    -0.252 OA
BRANCH   3   5
ATOM      5  C   UNL A   1      33.652  24.086  25.066  1.00  0.00     0.119 C 
ATOM      6  C   UNL A   1      32.284  23.473  24.692  1.00  0.00     0.100 C 
ATOM      7  C   UNL A   1      32.314  23.447  23.141  1.00  0.00     0.025 C 
ATOM      8  C   UNL A   1      34.352  24.205  23.678  1.00  0.00     0.027 C 
ATOM      9  C   UNL A   1      32.426  24.845  22.587  1.00  0.00    -0.027 C 
ATOM     10  C   UNL A   1      33.771  23.010  22.913  1.00  0.00     0.017 C 
ATOM     11  C   UNL A   1      33.654  25.295  22.890  1.00  0.00    -0.027 C 
BRANCH   6  12
ATOM     12  C   UNL A   1      30.932  23.841  25.291  1.00  0.00     0.228 C 
ATOM     13  N   UNL A   1      30.275  25.016  25.387  1.00  0.00    -0.326 N 
ATOM     14  H   UNL A   1      29.594  24.959  26.096  1.00  0.00     0.169 HD
ATOM     15  O   UNL A   1      30.329  22.905  25.856  1.00  0.00    -0.274 OA
BRANCH  13  16
ATOM     16  C   UNL A   1      30.247  26.293  24.804  1.00  0.00     0.044 A 
ATOM     17  C   UNL A   1      31.150  27.321  25.194  1.00  0.00    -0.022 A 
ATOM     18  C   UNL A   1      31.091  28.557  24.485  1.00  0.00     0.006 A 
ATOM     19  C   UNL A   1      30.158  28.806  23.485  1.00  0.00     0.000 A 
ATOM     20  C   UNL A   1      29.259  26.620  23.876  1.00  0.00     0.026 A 
ATOM     21  C   UNL A   1      29.217  27.840  23.199  1.00  0.00     0.002 A 
BRANCH  17  22
ATOM     22  C   UNL A   1      32.175  27.344  26.351  1.00  0.00     0.018 C 
ATOM     23  C   UNL A   1      31.663  28.201  27.522  1.00  0.00     0.013 C 
BRANCH  22  24
ATOM     24  C   UNL A   1      33.655  27.657  26.050  1.00  0.00     0.005 C 
ATOM     25  C   UNL A   1      34.227  28.806  26.875  1.00  0.00     0.004 C 
ENDBRANCH  22  24
ENDBRANCH  17  22
ENDBRANCH  13  16
ENDBRANCH   6  12
ENDBRANCH   3   5
ENDBRANCH   2   3
ENDBRANCH   1   2
BRANCH   1  26
ATOM     26  C   UNL A   1      36.872  20.728  25.001  1.00  0.00     0.275 C 
BRANCH  26  27
ATOM     27  O   UNL A   1      38.035  21.578  25.042  1.00  0.00    -0.458 OA
BRANCH  27  28
ATOM     28  C   UNL A   1      38.939  21.275  25.998  1.00  0.00     0.338 C 
ATOM     29  O   UNL A   1      39.331  20.159  26.325  1.00  0.00    -0.246 OA
BRANCH  28  30
ATOM     30  C   UNL A   1      39.502  22.499  26.577  1.00  0.00     0.060 A 
ATOM     31  C   UNL A   1      39.018  23.726  26.123  1.00  0.00     0.016 A 
ATOM     32  C   UNL A   1      40.588  22.448  27.452  1.00  0.00     0.016 A 
ATOM     33  C   UNL A   1      39.651  24.906  26.501  1.00  0.00     0.010 A 
ATOM     34  C   UNL A   1      41.203  23.641  27.854  1.00  0.00     0.010 A 
ATOM     35  C   UNL A   1      40.760  24.880  27.357  1.00  0.00    -0.014 A 
BRANCH  35  36
ATOM     36  C   UNL A   1      41.478  26.145  27.675  1.00  0.00     0.031 A 
ATOM     37  C   UNL A   1      40.799  27.223  28.476  1.00  0.00     0.074 A 
ATOM     38  C   UNL A   1      42.753  26.322  27.278  1.00  0.00     0.049 A 
ATOM     39  N   UNL A   1      41.208  28.437  28.749  1.00  0.00    -0.248 NA
ATOM     40  C   UNL A   1      39.482  26.893  29.042  1.00  0.00     0.031 C 
ATOM     41  C   UNL A   1      43.552  25.347  26.539  1.00  0.00     0.029 A 
ATOM     42  N   UNL A   1      43.599  27.393  27.442  1.00  0.00    -0.354 N 
ATOM     43  C   UNL A   1      40.181  29.031  29.473  1.00  0.00     0.074 A 
ATOM     44  C   UNL A   1      39.130  28.044  29.598  1.00  0.00     0.031 C 
ATOM     45  C   UNL A   1      44.775  25.855  26.325  1.00  0.00     0.029 A 
ATOM     46  C   UNL A   1      44.825  27.216  26.850  1.00  0.00     0.049 A 
ATOM     47  H   UNL A   1      43.351  28.208  27.936  1.00  0.00     0.167 HD
ATOM     48  C   UNL A   1      40.121  30.286  29.981  1.00  0.00     0.037 A 
ATOM     49  C   UNL A   1      45.861  28.065  26.710  1.00  0.00     0.037 A 
ATOM     50  C   UNL A   1      41.187  31.252  29.907  1.00  0.00     0.049 A 
ATOM     51  C   UNL A   1      45.763  29.459  27.264  1.00  0.00     0.074 A 
ATOM     52  C   UNL A   1      41.229  32.532  30.435  1.00  0.00     0.029 A 
ATOM     53  N   UNL A   1      42.403  31.042  29.274  1.00  0.00    -0.354 N 
ATOM     54  N   UNL A   1      44.777  30.020  27.919  1.00  0.00    -0.248 NA
ATOM     55  C   UNL A   1      46.917  30.342  27.046  1.00  0.00     0.031 C 
ATOM     56  C   UNL A   1      42.455  33.111  30.086  1.00  0.00     0.029 A 
ATOM     57  C   UNL A   1      43.194  32.176  29.380  1.00  0.00     0.049 A 
ATOM     58  H   UNL A   1      42.665  30.211  28.818  1.00  0.00     0.167 HD
ATOM     59  C   UNL A   1      45.192  31.316  28.197  1.00  0.00     0.074 A 
ATOM     60  C   UNL A   1      46.530  31.451  27.660  1.00  0.00     0.031 C 
ATOM     61  C   UNL A   1      44.520  32.304  28.835  1.00  0.00     0.037 A 
BRANCH  48  62
ATOM     62  C   UNL A   1      38.841  30.708  30.640  1.00  0.00     0.064 A 
ATOM     63  C   UNL A   1      37.737  31.156  29.903  1.00  0.00     0.173 A 
ATOM     64  C   UNL A   1      38.708  30.617  32.035  1.00  0.00     0.173 A 
ATOM     65  F   UNL A   1      37.818  31.271  28.569  1.00  0.00    -0.203 F 
ATOM     66  C   UNL A   1      36.551  31.518  30.539  1.00  0.00     0.198 A 
ATOM     67  C   UNL A   1      37.513  30.956  32.665  1.00  0.00     0.198 A 
ATOM     68  F   UNL A   1      39.733  30.189  32.785  1.00  0.00    -0.203 F 
ATOM     69  F   UNL A   1      35.521  31.981  29.818  1.00  0.00    -0.200 F 
ATOM     70  C   UNL A   1      36.439  31.412  31.918  1.00  0.00     0.200 A 
ATOM     71  F   UNL A   1      37.403  30.840  33.996  1.00  0.00    -0.200 F 
ATOM     72  F   UNL A   1      35.295  31.754  32.527  1.00  0.00    -0.200 F 
ENDBRANCH  48  62
BRANCH  49  73
ATOM     73  C   UNL A   1      47.072  27.623  25.971  1.00  0.00     0.064 A 
ATOM     74  C   UNL A   1      48.180  27.099  26.648  1.00  0.00     0.173 A 
ATOM     75  C   UNL A   1      47.135  27.705  24.572  1.00  0.00     0.173 A 
ATOM     76  F   UNL A   1      48.174  27.026  27.987  1.00  0.00    -0.203 F 
ATOM     77  C   UNL A   1      49.310  26.675  25.952  1.00  0.00     0.198 A 
ATOM     78  C   UNL A   1      48.254  27.256  23.876  1.00  0.00     0.198 A 
ATOM     79  F   UNL A   1      46.099  28.203  23.881  1.00  0.00    -0.203 F 
ATOM     80  F   UNL A   1      50.371  26.209  26.623  1.00  0.00    -0.200 F 
ATOM     81  C   UNL A   1      49.343  26.746  24.566  1.00  0.00     0.200 A 
ATOM     82  F   UNL A   1      48.275  27.314  22.538  1.00  0.00    -0.200 F 
ATOM     83  F   UNL A   1      50.425  26.328  23.897  1.00  0.00    -0.200 F 
ENDBRANCH  49  73
BRANCH  61  84
ATOM     84  C   UNL A   1      45.226  33.618  29.002  1.00  0.00     0.064 A 
ATOM     85  C   UNL A   1      46.054  33.868  30.105  1.00  0.00     0.173 A 
ATOM     86  C   UNL A   1      45.098  34.624  28.032  1.00  0.00     0.173 A 
ATOM     87  F   UNL A   1      46.195  32.944  31.066  1.00  0.00    -0.203 F 
ATOM     88  C   UNL A   1      46.713  35.087  30.242  1.00  0.00     0.198 A 
ATOM     89  C   UNL A   1      45.778  35.832  28.161  1.00  0.00     0.198 A 
ATOM     90  F   UNL A   1      44.320  34.431  26.957  1.00  0.00    -0.203 F 
ATOM     91  F   UNL A   1      47.467  35.321  31.325  1.00  0.00    -0.200 F 
ATOM     92  C   UNL A   1      46.579  36.066  29.268  1.00  0.00     0.200 A 
ATOM     93  F   UNL A   1      45.654  36.772  27.213  1.00  0.00    -0.200 F 
ATOM     94  F   UNL A   1      47.217  37.237  29.400  1.00  0.00    -0.200 F 
ENDBRANCH  61  84
ENDBRANCH  35  36
ENDBRANCH  28  30
ENDBRANCH  27  28
ENDBRANCH  26  27
ENDBRANCH   1  26
TORSDOF 15
ENDMDL
MODEL 2
REMARK VINA RESULT:     -12.3      4.375      9.537
REMARK SMILES CC[C@@H](C)c1ccccc1NC(=O)[C@@H]1[C@@H](C(=O)OCCOC(=O)c2ccc(-c3c4nc(c(-c5c(F)c(F)c(F)c(F)c5F)c5ccc([nH]5)c(-c5c(F)c(F)c(F)c(F)c5F)c5nc(c(-c6c(F)c(F)c(F)c(F)c6F)c6ccc3[nH]6)C=C5)C=C4)cc2)[C@@H]2C=C[C@H]1C2
REMARK SMILES IDX 19 1 18 2 16 3 17 4 15 5 14 6 90 7 87 8 89 9 91 10 88 11
REMARK SMILES IDX 12 12 11 13 13 15 10 16 5 17 6 18 7 19 9 20 8 21 3 22 4 23
REMARK SMILES IDX 2 24 1 25 20 26 21 27 22 28 23 29 24 30 25 31 86 32 26 33
REMARK SMILES IDX 85 34 27 35 28 36 29 37 79 38 30 39 84 40 78 41 80 42 31 43
REMARK SMILES IDX 83 44 77 45 76 46 32 48 64 49 44 50 63 51 45 52 48 53 62 54
REMARK SMILES IDX 81 55 46 56 47 57 61 59 82 60 49 61 33 62 34 63 42 64 35 65
REMARK SMILES IDX 36 66 40 67 43 68 37 69 38 70 41 71 39 72 65 73 66 74 74 75
REMARK SMILES IDX 67 76 68 77 72 78 75 79 69 80 70 81 73 82 71 83 50 84 51 85
REMARK SMILES IDX 59 86 52 87 53 88 57 89 60 90 54 91 55 92 58 93 56 94
REMARK H PARENT 11 14 80 47 48 58
REMARK Flexibility Score: inf
ROOT
ATOM      1  C   UNL A   1      31.863  29.825  24.900  1.00  0.00     0.274 C 
ENDROOT
BRANCH   1   2
ATOM      2  O   UNL A   1      32.645  28.699  25.339  1.00  0.00    -0.462 OA
BRANCH   2   3
ATOM      3  C   UNL A   1      33.122  27.882  24.370  1.00  0.00     0.310 C 
ATOM      4  O   UNL A   1      33.921  28.218  23.502  1.00  0.00    -0.252 OA
BRANCH   3   5
ATOM      5  C   UNL A   1      32.597  26.464  24.462  1.00  0.00     0.119 C 
ATOM      6  C   UNL A   1      32.090  26.011  23.075  1.00  0.00     0.100 C 
ATOM      7  C   UNL A   1      30.657  25.493  23.369  1.00  0.00     0.025 C 
ATOM      8  C   UNL A   1      31.334  26.275  25.356  1.00  0.00     0.027 C 
ATOM      9  C   UNL A   1      30.700  24.320  24.316  1.00  0.00    -0.027 C 
ATOM     10  C   UNL A   1      30.191  26.560  24.373  1.00  0.00     0.017 C 
ATOM     11  C   UNL A   1      31.086  24.789  25.513  1.00  0.00    -0.027 C 
BRANCH   6  12
ATOM     12  C   UNL A   1      32.862  25.188  22.052  1.00  0.00     0.228 C 
ATOM     13  N   UNL A   1      33.435  23.967  22.120  1.00  0.00    -0.326 N 
ATOM     14  H   UNL A   1      34.108  23.877  21.407  1.00  0.00     0.169 HD
ATOM     15  O   UNL A   1      33.065  25.754  20.958  1.00  0.00    -0.274 OA
BRANCH  13  16
ATOM     16  C   UNL A   1      33.382  22.786  22.877  1.00  0.00     0.044 A 
ATOM     17  C   UNL A   1      34.310  22.517  23.922  1.00  0.00    -0.022 A 
ATOM     18  C   UNL A   1      34.121  21.325  24.681  1.00  0.00     0.006 A 
ATOM     19  C   UNL A   1      33.116  20.406  24.402  1.00  0.00     0.000 A 
ATOM     20  C   UNL A   1      32.460  21.790  22.559  1.00  0.00     0.026 A 
ATOM     21  C   UNL A   1      32.298  20.627  23.315  1.00  0.00     0.002 A 
BRANCH  17  22
ATOM     22  C   UNL A   1      35.577  23.297  24.338  1.00  0.00     0.018 C 
ATOM     23  C   UNL A   1      36.768  22.933  23.433  1.00  0.00     0.013 C 
BRANCH  22  24
ATOM     24  C   UNL A   1      36.005  23.321  25.820  1.00  0.00     0.005 C 
ATOM     25  C   UNL A   1      37.431  23.811  26.047  1.00  0.00     0.004 C 
ENDBRANCH  22  24
ENDBRANCH  17  22
ENDBRANCH  13  16
ENDBRANCH   6  12
ENDBRANCH   3   5
ENDBRANCH   2   3
ENDBRANCH   1   2
BRANCH   1  26
ATOM     26  C   UNL A   1      31.565  30.776  26.064  1.00  0.00     0.275 C 
BRANCH  26  27
ATOM     27  O   UNL A   1      32.528  30.656  27.129  1.00  0.00    -0.458 OA
BRANCH  27  28
ATOM     28  C   UNL A   1      33.274  31.757  27.360  1.00  0.00     0.338 C 
ATOM     29  O   UNL A   1      32.922  32.929  27.264  1.00  0.00    -0.246 OA
BRANCH  28  30
ATOM     30  C   UNL A   1      34.603  31.381  27.851  1.00  0.00     0.060 A 
ATOM     31  C   UNL A   1      34.801  30.068  28.280  1.00  0.00     0.016 A 
ATOM     32  C   UNL A   1      35.606  32.337  28.021  1.00  0.00     0.016 A 
ATOM     33  C   UNL A   1      35.981  29.718  28.928  1.00  0.00     0.010 A 
ATOM     34  C   UNL A   1      36.805  31.973  28.647  1.00  0.00     0.010 A 
ATOM     35  C   UNL A   1      36.991  30.666  29.136  1.00  0.00    -0.014 A 
BRANCH  35  36
ATOM     36  C   UNL A   1      38.206  30.295  29.911  1.00  0.00     0.031 A 
ATOM     37  C   UNL A   1      39.238  29.377  29.314  1.00  0.00     0.074 A 
ATOM     38  C   UNL A   1      38.410  30.804  31.142  1.00  0.00     0.049 A 
ATOM     39  N   UNL A   1      40.295  28.840  29.872  1.00  0.00    -0.248 NA
ATOM     40  C   UNL A   1      39.054  29.010  27.902  1.00  0.00     0.031 C 
ATOM     41  C   UNL A   1      37.523  31.742  31.826  1.00  0.00     0.029 A 
ATOM     42  N   UNL A   1      39.434  30.599  32.036  1.00  0.00    -0.354 N 
ATOM     43  C   UNL A   1      40.872  28.034  28.898  1.00  0.00     0.074 A 
ATOM     44  C   UNL A   1      40.049  28.153  27.714  1.00  0.00     0.031 C 
ATOM     45  C   UNL A   1      38.045  32.043  33.025  1.00  0.00     0.029 A 
ATOM     46  C   UNL A   1      39.266  31.268  33.223  1.00  0.00     0.049 A 
ATOM     47  H   UNL A   1      40.212  30.026  31.844  1.00  0.00     0.167 HD
ATOM     48  C   UNL A   1      41.983  27.264  28.987  1.00  0.00     0.037 A 
ATOM     49  C   UNL A   1      39.990  31.235  34.358  1.00  0.00     0.037 A 
ATOM     50  C   UNL A   1      42.835  27.186  30.146  1.00  0.00     0.049 A 
ATOM     51  C   UNL A   1      41.206  30.355  34.440  1.00  0.00     0.074 A 
ATOM     52  C   UNL A   1      44.007  26.465  30.308  1.00  0.00     0.029 A 
ATOM     53  N   UNL A   1      42.613  27.859  31.338  1.00  0.00    -0.354 N 
ATOM     54  N   UNL A   1      41.726  29.575  33.525  1.00  0.00    -0.248 NA
ATOM     55  C   UNL A   1      41.930  30.343  35.720  1.00  0.00     0.031 C 
ATOM     56  C   UNL A   1      44.473  26.671  31.611  1.00  0.00     0.029 A 
ATOM     57  C   UNL A   1      43.615  27.554  32.247  1.00  0.00     0.049 A 
ATOM     58  H   UNL A   1      41.858  28.464  31.512  1.00  0.00     0.167 HD
ATOM     59  C   UNL A   1      42.837  28.984  34.112  1.00  0.00     0.074 A 
ATOM     60  C   UNL A   1      42.931  29.515  35.456  1.00  0.00     0.031 C 
ATOM     61  C   UNL A   1      43.697  28.080  33.585  1.00  0.00     0.037 A 
BRANCH  48  62
ATOM     62  C   UNL A   1      42.331  26.407  27.806  1.00  0.00     0.064 A 
ATOM     63  C   UNL A   1      43.290  26.797  26.860  1.00  0.00     0.173 A 
ATOM     64  C   UNL A   1      41.725  25.151  27.647  1.00  0.00     0.173 A 
ATOM     65  F   UNL A   1      43.889  27.993  26.961  1.00  0.00    -0.203 F 
ATOM     66  C   UNL A   1      43.612  25.971  25.786  1.00  0.00     0.198 A 
ATOM     67  C   UNL A   1      42.068  24.317  26.586  1.00  0.00     0.198 A 
ATOM     68  F   UNL A   1      40.806  24.729  28.528  1.00  0.00    -0.203 F 
ATOM     69  F   UNL A   1      44.502  26.381  24.872  1.00  0.00    -0.200 F 
ATOM     70  C   UNL A   1      43.006  24.730  25.653  1.00  0.00     0.200 A 
ATOM     71  F   UNL A   1      41.490  23.114  26.468  1.00  0.00    -0.200 F 
ATOM     72  F   UNL A   1      43.323  23.933  24.624  1.00  0.00    -0.200 F 
ENDBRANCH  48  62
BRANCH  49  73
ATOM     73  C   UNL A   1      39.550  32.036  35.528  1.00  0.00     0.064 A 
ATOM     74  C   UNL A   1      38.612  31.531  36.439  1.00  0.00     0.173 A 
ATOM     75  C   UNL A   1      40.071  33.317  35.764  1.00  0.00     0.173 A 
ATOM     76  F   UNL A   1      38.069  30.322  36.238  1.00  0.00    -0.203 F 
ATOM     77  C   UNL A   1      38.209  32.281  37.541  1.00  0.00     0.198 A 
ATOM     78  C   UNL A   1      39.687  34.053  36.882  1.00  0.00     0.198 A 
ATOM     79  F   UNL A   1      40.968  33.844  34.918  1.00  0.00    -0.203 F 
ATOM     80  F   UNL A   1      37.286  31.791  38.379  1.00  0.00    -0.200 F 
ATOM     81  C   UNL A   1      38.753  33.538  37.767  1.00  0.00     0.200 A 
ATOM     82  F   UNL A   1      40.225  35.260  37.102  1.00  0.00    -0.200 F 
ATOM     83  F   UNL A   1      38.373  34.253  38.834  1.00  0.00    -0.200 F 
ENDBRANCH  49  73
BRANCH  61  84
ATOM     84  C   UNL A   1      44.825  27.615  34.457  1.00  0.00     0.064 A 
ATOM     85  C   UNL A   1      46.043  28.308  34.510  1.00  0.00     0.173 A 
ATOM     86  C   UNL A   1      44.676  26.482  35.272  1.00  0.00     0.173 A 
ATOM     87  F   UNL A   1      46.239  29.387  33.737  1.00  0.00    -0.203 F 
ATOM     88  C   UNL A   1      47.078  27.873  35.332  1.00  0.00     0.198 A 
ATOM     89  C   UNL A   1      45.705  26.065  36.111  1.00  0.00     0.198 A 
ATOM     90  F   UNL A   1      43.530  25.787  35.260  1.00  0.00    -0.203 F 
ATOM     91  F   UNL A   1      48.248  28.527  35.337  1.00  0.00    -0.200 F 
ATOM     92  C   UNL A   1      46.907  26.756  36.137  1.00  0.00     0.200 A 
ATOM     93  F   UNL A   1      45.534  24.991  36.895  1.00  0.00    -0.200 F 
ATOM     94  F   UNL A   1      47.904  26.341  36.930  1.00  0.00    -0.200 F 
ENDBRANCH  61  84
ENDBRANCH  35  36
ENDBRANCH  28  30
ENDBRANCH  27  28
ENDBRANCH  26  27
ENDBRANCH   1  26
TORSDOF 15
ENDMDL
MODEL 3
REMARK VINA RESULT:     -12.2      4.243      9.483
REMARK SMILES CC[C@@H](C)c1ccccc1NC(=O)[C@@H]1[C@@H](C(=O)OCCOC(=O)c2ccc(-c3c4nc(c(-c5c(F)c(F)c(F)c(F)c5F)c5ccc([nH]5)c(-c5c(F)c(F)c(F)c(F)c5F)c5nc(c(-c6c(F)c(F)c(F)c(F)c6F)c6ccc3[nH]6)C=C5)C=C4)cc2)[C@@H]2C=C[C@H]1C2
REMARK SMILES IDX 19 1 18 2 16 3 17 4 15 5 14 6 90 7 87 8 89 9 91 10 88 11
REMARK SMILES IDX 12 12 11 13 13 15 10 16 5 17 6 18 7 19 9 20 8 21 3 22 4 23
REMARK SMILES IDX 2 24 1 25 20 26 21 27 22 28 23 29 24 30 25 31 86 32 26 33
REMARK SMILES IDX 85 34 27 35 28 36 29 37 79 38 30 39 84 40 78 41 80 42 31 43
REMARK SMILES IDX 83 44 77 45 76 46 32 48 64 49 44 50 63 51 45 52 48 53 62 54
REMARK SMILES IDX 81 55 46 56 47 57 61 59 82 60 49 61 33 62 34 63 42 64 35 65
REMARK SMILES IDX 36 66 40 67 43 68 37 69 38 70 41 71 39 72 65 73 66 74 74 75
REMARK SMILES IDX 67 76 68 77 72 78 75 79 69 80 70 81 73 82 71 83 50 84 51 85
REMARK SMILES IDX 59 86 52 87 53 88 57 89 60 90 54 91 55 92 58 93 56 94
REMARK H PARENT 11 14 80 47 48 58
REMARK Flexibility Score: inf
ROOT
ATOM      1  C   UNL A   1      31.097  29.463  24.482  1.00  0.00     0.274 C 
ENDROOT
BRANCH   1   2
ATOM      2  O   UNL A   1      30.880  28.136  24.998  1.00  0.00    -0.462 OA
BRANCH   2   3
ATOM      3  C   UNL A   1      30.357  27.232  24.136  1.00  0.00     0.310 C 
ATOM      4  O   UNL A   1      29.216  27.273  23.687  1.00  0.00    -0.252 OA
BRANCH   3   5
ATOM      5  C   UNL A   1      31.333  26.148  23.731  1.00  0.00     0.119 C 
ATOM      6  C   UNL A   1      32.724  26.457  24.328  1.00  0.00     0.100 C 
ATOM      7  C   UNL A   1      33.669  26.371  23.101  1.00  0.00     0.025 C 
ATOM      8  C   UNL A   1      31.640  26.059  22.205  1.00  0.00     0.027 C 
ATOM      9  C   UNL A   1      33.653  24.982  22.514  1.00  0.00    -0.027 C 
ATOM     10  C   UNL A   1      32.792  27.060  22.043  1.00  0.00     0.017 C 
ATOM     11  C   UNL A   1      32.445  24.799  21.958  1.00  0.00    -0.027 C 
BRANCH   6  12
ATOM     12  C   UNL A   1      33.305  25.885  25.615  1.00  0.00     0.228 C 
ATOM     13  N   UNL A   1      33.463  24.617  26.051  1.00  0.00    -0.326 N 
ATOM     14  H   UNL A   1      33.569  24.613  27.029  1.00  0.00     0.169 HD
ATOM     15  O   UNL A   1      33.653  26.732  26.464  1.00  0.00    -0.274 OA
BRANCH  13  16
ATOM     16  C   UNL A   1      33.524  23.303  25.561  1.00  0.00     0.044 A 
ATOM     17  C   UNL A   1      34.721  22.750  25.027  1.00  0.00    -0.022 A 
ATOM     18  C   UNL A   1      34.696  21.381  24.629  1.00  0.00     0.006 A 
ATOM     19  C   UNL A   1      33.548  20.600  24.688  1.00  0.00     0.000 A 
ATOM     20  C   UNL A   1      32.370  22.522  25.501  1.00  0.00     0.026 A 
ATOM     21  C   UNL A   1      32.369  21.185  25.101  1.00  0.00     0.002 A 
BRANCH  17  22
ATOM     22  C   UNL A   1      36.074  23.435  24.730  1.00  0.00     0.018 C 
ATOM     23  C   UNL A   1      36.651  22.953  23.387  1.00  0.00     0.013 C 
BRANCH  22  24
ATOM     24  C   UNL A   1      37.168  23.462  25.817  1.00  0.00     0.005 C 
ATOM     25  C   UNL A   1      38.141  22.289  25.749  1.00  0.00     0.004 C 
ENDBRANCH  22  24
ENDBRANCH  17  22
ENDBRANCH  13  16
ENDBRANCH   6  12
ENDBRANCH   3   5
ENDBRANCH   2   3
ENDBRANCH   1   2
BRANCH   1  26
ATOM     26  C   UNL A   1      31.403  30.450  25.613  1.00  0.00     0.275 C 
BRANCH  26  27
ATOM     27  O   UNL A   1      32.739  30.292  26.131  1.00  0.00    -0.458 OA
BRANCH  27  28
ATOM     28  C   UNL A   1      33.169  31.287  26.935  1.00  0.00     0.338 C 
ATOM     29  O   UNL A   1      32.551  32.293  27.270  1.00  0.00    -0.246 OA
BRANCH  28  30
ATOM     30  C   UNL A   1      34.499  30.977  27.467  1.00  0.00     0.060 A 
ATOM     31  C   UNL A   1      34.768  29.662  27.845  1.00  0.00     0.016 A 
ATOM     32  C   UNL A   1      35.427  31.989  27.722  1.00  0.00     0.016 A 
ATOM     33  C   UNL A   1      35.942  29.361  28.528  1.00  0.00     0.010 A 
ATOM     34  C   UNL A   1      36.621  31.676  28.383  1.00  0.00     0.010 A 
ATOM     35  C   UNL A   1      36.876  30.363  28.821  1.00  0.00    -0.014 A 
BRANCH  35  36
ATOM     36  C   UNL A   1      38.081  30.037  29.632  1.00  0.00     0.031 A 
ATOM     37  C   UNL A   1      39.145  29.127  29.080  1.00  0.00     0.074 A 
ATOM     38  C   UNL A   1      38.248  30.580  30.853  1.00  0.00     0.049 A 
ATOM     39  N   UNL A   1      40.200  28.627  29.674  1.00  0.00    -0.248 NA
ATOM     40  C   UNL A   1      39.000  28.721  27.673  1.00  0.00     0.031 C 
ATOM     41  C   UNL A   1      37.326  31.516  31.495  1.00  0.00     0.029 A 
ATOM     42  N   UNL A   1      39.255  30.419  31.774  1.00  0.00    -0.354 N 
ATOM     43  C   UNL A   1      40.815  27.810  28.733  1.00  0.00     0.074 A 
ATOM     44  C   UNL A   1      40.017  27.882  27.528  1.00  0.00     0.031 C 
ATOM     45  C   UNL A   1      37.815  31.857  32.697  1.00  0.00     0.029 A 
ATOM     46  C   UNL A   1      39.047  31.113  32.940  1.00  0.00     0.049 A 
ATOM     47  H   UNL A   1      40.049  29.859  31.613  1.00  0.00     0.167 HD
ATOM     48  C   UNL A   1      41.940  27.066  28.865  1.00  0.00     0.037 A 
ATOM     49  C   UNL A   1      39.746  31.123  34.091  1.00  0.00     0.037 A 
ATOM     50  C   UNL A   1      42.768  27.035  30.043  1.00  0.00     0.049 A 
ATOM     51  C   UNL A   1      40.979  30.272  34.221  1.00  0.00     0.074 A 
ATOM     52  C   UNL A   1      43.951  26.343  30.248  1.00  0.00     0.029 A 
ATOM     53  N   UNL A   1      42.506  27.732  31.213  1.00  0.00    -0.354 N 
ATOM     54  N   UNL A   1      41.534  29.481  33.337  1.00  0.00    -0.248 NA
ATOM     55  C   UNL A   1      41.674  30.307  35.516  1.00  0.00     0.031 C 
ATOM     56  C   UNL A   1      44.384  26.591  31.556  1.00  0.00     0.029 A 
ATOM     57  C   UNL A   1      43.494  27.471  32.151  1.00  0.00     0.049 A 
ATOM     58  H   UNL A   1      41.734  28.324  31.356  1.00  0.00     0.167 HD
ATOM     59  C   UNL A   1      42.644  28.929  33.962  1.00  0.00     0.074 A 
ATOM     60  C   UNL A   1      42.698  29.494  35.295  1.00  0.00     0.031 C 
ATOM     61  C   UNL A   1      43.535  28.031  33.476  1.00  0.00     0.037 A 
BRANCH  48  62
ATOM     62  C   UNL A   1      42.333  26.188  27.713  1.00  0.00     0.064 A 
ATOM     63  C   UNL A   1      43.334  26.556  26.804  1.00  0.00     0.173 A 
ATOM     64  C   UNL A   1      41.723  24.935  27.547  1.00  0.00     0.173 A 
ATOM     65  F   UNL A   1      43.939  27.749  26.913  1.00  0.00    -0.203 F 
ATOM     66  C   UNL A   1      43.696  25.711  25.758  1.00  0.00     0.198 A 
ATOM     67  C   UNL A   1      42.104  24.082  26.515  1.00  0.00     0.198 A 
ATOM     68  F   UNL A   1      40.763  24.533  28.394  1.00  0.00    -0.203 F 
ATOM     69  F   UNL A   1      44.628  26.099  24.877  1.00  0.00    -0.200 F 
ATOM     70  C   UNL A   1      43.086  24.473  25.618  1.00  0.00     0.200 A 
ATOM     71  F   UNL A   1      41.522  22.881  26.390  1.00  0.00    -0.200 F 
ATOM     72  F   UNL A   1      43.441  23.658  24.615  1.00  0.00    -0.200 F 
ENDBRANCH  48  62
BRANCH  49  73
ATOM     73  C   UNL A   1      39.263  31.943  35.231  1.00  0.00     0.064 A 
ATOM     74  C   UNL A   1      39.572  33.306  35.323  1.00  0.00     0.173 A 
ATOM     75  C   UNL A   1      38.471  31.380  36.243  1.00  0.00     0.173 A 
ATOM     76  F   UNL A   1      40.348  33.881  34.392  1.00  0.00    -0.203 F 
ATOM     77  C   UNL A   1      39.110  34.076  36.387  1.00  0.00     0.198 A 
ATOM     78  C   UNL A   1      37.987  32.157  37.292  1.00  0.00     0.198 A 
ATOM     79  F   UNL A   1      38.152  30.078  36.199  1.00  0.00    -0.203 F 
ATOM     80  F   UNL A   1      39.447  35.369  36.472  1.00  0.00    -0.200 F 
ATOM     81  C   UNL A   1      38.310  33.502  37.366  1.00  0.00     0.200 A 
ATOM     82  F   UNL A   1      37.204  31.602  38.227  1.00  0.00    -0.200 F 
ATOM     83  F   UNL A   1      37.856  34.246  38.384  1.00  0.00    -0.200 F 
ENDBRANCH  49  73
BRANCH  61  84
ATOM     84  C   UNL A   1      44.653  27.611  34.384  1.00  0.00     0.064 A 
ATOM     85  C   UNL A   1      44.557  26.460  35.178  1.00  0.00     0.173 A 
ATOM     86  C   UNL A   1      45.845  28.350  34.436  1.00  0.00     0.173 A 
ATOM     87  F   UNL A   1      43.432  25.730  35.176  1.00  0.00    -0.203 F 
ATOM     88  C   UNL A   1      45.607  26.074  36.008  1.00  0.00     0.198 A 
ATOM     89  C   UNL A   1      46.901  27.948  35.248  1.00  0.00     0.198 A 
ATOM     90  F   UNL A   1      45.987  29.457  33.692  1.00  0.00    -0.203 F 
ATOM     91  F   UNL A   1      45.479  24.993  36.790  1.00  0.00    -0.200 F 
ATOM     92  C   UNL A   1      46.780  26.814  36.038  1.00  0.00     0.200 A 
ATOM     93  F   UNL A   1      48.037  28.659  35.268  1.00  0.00    -0.200 F 
ATOM     94  F   UNL A   1      47.790  26.439  36.834  1.00  0.00    -0.200 F 
ENDBRANCH  61  84
ENDBRANCH  35  36
ENDBRANCH  28  30
ENDBRANCH  27  28
ENDBRANCH  26  27
ENDBRANCH   1  26
TORSDOF 15
ENDMDL
