MODEL 1
REMARK VINA RESULT:     -13.2      0.000      0.000
REMARK SMILES CC[C@@H](Sc1nnc2ccc3ccccc3n12)C(=O)Nc1cccc(C(=O)OCCOC(=O)c2ccc(-c3c4nc(c(-c5c(F)c(F)c(F)c(F)c5F)c5ccc([nH]5)c(-c5c(F)c(F)c(F)c(F)c5F)c5nc(c(-c6c(F)c(F)c(F)c(F)c6F)c6ccc3[nH]6)C=C5)C=C4)cc2)c1
REMARK SMILES IDX 29 1 28 2 26 3 27 4 25 5 21 6 22 7 97 8 23 9 24 10 20 11
REMARK SMILES IDX 18 12 19 13 3 15 2 16 1 17 4 18 5 19 6 20 17 21 7 22 8 23
REMARK SMILES IDX 16 24 9 25 11 26 15 27 10 28 12 29 14 30 13 31 30 32 31 33
REMARK SMILES IDX 32 34 33 35 34 36 35 37 96 38 36 39 95 40 37 41 38 42 39 43
REMARK SMILES IDX 89 44 40 45 94 46 88 47 90 48 41 49 93 50 87 51 86 52 42 54
REMARK SMILES IDX 74 55 54 56 73 57 55 58 58 59 72 60 91 61 56 62 57 63 71 65
REMARK SMILES IDX 92 66 59 67 43 68 44 69 52 70 45 71 46 72 50 73 53 74 47 75
REMARK SMILES IDX 48 76 51 77 49 78 75 79 76 80 84 81 77 82 78 83 82 84 85 85
REMARK SMILES IDX 79 86 80 87 83 88 81 89 60 90 61 91 69 92 62 93 63 94 67 95
REMARK SMILES IDX 70 96 64 97 65 98 68 99 66 100
REMARK H PARENT 20 14 90 53 58 64
REMARK Flexibility Score: inf
ROOT
ATOM      1  C   UNL A   1      40.182  20.442  26.371  1.00  0.00     0.275 C 
ENDROOT
BRANCH   1   2
ATOM      2  O   UNL A   1      39.192  21.452  26.033  1.00  0.00    -0.458 OA
BRANCH   2   3
ATOM      3  C   UNL A   1      38.085  20.966  25.425  1.00  0.00     0.338 C 
ATOM      4  O   UNL A   1      38.032  19.890  24.841  1.00  0.00    -0.246 OA
BRANCH   3   5
ATOM      5  C   UNL A   1      36.867  21.813  25.577  1.00  0.00     0.062 A 
ATOM      6  C   UNL A   1      34.607  22.430  26.090  1.00  0.00     0.042 A 
ATOM      7  C   UNL A   1      34.898  23.785  25.928  1.00  0.00     0.026 A 
ATOM      8  C   UNL A   1      35.607  21.440  26.017  1.00  0.00     0.041 A 
ATOM      9  C   UNL A   1      36.124  24.157  25.445  1.00  0.00     0.003 A 
ATOM     10  C   UNL A   1      37.054  23.152  25.245  1.00  0.00     0.016 A 
BRANCH   6  11
ATOM     11  N   UNL A   1      33.281  22.076  26.324  1.00  0.00    -0.325 N 
ATOM     12  C   UNL A   1      32.214  22.193  25.460  1.00  0.00     0.237 C 
ATOM     13  O   UNL A   1      31.083  22.128  25.959  1.00  0.00    -0.273 OA
ATOM     14  H   UNL A   1      33.082  21.698  27.211  1.00  0.00     0.169 HD
BRANCH  12  15
ATOM     15  C   UNL A   1      32.373  22.300  23.904  1.00  0.00     0.144 C 
BRANCH  15  16
ATOM     16  C   UNL A   1      32.188  20.974  23.139  1.00  0.00     0.021 C 
ATOM     17  C   UNL A   1      31.778  21.079  21.676  1.00  0.00     0.005 C 
ENDBRANCH  15  16
BRANCH  15  18
ATOM     18  S   UNL A   1      31.320  23.698  23.306  1.00  0.00    -0.072 SA
BRANCH  18  19
ATOM     19  C   UNL A   1      32.470  24.875  22.775  1.00  0.00     0.196 A 
ATOM     20  N   UNL A   1      33.190  24.761  21.680  1.00  0.00    -0.122 NA
ATOM     21  N   UNL A   1      32.633  26.142  23.306  1.00  0.00    -0.270 N 
ATOM     22  N   UNL A   1      33.654  26.008  21.347  1.00  0.00    -0.129 NA
ATOM     23  C   UNL A   1      33.259  26.845  22.282  1.00  0.00     0.161 A 
ATOM     24  C   UNL A   1      32.308  26.743  24.549  1.00  0.00     0.057 A 
ATOM     25  C   UNL A   1      33.388  28.251  22.378  1.00  0.00     0.050 A 
ATOM     26  C   UNL A   1      32.465  28.143  24.631  1.00  0.00    -0.001 A 
ATOM     27  C   UNL A   1      31.932  26.020  25.679  1.00  0.00     0.027 A 
ATOM     28  C   UNL A   1      32.984  28.895  23.482  1.00  0.00     0.014 A 
ATOM     29  C   UNL A   1      32.157  28.811  25.822  1.00  0.00     0.010 A 
ATOM     30  C   UNL A   1      31.688  26.698  26.879  1.00  0.00     0.002 A 
ATOM     31  C   UNL A   1      31.764  28.087  26.943  1.00  0.00     0.001 A 
ENDBRANCH  18  19
ENDBRANCH  15  18
ENDBRANCH  12  15
ENDBRANCH   6  11
ENDBRANCH   3   5
ENDBRANCH   2   3
ENDBRANCH   1   2
BRANCH   1  32
ATOM     32  C   UNL A   1      41.624  20.971  26.306  1.00  0.00     0.275 C 
BRANCH  32  33
ATOM     33  O   UNL A   1      41.734  22.099  25.420  1.00  0.00    -0.458 OA
BRANCH  33  34
ATOM     34  C   UNL A   1      42.421  23.132  25.960  1.00  0.00     0.338 C 
ATOM     35  O   UNL A   1      43.477  23.563  25.541  1.00  0.00    -0.246 OA
BRANCH  34  36
ATOM     36  C   UNL A   1      41.585  23.920  26.890  1.00  0.00     0.060 A 
ATOM     37  C   UNL A   1      40.519  24.699  26.426  1.00  0.00     0.016 A 
ATOM     38  C   UNL A   1      42.195  24.205  28.109  1.00  0.00     0.016 A 
ATOM     39  C   UNL A   1      40.298  25.948  27.002  1.00  0.00     0.010 A 
ATOM     40  C   UNL A   1      41.964  25.439  28.680  1.00  0.00     0.010 A 
ATOM     41  C   UNL A   1      41.131  26.373  28.037  1.00  0.00    -0.014 A 
BRANCH  41  42
ATOM     42  C   UNL A   1      41.089  27.749  28.556  1.00  0.00     0.031 A 
ATOM     43  C   UNL A   1      42.220  28.516  28.011  1.00  0.00     0.074 A 
ATOM     44  C   UNL A   1      40.167  28.390  29.321  1.00  0.00     0.049 A 
ATOM     45  N   UNL A   1      43.355  28.641  28.610  1.00  0.00    -0.248 NA
ATOM     46  C   UNL A   1      42.207  28.978  26.618  1.00  0.00     0.031 C 
ATOM     47  C   UNL A   1      38.888  27.940  29.881  1.00  0.00     0.029 A 
ATOM     48  N   UNL A   1      40.169  29.709  29.697  1.00  0.00    -0.354 N 
ATOM     49  C   UNL A   1      44.134  29.381  27.747  1.00  0.00     0.074 A 
ATOM     50  C   UNL A   1      43.491  29.310  26.460  1.00  0.00     0.031 C 
ATOM     51  C   UNL A   1      38.117  29.002  30.226  1.00  0.00     0.029 A 
ATOM     52  C   UNL A   1      38.953  30.184  30.193  1.00  0.00     0.049 A 
ATOM     53  H   UNL A   1      40.968  30.279  29.622  1.00  0.00     0.167 HD
ATOM     54  C   UNL A   1      45.055  30.249  28.235  1.00  0.00     0.037 A 
ATOM     55  C   UNL A   1      38.688  31.424  30.674  1.00  0.00     0.037 A 
ATOM     56  C   UNL A   1      45.239  30.068  29.658  1.00  0.00     0.049 A 
ATOM     57  C   UNL A   1      39.980  31.956  31.149  1.00  0.00     0.074 A 
ATOM     58  C   UNL A   1      45.673  29.041  30.474  1.00  0.00     0.029 A 
ATOM     59  N   UNL A   1      44.541  30.929  30.467  1.00  0.00    -0.354 N 
ATOM     60  N   UNL A   1      40.621  31.480  32.178  1.00  0.00    -0.248 NA
ATOM     61  C   UNL A   1      40.756  32.791  30.251  1.00  0.00     0.031 C 
ATOM     62  C   UNL A   1      44.895  29.141  31.667  1.00  0.00     0.029 A 
ATOM     63  C   UNL A   1      44.055  30.248  31.553  1.00  0.00     0.049 A 
ATOM     64  H   UNL A   1      44.410  31.890  30.294  1.00  0.00     0.167 HD
ATOM     65  C   UNL A   1      41.951  31.558  31.810  1.00  0.00     0.074 A 
ATOM     66  C   UNL A   1      41.979  32.508  30.702  1.00  0.00     0.031 C 
ATOM     67  C   UNL A   1      42.840  30.621  32.247  1.00  0.00     0.037 A 
BRANCH  54  68
ATOM     68  C   UNL A   1      45.458  31.513  27.530  1.00  0.00     0.064 A 
ATOM     69  C   UNL A   1      46.799  31.671  27.140  1.00  0.00     0.173 A 
ATOM     70  C   UNL A   1      44.655  32.673  27.446  1.00  0.00     0.173 A 
ATOM     71  F   UNL A   1      47.659  30.646  27.230  1.00  0.00    -0.203 F 
ATOM     72  C   UNL A   1      47.302  32.907  26.728  1.00  0.00     0.198 A 
ATOM     73  C   UNL A   1      45.143  33.885  26.970  1.00  0.00     0.198 A 
ATOM     74  F   UNL A   1      43.409  32.719  27.931  1.00  0.00    -0.203 F 
ATOM     75  F   UNL A   1      48.611  33.038  26.476  1.00  0.00    -0.200 F 
ATOM     76  C   UNL A   1      46.473  34.010  26.636  1.00  0.00     0.200 A 
ATOM     77  F   UNL A   1      44.327  34.947  26.919  1.00  0.00    -0.200 F 
ATOM     78  F   UNL A   1      46.963  35.204  26.280  1.00  0.00    -0.200 F 
ENDBRANCH  54  68
BRANCH  55  79
ATOM     79  C   UNL A   1      37.487  32.293  30.596  1.00  0.00     0.064 A 
ATOM     80  C   UNL A   1      37.163  32.961  29.399  1.00  0.00     0.173 A 
ATOM     81  C   UNL A   1      36.460  32.187  31.549  1.00  0.00     0.173 A 
ATOM     82  F   UNL A   1      38.077  33.084  28.425  1.00  0.00    -0.203 F 
ATOM     83  C   UNL A   1      35.870  33.426  29.139  1.00  0.00     0.198 A 
ATOM     84  C   UNL A   1      35.167  32.656  31.289  1.00  0.00     0.198 A 
ATOM     85  F   UNL A   1      36.664  31.523  32.696  1.00  0.00    -0.203 F 
ATOM     86  F   UNL A   1      35.580  33.969  27.947  1.00  0.00    -0.200 F 
ATOM     87  C   UNL A   1      34.867  33.254  30.075  1.00  0.00     0.200 A 
ATOM     88  F   UNL A   1      34.191  32.452  32.186  1.00  0.00    -0.200 F 
ATOM     89  F   UNL A   1      33.607  33.617  29.793  1.00  0.00    -0.200 F 
ENDBRANCH  55  79
BRANCH  67  90
ATOM     90  C   UNL A   1      42.431  29.780  33.430  1.00  0.00     0.064 A 
ATOM     91  C   UNL A   1      41.836  28.508  33.347  1.00  0.00     0.173 A 
ATOM     92  C   UNL A   1      42.753  30.252  34.709  1.00  0.00     0.173 A 
ATOM     93  F   UNL A   1      41.561  27.950  32.164  1.00  0.00    -0.203 F 
ATOM     94  C   UNL A   1      41.552  27.763  34.493  1.00  0.00     0.198 A 
ATOM     95  C   UNL A   1      42.502  29.492  35.849  1.00  0.00     0.198 A 
ATOM     96  F   UNL A   1      43.354  31.443  34.851  1.00  0.00    -0.203 F 
ATOM     97  F   UNL A   1      40.973  26.558  34.386  1.00  0.00    -0.200 F 
ATOM     98  C   UNL A   1      41.895  28.252  35.741  1.00  0.00     0.200 A 
ATOM     99  F   UNL A   1      42.872  29.954  37.051  1.00  0.00    -0.200 F 
ATOM    100  F   UNL A   1      41.661  27.520  36.840  1.00  0.00    -0.200 F 
ENDBRANCH  67  90
ENDBRANCH  41  42
ENDBRANCH  34  36
ENDBRANCH  33  34
ENDBRANCH  32  33
ENDBRANCH   1  32
TORSDOF 16
ENDMDL
MODEL 2
REMARK VINA RESULT:     -13.0      4.656      9.642
REMARK SMILES CC[C@@H](Sc1nnc2ccc3ccccc3n12)C(=O)Nc1cccc(C(=O)OCCOC(=O)c2ccc(-c3c4nc(c(-c5c(F)c(F)c(F)c(F)c5F)c5ccc([nH]5)c(-c5c(F)c(F)c(F)c(F)c5F)c5nc(c(-c6c(F)c(F)c(F)c(F)c6F)c6ccc3[nH]6)C=C5)C=C4)cc2)c1
REMARK SMILES IDX 29 1 28 2 26 3 27 4 25 5 21 6 22 7 97 8 23 9 24 10 20 11
REMARK SMILES IDX 18 12 19 13 3 15 2 16 1 17 4 18 5 19 6 20 17 21 7 22 8 23
REMARK SMILES IDX 16 24 9 25 11 26 15 27 10 28 12 29 14 30 13 31 30 32 31 33
REMARK SMILES IDX 32 34 33 35 34 36 35 37 96 38 36 39 95 40 37 41 38 42 39 43
REMARK SMILES IDX 89 44 40 45 94 46 88 47 90 48 41 49 93 50 87 51 86 52 42 54
REMARK SMILES IDX 74 55 54 56 73 57 55 58 58 59 72 60 91 61 56 62 57 63 71 65
REMARK SMILES IDX 92 66 59 67 43 68 44 69 52 70 45 71 46 72 50 73 53 74 47 75
REMARK SMILES IDX 48 76 51 77 49 78 75 79 76 80 84 81 77 82 78 83 82 84 85 85
REMARK SMILES IDX 79 86 80 87 83 88 81 89 60 90 61 91 69 92 62 93 63 94 67 95
REMARK SMILES IDX 70 96 64 97 65 98 68 99 66 100
REMARK H PARENT 20 14 90 53 58 64
REMARK Flexibility Score: inf
ROOT
ATOM      1  C   UNL A   1      35.539  31.594  27.953  1.00  0.00     0.275 C 
ENDROOT
BRANCH   1   2
ATOM      2  O   UNL A   1      34.726  30.531  27.389  1.00  0.00    -0.458 OA
BRANCH   2   3
ATOM      3  C   UNL A   1      33.416  30.843  27.252  1.00  0.00     0.338 C 
ATOM      4  O   UNL A   1      32.937  31.943  27.499  1.00  0.00    -0.246 OA
BRANCH   3   5
ATOM      5  C   UNL A   1      32.569  29.750  26.692  1.00  0.00     0.062 A 
ATOM      6  C   UNL A   1      31.248  28.510  25.120  1.00  0.00     0.042 A 
ATOM      7  C   UNL A   1      31.216  27.399  25.963  1.00  0.00     0.026 A 
ATOM      8  C   UNL A   1      32.007  29.657  25.429  1.00  0.00     0.041 A 
ATOM      9  C   UNL A   1      31.725  27.501  27.231  1.00  0.00     0.003 A 
ATOM     10  C   UNL A   1      32.347  28.690  27.567  1.00  0.00     0.016 A 
BRANCH   6  11
ATOM     11  N   UNL A   1      30.494  28.458  23.951  1.00  0.00    -0.325 N 
ATOM     12  C   UNL A   1      30.863  27.925  22.735  1.00  0.00     0.237 C 
ATOM     13  O   UNL A   1      30.191  28.262  21.752  1.00  0.00    -0.273 OA
ATOM     14  H   UNL A   1      29.592  28.849  23.998  1.00  0.00     0.169 HD
BRANCH  12  15
ATOM     15  C   UNL A   1      32.004  26.862  22.570  1.00  0.00     0.144 C 
BRANCH  15  16
ATOM     16  C   UNL A   1      33.373  27.285  23.139  1.00  0.00     0.021 C 
ATOM     17  C   UNL A   1      34.031  28.502  22.503  1.00  0.00     0.005 C 
ENDBRANCH  15  16
BRANCH  15  18
ATOM     18  S   UNL A   1      31.374  25.234  23.181  1.00  0.00    -0.072 SA
BRANCH  18  19
ATOM     19  C   UNL A   1      32.710  24.163  22.937  1.00  0.00     0.196 A 
ATOM     20  N   UNL A   1      33.282  23.951  21.772  1.00  0.00    -0.122 NA
ATOM     21  N   UNL A   1      33.457  23.564  23.934  1.00  0.00    -0.270 N 
ATOM     22  N   UNL A   1      34.522  23.412  22.000  1.00  0.00    -0.129 NA
ATOM     23  C   UNL A   1      34.653  23.248  23.300  1.00  0.00     0.161 A 
ATOM     24  C   UNL A   1      33.224  23.266  25.302  1.00  0.00     0.057 A 
ATOM     25  C   UNL A   1      35.759  22.816  24.069  1.00  0.00     0.050 A 
ATOM     26  C   UNL A   1      34.335  22.816  26.046  1.00  0.00    -0.001 A 
ATOM     27  C   UNL A   1      31.966  23.319  25.898  1.00  0.00     0.027 A 
ATOM     28  C   UNL A   1      35.636  22.635  25.391  1.00  0.00     0.014 A 
ATOM     29  C   UNL A   1      34.188  22.509  27.404  1.00  0.00     0.010 A 
ATOM     30  C   UNL A   1      31.825  22.949  27.240  1.00  0.00     0.002 A 
ATOM     31  C   UNL A   1      32.933  22.582  28.001  1.00  0.00     0.001 A 
ENDBRANCH  18  19
ENDBRANCH  15  18
ENDBRANCH  12  15
ENDBRANCH   6  11
ENDBRANCH   3   5
ENDBRANCH   2   3
ENDBRANCH   1   2
BRANCH   1  32
ATOM     32  C   UNL A   1      36.722  31.068  28.784  1.00  0.00     0.275 C 
BRANCH  32  33
ATOM     33  O   UNL A   1      37.186  29.798  28.297  1.00  0.00    -0.458 OA
BRANCH  33  34
ATOM     34  C   UNL A   1      38.258  29.328  28.977  1.00  0.00     0.338 C 
ATOM     35  O   UNL A   1      38.206  28.565  29.921  1.00  0.00    -0.246 OA
BRANCH  34  36
ATOM     36  C   UNL A   1      39.516  29.547  28.233  1.00  0.00     0.060 A 
ATOM     37  C   UNL A   1      39.634  29.196  26.885  1.00  0.00     0.016 A 
ATOM     38  C   UNL A   1      40.647  29.658  29.040  1.00  0.00     0.016 A 
ATOM     39  C   UNL A   1      40.824  28.625  26.439  1.00  0.00     0.010 A 
ATOM     40  C   UNL A   1      41.826  29.100  28.588  1.00  0.00     0.010 A 
ATOM     41  C   UNL A   1      41.869  28.443  27.345  1.00  0.00    -0.014 A 
BRANCH  41  42
ATOM     42  C   UNL A   1      43.072  27.670  27.002  1.00  0.00     0.031 A 
ATOM     43  C   UNL A   1      42.718  26.252  26.836  1.00  0.00     0.074 A 
ATOM     44  C   UNL A   1      44.344  28.066  26.733  1.00  0.00     0.049 A 
ATOM     45  N   UNL A   1      42.789  25.380  27.783  1.00  0.00    -0.248 NA
ATOM     46  C   UNL A   1      42.010  25.795  25.634  1.00  0.00     0.031 C 
ATOM     47  C   UNL A   1      44.954  29.399  26.675  1.00  0.00     0.029 A 
ATOM     48  N   UNL A   1      45.396  27.278  26.342  1.00  0.00    -0.354 N 
ATOM     49  C   UNL A   1      42.326  24.209  27.225  1.00  0.00     0.074 A 
ATOM     50  C   UNL A   1      41.613  24.583  26.032  1.00  0.00     0.031 C 
ATOM     51  C   UNL A   1      46.122  29.360  25.985  1.00  0.00     0.029 A 
ATOM     52  C   UNL A   1      46.488  27.970  25.814  1.00  0.00     0.049 A 
ATOM     53  H   UNL A   1      45.382  26.298  26.425  1.00  0.00     0.167 HD
ATOM     54  C   UNL A   1      42.843  23.017  27.617  1.00  0.00     0.037 A 
ATOM     55  C   UNL A   1      47.669  27.450  25.395  1.00  0.00     0.037 A 
ATOM     56  C   UNL A   1      43.676  23.170  28.790  1.00  0.00     0.049 A 
ATOM     57  C   UNL A   1      47.838  26.185  26.137  1.00  0.00     0.074 A 
ATOM     58  C   UNL A   1      43.478  23.589  30.091  1.00  0.00     0.029 A 
ATOM     59  N   UNL A   1      45.025  23.260  28.559  1.00  0.00    -0.354 N 
ATOM     60  N   UNL A   1      48.042  26.124  27.422  1.00  0.00    -0.248 NA
ATOM     61  C   UNL A   1      47.406  24.951  25.507  1.00  0.00     0.031 C 
ATOM     62  C   UNL A   1      44.678  24.271  30.462  1.00  0.00     0.029 A 
ATOM     63  C   UNL A   1      45.572  24.199  29.395  1.00  0.00     0.049 A 
ATOM     64  H   UNL A   1      45.524  22.732  27.895  1.00  0.00     0.167 HD
ATOM     65  C   UNL A   1      47.327  25.013  27.824  1.00  0.00     0.074 A 
ATOM     66  C   UNL A   1      47.097  24.251  26.600  1.00  0.00     0.031 C 
ATOM     67  C   UNL A   1      46.743  24.980  29.057  1.00  0.00     0.037 A 
BRANCH  54  68
ATOM     68  C   UNL A   1      42.945  21.821  26.713  1.00  0.00     0.064 A 
ATOM     69  C   UNL A   1      42.281  20.638  27.079  1.00  0.00     0.173 A 
ATOM     70  C   UNL A   1      43.861  21.703  25.644  1.00  0.00     0.173 A 
ATOM     71  F   UNL A   1      41.429  20.630  28.115  1.00  0.00    -0.203 F 
ATOM     72  C   UNL A   1      42.541  19.423  26.442  1.00  0.00     0.198 A 
ATOM     73  C   UNL A   1      44.067  20.505  24.967  1.00  0.00     0.198 A 
ATOM     74  F   UNL A   1      44.682  22.699  25.288  1.00  0.00    -0.203 F 
ATOM     75  F   UNL A   1      41.972  18.300  26.900  1.00  0.00    -0.200 F 
ATOM     76  C   UNL A   1      43.427  19.359  25.382  1.00  0.00     0.200 A 
ATOM     77  F   UNL A   1      44.954  20.462  23.962  1.00  0.00    -0.200 F 
ATOM     78  F   UNL A   1      43.708  18.188  24.798  1.00  0.00    -0.200 F 
ENDBRANCH  54  68
BRANCH  55  79
ATOM     79  C   UNL A   1      48.583  27.808  24.282  1.00  0.00     0.064 A 
ATOM     80  C   UNL A   1      49.980  27.743  24.454  1.00  0.00     0.173 A 
ATOM     81  C   UNL A   1      48.119  27.853  22.957  1.00  0.00     0.173 A 
ATOM     82  F   UNL A   1      50.506  27.671  25.686  1.00  0.00    -0.203 F 
ATOM     83  C   UNL A   1      50.855  27.652  23.367  1.00  0.00     0.198 A 
ATOM     84  C   UNL A   1      48.996  27.765  21.869  1.00  0.00     0.198 A 
ATOM     85  F   UNL A   1      46.803  27.865  22.698  1.00  0.00    -0.203 F 
ATOM     86  F   UNL A   1      52.170  27.493  23.578  1.00  0.00    -0.200 F 
ATOM     87  C   UNL A   1      50.361  27.640  22.075  1.00  0.00     0.200 A 
ATOM     88  F   UNL A   1      48.508  27.716  20.621  1.00  0.00    -0.200 F 
ATOM     89  F   UNL A   1      51.189  27.461  21.036  1.00  0.00    -0.200 F 
ENDBRANCH  55  79
BRANCH  67  90
ATOM     90  C   UNL A   1      47.235  25.973  30.080  1.00  0.00     0.064 A 
ATOM     91  C   UNL A   1      48.452  25.873  30.778  1.00  0.00     0.173 A 
ATOM     92  C   UNL A   1      46.475  27.131  30.284  1.00  0.00     0.173 A 
ATOM     93  F   UNL A   1      49.275  24.836  30.589  1.00  0.00    -0.203 F 
ATOM     94  C   UNL A   1      48.868  26.874  31.658  1.00  0.00     0.198 A 
ATOM     95  C   UNL A   1      46.908  28.144  31.135  1.00  0.00     0.198 A 
ATOM     96  F   UNL A   1      45.321  27.300  29.621  1.00  0.00    -0.203 F 
ATOM     97  F   UNL A   1      50.028  26.749  32.320  1.00  0.00    -0.200 F 
ATOM     98  C   UNL A   1      48.100  28.012  31.828  1.00  0.00     0.200 A 
ATOM     99  F   UNL A   1      46.179  29.261  31.266  1.00  0.00    -0.200 F 
ATOM    100  F   UNL A   1      48.518  28.992  32.641  1.00  0.00    -0.200 F 
ENDBRANCH  67  90
ENDBRANCH  41  42
ENDBRANCH  34  36
ENDBRANCH  33  34
ENDBRANCH  32  33
ENDBRANCH   1  32
TORSDOF 16
ENDMDL
MODEL 3
REMARK VINA RESULT:     -13.0      3.328      8.703
REMARK SMILES CC[C@@H](Sc1nnc2ccc3ccccc3n12)C(=O)Nc1cccc(C(=O)OCCOC(=O)c2ccc(-c3c4nc(c(-c5c(F)c(F)c(F)c(F)c5F)c5ccc([nH]5)c(-c5c(F)c(F)c(F)c(F)c5F)c5nc(c(-c6c(F)c(F)c(F)c(F)c6F)c6ccc3[nH]6)C=C5)C=C4)cc2)c1
REMARK SMILES IDX 29 1 28 2 26 3 27 4 25 5 21 6 22 7 97 8 23 9 24 10 20 11
REMARK SMILES IDX 18 12 19 13 3 15 2 16 1 17 4 18 5 19 6 20 17 21 7 22 8 23
REMARK SMILES IDX 16 24 9 25 11 26 15 27 10 28 12 29 14 30 13 31 30 32 31 33
REMARK SMILES IDX 32 34 33 35 34 36 35 37 96 38 36 39 95 40 37 41 38 42 39 43
REMARK SMILES IDX 89 44 40 45 94 46 88 47 90 48 41 49 93 50 87 51 86 52 42 54
REMARK SMILES IDX 74 55 54 56 73 57 55 58 58 59 72 60 91 61 56 62 57 63 71 65
REMARK SMILES IDX 92 66 59 67 43 68 44 69 52 70 45 71 46 72 50 73 53 74 47 75
REMARK SMILES IDX 48 76 51 77 49 78 75 79 76 80 84 81 77 82 78 83 82 84 85 85
REMARK SMILES IDX 79 86 80 87 83 88 81 89 60 90 61 91 69 92 62 93 63 94 67 95
REMARK SMILES IDX 70 96 64 97 65 98 68 99 66 100
REMARK H PARENT 20 14 90 53 58 64
REMARK Flexibility Score: inf
ROOT
ATOM      1  C   UNL A   1      33.466  30.098  27.187  1.00  0.00     0.275 C 
ENDROOT
BRANCH   1   2
ATOM      2  O   UNL A   1      32.226  29.701  26.543  1.00  0.00    -0.458 OA
BRANCH   2   3
ATOM      3  C   UNL A   1      32.391  29.022  25.384  1.00  0.00     0.338 C 
ATOM      4  O   UNL A   1      33.248  29.279  24.547  1.00  0.00    -0.246 OA
BRANCH   3   5
ATOM      5  C   UNL A   1      31.482  27.852  25.211  1.00  0.00     0.062 A 
ATOM      6  C   UNL A   1      30.113  25.965  25.777  1.00  0.00     0.042 A 
ATOM      7  C   UNL A   1      29.612  25.889  24.477  1.00  0.00     0.026 A 
ATOM      8  C   UNL A   1      30.973  27.006  26.184  1.00  0.00     0.041 A 
ATOM      9  C   UNL A   1      30.147  26.687  23.502  1.00  0.00     0.003 A 
ATOM     10  C   UNL A   1      31.096  27.614  23.895  1.00  0.00     0.016 A 
BRANCH   6  11
ATOM     11  N   UNL A   1      29.742  24.967  26.674  1.00  0.00    -0.325 N 
ATOM     12  C   UNL A   1      30.282  23.706  26.801  1.00  0.00     0.237 C 
ATOM     13  O   UNL A   1      29.611  22.873  27.423  1.00  0.00    -0.273 OA
ATOM     14  H   UNL A   1      29.006  25.188  27.290  1.00  0.00     0.169 HD
BRANCH  12  15
ATOM     15  C   UNL A   1      31.715  23.327  26.292  1.00  0.00     0.144 C 
BRANCH  15  16
ATOM     16  C   UNL A   1      32.524  22.422  27.242  1.00  0.00     0.021 C 
ATOM     17  C   UNL A   1      33.979  22.805  27.478  1.00  0.00     0.005 C 
ENDBRANCH  15  16
BRANCH  15  18
ATOM     18  S   UNL A   1      31.571  22.706  24.556  1.00  0.00    -0.072 SA
BRANCH  18  19
ATOM     19  C   UNL A   1      33.058  23.197  23.822  1.00  0.00     0.196 A 
ATOM     20  N   UNL A   1      33.230  24.342  23.200  1.00  0.00    -0.122 NA
ATOM     21  N   UNL A   1      34.277  22.560  23.964  1.00  0.00    -0.270 N 
ATOM     22  N   UNL A   1      34.578  24.586  23.125  1.00  0.00    -0.129 NA
ATOM     23  C   UNL A   1      35.200  23.551  23.648  1.00  0.00     0.161 A 
ATOM     24  C   UNL A   1      34.671  21.246  24.328  1.00  0.00     0.057 A 
ATOM     25  C   UNL A   1      36.575  23.330  23.899  1.00  0.00     0.050 A 
ATOM     26  C   UNL A   1      36.049  21.042  24.552  1.00  0.00    -0.001 A 
ATOM     27  C   UNL A   1      33.791  20.168  24.390  1.00  0.00     0.027 A 
ATOM     28  C   UNL A   1      36.998  22.145  24.363  1.00  0.00     0.014 A 
ATOM     29  C   UNL A   1      36.515  19.775  24.922  1.00  0.00     0.010 A 
ATOM     30  C   UNL A   1      34.284  18.896  24.701  1.00  0.00     0.002 A 
ATOM     31  C   UNL A   1      35.630  18.704  25.001  1.00  0.00     0.001 A 
ENDBRANCH  18  19
ENDBRANCH  15  18
ENDBRANCH  12  15
ENDBRANCH   6  11
ENDBRANCH   3   5
ENDBRANCH   2   3
ENDBRANCH   1   2
BRANCH   1  32
ATOM     32  C   UNL A   1      33.592  31.621  27.360  1.00  0.00     0.275 C 
BRANCH  32  33
ATOM     33  O   UNL A   1      34.314  31.958  28.557  1.00  0.00    -0.458 OA
BRANCH  33  34
ATOM     34  C   UNL A   1      35.600  32.308  28.321  1.00  0.00     0.338 C 
ATOM     35  O   UNL A   1      35.953  33.240  27.626  1.00  0.00    -0.246 OA
BRANCH  34  36
ATOM     36  C   UNL A   1      36.526  31.668  29.279  1.00  0.00     0.060 A 
ATOM     37  C   UNL A   1      37.771  32.234  29.573  1.00  0.00     0.016 A 
ATOM     38  C   UNL A   1      36.300  30.307  29.474  1.00  0.00     0.016 A 
ATOM     39  C   UNL A   1      38.872  31.394  29.727  1.00  0.00     0.010 A 
ATOM     40  C   UNL A   1      37.394  29.483  29.637  1.00  0.00     0.010 A 
ATOM     41  C   UNL A   1      38.696  30.016  29.606  1.00  0.00    -0.014 A 
BRANCH  41  42
ATOM     42  C   UNL A   1      39.833  29.085  29.556  1.00  0.00     0.031 A 
ATOM     43  C   UNL A   1      40.186  28.662  30.920  1.00  0.00     0.074 A 
ATOM     44  C   UNL A   1      40.483  28.522  28.504  1.00  0.00     0.049 A 
ATOM     45  N   UNL A   1      41.079  29.248  31.643  1.00  0.00    -0.248 NA
ATOM     46  C   UNL A   1      39.350  27.696  31.642  1.00  0.00     0.031 C 
ATOM     47  C   UNL A   1      40.268  28.632  27.057  1.00  0.00     0.029 A 
ATOM     48  N   UNL A   1      41.493  27.594  28.549  1.00  0.00    -0.354 N 
ATOM     49  C   UNL A   1      41.058  28.578  32.847  1.00  0.00     0.074 A 
ATOM     50  C   UNL A   1      39.816  27.852  32.884  1.00  0.00     0.031 C 
ATOM     51  C   UNL A   1      40.868  27.605  26.404  1.00  0.00     0.029 A 
ATOM     52  C   UNL A   1      41.750  26.942  27.342  1.00  0.00     0.049 A 
ATOM     53  H   UNL A   1      41.997  27.402  29.371  1.00  0.00     0.167 HD
ATOM     54  C   UNL A   1      42.202  28.424  33.560  1.00  0.00     0.037 A 
ATOM     55  C   UNL A   1      42.713  26.020  27.092  1.00  0.00     0.037 A 
ATOM     56  C   UNL A   1      43.268  29.238  33.019  1.00  0.00     0.049 A 
ATOM     57  C   UNL A   1      43.783  26.279  28.077  1.00  0.00     0.074 A 
ATOM     58  C   UNL A   1      43.482  30.591  32.840  1.00  0.00     0.029 A 
ATOM     59  N   UNL A   1      44.143  28.598  32.178  1.00  0.00    -0.354 N 
ATOM     60  N   UNL A   1      44.527  27.347  28.068  1.00  0.00    -0.248 NA
ATOM     61  C   UNL A   1      43.784  25.516  29.312  1.00  0.00     0.031 C 
ATOM     62  C   UNL A   1      44.216  30.707  31.620  1.00  0.00     0.029 A 
ATOM     63  C   UNL A   1      44.462  29.424  31.131  1.00  0.00     0.049 A 
ATOM     64  H   UNL A   1      44.489  27.685  32.306  1.00  0.00     0.167 HD
ATOM     65  C   UNL A   1      44.705  27.643  29.406  1.00  0.00     0.074 A 
ATOM     66  C   UNL A   1      44.370  26.409  30.111  1.00  0.00     0.031 C 
ATOM     67  C   UNL A   1      44.818  28.939  29.815  1.00  0.00     0.037 A 
BRANCH  54  68
ATOM     68  C   UNL A   1      42.469  27.245  34.452  1.00  0.00     0.064 A 
ATOM     69  C   UNL A   1      42.314  27.399  35.841  1.00  0.00     0.173 A 
ATOM     70  C   UNL A   1      43.108  26.055  34.036  1.00  0.00     0.173 A 
ATOM     71  F   UNL A   1      41.767  28.515  36.344  1.00  0.00    -0.203 F 
ATOM     72  C   UNL A   1      42.793  26.447  36.742  1.00  0.00     0.198 A 
ATOM     73  C   UNL A   1      43.523  25.078  34.934  1.00  0.00     0.198 A 
ATOM     74  F   UNL A   1      43.468  25.842  32.765  1.00  0.00    -0.203 F 
ATOM     75  F   UNL A   1      42.728  26.689  38.058  1.00  0.00    -0.200 F 
ATOM     76  C   UNL A   1      43.390  25.284  36.289  1.00  0.00     0.200 A 
ATOM     77  F   UNL A   1      44.125  23.973  34.471  1.00  0.00    -0.200 F 
ATOM     78  F   UNL A   1      43.886  24.390  37.153  1.00  0.00    -0.200 F 
ENDBRANCH  54  68
BRANCH  55  79
ATOM     79  C   UNL A   1      42.744  24.809  26.234  1.00  0.00     0.064 A 
ATOM     80  C   UNL A   1      43.743  24.651  25.254  1.00  0.00     0.173 A 
ATOM     81  C   UNL A   1      42.044  23.648  26.605  1.00  0.00     0.173 A 
ATOM     82  F   UNL A   1      44.477  25.703  24.863  1.00  0.00    -0.203 F 
ATOM     83  C   UNL A   1      44.075  23.396  24.732  1.00  0.00     0.198 A 
ATOM     84  C   UNL A   1      42.374  22.393  26.079  1.00  0.00     0.198 A 
ATOM     85  F   UNL A   1      41.110  23.695  27.566  1.00  0.00    -0.203 F 
ATOM     86  F   UNL A   1      45.098  23.277  23.874  1.00  0.00    -0.200 F 
ATOM     87  C   UNL A   1      43.404  22.265  25.161  1.00  0.00     0.200 A 
ATOM     88  F   UNL A   1      41.746  21.297  26.527  1.00  0.00    -0.200 F 
ATOM     89  F   UNL A   1      43.780  21.052  24.731  1.00  0.00    -0.200 F 
ENDBRANCH  55  79
BRANCH  67  90
ATOM     90  C   UNL A   1      45.151  29.967  28.763  1.00  0.00     0.064 A 
ATOM     91  C   UNL A   1      44.204  30.672  27.998  1.00  0.00     0.173 A 
ATOM     92  C   UNL A   1      46.496  30.321  28.599  1.00  0.00     0.173 A 
ATOM     93  F   UNL A   1      42.894  30.449  28.143  1.00  0.00    -0.203 F 
ATOM     94  C   UNL A   1      44.593  31.661  27.093  1.00  0.00     0.198 A 
ATOM     95  C   UNL A   1      46.879  31.333  27.722  1.00  0.00     0.198 A 
ATOM     96  F   UNL A   1      47.443  29.709  29.325  1.00  0.00    -0.203 F 
ATOM     97  F   UNL A   1      43.671  32.310  26.367  1.00  0.00    -0.200 F 
ATOM     98  C   UNL A   1      45.930  31.997  26.963  1.00  0.00     0.200 A 
ATOM     99  F   UNL A   1      48.171  31.680  27.629  1.00  0.00    -0.200 F 
ATOM    100  F   UNL A   1      46.301  32.975  26.125  1.00  0.00    -0.200 F 
ENDBRANCH  67  90
ENDBRANCH  41  42
ENDBRANCH  34  36
ENDBRANCH  33  34
ENDBRANCH  32  33
ENDBRANCH   1  32
TORSDOF 16
ENDMDL
