MODEL 1
REMARK VINA RESULT:     -11.0      0.000      0.000
REMARK SMILES CC[NH2+][C@]1(C(=O)OCCOC(=O)c2ccc(-c3c4nc(c(-c5c(F)c(F)c(F)c(F)c5F)c5ccc([nH]5)c(-c5c(F)c(F)c(F)c(F)c5F)c5nc(c(-c6c(F)c(F)c(F)c(F)c6F)c6ccc3[nH]6)C=C5)C=C4)cc2)CCC[C@H]1CC[N@H+]1CCC[C@@H](CC)C1
REMARK SMILES IDX 8 1 7 2 5 3 6 4 4 5 76 6 79 7 77 8 78 9 3 10 2 13 1 14 80 15
REMARK SMILES IDX 81 16 82 17 83 18 89 19 84 21 86 22 85 23 87 24 88 25 9 26
REMARK SMILES IDX 10 27 11 28 12 29 13 30 14 31 75 32 15 33 74 34 16 35 17 36
REMARK SMILES IDX 18 37 68 38 19 39 73 40 67 41 69 42 20 43 72 44 66 45 65 46
REMARK SMILES IDX 21 48 53 49 33 50 52 51 34 52 37 53 51 54 70 55 35 56 36 57
REMARK SMILES IDX 50 59 71 60 38 61 22 62 23 63 31 64 24 65 25 66 29 67 32 68
REMARK SMILES IDX 26 69 27 70 30 71 28 72 54 73 55 74 63 75 56 76 57 77 61 78
REMARK SMILES IDX 64 79 58 80 59 81 62 82 60 83 39 84 40 85 48 86 41 87 42 88
REMARK SMILES IDX 46 89 49 90 43 91 44 92 47 93 45 94
REMARK H PARENT 3 11 3 12 82 20 69 47 37 58
REMARK Flexibility Score: inf
ROOT
ATOM      1  C   UNL A   1      30.966  30.792  25.702  1.00  0.00     0.274 C 
ENDROOT
BRANCH   1   2
ATOM      2  O   UNL A   1      32.037  29.909  25.283  1.00  0.00    -0.457 OA
BRANCH   2   3
ATOM      3  C   UNL A   1      31.596  28.727  24.774  1.00  0.00     0.368 C 
ATOM      4  O   UNL A   1      30.724  28.046  25.316  1.00  0.00    -0.245 OA
BRANCH   3   5
ATOM      5  C   UNL A   1      32.283  28.282  23.445  1.00  0.00     0.197 C 
ATOM      6  C   UNL A   1      33.563  28.981  22.951  1.00  0.00     0.081 C 
ATOM      7  C   UNL A   1      32.790  26.807  23.524  1.00  0.00     0.068 C 
ATOM      8  C   UNL A   1      34.212  28.009  21.957  1.00  0.00     0.008 C 
ATOM      9  C   UNL A   1      33.528  26.662  22.175  1.00  0.00     0.011 C 
BRANCH   5  10
ATOM     10  N   UNL A   1      31.216  28.349  22.368  1.00  0.00    -0.332 N 
ATOM     11  H   UNL A   1      31.628  28.028  21.491  1.00  0.00     0.347 HD
ATOM     12  H   UNL A   1      30.446  27.762  22.683  1.00  0.00     0.347 HD
BRANCH  10  13
ATOM     13  C   UNL A   1      30.662  29.689  22.149  1.00  0.00     0.257 C 
ATOM     14  C   UNL A   1      29.152  29.692  22.350  1.00  0.00     0.071 C 
ENDBRANCH  10  13
ENDBRANCH   5  10
BRANCH   7  15
ATOM     15  C   UNL A   1      33.818  26.461  24.646  1.00  0.00     0.072 C 
BRANCH  15  16
ATOM     16  C   UNL A   1      33.315  25.690  25.872  1.00  0.00     0.262 C 
BRANCH  16  17
ATOM     17  N   UNL A   1      34.168  24.566  26.266  1.00  0.00    -0.335 N 
ATOM     18  C   UNL A   1      33.375  23.391  26.662  1.00  0.00     0.262 C 
ATOM     19  C   UNL A   1      35.092  24.222  25.174  1.00  0.00     0.265 C 
ATOM     20  H   UNL A   1      34.708  24.858  27.080  1.00  0.00     0.348 HD
ATOM     21  C   UNL A   1      34.287  22.269  27.153  1.00  0.00     0.062 C 
ATOM     22  C   UNL A   1      36.071  23.117  25.604  1.00  0.00     0.044 C 
ATOM     23  C   UNL A   1      35.303  21.879  26.085  1.00  0.00     0.015 C 
BRANCH  22  24
ATOM     24  C   UNL A   1      37.098  22.769  24.511  1.00  0.00     0.006 C 
ATOM     25  C   UNL A   1      36.592  22.872  23.078  1.00  0.00     0.004 C 
ENDBRANCH  22  24
ENDBRANCH  16  17
ENDBRANCH  15  16
ENDBRANCH   7  15
ENDBRANCH   3   5
ENDBRANCH   2   3
ENDBRANCH   1   2
BRANCH   1  26
ATOM     26  C   UNL A   1      31.508  31.992  26.474  1.00  0.00     0.275 C 
BRANCH  26  27
ATOM     27  O   UNL A   1      32.750  31.607  27.088  1.00  0.00    -0.458 OA
BRANCH  27  28
ATOM     28  C   UNL A   1      33.479  32.643  27.554  1.00  0.00     0.338 C 
ATOM     29  O   UNL A   1      33.097  33.760  27.850  1.00  0.00    -0.246 OA
BRANCH  28  30
ATOM     30  C   UNL A   1      34.796  32.127  27.942  1.00  0.00     0.060 A 
ATOM     31  C   UNL A   1      34.849  30.770  28.249  1.00  0.00     0.016 A 
ATOM     32  C   UNL A   1      35.913  32.934  28.115  1.00  0.00     0.016 A 
ATOM     33  C   UNL A   1      35.981  30.215  28.824  1.00  0.00     0.010 A 
ATOM     34  C   UNL A   1      37.078  32.367  28.647  1.00  0.00     0.010 A 
ATOM     35  C   UNL A   1      37.106  31.014  29.043  1.00  0.00    -0.014 A 
BRANCH  35  36
ATOM     36  C   UNL A   1      38.251  30.445  29.794  1.00  0.00     0.031 A 
ATOM     37  C   UNL A   1      38.464  30.851  31.226  1.00  0.00     0.074 A 
ATOM     38  C   UNL A   1      39.032  29.497  29.242  1.00  0.00     0.049 A 
ATOM     39  N   UNL A   1      39.459  30.572  32.030  1.00  0.00    -0.248 NA
ATOM     40  C   UNL A   1      37.409  31.675  31.838  1.00  0.00     0.031 C 
ATOM     41  C   UNL A   1      38.862  28.931  27.902  1.00  0.00     0.029 A 
ATOM     42  N   UNL A   1      40.118  28.828  29.749  1.00  0.00    -0.354 N 
ATOM     43  C   UNL A   1      39.163  31.206  33.229  1.00  0.00     0.074 A 
ATOM     44  C   UNL A   1      37.903  31.894  33.048  1.00  0.00     0.031 C 
ATOM     45  C   UNL A   1      39.797  27.988  27.702  1.00  0.00     0.029 A 
ATOM     46  C   UNL A   1      40.674  27.934  28.867  1.00  0.00     0.049 A 
ATOM     47  H   UNL A   1      40.465  28.974  30.660  1.00  0.00     0.167 HD
ATOM     48  C   UNL A   1      39.880  31.211  34.378  1.00  0.00     0.037 A 
ATOM     49  C   UNL A   1      41.790  27.188  28.974  1.00  0.00     0.037 A 
ATOM     50  C   UNL A   1      41.122  30.510  34.559  1.00  0.00     0.049 A 
ATOM     51  C   UNL A   1      42.617  27.284  30.230  1.00  0.00     0.074 A 
ATOM     52  C   UNL A   1      41.968  30.514  35.656  1.00  0.00     0.029 A 
ATOM     53  N   UNL A   1      41.686  29.658  33.622  1.00  0.00    -0.354 N 
ATOM     54  N   UNL A   1      42.387  27.969  31.324  1.00  0.00    -0.248 NA
ATOM     55  C   UNL A   1      43.867  26.514  30.258  1.00  0.00     0.031 C 
ATOM     56  C   UNL A   1      43.055  29.679  35.372  1.00  0.00     0.029 A 
ATOM     57  C   UNL A   1      42.868  29.129  34.115  1.00  0.00     0.049 A 
ATOM     58  H   UNL A   1      41.303  29.458  32.737  1.00  0.00     0.167 HD
ATOM     59  C   UNL A   1      43.452  27.702  32.173  1.00  0.00     0.074 A 
ATOM     60  C   UNL A   1      44.315  26.769  31.478  1.00  0.00     0.031 C 
ATOM     61  C   UNL A   1      43.702  28.190  33.411  1.00  0.00     0.037 A 
BRANCH  48  62
ATOM     62  C   UNL A   1      39.353  32.030  35.515  1.00  0.00     0.064 A 
ATOM     63  C   UNL A   1      38.495  31.482  36.481  1.00  0.00     0.173 A 
ATOM     64  C   UNL A   1      39.734  33.372  35.659  1.00  0.00     0.173 A 
ATOM     65  F   UNL A   1      38.085  30.209  36.375  1.00  0.00    -0.203 F 
ATOM     66  C   UNL A   1      38.027  32.255  37.541  1.00  0.00     0.198 A 
ATOM     67  C   UNL A   1      39.282  34.134  36.733  1.00  0.00     0.198 A 
ATOM     68  F   UNL A   1      40.551  33.942  34.761  1.00  0.00    -0.203 F 
ATOM     69  F   UNL A   1      37.180  31.722  38.433  1.00  0.00    -0.200 F 
ATOM     70  C   UNL A   1      38.426  33.577  37.670  1.00  0.00     0.200 A 
ATOM     71  F   UNL A   1      39.675  35.410  36.859  1.00  0.00    -0.200 F 
ATOM     72  F   UNL A   1      37.980  34.317  38.695  1.00  0.00    -0.200 F 
ENDBRANCH  48  62
BRANCH  49  73
ATOM     73  C   UNL A   1      42.232  26.326  27.846  1.00  0.00     0.064 A 
ATOM     74  C   UNL A   1      43.170  26.781  26.909  1.00  0.00     0.173 A 
ATOM     75  C   UNL A   1      41.684  25.048  27.651  1.00  0.00     0.173 A 
ATOM     76  F   UNL A   1      43.699  28.007  27.033  1.00  0.00    -0.203 F 
ATOM     77  C   UNL A   1      43.521  26.004  25.806  1.00  0.00     0.198 A 
ATOM     78  C   UNL A   1      42.061  24.260  26.567  1.00  0.00     0.198 A 
ATOM     79  F   UNL A   1      40.778  24.567  28.514  1.00  0.00    -0.203 F 
ATOM     80  F   UNL A   1      44.371  26.489  24.892  1.00  0.00    -0.200 F 
ATOM     81  C   UNL A   1      42.970  24.743  25.638  1.00  0.00     0.200 A 
ATOM     82  F   UNL A   1      41.532  23.038  26.415  1.00  0.00    -0.200 F 
ATOM     83  F   UNL A   1      43.303  23.999  24.574  1.00  0.00    -0.200 F 
ENDBRANCH  49  73
BRANCH  61  84
ATOM     84  C   UNL A   1      44.937  27.695  34.102  1.00  0.00     0.064 A 
ATOM     85  C   UNL A   1      44.929  26.518  34.865  1.00  0.00     0.173 A 
ATOM     86  C   UNL A   1      46.146  28.398  33.986  1.00  0.00     0.173 A 
ATOM     87  F   UNL A   1      43.794  25.821  35.017  1.00  0.00    -0.203 F 
ATOM     88  C   UNL A   1      46.081  26.079  35.511  1.00  0.00     0.198 A 
ATOM     89  C   UNL A   1      47.301  27.942  34.612  1.00  0.00     0.198 A 
ATOM     90  F   UNL A   1      46.205  29.527  33.263  1.00  0.00    -0.203 F 
ATOM     91  F   UNL A   1      46.039  24.980  36.276  1.00  0.00    -0.200 F 
ATOM     92  C   UNL A   1      47.266  26.788  35.381  1.00  0.00     0.200 A 
ATOM     93  F   UNL A   1      48.448  28.623  34.479  1.00  0.00    -0.200 F 
ATOM     94  F   UNL A   1      48.373  26.365  36.006  1.00  0.00    -0.200 F 
ENDBRANCH  61  84
ENDBRANCH  35  36
ENDBRANCH  28  30
ENDBRANCH  27  28
ENDBRANCH  26  27
ENDBRANCH   1  26
TORSDOF 17
ENDMDL
MODEL 2
REMARK VINA RESULT:     -11.0      1.196      8.165
REMARK SMILES CC[NH2+][C@]1(C(=O)OCCOC(=O)c2ccc(-c3c4nc(c(-c5c(F)c(F)c(F)c(F)c5F)c5ccc([nH]5)c(-c5c(F)c(F)c(F)c(F)c5F)c5nc(c(-c6c(F)c(F)c(F)c(F)c6F)c6ccc3[nH]6)C=C5)C=C4)cc2)CCC[C@H]1CC[N@H+]1CCC[C@@H](CC)C1
REMARK SMILES IDX 8 1 7 2 5 3 6 4 4 5 76 6 79 7 77 8 78 9 3 10 2 13 1 14 80 15
REMARK SMILES IDX 81 16 82 17 83 18 89 19 84 21 86 22 85 23 87 24 88 25 9 26
REMARK SMILES IDX 10 27 11 28 12 29 13 30 14 31 75 32 15 33 74 34 16 35 17 36
REMARK SMILES IDX 18 37 68 38 19 39 73 40 67 41 69 42 20 43 72 44 66 45 65 46
REMARK SMILES IDX 21 48 53 49 33 50 52 51 34 52 37 53 51 54 70 55 35 56 36 57
REMARK SMILES IDX 50 59 71 60 38 61 22 62 23 63 31 64 24 65 25 66 29 67 32 68
REMARK SMILES IDX 26 69 27 70 30 71 28 72 54 73 55 74 63 75 56 76 57 77 61 78
REMARK SMILES IDX 64 79 58 80 59 81 62 82 60 83 39 84 40 85 48 86 41 87 42 88
REMARK SMILES IDX 46 89 49 90 43 91 44 92 47 93 45 94
REMARK H PARENT 3 11 3 12 82 20 69 47 37 58
REMARK Flexibility Score: inf
ROOT
ATOM      1  C   UNL A   1      31.433  28.593  25.814  1.00  0.00     0.274 C 
ENDROOT
BRANCH   1   2
ATOM      2  O   UNL A   1      32.146  27.335  25.924  1.00  0.00    -0.457 OA
BRANCH   2   3
ATOM      3  C   UNL A   1      31.331  26.246  25.887  1.00  0.00     0.368 C 
ATOM      4  O   UNL A   1      30.257  26.190  26.489  1.00  0.00    -0.245 OA
BRANCH   3   5
ATOM      5  C   UNL A   1      31.858  25.055  25.026  1.00  0.00     0.197 C 
ATOM      6  C   UNL A   1      30.946  23.856  24.705  1.00  0.00     0.081 C 
ATOM      7  C   UNL A   1      32.231  25.510  23.580  1.00  0.00     0.068 C 
ATOM      8  C   UNL A   1      31.576  23.168  23.487  1.00  0.00     0.008 C 
ATOM      9  C   UNL A   1      32.582  24.162  22.914  1.00  0.00     0.011 C 
BRANCH   5  10
ATOM     10  N   UNL A   1      33.126  24.566  25.701  1.00  0.00    -0.332 N 
ATOM     11  H   UNL A   1      33.056  24.769  26.698  1.00  0.00     0.347 HD
ATOM     12  H   UNL A   1      33.195  23.569  25.502  1.00  0.00     0.347 HD
BRANCH  10  13
ATOM     13  C   UNL A   1      34.356  25.182  25.192  1.00  0.00     0.257 C 
ATOM     14  C   UNL A   1      35.518  24.199  25.244  1.00  0.00     0.071 C 
ENDBRANCH  10  13
ENDBRANCH   5  10
BRANCH   7  15
ATOM     15  C   UNL A   1      31.103  26.163  22.720  1.00  0.00     0.072 C 
BRANCH  15  16
ATOM     16  C   UNL A   1      31.149  27.681  22.503  1.00  0.00     0.262 C 
BRANCH  16  17
ATOM     17  N   UNL A   1      29.838  28.298  22.295  1.00  0.00    -0.335 N 
ATOM     18  C   UNL A   1      28.889  27.934  23.359  1.00  0.00     0.262 C 
ATOM     19  C   UNL A   1      29.973  29.760  22.202  1.00  0.00     0.265 C 
ATOM     20  H   UNL A   1      29.464  27.941  21.416  1.00  0.00     0.348 HD
ATOM     21  C   UNL A   1      27.507  28.516  23.068  1.00  0.00     0.062 C 
ATOM     22  C   UNL A   1      28.624  30.422  21.874  1.00  0.00     0.044 C 
ATOM     23  C   UNL A   1      27.571  30.033  22.919  1.00  0.00     0.015 C 
BRANCH  22  24
ATOM     24  C   UNL A   1      28.732  31.948  21.704  1.00  0.00     0.006 C 
ATOM     25  C   UNL A   1      28.701  32.755  22.996  1.00  0.00     0.004 C 
ENDBRANCH  22  24
ENDBRANCH  16  17
ENDBRANCH  15  16
ENDBRANCH   7  15
ENDBRANCH   3   5
ENDBRANCH   2   3
ENDBRANCH   1   2
BRANCH   1  26
ATOM     26  C   UNL A   1      31.902  29.589  26.872  1.00  0.00     0.275 C 
BRANCH  26  27
ATOM     27  O   UNL A   1      33.140  30.170  26.424  1.00  0.00    -0.458 OA
BRANCH  27  28
ATOM     28  C   UNL A   1      33.513  31.269  27.112  1.00  0.00     0.338 C 
ATOM     29  O   UNL A   1      32.820  32.204  27.470  1.00  0.00    -0.246 OA
BRANCH  28  30
ATOM     30  C   UNL A   1      34.861  31.033  27.639  1.00  0.00     0.060 A 
ATOM     31  C   UNL A   1      35.165  29.713  27.958  1.00  0.00     0.016 A 
ATOM     32  C   UNL A   1      35.760  32.053  27.922  1.00  0.00     0.016 A 
ATOM     33  C   UNL A   1      36.322  29.397  28.652  1.00  0.00     0.010 A 
ATOM     34  C   UNL A   1      36.957  31.734  28.575  1.00  0.00     0.010 A 
ATOM     35  C   UNL A   1      37.227  30.410  28.981  1.00  0.00    -0.014 A 
BRANCH  35  36
ATOM     36  C   UNL A   1      38.382  30.082  29.851  1.00  0.00     0.031 A 
ATOM     37  C   UNL A   1      39.487  29.218  29.310  1.00  0.00     0.074 A 
ATOM     38  C   UNL A   1      38.498  30.632  31.075  1.00  0.00     0.049 A 
ATOM     39  N   UNL A   1      40.524  28.712  29.927  1.00  0.00    -0.248 NA
ATOM     40  C   UNL A   1      39.419  28.887  27.878  1.00  0.00     0.031 C 
ATOM     41  C   UNL A   1      37.555  31.578  31.673  1.00  0.00     0.029 A 
ATOM     42  N   UNL A   1      39.474  30.488  32.029  1.00  0.00    -0.354 N 
ATOM     43  C   UNL A   1      41.214  27.983  28.968  1.00  0.00     0.074 A 
ATOM     44  C   UNL A   1      40.476  28.102  27.729  1.00  0.00     0.031 C 
ATOM     45  C   UNL A   1      38.008  31.943  32.884  1.00  0.00     0.029 A 
ATOM     46  C   UNL A   1      39.232  31.204  33.176  1.00  0.00     0.049 A 
ATOM     47  H   UNL A   1      40.273  29.925  31.904  1.00  0.00     0.167 HD
ATOM     48  C   UNL A   1      42.364  27.281  29.110  1.00  0.00     0.037 A 
ATOM     49  C   UNL A   1      39.902  31.228  34.344  1.00  0.00     0.037 A 
ATOM     50  C   UNL A   1      43.105  27.182  30.338  1.00  0.00     0.049 A 
ATOM     51  C   UNL A   1      41.126  30.364  34.502  1.00  0.00     0.074 A 
ATOM     52  C   UNL A   1      44.237  26.432  30.610  1.00  0.00     0.029 A 
ATOM     53  N   UNL A   1      42.798  27.877  31.497  1.00  0.00    -0.354 N 
ATOM     54  N   UNL A   1      41.716  29.593  33.621  1.00  0.00    -0.248 NA
ATOM     55  C   UNL A   1      41.767  30.363  35.824  1.00  0.00     0.031 C 
ATOM     56  C   UNL A   1      44.601  26.658  31.941  1.00  0.00     0.029 A 
ATOM     57  C   UNL A   1      43.718  27.575  32.487  1.00  0.00     0.049 A 
ATOM     58  H   UNL A   1      42.037  28.494  31.602  1.00  0.00     0.167 HD
ATOM     59  C   UNL A   1      42.803  29.029  34.275  1.00  0.00     0.074 A 
ATOM     60  C   UNL A   1      42.807  29.568  35.619  1.00  0.00     0.031 C 
ATOM     61  C   UNL A   1      43.711  28.137  33.812  1.00  0.00     0.037 A 
BRANCH  48  62
ATOM     62  C   UNL A   1      42.867  26.535  27.912  1.00  0.00     0.064 A 
ATOM     63  C   UNL A   1      42.487  25.209  27.659  1.00  0.00     0.173 A 
ATOM     64  C   UNL A   1      43.716  27.164  26.990  1.00  0.00     0.173 A 
ATOM     65  F   UNL A   1      41.694  24.557  28.523  1.00  0.00    -0.203 F 
ATOM     66  C   UNL A   1      42.953  24.536  26.532  1.00  0.00     0.198 A 
ATOM     67  C   UNL A   1      44.160  26.495  25.853  1.00  0.00     0.198 A 
ATOM     68  F   UNL A   1      44.108  28.431  27.189  1.00  0.00    -0.203 F 
ATOM     69  F   UNL A   1      42.607  23.256  26.327  1.00  0.00    -0.200 F 
ATOM     70  C   UNL A   1      43.783  25.181  25.627  1.00  0.00     0.200 A 
ATOM     71  F   UNL A   1      44.957  27.124  24.977  1.00  0.00    -0.200 F 
ATOM     72  F   UNL A   1      44.224  24.533  24.539  1.00  0.00    -0.200 F 
ENDBRANCH  48  62
BRANCH  49  73
ATOM     73  C   UNL A   1      39.407  32.048  35.481  1.00  0.00     0.064 A 
ATOM     74  C   UNL A   1      39.864  33.357  35.685  1.00  0.00     0.173 A 
ATOM     75  C   UNL A   1      38.508  31.518  36.420  1.00  0.00     0.173 A 
ATOM     76  F   UNL A   1      40.747  33.898  34.832  1.00  0.00    -0.203 F 
ATOM     77  C   UNL A   1      39.462  34.095  36.797  1.00  0.00     0.198 A 
ATOM     78  C   UNL A   1      38.083  32.268  37.513  1.00  0.00     0.198 A 
ATOM     79  F   UNL A   1      38.046  30.268  36.277  1.00  0.00    -0.203 F 
ATOM     80  F   UNL A   1      39.963  35.321  37.001  1.00  0.00    -0.200 F 
ATOM     81  C   UNL A   1      38.569  33.552  37.708  1.00  0.00     0.200 A 
ATOM     82  F   UNL A   1      37.213  31.741  38.386  1.00  0.00    -0.200 F 
ATOM     83  F   UNL A   1      38.189  34.259  38.782  1.00  0.00    -0.200 F 
ENDBRANCH  49  73
BRANCH  61  84
ATOM     84  C   UNL A   1      44.800  27.721  34.756  1.00  0.00     0.064 A 
ATOM     85  C   UNL A   1      46.003  28.436  34.847  1.00  0.00     0.173 A 
ATOM     86  C   UNL A   1      44.631  26.605  35.589  1.00  0.00     0.173 A 
ATOM     87  F   UNL A   1      46.217  29.500  34.060  1.00  0.00    -0.203 F 
ATOM     88  C   UNL A   1      47.010  28.030  35.719  1.00  0.00     0.198 A 
ATOM     89  C   UNL A   1      45.629  26.217  36.477  1.00  0.00     0.198 A 
ATOM     90  F   UNL A   1      43.495  25.892  35.541  1.00  0.00    -0.203 F 
ATOM     91  F   UNL A   1      48.172  28.697  35.753  1.00  0.00    -0.200 F 
ATOM     92  C   UNL A   1      46.821  26.924  36.534  1.00  0.00     0.200 A 
ATOM     93  F   UNL A   1      45.442  25.155  37.271  1.00  0.00    -0.200 F 
ATOM     94  F   UNL A   1      47.792  26.534  37.371  1.00  0.00    -0.200 F 
ENDBRANCH  61  84
ENDBRANCH  35  36
ENDBRANCH  28  30
ENDBRANCH  27  28
ENDBRANCH  26  27
ENDBRANCH   1  26
TORSDOF 17
ENDMDL
MODEL 3
REMARK VINA RESULT:     -10.9      1.240      7.480
REMARK SMILES CC[NH2+][C@]1(C(=O)OCCOC(=O)c2ccc(-c3c4nc(c(-c5c(F)c(F)c(F)c(F)c5F)c5ccc([nH]5)c(-c5c(F)c(F)c(F)c(F)c5F)c5nc(c(-c6c(F)c(F)c(F)c(F)c6F)c6ccc3[nH]6)C=C5)C=C4)cc2)CCC[C@H]1CC[N@H+]1CCC[C@@H](CC)C1
REMARK SMILES IDX 8 1 7 2 5 3 6 4 4 5 76 6 79 7 77 8 78 9 3 10 2 13 1 14 80 15
REMARK SMILES IDX 81 16 82 17 83 18 89 19 84 21 86 22 85 23 87 24 88 25 9 26
REMARK SMILES IDX 10 27 11 28 12 29 13 30 14 31 75 32 15 33 74 34 16 35 17 36
REMARK SMILES IDX 18 37 68 38 19 39 73 40 67 41 69 42 20 43 72 44 66 45 65 46
REMARK SMILES IDX 21 48 53 49 33 50 52 51 34 52 37 53 51 54 70 55 35 56 36 57
REMARK SMILES IDX 50 59 71 60 38 61 22 62 23 63 31 64 24 65 25 66 29 67 32 68
REMARK SMILES IDX 26 69 27 70 30 71 28 72 54 73 55 74 63 75 56 76 57 77 61 78
REMARK SMILES IDX 64 79 58 80 59 81 62 82 60 83 39 84 40 85 48 86 41 87 42 88
REMARK SMILES IDX 46 89 49 90 43 91 44 92 47 93 45 94
REMARK H PARENT 3 11 3 12 82 20 69 47 37 58
REMARK Flexibility Score: inf
ROOT
ATOM      1  C   UNL A   1      31.534  30.263  25.233  1.00  0.00     0.274 C 
ENDROOT
BRANCH   1   2
ATOM      2  O   UNL A   1      31.492  28.865  25.616  1.00  0.00    -0.457 OA
BRANCH   2   3
ATOM      3  C   UNL A   1      32.186  28.053  24.774  1.00  0.00     0.368 C 
ATOM      4  O   UNL A   1      33.350  28.275  24.434  1.00  0.00    -0.245 OA
BRANCH   3   5
ATOM      5  C   UNL A   1      31.399  26.809  24.255  1.00  0.00     0.197 C 
ATOM      6  C   UNL A   1      31.907  26.009  23.042  1.00  0.00     0.081 C 
ATOM      7  C   UNL A   1      31.341  25.675  25.327  1.00  0.00     0.068 C 
ATOM      8  C   UNL A   1      31.220  24.639  23.129  1.00  0.00     0.008 C 
ATOM      9  C   UNL A   1      30.648  24.542  24.540  1.00  0.00     0.011 C 
BRANCH   5  10
ATOM     10  N   UNL A   1      29.978  27.277  23.999  1.00  0.00    -0.332 N 
ATOM     11  H   UNL A   1      29.377  26.455  23.943  1.00  0.00     0.347 HD
ATOM     12  H   UNL A   1      29.732  27.898  24.768  1.00  0.00     0.347 HD
BRANCH  10  13
ATOM     13  C   UNL A   1      29.811  28.051  22.764  1.00  0.00     0.257 C 
ATOM     14  C   UNL A   1      28.576  28.939  22.842  1.00  0.00     0.071 C 
ENDBRANCH  10  13
ENDBRANCH   5  10
BRANCH   7  15
ATOM     15  C   UNL A   1      32.701  25.107  25.843  1.00  0.00     0.072 C 
BRANCH  15  16
ATOM     16  C   UNL A   1      32.721  23.678  26.400  1.00  0.00     0.262 C 
BRANCH  16  17
ATOM     17  N   UNL A   1      33.441  22.717  25.562  1.00  0.00    -0.335 N 
ATOM     18  C   UNL A   1      34.775  22.414  26.104  1.00  0.00     0.262 C 
ATOM     19  C   UNL A   1      32.653  21.484  25.409  1.00  0.00     0.265 C 
ATOM     20  H   UNL A   1      33.574  23.143  24.646  1.00  0.00     0.348 HD
ATOM     21  C   UNL A   1      35.537  21.482  25.164  1.00  0.00     0.062 C 
ATOM     22  C   UNL A   1      33.339  20.503  24.445  1.00  0.00     0.044 C 
ATOM     23  C   UNL A   1      34.762  20.190  24.925  1.00  0.00     0.015 C 
BRANCH  22  24
ATOM     24  C   UNL A   1      32.516  19.224  24.206  1.00  0.00     0.006 C 
ATOM     25  C   UNL A   1      33.296  18.036  23.658  1.00  0.00     0.004 C 
ENDBRANCH  22  24
ENDBRANCH  16  17
ENDBRANCH  15  16
ENDBRANCH   7  15
ENDBRANCH   3   5
ENDBRANCH   2   3
ENDBRANCH   1   2
BRANCH   1  26
ATOM     26  C   UNL A   1      31.475  31.174  26.458  1.00  0.00     0.275 C 
BRANCH  26  27
ATOM     27  O   UNL A   1      32.682  30.984  27.217  1.00  0.00    -0.458 OA
BRANCH  27  28
ATOM     28  C   UNL A   1      33.392  32.115  27.414  1.00  0.00     0.338 C 
ATOM     29  O   UNL A   1      32.987  33.263  27.443  1.00  0.00    -0.246 OA
BRANCH  28  30
ATOM     30  C   UNL A   1      34.723  31.731  27.895  1.00  0.00     0.060 A 
ATOM     31  C   UNL A   1      34.863  30.407  28.299  1.00  0.00     0.016 A 
ATOM     32  C   UNL A   1      35.766  32.634  28.059  1.00  0.00     0.016 A 
ATOM     33  C   UNL A   1      36.004  29.982  28.961  1.00  0.00     0.010 A 
ATOM     34  C   UNL A   1      36.943  32.197  28.680  1.00  0.00     0.010 A 
ATOM     35  C   UNL A   1      37.054  30.880  29.171  1.00  0.00    -0.014 A 
BRANCH  35  36
ATOM     36  C   UNL A   1      38.200  30.455  30.011  1.00  0.00     0.031 A 
ATOM     37  C   UNL A   1      39.249  29.553  29.419  1.00  0.00     0.074 A 
ATOM     38  C   UNL A   1      38.363  30.949  31.253  1.00  0.00     0.049 A 
ATOM     39  N   UNL A   1      40.264  28.968  30.001  1.00  0.00    -0.248 NA
ATOM     40  C   UNL A   1      39.144  29.283  27.977  1.00  0.00     0.031 C 
ATOM     41  C   UNL A   1      37.481  31.921  31.902  1.00  0.00     0.029 A 
ATOM     42  N   UNL A   1      39.342  30.715  32.186  1.00  0.00    -0.354 N 
ATOM     43  C   UNL A   1      40.901  28.241  29.003  1.00  0.00     0.074 A 
ATOM     44  C   UNL A   1      40.154  28.448  27.782  1.00  0.00     0.031 C 
ATOM     45  C   UNL A   1      37.970  32.213  33.118  1.00  0.00     0.029 A 
ATOM     46  C   UNL A   1      39.154  31.397  33.363  1.00  0.00     0.049 A 
ATOM     47  H   UNL A   1      40.107  30.114  32.026  1.00  0.00     0.167 HD
ATOM     48  C   UNL A   1      42.012  27.472  29.101  1.00  0.00     0.037 A 
ATOM     49  C   UNL A   1      39.840  31.338  34.520  1.00  0.00     0.037 A 
ATOM     50  C   UNL A   1      42.762  27.284  30.312  1.00  0.00     0.049 A 
ATOM     51  C   UNL A   1      41.017  30.403  34.626  1.00  0.00     0.074 A 
ATOM     52  C   UNL A   1      43.855  26.464  30.538  1.00  0.00     0.029 A 
ATOM     53  N   UNL A   1      42.510  27.949  31.503  1.00  0.00    -0.354 N 
ATOM     54  N   UNL A   1      41.552  29.636  33.708  1.00  0.00    -0.248 NA
ATOM     55  C   UNL A   1      41.674  30.315  35.937  1.00  0.00     0.031 C 
ATOM     56  C   UNL A   1      44.248  26.617  31.871  1.00  0.00     0.029 A 
ATOM     57  C   UNL A   1      43.425  27.559  32.466  1.00  0.00     0.049 A 
ATOM     58  H   UNL A   1      41.786  28.602  31.643  1.00  0.00     0.167 HD
ATOM     59  C   UNL A   1      42.615  28.989  34.323  1.00  0.00     0.074 A 
ATOM     60  C   UNL A   1      42.666  29.474  35.686  1.00  0.00     0.031 C 
ATOM     61  C   UNL A   1      43.466  28.067  33.812  1.00  0.00     0.037 A 
BRANCH  48  62
ATOM     62  C   UNL A   1      42.457  26.747  27.868  1.00  0.00     0.064 A 
ATOM     63  C   UNL A   1      43.382  27.312  26.977  1.00  0.00     0.173 A 
ATOM     64  C   UNL A   1      41.977  25.459  27.590  1.00  0.00     0.173 A 
ATOM     65  F   UNL A   1      43.854  28.549  27.188  1.00  0.00    -0.203 F 
ATOM     66  C   UNL A   1      43.798  26.616  25.844  1.00  0.00     0.198 A 
ATOM     67  C   UNL A   1      42.413  24.759  26.469  1.00  0.00     0.198 A 
ATOM     68  F   UNL A   1      41.091  24.877  28.411  1.00  0.00    -0.203 F 
ATOM     69  F   UNL A   1      44.655  27.188  24.986  1.00  0.00    -0.200 F 
ATOM     70  C   UNL A   1      43.318  25.339  25.595  1.00  0.00     0.200 A 
ATOM     71  F   UNL A   1      41.952  23.521  26.234  1.00  0.00    -0.200 F 
ATOM     72  F   UNL A   1      43.725  24.669  24.507  1.00  0.00    -0.200 F 
ENDBRANCH  48  62
BRANCH  49  73
ATOM     73  C   UNL A   1      39.406  32.139  35.696  1.00  0.00     0.064 A 
ATOM     74  C   UNL A   1      39.953  33.403  35.954  1.00  0.00     0.173 A 
ATOM     75  C   UNL A   1      38.476  31.630  36.616  1.00  0.00     0.173 A 
ATOM     76  F   UNL A   1      40.868  33.920  35.122  1.00  0.00    -0.203 F 
ATOM     77  C   UNL A   1      39.606  34.116  37.101  1.00  0.00     0.198 A 
ATOM     78  C   UNL A   1      38.106  32.358  37.744  1.00  0.00     0.198 A 
ATOM     79  F   UNL A   1      37.929  30.422  36.420  1.00  0.00    -0.203 F 
ATOM     80  F   UNL A   1      40.191  35.295  37.356  1.00  0.00    -0.200 F 
ATOM     81  C   UNL A   1      38.680  33.596  37.993  1.00  0.00     0.200 A 
ATOM     82  F   UNL A   1      37.205  31.854  38.597  1.00  0.00    -0.200 F 
ATOM     83  F   UNL A   1      38.354  34.278  39.098  1.00  0.00    -0.200 F 
ENDBRANCH  49  73
BRANCH  61  84
ATOM     84  C   UNL A   1      44.543  27.556  34.722  1.00  0.00     0.064 A 
ATOM     85  C   UNL A   1      44.356  26.407  35.504  1.00  0.00     0.173 A 
ATOM     86  C   UNL A   1      45.779  28.214  34.800  1.00  0.00     0.173 A 
ATOM     87  F   UNL A   1      43.185  25.754  35.475  1.00  0.00    -0.203 F 
ATOM     88  C   UNL A   1      45.360  25.952  36.355  1.00  0.00     0.198 A 
ATOM     89  C   UNL A   1      46.789  27.742  35.631  1.00  0.00     0.198 A 
ATOM     90  F   UNL A   1      46.007  29.314  34.066  1.00  0.00    -0.203 F 
ATOM     91  F   UNL A   1      45.142  24.883  37.132  1.00  0.00    -0.200 F 
ATOM     92  C   UNL A   1      46.575  26.617  36.415  1.00  0.00     0.200 A 
ATOM     93  F   UNL A   1      47.967  28.379  35.682  1.00  0.00    -0.200 F 
ATOM     94  F   UNL A   1      47.540  26.179  37.236  1.00  0.00    -0.200 F 
ENDBRANCH  61  84
ENDBRANCH  35  36
ENDBRANCH  28  30
ENDBRANCH  27  28
ENDBRANCH  26  27
ENDBRANCH   1  26
TORSDOF 17
ENDMDL
