MODEL 1
REMARK VINA RESULT:     -10.6      0.000      0.000
REMARK SMILES COc1ccc(NCc2ccc(C(=O)OCCOC(=O)c3ccc(-c4c5nc(c(-c6c(F)c(F)c(F)c(F)c6F)c6ccc([nH]6)c(-c6c(F)c(F)c(F)c(F)c6F)c6nc(c(-c7c(F)c(F)c(F)c(F)c7F)c7ccc4[nH]7)C=C6)C=C5)cc3)o2)cc1
REMARK SMILES IDX 16 1 15 2 13 3 14 4 12 5 9 6 10 7 84 8 11 9 8 10 7 11 6 13
REMARK SMILES IDX 3 14 4 15 86 16 5 17 85 18 2 19 1 20 17 21 18 22 19 23 20 24
REMARK SMILES IDX 21 25 22 26 83 27 23 28 82 29 24 30 25 31 26 32 76 33 27 34
REMARK SMILES IDX 81 35 75 36 77 37 28 38 80 39 74 40 73 41 29 43 61 44 41 45
REMARK SMILES IDX 60 46 42 47 45 48 59 49 78 50 43 51 44 52 58 54 79 55 46 56
REMARK SMILES IDX 30 57 31 58 39 59 32 60 33 61 37 62 40 63 34 64 35 65 38 66
REMARK SMILES IDX 36 67 62 68 63 69 71 70 64 71 65 72 69 73 72 74 66 75 67 76
REMARK SMILES IDX 70 77 68 78 47 79 48 80 56 81 49 82 50 83 54 84 57 85 51 86
REMARK SMILES IDX 52 87 55 88 53 89
REMARK H PARENT 7 12 77 42 45 53
REMARK Flexibility Score: inf
ROOT
ATOM      1  C   UNL A   1      33.148  34.104  28.080  1.00  0.00     0.275 C 
ENDROOT
BRANCH   1   2
ATOM      2  O   UNL A   1      32.790  34.397  29.443  1.00  0.00    -0.456 OA
BRANCH   2   3
ATOM      3  C   UNL A   1      32.909  35.706  29.822  1.00  0.00     0.374 C 
ATOM      4  O   UNL A   1      32.600  36.659  29.124  1.00  0.00    -0.242 OA
BRANCH   3   5
ATOM      5  C   UNL A   1      33.358  35.778  31.195  1.00  0.00     0.211 A 
ATOM      6  C   UNL A   1      34.209  34.896  33.033  1.00  0.00     0.124 A 
ATOM      7  C   UNL A   1      34.206  36.262  33.223  1.00  0.00     0.048 A 
ATOM      8  O   UNL A   1      33.627  34.597  31.837  1.00  0.00    -0.452 OA
ATOM      9  C   UNL A   1      33.670  36.829  32.039  1.00  0.00     0.058 A 
BRANCH   6  10
ATOM     10  C   UNL A   1      34.783  33.760  33.823  1.00  0.00     0.188 C 
BRANCH  10  11
ATOM     11  N   UNL A   1      35.730  32.925  33.101  1.00  0.00    -0.378 N 
ATOM     12  H   UNL A   1      35.673  31.955  33.257  1.00  0.00     0.161 HD
BRANCH  11  13
ATOM     13  C   UNL A   1      36.697  33.357  32.220  1.00  0.00     0.035 A 
ATOM     14  C   UNL A   1      38.739  34.309  30.504  1.00  0.00     0.119 A 
ATOM     15  C   UNL A   1      37.674  33.575  29.994  1.00  0.00     0.048 A 
ATOM     16  C   UNL A   1      38.794  34.579  31.867  1.00  0.00     0.048 A 
ATOM     17  C   UNL A   1      36.666  33.106  30.844  1.00  0.00     0.029 A 
ATOM     18  C   UNL A   1      37.782  34.102  32.712  1.00  0.00     0.029 A 
BRANCH  14  19
ATOM     19  O   UNL A   1      39.625  34.808  29.592  1.00  0.00    -0.497 OA
ATOM     20  C   UNL A   1      40.979  34.461  29.874  1.00  0.00     0.278 C 
ENDBRANCH  14  19
ENDBRANCH  11  13
ENDBRANCH  10  11
ENDBRANCH   6  10
ENDBRANCH   3   5
ENDBRANCH   2   3
ENDBRANCH   1   2
BRANCH   1  21
ATOM     21  C   UNL A   1      34.392  33.210  28.003  1.00  0.00     0.275 C 
BRANCH  21  22
ATOM     22  O   UNL A   1      34.195  31.947  28.669  1.00  0.00    -0.458 OA
BRANCH  22  23
ATOM     23  C   UNL A   1      34.424  30.849  27.909  1.00  0.00     0.338 C 
ATOM     24  O   UNL A   1      33.714  30.417  27.016  1.00  0.00    -0.246 OA
BRANCH  23  25
ATOM     25  C   UNL A   1      35.748  30.282  28.227  1.00  0.00     0.060 A 
ATOM     26  C   UNL A   1      35.919  29.704  29.486  1.00  0.00     0.016 A 
ATOM     27  C   UNL A   1      36.826  30.372  27.342  1.00  0.00     0.016 A 
ATOM     28  C   UNL A   1      37.167  29.218  29.866  1.00  0.00     0.010 A 
ATOM     29  C   UNL A   1      38.082  29.887  27.730  1.00  0.00     0.010 A 
ATOM     30  C   UNL A   1      38.261  29.316  29.001  1.00  0.00    -0.014 A 
BRANCH  30  31
ATOM     31  C   UNL A   1      39.595  28.882  29.483  1.00  0.00     0.031 A 
ATOM     32  C   UNL A   1      40.233  29.591  30.644  1.00  0.00     0.074 A 
ATOM     33  C   UNL A   1      40.184  27.795  28.949  1.00  0.00     0.049 A 
ATOM     34  N   UNL A   1      41.371  29.347  31.245  1.00  0.00    -0.248 NA
ATOM     35  C   UNL A   1      39.482  30.720  31.213  1.00  0.00     0.031 C 
ATOM     36  C   UNL A   1      39.613  26.963  27.890  1.00  0.00     0.029 A 
ATOM     37  N   UNL A   1      41.375  27.183  29.251  1.00  0.00    -0.354 N 
ATOM     38  C   UNL A   1      41.472  30.289  32.259  1.00  0.00     0.074 A 
ATOM     39  C   UNL A   1      40.298  31.131  32.173  1.00  0.00     0.031 C 
ATOM     40  C   UNL A   1      40.431  25.923  27.664  1.00  0.00     0.029 A 
ATOM     41  C   UNL A   1      41.599  26.032  28.536  1.00  0.00     0.049 A 
ATOM     42  H   UNL A   1      42.009  27.536  29.915  1.00  0.00     0.167 HD
ATOM     43  C   UNL A   1      42.447  30.427  33.189  1.00  0.00     0.037 A 
ATOM     44  C   UNL A   1      42.623  25.159  28.592  1.00  0.00     0.037 A 
ATOM     45  C   UNL A   1      43.593  29.563  33.302  1.00  0.00     0.049 A 
ATOM     46  C   UNL A   1      43.730  25.379  29.588  1.00  0.00     0.074 A 
ATOM     47  C   UNL A   1      44.628  29.617  34.219  1.00  0.00     0.029 A 
ATOM     48  N   UNL A   1      43.848  28.479  32.475  1.00  0.00    -0.354 N 
ATOM     49  N   UNL A   1      43.838  26.297  30.518  1.00  0.00    -0.248 NA
ATOM     50  C   UNL A   1      44.852  24.431  29.551  1.00  0.00     0.031 C 
ATOM     51  C   UNL A   1      45.523  28.581  33.931  1.00  0.00     0.029 A 
ATOM     52  C   UNL A   1      45.022  27.854  32.863  1.00  0.00     0.049 A 
ATOM     53  H   UNL A   1      43.278  28.197  31.724  1.00  0.00     0.167 HD
ATOM     54  C   UNL A   1      45.017  26.019  31.196  1.00  0.00     0.074 A 
ATOM     55  C   UNL A   1      45.585  24.839  30.578  1.00  0.00     0.031 C 
ATOM     56  C   UNL A   1      45.573  26.677  32.241  1.00  0.00     0.037 A 
BRANCH  43  57
ATOM     57  C   UNL A   1      42.330  31.573  34.151  1.00  0.00     0.064 A 
ATOM     58  C   UNL A   1      42.882  32.831  33.875  1.00  0.00     0.173 A 
ATOM     59  C   UNL A   1      41.618  31.415  35.350  1.00  0.00     0.173 A 
ATOM     60  F   UNL A   1      43.581  33.029  32.747  1.00  0.00    -0.203 F 
ATOM     61  C   UNL A   1      42.745  33.886  34.775  1.00  0.00     0.198 A 
ATOM     62  C   UNL A   1      41.463  32.477  36.235  1.00  0.00     0.198 A 
ATOM     63  F   UNL A   1      41.065  30.232  35.658  1.00  0.00    -0.203 F 
ATOM     64  F   UNL A   1      43.314  35.069  34.509  1.00  0.00    -0.200 F 
ATOM     65  C   UNL A   1      42.030  33.710  35.951  1.00  0.00     0.200 A 
ATOM     66  F   UNL A   1      40.762  32.309  37.366  1.00  0.00    -0.200 F 
ATOM     67  F   UNL A   1      41.894  34.726  36.812  1.00  0.00    -0.200 F 
ENDBRANCH  43  57
BRANCH  44  68
ATOM     68  C   UNL A   1      42.625  23.962  27.712  1.00  0.00     0.064 A 
ATOM     69  C   UNL A   1      42.240  22.708  28.205  1.00  0.00     0.173 A 
ATOM     70  C   UNL A   1      43.019  24.044  26.368  1.00  0.00     0.173 A 
ATOM     71  F   UNL A   1      41.877  22.577  29.489  1.00  0.00    -0.203 F 
ATOM     72  C   UNL A   1      42.264  21.577  27.392  1.00  0.00     0.198 A 
ATOM     73  C   UNL A   1      43.016  22.917  25.549  1.00  0.00     0.198 A 
ATOM     74  F   UNL A   1      43.399  25.221  25.851  1.00  0.00    -0.203 F 
ATOM     75  F   UNL A   1      41.934  20.382  27.899  1.00  0.00    -0.200 F 
ATOM     76  C   UNL A   1      42.647  21.684  26.063  1.00  0.00     0.200 A 
ATOM     77  F   UNL A   1      43.377  23.027  24.263  1.00  0.00    -0.200 F 
ATOM     78  F   UNL A   1      42.667  20.596  25.280  1.00  0.00    -0.200 F 
ENDBRANCH  44  68
BRANCH  56  79
ATOM     79  C   UNL A   1      46.846  26.120  32.810  1.00  0.00     0.064 A 
ATOM     80  C   UNL A   1      48.103  26.586  32.395  1.00  0.00     0.173 A 
ATOM     81  C   UNL A   1      46.807  25.142  33.815  1.00  0.00     0.173 A 
ATOM     82  F   UNL A   1      48.193  27.509  31.427  1.00  0.00    -0.203 F 
ATOM     83  C   UNL A   1      49.273  26.076  32.951  1.00  0.00     0.198 A 
ATOM     84  C   UNL A   1      47.978  24.654  34.388  1.00  0.00     0.198 A 
ATOM     85  F   UNL A   1      45.630  24.669  34.251  1.00  0.00    -0.203 F 
ATOM     86  F   UNL A   1      50.464  26.504  32.510  1.00  0.00    -0.200 F 
ATOM     87  C   UNL A   1      49.211  25.117  33.951  1.00  0.00     0.200 A 
ATOM     88  F   UNL A   1      47.915  23.737  35.363  1.00  0.00    -0.200 F 
ATOM     89  F   UNL A   1      50.338  24.634  34.489  1.00  0.00    -0.200 F 
ENDBRANCH  56  79
ENDBRANCH  30  31
ENDBRANCH  23  25
ENDBRANCH  22  23
ENDBRANCH  21  22
ENDBRANCH   1  21
TORSDOF 15
ENDMDL
MODEL 2
REMARK VINA RESULT:     -10.5      4.978     11.866
REMARK SMILES COc1ccc(NCc2ccc(C(=O)OCCOC(=O)c3ccc(-c4c5nc(c(-c6c(F)c(F)c(F)c(F)c6F)c6ccc([nH]6)c(-c6c(F)c(F)c(F)c(F)c6F)c6nc(c(-c7c(F)c(F)c(F)c(F)c7F)c7ccc4[nH]7)C=C6)C=C5)cc3)o2)cc1
REMARK SMILES IDX 16 1 15 2 13 3 14 4 12 5 9 6 10 7 84 8 11 9 8 10 7 11 6 13
REMARK SMILES IDX 3 14 4 15 86 16 5 17 85 18 2 19 1 20 17 21 18 22 19 23 20 24
REMARK SMILES IDX 21 25 22 26 83 27 23 28 82 29 24 30 25 31 26 32 76 33 27 34
REMARK SMILES IDX 81 35 75 36 77 37 28 38 80 39 74 40 73 41 29 43 61 44 41 45
REMARK SMILES IDX 60 46 42 47 45 48 59 49 78 50 43 51 44 52 58 54 79 55 46 56
REMARK SMILES IDX 30 57 31 58 39 59 32 60 33 61 37 62 40 63 34 64 35 65 38 66
REMARK SMILES IDX 36 67 62 68 63 69 71 70 64 71 65 72 69 73 72 74 66 75 67 76
REMARK SMILES IDX 70 77 68 78 47 79 48 80 56 81 49 82 50 83 54 84 57 85 51 86
REMARK SMILES IDX 52 87 55 88 53 89
REMARK H PARENT 7 12 77 42 45 53
REMARK Flexibility Score: inf
ROOT
ATOM      1  C   UNL A   1      41.153  19.685  26.590  1.00  0.00     0.275 C 
ENDROOT
BRANCH   1   2
ATOM      2  O   UNL A   1      41.872  19.048  25.518  1.00  0.00    -0.456 OA
BRANCH   2   3
ATOM      3  C   UNL A   1      43.067  18.477  25.859  1.00  0.00     0.374 C 
ATOM      4  O   UNL A   1      43.183  17.441  26.495  1.00  0.00    -0.242 OA
BRANCH   3   5
ATOM      5  C   UNL A   1      44.154  19.229  25.270  1.00  0.00     0.211 A 
ATOM      6  C   UNL A   1      45.015  21.045  24.351  1.00  0.00     0.124 A 
ATOM      7  C   UNL A   1      46.077  20.213  24.641  1.00  0.00     0.048 A 
ATOM      8  O   UNL A   1      43.844  20.419  24.663  1.00  0.00    -0.452 OA
ATOM      9  C   UNL A   1      45.525  19.053  25.240  1.00  0.00     0.058 A 
BRANCH   6  10
ATOM     10  C   UNL A   1      44.933  22.459  23.867  1.00  0.00     0.188 C 
BRANCH  10  11
ATOM     11  N   UNL A   1      45.220  23.471  24.873  1.00  0.00    -0.378 N 
ATOM     12  H   UNL A   1      45.811  24.209  24.601  1.00  0.00     0.161 HD
BRANCH  11  13
ATOM     13  C   UNL A   1      44.746  23.498  26.166  1.00  0.00     0.035 A 
ATOM     14  C   UNL A   1      43.892  23.560  28.865  1.00  0.00     0.119 A 
ATOM     15  C   UNL A   1      42.973  23.373  27.838  1.00  0.00     0.048 A 
ATOM     16  C   UNL A   1      45.239  23.713  28.558  1.00  0.00     0.048 A 
ATOM     17  C   UNL A   1      43.398  23.342  26.505  1.00  0.00     0.029 A 
ATOM     18  C   UNL A   1      45.655  23.686  27.220  1.00  0.00     0.029 A 
BRANCH  14  19
ATOM     19  O   UNL A   1      43.404  23.481  30.138  1.00  0.00    -0.497 OA
ATOM     20  C   UNL A   1      44.316  23.962  31.122  1.00  0.00     0.278 C 
ENDBRANCH  14  19
ENDBRANCH  11  13
ENDBRANCH  10  11
ENDBRANCH   6  10
ENDBRANCH   3   5
ENDBRANCH   2   3
ENDBRANCH   1   2
BRANCH   1  21
ATOM     21  C   UNL A   1      40.071  20.633  26.059  1.00  0.00     0.275 C 
BRANCH  21  22
ATOM     22  O   UNL A   1      40.081  21.904  26.739  1.00  0.00    -0.458 OA
BRANCH  22  23
ATOM     23  C   UNL A   1      39.118  22.775  26.353  1.00  0.00     0.338 C 
ATOM     24  O   UNL A   1      38.113  22.517  25.711  1.00  0.00    -0.246 OA
BRANCH  23  25
ATOM     25  C   UNL A   1      39.383  24.107  26.927  1.00  0.00     0.060 A 
ATOM     26  C   UNL A   1      40.053  25.035  26.127  1.00  0.00     0.016 A 
ATOM     27  C   UNL A   1      39.048  24.428  28.246  1.00  0.00     0.016 A 
ATOM     28  C   UNL A   1      40.392  26.283  26.642  1.00  0.00     0.010 A 
ATOM     29  C   UNL A   1      39.396  25.683  28.763  1.00  0.00     0.010 A 
ATOM     30  C   UNL A   1      40.082  26.615  27.965  1.00  0.00    -0.014 A 
BRANCH  30  31
ATOM     31  C   UNL A   1      40.553  27.913  28.507  1.00  0.00     0.031 A 
ATOM     32  C   UNL A   1      42.027  28.196  28.579  1.00  0.00     0.074 A 
ATOM     33  C   UNL A   1      39.664  28.869  28.835  1.00  0.00     0.049 A 
ATOM     34  N   UNL A   1      42.648  29.278  28.981  1.00  0.00    -0.248 NA
ATOM     35  C   UNL A   1      42.923  27.121  28.129  1.00  0.00     0.031 C 
ATOM     36  C   UNL A   1      38.212  28.748  28.706  1.00  0.00     0.029 A 
ATOM     37  N   UNL A   1      39.854  30.144  29.308  1.00  0.00    -0.354 N 
ATOM     38  C   UNL A   1      44.002  29.013  28.832  1.00  0.00     0.074 A 
ATOM     39  C   UNL A   1      44.116  27.658  28.335  1.00  0.00     0.031 C 
ATOM     40  C   UNL A   1      37.646  29.917  29.045  1.00  0.00     0.029 A 
ATOM     41  C   UNL A   1      38.690  30.858  29.446  1.00  0.00     0.049 A 
ATOM     42  H   UNL A   1      40.740  30.510  29.527  1.00  0.00     0.167 HD
ATOM     43  C   UNL A   1      45.054  29.833  29.070  1.00  0.00     0.037 A 
ATOM     44  C   UNL A   1      38.492  32.131  29.839  1.00  0.00     0.037 A 
ATOM     45  C   UNL A   1      44.938  31.195  29.522  1.00  0.00     0.049 A 
ATOM     46  C   UNL A   1      39.679  32.997  30.167  1.00  0.00     0.074 A 
ATOM     47  C   UNL A   1      45.946  32.108  29.780  1.00  0.00     0.029 A 
ATOM     48  N   UNL A   1      43.738  31.843  29.773  1.00  0.00    -0.354 N 
ATOM     49  N   UNL A   1      40.958  32.726  30.061  1.00  0.00    -0.248 NA
ATOM     50  C   UNL A   1      39.394  34.353  30.656  1.00  0.00     0.031 C 
ATOM     51  C   UNL A   1      45.356  33.301  30.212  1.00  0.00     0.029 A 
ATOM     52  C   UNL A   1      43.980  33.145  30.180  1.00  0.00     0.049 A 
ATOM     53  H   UNL A   1      42.847  31.437  29.677  1.00  0.00     0.167 HD
ATOM     54  C   UNL A   1      41.627  33.883  30.436  1.00  0.00     0.074 A 
ATOM     55  C   UNL A   1      40.613  34.865  30.763  1.00  0.00     0.031 C 
ATOM     56  C   UNL A   1      42.961  34.113  30.497  1.00  0.00     0.037 A 
BRANCH  43  57
ATOM     57  C   UNL A   1      46.430  29.272  28.867  1.00  0.00     0.064 A 
ATOM     58  C   UNL A   1      47.132  28.639  29.901  1.00  0.00     0.173 A 
ATOM     59  C   UNL A   1      47.036  29.335  27.602  1.00  0.00     0.173 A 
ATOM     60  F   UNL A   1      46.601  28.564  31.131  1.00  0.00    -0.203 F 
ATOM     61  C   UNL A   1      48.402  28.109  29.685  1.00  0.00     0.198 A 
ATOM     62  C   UNL A   1      48.294  28.783  27.383  1.00  0.00     0.198 A 
ATOM     63  F   UNL A   1      46.402  29.924  26.577  1.00  0.00    -0.203 F 
ATOM     64  F   UNL A   1      49.073  27.544  30.697  1.00  0.00    -0.200 F 
ATOM     65  C   UNL A   1      48.979  28.176  28.424  1.00  0.00     0.200 A 
ATOM     66  F   UNL A   1      48.845  28.838  26.162  1.00  0.00    -0.200 F 
ATOM     67  F   UNL A   1      50.197  27.660  28.216  1.00  0.00    -0.200 F 
ENDBRANCH  43  57
BRANCH  44  68
ATOM     68  C   UNL A   1      37.115  32.685  29.893  1.00  0.00     0.064 A 
ATOM     69  C   UNL A   1      36.349  32.591  31.063  1.00  0.00     0.173 A 
ATOM     70  C   UNL A   1      36.534  33.308  28.779  1.00  0.00     0.173 A 
ATOM     71  F   UNL A   1      36.855  31.983  32.146  1.00  0.00    -0.203 F 
ATOM     72  C   UNL A   1      35.047  33.085  31.112  1.00  0.00     0.198 A 
ATOM     73  C   UNL A   1      35.242  33.827  28.838  1.00  0.00     0.198 A 
ATOM     74  F   UNL A   1      37.225  33.420  27.636  1.00  0.00    -0.203 F 
ATOM     75  F   UNL A   1      34.321  32.943  32.229  1.00  0.00    -0.200 F 
ATOM     76  C   UNL A   1      34.497  33.707  30.002  1.00  0.00     0.200 A 
ATOM     77  F   UNL A   1      34.718  34.436  27.766  1.00  0.00    -0.200 F 
ATOM     78  F   UNL A   1      33.246  34.186  30.050  1.00  0.00    -0.200 F 
ENDBRANCH  44  68
BRANCH  56  79
ATOM     79  C   UNL A   1      43.407  35.489  30.899  1.00  0.00     0.064 A 
ATOM     80  C   UNL A   1      43.658  36.488  29.946  1.00  0.00     0.173 A 
ATOM     81  C   UNL A   1      43.540  35.826  32.254  1.00  0.00     0.173 A 
ATOM     82  F   UNL A   1      43.559  36.212  28.638  1.00  0.00    -0.203 F 
ATOM     83  C   UNL A   1      44.047  37.767  30.337  1.00  0.00     0.198 A 
ATOM     84  C   UNL A   1      43.903  37.112  32.643  1.00  0.00     0.198 A 
ATOM     85  F   UNL A   1      43.305  34.908  33.204  1.00  0.00    -0.203 F 
ATOM     86  F   UNL A   1      44.322  38.693  29.409  1.00  0.00    -0.200 F 
ATOM     87  C   UNL A   1      44.162  38.080  31.683  1.00  0.00     0.200 A 
ATOM     88  F   UNL A   1      44.001  37.417  33.944  1.00  0.00    -0.200 F 
ATOM     89  F   UNL A   1      44.529  39.314  32.056  1.00  0.00    -0.200 F 
ENDBRANCH  56  79
ENDBRANCH  30  31
ENDBRANCH  23  25
ENDBRANCH  22  23
ENDBRANCH  21  22
ENDBRANCH   1  21
TORSDOF 15
ENDMDL
MODEL 3
REMARK VINA RESULT:     -10.3      3.819      6.656
REMARK SMILES COc1ccc(NCc2ccc(C(=O)OCCOC(=O)c3ccc(-c4c5nc(c(-c6c(F)c(F)c(F)c(F)c6F)c6ccc([nH]6)c(-c6c(F)c(F)c(F)c(F)c6F)c6nc(c(-c7c(F)c(F)c(F)c(F)c7F)c7ccc4[nH]7)C=C6)C=C5)cc3)o2)cc1
REMARK SMILES IDX 16 1 15 2 13 3 14 4 12 5 9 6 10 7 84 8 11 9 8 10 7 11 6 13
REMARK SMILES IDX 3 14 4 15 86 16 5 17 85 18 2 19 1 20 17 21 18 22 19 23 20 24
REMARK SMILES IDX 21 25 22 26 83 27 23 28 82 29 24 30 25 31 26 32 76 33 27 34
REMARK SMILES IDX 81 35 75 36 77 37 28 38 80 39 74 40 73 41 29 43 61 44 41 45
REMARK SMILES IDX 60 46 42 47 45 48 59 49 78 50 43 51 44 52 58 54 79 55 46 56
REMARK SMILES IDX 30 57 31 58 39 59 32 60 33 61 37 62 40 63 34 64 35 65 38 66
REMARK SMILES IDX 36 67 62 68 63 69 71 70 64 71 65 72 69 73 72 74 66 75 67 76
REMARK SMILES IDX 70 77 68 78 47 79 48 80 56 81 49 82 50 83 54 84 57 85 51 86
REMARK SMILES IDX 52 87 55 88 53 89
REMARK H PARENT 7 12 77 42 45 53
REMARK Flexibility Score: inf
ROOT
ATOM      1  C   UNL A   1      32.124  30.697  26.400  1.00  0.00     0.275 C 
ENDROOT
BRANCH   1   2
ATOM      2  O   UNL A   1      32.445  29.752  27.437  1.00  0.00    -0.456 OA
BRANCH   2   3
ATOM      3  C   UNL A   1      31.913  28.500  27.288  1.00  0.00     0.374 C 
ATOM      4  O   UNL A   1      31.096  28.001  28.045  1.00  0.00    -0.242 OA
BRANCH   3   5
ATOM      5  C   UNL A   1      32.389  27.911  26.056  1.00  0.00     0.211 A 
ATOM      6  C   UNL A   1      32.103  27.165  23.995  1.00  0.00     0.124 A 
ATOM      7  C   UNL A   1      33.466  27.228  24.202  1.00  0.00     0.048 A 
ATOM      8  O   UNL A   1      31.449  27.507  25.142  1.00  0.00    -0.452 OA
ATOM      9  C   UNL A   1      33.649  27.716  25.520  1.00  0.00     0.058 A 
BRANCH   6  10
ATOM     10  C   UNL A   1      31.269  26.890  22.782  1.00  0.00     0.188 C 
BRANCH  10  11
ATOM     11  N   UNL A   1      29.876  27.296  22.889  1.00  0.00    -0.378 N 
ATOM     12  H   UNL A   1      29.230  26.597  23.137  1.00  0.00     0.161 HD
BRANCH  11  13
ATOM     13  C   UNL A   1      29.373  28.560  22.677  1.00  0.00     0.035 A 
ATOM     14  C   UNL A   1      28.225  31.119  22.286  1.00  0.00     0.119 A 
ATOM     15  C   UNL A   1      29.523  30.856  21.863  1.00  0.00     0.048 A 
ATOM     16  C   UNL A   1      27.488  30.113  22.900  1.00  0.00     0.048 A 
ATOM     17  C   UNL A   1      30.087  29.590  22.057  1.00  0.00     0.029 A 
ATOM     18  C   UNL A   1      28.063  28.849  23.095  1.00  0.00     0.029 A 
BRANCH  14  19
ATOM     19  O   UNL A   1      27.721  32.349  21.970  1.00  0.00    -0.497 OA
ATOM     20  C   UNL A   1      27.780  32.642  20.577  1.00  0.00     0.278 C 
ENDBRANCH  14  19
ENDBRANCH  11  13
ENDBRANCH  10  11
ENDBRANCH   6  10
ENDBRANCH   3   5
ENDBRANCH   2   3
ENDBRANCH   1   2
BRANCH   1  21
ATOM     21  C   UNL A   1      31.795  32.079  26.978  1.00  0.00     0.275 C 
BRANCH  21  22
ATOM     22  O   UNL A   1      32.874  33.016  26.794  1.00  0.00    -0.458 OA
BRANCH  22  23
ATOM     23  C   UNL A   1      33.289  33.650  27.917  1.00  0.00     0.338 C 
ATOM     24  O   UNL A   1      32.693  34.524  28.525  1.00  0.00    -0.246 OA
BRANCH  23  25
ATOM     25  C   UNL A   1      34.546  33.050  28.400  1.00  0.00     0.060 A 
ATOM     26  C   UNL A   1      34.461  31.848  29.105  1.00  0.00     0.016 A 
ATOM     27  C   UNL A   1      35.782  33.681  28.232  1.00  0.00     0.016 A 
ATOM     28  C   UNL A   1      35.607  31.274  29.645  1.00  0.00     0.010 A 
ATOM     29  C   UNL A   1      36.934  33.103  28.783  1.00  0.00     0.010 A 
ATOM     30  C   UNL A   1      36.850  31.899  29.503  1.00  0.00    -0.014 A 
BRANCH  30  31
ATOM     31  C   UNL A   1      38.030  31.310  30.183  1.00  0.00     0.031 A 
ATOM     32  C   UNL A   1      38.286  31.622  31.630  1.00  0.00     0.074 A 
ATOM     33  C   UNL A   1      38.807  30.421  29.536  1.00  0.00     0.049 A 
ATOM     34  N   UNL A   1      39.233  31.182  32.422  1.00  0.00    -0.248 NA
ATOM     35  C   UNL A   1      37.341  32.544  32.277  1.00  0.00     0.031 C 
ATOM     36  C   UNL A   1      38.594  29.960  28.164  1.00  0.00     0.029 A 
ATOM     37  N   UNL A   1      39.909  29.720  29.959  1.00  0.00    -0.354 N 
ATOM     38  C   UNL A   1      38.999  31.773  33.655  1.00  0.00     0.074 A 
ATOM     39  C   UNL A   1      37.841  32.629  33.502  1.00  0.00     0.031 C 
ATOM     40  C   UNL A   1      39.507  29.018  27.875  1.00  0.00     0.029 A 
ATOM     41  C   UNL A   1      40.387  28.833  29.027  1.00  0.00     0.049 A 
ATOM     42  H   UNL A   1      40.317  29.842  30.845  1.00  0.00     0.167 HD
ATOM     43  C   UNL A   1      39.677  31.603  34.815  1.00  0.00     0.037 A 
ATOM     44  C   UNL A   1      41.411  27.960  29.101  1.00  0.00     0.037 A 
ATOM     45  C   UNL A   1      40.801  30.719  34.979  1.00  0.00     0.049 A 
ATOM     46  C   UNL A   1      42.193  27.845  30.382  1.00  0.00     0.074 A 
ATOM     47  C   UNL A   1      41.546  30.471  36.119  1.00  0.00     0.029 A 
ATOM     48  N   UNL A   1      41.336  29.929  33.973  1.00  0.00    -0.354 N 
ATOM     49  N   UNL A   1      41.989  28.438  31.534  1.00  0.00    -0.248 NA
ATOM     50  C   UNL A   1      43.340  26.927  30.377  1.00  0.00     0.031 C 
ATOM     51  C   UNL A   1      42.548  29.549  35.795  1.00  0.00     0.029 A 
ATOM     52  C   UNL A   1      42.399  29.190  34.465  1.00  0.00     0.049 A 
ATOM     53  H   UNL A   1      41.008  29.899  33.044  1.00  0.00     0.167 HD
ATOM     54  C   UNL A   1      42.957  27.942  32.397  1.00  0.00     0.074 A 
ATOM     55  C   UNL A   1      43.743  26.990  31.639  1.00  0.00     0.031 C 
ATOM     56  C   UNL A   1      43.170  28.242  33.701  1.00  0.00     0.037 A 
BRANCH  43  57
ATOM     57  C   UNL A   1      39.235  32.408  36.002  1.00  0.00     0.064 A 
ATOM     58  C   UNL A   1      38.338  31.897  36.950  1.00  0.00     0.173 A 
ATOM     59  C   UNL A   1      39.750  33.696  36.210  1.00  0.00     0.173 A 
ATOM     60  F   UNL A   1      37.809  30.674  36.790  1.00  0.00    -0.203 F 
ATOM     61  C   UNL A   1      37.955  32.655  38.054  1.00  0.00     0.198 A 
ATOM     62  C   UNL A   1      39.384  34.442  37.326  1.00  0.00     0.198 A 
ATOM     63  F   UNL A   1      40.617  34.228  35.334  1.00  0.00    -0.203 F 
ATOM     64  F   UNL A   1      37.066  32.163  38.927  1.00  0.00    -0.200 F 
ATOM     65  C   UNL A   1      38.483  33.924  38.244  1.00  0.00     0.200 A 
ATOM     66  F   UNL A   1      39.903  35.664  37.515  1.00  0.00    -0.200 F 
ATOM     67  F   UNL A   1      38.118  34.651  39.309  1.00  0.00    -0.200 F 
ENDBRANCH  43  57
BRANCH  44  68
ATOM     68  C   UNL A   1      41.724  27.084  27.943  1.00  0.00     0.064 A 
ATOM     69  C   UNL A   1      42.654  27.483  26.973  1.00  0.00     0.173 A 
ATOM     70  C   UNL A   1      41.097  25.841  27.777  1.00  0.00     0.173 A 
ATOM     71  F   UNL A   1      43.262  28.674  27.079  1.00  0.00    -0.203 F 
ATOM     72  C   UNL A   1      42.934  26.678  25.871  1.00  0.00     0.198 A 
ATOM     73  C   UNL A   1      41.399  25.024  26.689  1.00  0.00     0.198 A 
ATOM     74  F   UNL A   1      40.198  25.417  28.676  1.00  0.00    -0.203 F 
ATOM     75  F   UNL A   1      43.794  27.101  24.935  1.00  0.00    -0.200 F 
ATOM     76  C   UNL A   1      42.310  25.447  25.733  1.00  0.00     0.200 A 
ATOM     77  F   UNL A   1      40.801  23.832  26.564  1.00  0.00    -0.200 F 
ATOM     78  F   UNL A   1      42.582  24.671  24.675  1.00  0.00    -0.200 F 
ENDBRANCH  44  68
BRANCH  56  79
ATOM     79  C   UNL A   1      44.275  27.511  34.407  1.00  0.00     0.064 A 
ATOM     80  C   UNL A   1      44.066  26.256  34.998  1.00  0.00     0.173 A 
ATOM     81  C   UNL A   1      45.569  28.052  34.453  1.00  0.00     0.173 A 
ATOM     82  F   UNL A   1      42.843  25.705  34.994  1.00  0.00    -0.203 F 
ATOM     83  C   UNL A   1      45.108  25.581  35.628  1.00  0.00     0.198 A 
ATOM     84  C   UNL A   1      46.614  27.361  35.059  1.00  0.00     0.198 A 
ATOM     85  F   UNL A   1      45.822  29.246  33.896  1.00  0.00    -0.203 F 
ATOM     86  F   UNL A   1      44.876  24.402  36.222  1.00  0.00    -0.200 F 
ATOM     87  C   UNL A   1      46.382  26.129  35.651  1.00  0.00     0.200 A 
ATOM     88  F   UNL A   1      47.847  27.886  35.070  1.00  0.00    -0.200 F 
ATOM     89  F   UNL A   1      47.384  25.472  36.251  1.00  0.00    -0.200 F 
ENDBRANCH  56  79
ENDBRANCH  30  31
ENDBRANCH  23  25
ENDBRANCH  22  23
ENDBRANCH  21  22
ENDBRANCH   1  21
TORSDOF 15
ENDMDL
