MODEL 1
REMARK VINA RESULT:     -10.3      0.000      0.000
REMARK SMILES CC[C@@](C)(NC(=O)c1sc2cc(F)ccc2c1Cl)C(=O)OCCOC(=O)c1ccc(-c2c3nc(c(-c4c(F)c(F)c(F)c(F)c4F)c4ccc([nH]4)c(-c4c(F)c(F)c(F)c(F)c4F)c4nc(c(-c5c(F)c(F)c(F)c(F)c5F)c5ccc2[nH]5)C=C4)C=C3)cc1
REMARK SMILES IDX 22 1 21 2 19 3 20 4 3 5 4 6 2 7 1 8 5 9 6 10 7 12 8 13 9 14
REMARK SMILES IDX 17 15 10 16 16 17 18 18 11 19 15 20 12 21 14 22 13 23 23 24
REMARK SMILES IDX 24 25 25 26 26 27 27 28 28 29 89 30 29 31 88 32 30 33 31 34
REMARK SMILES IDX 32 35 82 36 33 37 87 38 81 39 83 40 34 41 86 42 80 43 79 44
REMARK SMILES IDX 35 46 67 47 47 48 66 49 48 50 51 51 65 52 84 53 49 54 50 55
REMARK SMILES IDX 64 57 85 58 52 59 36 60 37 61 45 62 38 63 39 64 43 65 46 66
REMARK SMILES IDX 40 67 41 68 44 69 42 70 68 71 69 72 77 73 70 74 71 75 75 76
REMARK SMILES IDX 78 77 72 78 73 79 76 80 74 81 53 82 54 83 62 84 55 85 56 86
REMARK SMILES IDX 60 87 63 88 57 89 58 90 61 91 59 92
REMARK H PARENT 5 11 83 45 51 56
REMARK Flexibility Score: inf
ROOT
ATOM      1  C   UNL A   1      35.881  33.029  33.034  1.00  0.00     0.274 C 
ENDROOT
BRANCH   1   2
ATOM      2  O   UNL A   1      36.382  32.006  33.942  1.00  0.00    -0.460 OA
BRANCH   2   3
ATOM      3  C   UNL A   1      37.671  31.629  33.805  1.00  0.00     0.331 C 
ATOM      4  O   UNL A   1      37.996  30.796  32.970  1.00  0.00    -0.249 OA
BRANCH   3   5
ATOM      5  C   UNL A   1      38.648  32.126  34.930  1.00  0.00     0.135 C 
ATOM      6  C   UNL A   1      38.071  31.559  36.244  1.00  0.00     0.047 C 
BRANCH   5   7
ATOM      7  C   UNL A   1      40.083  31.515  34.682  1.00  0.00     0.037 C 
ATOM      8  C   UNL A   1      41.136  31.657  35.753  1.00  0.00     0.007 C 
ENDBRANCH   5   7
BRANCH   5   9
ATOM      9  N   UNL A   1      39.000  33.570  35.118  1.00  0.00    -0.336 N 
ATOM     10  C   UNL A   1      39.516  34.657  34.487  1.00  0.00     0.263 C 
ATOM     11  H   UNL A   1      38.773  33.826  36.042  1.00  0.00     0.165 HD
ATOM     12  O   UNL A   1      39.428  35.706  35.131  1.00  0.00    -0.268 OA
BRANCH  10  13
ATOM     13  C   UNL A   1      40.217  34.581  33.243  1.00  0.00     0.112 A 
ATOM     14  S   UNL A   1      39.280  34.479  31.816  1.00  0.00    -0.128 S 
ATOM     15  C   UNL A   1      41.557  34.446  32.976  1.00  0.00     0.072 A 
ATOM     16  C   UNL A   1      40.670  34.577  30.810  1.00  0.00     0.040 A 
ATOM     17  C   UNL A   1      41.847  34.547  31.567  1.00  0.00     0.012 A 
ATOM     18  Cl  UNL A   1      42.791  34.325  34.162  1.00  0.00    -0.082 Cl
ATOM     19  C   UNL A   1      40.686  34.743  29.411  1.00  0.00     0.059 A 
ATOM     20  C   UNL A   1      43.081  34.695  30.879  1.00  0.00     0.014 A 
ATOM     21  C   UNL A   1      41.911  34.958  28.791  1.00  0.00     0.124 A 
ATOM     22  C   UNL A   1      43.098  34.936  29.503  1.00  0.00     0.040 A 
ATOM     23  F   UNL A   1      41.941  35.240  27.481  1.00  0.00    -0.207 F 
ENDBRANCH  10  13
ENDBRANCH   5   9
ENDBRANCH   3   5
ENDBRANCH   2   3
ENDBRANCH   1   2
BRANCH   1  24
ATOM     24  C   UNL A   1      34.786  32.450  32.133  1.00  0.00     0.275 C 
BRANCH  24  25
ATOM     25  O   UNL A   1      35.351  31.606  31.130  1.00  0.00    -0.458 OA
BRANCH  25  26
ATOM     26  C   UNL A   1      35.216  32.047  29.849  1.00  0.00     0.338 C 
ATOM     27  O   UNL A   1      34.508  32.936  29.443  1.00  0.00    -0.246 OA
BRANCH  26  28
ATOM     28  C   UNL A   1      36.417  31.527  29.156  1.00  0.00     0.060 A 
ATOM     29  C   UNL A   1      36.379  30.267  28.544  1.00  0.00     0.016 A 
ATOM     30  C   UNL A   1      37.625  32.117  29.516  1.00  0.00     0.016 A 
ATOM     31  C   UNL A   1      37.512  29.472  28.572  1.00  0.00     0.010 A 
ATOM     32  C   UNL A   1      38.761  31.328  29.498  1.00  0.00     0.010 A 
ATOM     33  C   UNL A   1      38.676  29.968  29.160  1.00  0.00    -0.014 A 
BRANCH  33  34
ATOM     34  C   UNL A   1      39.882  29.142  29.165  1.00  0.00     0.031 A 
ATOM     35  C   UNL A   1      40.197  28.749  30.547  1.00  0.00     0.074 A 
ATOM     36  C   UNL A   1      40.672  28.703  28.157  1.00  0.00     0.049 A 
ATOM     37  N   UNL A   1      41.100  29.326  31.263  1.00  0.00    -0.248 NA
ATOM     38  C   UNL A   1      39.320  27.830  31.280  1.00  0.00     0.031 C 
ATOM     39  C   UNL A   1      40.572  28.860  26.704  1.00  0.00     0.029 A 
ATOM     40  N   UNL A   1      41.752  27.871  28.265  1.00  0.00    -0.354 N 
ATOM     41  C   UNL A   1      41.029  28.720  32.496  1.00  0.00     0.074 A 
ATOM     42  C   UNL A   1      39.800  27.966  32.518  1.00  0.00     0.031 C 
ATOM     43  C   UNL A   1      41.323  27.922  26.077  1.00  0.00     0.029 A 
ATOM     44  C   UNL A   1      42.152  27.277  27.074  1.00  0.00     0.049 A 
ATOM     45  H   UNL A   1      42.211  27.706  29.121  1.00  0.00     0.167 HD
ATOM     46  C   UNL A   1      42.118  28.684  33.301  1.00  0.00     0.037 A 
ATOM     47  C   UNL A   1      43.182  26.416  26.889  1.00  0.00     0.037 A 
ATOM     48  C   UNL A   1      43.141  29.603  32.863  1.00  0.00     0.049 A 
ATOM     49  C   UNL A   1      44.160  26.709  27.960  1.00  0.00     0.074 A 
ATOM     50  C   UNL A   1      43.185  30.973  32.670  1.00  0.00     0.029 A 
ATOM     51  N   UNL A   1      44.195  29.096  32.140  1.00  0.00    -0.354 N 
ATOM     52  N   UNL A   1      44.841  27.819  28.019  1.00  0.00    -0.248 NA
ATOM     53  C   UNL A   1      44.061  25.963  29.203  1.00  0.00     0.031 C 
ATOM     54  C   UNL A   1      43.961  31.164  31.488  1.00  0.00     0.029 A 
ATOM     55  C   UNL A   1      44.399  29.913  31.055  1.00  0.00     0.049 A 
ATOM     56  H   UNL A   1      44.712  28.288  32.361  1.00  0.00     0.167 HD
ATOM     57  C   UNL A   1      44.841  28.144  29.365  1.00  0.00     0.074 A 
ATOM     58  C   UNL A   1      44.459  26.912  30.053  1.00  0.00     0.031 C 
ATOM     59  C   UNL A   1      44.868  29.447  29.768  1.00  0.00     0.037 A 
BRANCH  46  60
ATOM     60  C   UNL A   1      42.366  27.557  34.247  1.00  0.00     0.064 A 
ATOM     61  C   UNL A   1      42.939  26.369  33.775  1.00  0.00     0.173 A 
ATOM     62  C   UNL A   1      41.840  27.521  35.558  1.00  0.00     0.173 A 
ATOM     63  F   UNL A   1      43.412  26.292  32.522  1.00  0.00    -0.203 F 
ATOM     64  C   UNL A   1      42.969  25.216  34.560  1.00  0.00     0.198 A 
ATOM     65  C   UNL A   1      41.930  26.392  36.361  1.00  0.00     0.198 A 
ATOM     66  F   UNL A   1      41.127  28.536  36.064  1.00  0.00    -0.203 F 
ATOM     67  F   UNL A   1      43.431  24.071  34.041  1.00  0.00    -0.200 F 
ATOM     68  C   UNL A   1      42.474  25.230  35.855  1.00  0.00     0.200 A 
ATOM     69  F   UNL A   1      41.419  26.421  37.600  1.00  0.00    -0.200 F 
ATOM     70  F   UNL A   1      42.469  24.115  36.594  1.00  0.00    -0.200 F 
ENDBRANCH  46  60
BRANCH  47  71
ATOM     71  C   UNL A   1      43.236  25.169  26.090  1.00  0.00     0.064 A 
ATOM     72  C   UNL A   1      44.323  24.921  25.232  1.00  0.00     0.173 A 
ATOM     73  C   UNL A   1      42.412  24.069  26.391  1.00  0.00     0.173 A 
ATOM     74  F   UNL A   1      45.174  25.911  24.920  1.00  0.00    -0.203 F 
ATOM     75  C   UNL A   1      44.603  23.639  24.747  1.00  0.00     0.198 A 
ATOM     76  C   UNL A   1      42.693  22.788  25.905  1.00  0.00     0.198 A 
ATOM     77  F   UNL A   1      41.383  24.198  27.240  1.00  0.00    -0.203 F 
ATOM     78  F   UNL A   1      45.693  23.432  23.994  1.00  0.00    -0.200 F 
ATOM     79  C   UNL A   1      43.798  22.570  25.100  1.00  0.00     0.200 A 
ATOM     80  F   UNL A   1      41.929  21.751  26.278  1.00  0.00    -0.200 F 
ATOM     81  F   UNL A   1      44.109  21.329  24.698  1.00  0.00    -0.200 F 
ENDBRANCH  47  71
BRANCH  59  82
ATOM     82  C   UNL A   1      45.183  30.496  28.729  1.00  0.00     0.064 A 
ATOM     83  C   UNL A   1      44.214  31.206  27.997  1.00  0.00     0.173 A 
ATOM     84  C   UNL A   1      46.517  30.891  28.562  1.00  0.00     0.173 A 
ATOM     85  F   UNL A   1      42.912  30.955  28.154  1.00  0.00    -0.203 F 
ATOM     86  C   UNL A   1      44.564  32.235  27.123  1.00  0.00     0.198 A 
ATOM     87  C   UNL A   1      46.863  31.943  27.715  1.00  0.00     0.198 A 
ATOM     88  F   UNL A   1      47.488  30.285  29.262  1.00  0.00    -0.203 F 
ATOM     89  F   UNL A   1      43.613  32.889  26.437  1.00  0.00    -0.200 F 
ATOM     90  C   UNL A   1      45.888  32.610  26.990  1.00  0.00     0.200 A 
ATOM     91  F   UNL A   1      48.142  32.329  27.622  1.00  0.00    -0.200 F 
ATOM     92  F   UNL A   1      46.223  33.628  26.186  1.00  0.00    -0.200 F 
ENDBRANCH  59  82
ENDBRANCH  33  34
ENDBRANCH  26  28
ENDBRANCH  25  26
ENDBRANCH  24  25
ENDBRANCH   1  24
TORSDOF 14
ENDMDL
MODEL 2
REMARK VINA RESULT:     -10.3      4.608      7.590
REMARK SMILES CC[C@@](C)(NC(=O)c1sc2cc(F)ccc2c1Cl)C(=O)OCCOC(=O)c1ccc(-c2c3nc(c(-c4c(F)c(F)c(F)c(F)c4F)c4ccc([nH]4)c(-c4c(F)c(F)c(F)c(F)c4F)c4nc(c(-c5c(F)c(F)c(F)c(F)c5F)c5ccc2[nH]5)C=C4)C=C3)cc1
REMARK SMILES IDX 22 1 21 2 19 3 20 4 3 5 4 6 2 7 1 8 5 9 6 10 7 12 8 13 9 14
REMARK SMILES IDX 17 15 10 16 16 17 18 18 11 19 15 20 12 21 14 22 13 23 23 24
REMARK SMILES IDX 24 25 25 26 26 27 27 28 28 29 89 30 29 31 88 32 30 33 31 34
REMARK SMILES IDX 32 35 82 36 33 37 87 38 81 39 83 40 34 41 86 42 80 43 79 44
REMARK SMILES IDX 35 46 67 47 47 48 66 49 48 50 51 51 65 52 84 53 49 54 50 55
REMARK SMILES IDX 64 57 85 58 52 59 36 60 37 61 45 62 38 63 39 64 43 65 46 66
REMARK SMILES IDX 40 67 41 68 44 69 42 70 68 71 69 72 77 73 70 74 71 75 75 76
REMARK SMILES IDX 78 77 72 78 73 79 76 80 74 81 53 82 54 83 62 84 55 85 56 86
REMARK SMILES IDX 60 87 63 88 57 89 58 90 61 91 59 92
REMARK H PARENT 5 11 83 45 51 56
REMARK Flexibility Score: inf
ROOT
ATOM      1  C   UNL A   1      32.728  29.967  27.257  1.00  0.00     0.274 C 
ENDROOT
BRANCH   1   2
ATOM      2  O   UNL A   1      33.157  29.188  26.103  1.00  0.00    -0.460 OA
BRANCH   2   3
ATOM      3  C   UNL A   1      32.200  28.742  25.262  1.00  0.00     0.331 C 
ATOM      4  O   UNL A   1      31.218  29.426  25.009  1.00  0.00    -0.249 OA
BRANCH   3   5
ATOM      5  C   UNL A   1      32.308  27.231  24.850  1.00  0.00     0.135 C 
ATOM      6  C   UNL A   1      32.947  26.526  26.066  1.00  0.00     0.047 C 
BRANCH   5   7
ATOM      7  C   UNL A   1      30.859  26.650  24.610  1.00  0.00     0.037 C 
ATOM      8  C   UNL A   1      30.220  25.807  25.686  1.00  0.00     0.007 C 
ENDBRANCH   5   7
BRANCH   5   9
ATOM      9  N   UNL A   1      32.989  26.779  23.594  1.00  0.00    -0.336 N 
ATOM     10  C   UNL A   1      33.344  25.677  22.883  1.00  0.00     0.263 C 
ATOM     11  H   UNL A   1      33.289  27.577  23.100  1.00  0.00     0.165 HD
ATOM     12  O   UNL A   1      33.789  25.920  21.758  1.00  0.00    -0.268 OA
BRANCH  10  13
ATOM     13  C   UNL A   1      33.331  24.355  23.428  1.00  0.00     0.112 A 
ATOM     14  S   UNL A   1      31.951  23.392  23.124  1.00  0.00    -0.128 S 
ATOM     15  C   UNL A   1      34.201  23.731  24.289  1.00  0.00     0.072 A 
ATOM     16  C   UNL A   1      32.655  22.017  23.877  1.00  0.00     0.040 A 
ATOM     17  C   UNL A   1      33.879  22.338  24.477  1.00  0.00     0.012 A 
ATOM     18  Cl  UNL A   1      35.607  24.449  24.960  1.00  0.00    -0.082 Cl
ATOM     19  C   UNL A   1      32.154  20.700  23.862  1.00  0.00     0.059 A 
ATOM     20  C   UNL A   1      34.619  21.285  25.078  1.00  0.00     0.014 A 
ATOM     21  C   UNL A   1      32.946  19.691  24.397  1.00  0.00     0.124 A 
ATOM     22  C   UNL A   1      34.162  19.966  24.999  1.00  0.00     0.040 A 
ATOM     23  F   UNL A   1      32.548  18.417  24.285  1.00  0.00    -0.207 F 
ENDBRANCH  10  13
ENDBRANCH   5   9
ENDBRANCH   3   5
ENDBRANCH   2   3
ENDBRANCH   1   2
BRANCH   1  24
ATOM     24  C   UNL A   1      33.320  31.379  27.194  1.00  0.00     0.275 C 
BRANCH  24  25
ATOM     25  O   UNL A   1      34.154  31.627  28.325  1.00  0.00    -0.458 OA
BRANCH  25  26
ATOM     26  C   UNL A   1      35.373  32.167  28.048  1.00  0.00     0.338 C 
ATOM     27  O   UNL A   1      35.614  33.270  27.625  1.00  0.00    -0.246 OA
BRANCH  26  28
ATOM     28  C   UNL A   1      36.328  31.305  28.782  1.00  0.00     0.060 A 
ATOM     29  C   UNL A   1      37.476  31.869  29.357  1.00  0.00     0.016 A 
ATOM     30  C   UNL A   1      36.260  29.946  28.494  1.00  0.00     0.016 A 
ATOM     31  C   UNL A   1      38.653  31.140  29.359  1.00  0.00     0.010 A 
ATOM     32  C   UNL A   1      37.434  29.214  28.543  1.00  0.00     0.010 A 
ATOM     33  C   UNL A   1      38.652  29.845  28.839  1.00  0.00    -0.014 A 
BRANCH  33  34
ATOM     34  C   UNL A   1      39.886  29.062  28.868  1.00  0.00     0.031 A 
ATOM     35  C   UNL A   1      40.216  28.727  30.261  1.00  0.00     0.074 A 
ATOM     36  C   UNL A   1      40.689  28.617  27.873  1.00  0.00     0.049 A 
ATOM     37  N   UNL A   1      41.101  29.357  30.955  1.00  0.00    -0.248 NA
ATOM     38  C   UNL A   1      39.373  27.803  31.027  1.00  0.00     0.031 C 
ATOM     39  C   UNL A   1      40.581  28.722  26.416  1.00  0.00     0.029 A 
ATOM     40  N   UNL A   1      41.797  27.827  28.006  1.00  0.00    -0.354 N 
ATOM     41  C   UNL A   1      41.052  28.791  32.208  1.00  0.00     0.074 A 
ATOM     42  C   UNL A   1      39.850  27.996  32.258  1.00  0.00     0.031 C 
ATOM     43  C   UNL A   1      41.363  27.789  25.818  1.00  0.00     0.029 A 
ATOM     44  C   UNL A   1      42.215  27.207  26.834  1.00  0.00     0.049 A 
ATOM     45  H   UNL A   1      42.263  27.706  28.866  1.00  0.00     0.167 HD
ATOM     46  C   UNL A   1      42.144  28.820  33.011  1.00  0.00     0.037 A 
ATOM     47  C   UNL A   1      43.274  26.376  26.675  1.00  0.00     0.037 A 
ATOM     48  C   UNL A   1      43.134  29.758  32.540  1.00  0.00     0.049 A 
ATOM     49  C   UNL A   1      44.243  26.738  27.732  1.00  0.00     0.074 A 
ATOM     50  C   UNL A   1      43.130  31.121  32.301  1.00  0.00     0.029 A 
ATOM     51  N   UNL A   1      44.203  29.263  31.830  1.00  0.00    -0.354 N 
ATOM     52  N   UNL A   1      44.886  27.872  27.753  1.00  0.00    -0.248 NA
ATOM     53  C   UNL A   1      44.172  26.031  29.000  1.00  0.00     0.031 C 
ATOM     54  C   UNL A   1      43.897  31.299  31.110  1.00  0.00     0.029 A 
ATOM     55  C   UNL A   1      44.377  30.050  30.718  1.00  0.00     0.049 A 
ATOM     56  H   UNL A   1      44.748  28.481  32.077  1.00  0.00     0.167 HD
ATOM     57  C   UNL A   1      44.876  28.242  29.088  1.00  0.00     0.074 A 
ATOM     58  C   UNL A   1      44.538  27.022  29.817  1.00  0.00     0.031 C 
ATOM     59  C   UNL A   1      44.860  29.558  29.446  1.00  0.00     0.037 A 
BRANCH  46  60
ATOM     60  C   UNL A   1      42.431  27.733  33.993  1.00  0.00     0.064 A 
ATOM     61  C   UNL A   1      43.050  26.553  33.561  1.00  0.00     0.173 A 
ATOM     62  C   UNL A   1      41.905  27.720  35.304  1.00  0.00     0.173 A 
ATOM     63  F   UNL A   1      43.529  26.454  32.312  1.00  0.00    -0.203 F 
ATOM     64  C   UNL A   1      43.121  25.429  34.383  1.00  0.00     0.198 A 
ATOM     65  C   UNL A   1      42.035  26.622  36.144  1.00  0.00     0.198 A 
ATOM     66  F   UNL A   1      41.152  28.724  35.776  1.00  0.00    -0.203 F 
ATOM     67  F   UNL A   1      43.627  24.286  33.902  1.00  0.00    -0.200 F 
ATOM     68  C   UNL A   1      42.623  25.466  35.676  1.00  0.00     0.200 A 
ATOM     69  F   UNL A   1      41.521  26.672  37.380  1.00  0.00    -0.200 F 
ATOM     70  F   UNL A   1      42.659  24.377  36.451  1.00  0.00    -0.200 F 
ENDBRANCH  46  60
BRANCH  47  71
ATOM     71  C   UNL A   1      43.370  25.106  25.918  1.00  0.00     0.064 A 
ATOM     72  C   UNL A   1      44.499  24.834  25.125  1.00  0.00     0.173 A 
ATOM     73  C   UNL A   1      42.532  24.014  26.209  1.00  0.00     0.173 A 
ATOM     74  F   UNL A   1      45.365  25.815  24.828  1.00  0.00    -0.203 F 
ATOM     75  C   UNL A   1      44.804  23.538  24.694  1.00  0.00     0.198 A 
ATOM     76  C   UNL A   1      42.838  22.719  25.777  1.00  0.00     0.198 A 
ATOM     77  F   UNL A   1      41.459  24.167  26.999  1.00  0.00    -0.203 F 
ATOM     78  F   UNL A   1      45.932  23.311  24.006  1.00  0.00    -0.200 F 
ATOM     79  C   UNL A   1      43.982  22.479  25.037  1.00  0.00     0.200 A 
ATOM     80  F   UNL A   1      42.055  21.692  26.141  1.00  0.00    -0.200 F 
ATOM     81  F   UNL A   1      44.314  21.227  24.689  1.00  0.00    -0.200 F 
ENDBRANCH  47  71
BRANCH  59  82
ATOM     82  C   UNL A   1      45.137  30.581  28.372  1.00  0.00     0.064 A 
ATOM     83  C   UNL A   1      44.155  31.135  27.530  1.00  0.00     0.173 A 
ATOM     84  C   UNL A   1      46.426  31.121  28.280  1.00  0.00     0.173 A 
ATOM     85  F   UNL A   1      42.882  30.742  27.605  1.00  0.00    -0.203 F 
ATOM     86  C   UNL A   1      44.455  32.152  26.623  1.00  0.00     0.198 A 
ATOM     87  C   UNL A   1      46.718  32.161  27.399  1.00  0.00     0.198 A 
ATOM     88  F   UNL A   1      47.401  30.669  29.085  1.00  0.00    -0.203 F 
ATOM     89  F   UNL A   1      43.496  32.654  25.831  1.00  0.00    -0.200 F 
ATOM     90  C   UNL A   1      45.735  32.671  26.565  1.00  0.00     0.200 A 
ATOM     91  F   UNL A   1      47.950  32.688  27.377  1.00  0.00    -0.200 F 
ATOM     92  F   UNL A   1      46.017  33.679  25.728  1.00  0.00    -0.200 F 
ENDBRANCH  59  82
ENDBRANCH  33  34
ENDBRANCH  26  28
ENDBRANCH  25  26
ENDBRANCH  24  25
ENDBRANCH   1  24
TORSDOF 14
ENDMDL
MODEL 3
REMARK VINA RESULT:     -10.1      5.487     10.888
REMARK SMILES CC[C@@](C)(NC(=O)c1sc2cc(F)ccc2c1Cl)C(=O)OCCOC(=O)c1ccc(-c2c3nc(c(-c4c(F)c(F)c(F)c(F)c4F)c4ccc([nH]4)c(-c4c(F)c(F)c(F)c(F)c4F)c4nc(c(-c5c(F)c(F)c(F)c(F)c5F)c5ccc2[nH]5)C=C4)C=C3)cc1
REMARK SMILES IDX 22 1 21 2 19 3 20 4 3 5 4 6 2 7 1 8 5 9 6 10 7 12 8 13 9 14
REMARK SMILES IDX 17 15 10 16 16 17 18 18 11 19 15 20 12 21 14 22 13 23 23 24
REMARK SMILES IDX 24 25 25 26 26 27 27 28 28 29 89 30 29 31 88 32 30 33 31 34
REMARK SMILES IDX 32 35 82 36 33 37 87 38 81 39 83 40 34 41 86 42 80 43 79 44
REMARK SMILES IDX 35 46 67 47 47 48 66 49 48 50 51 51 65 52 84 53 49 54 50 55
REMARK SMILES IDX 64 57 85 58 52 59 36 60 37 61 45 62 38 63 39 64 43 65 46 66
REMARK SMILES IDX 40 67 41 68 44 69 42 70 68 71 69 72 77 73 70 74 71 75 75 76
REMARK SMILES IDX 78 77 72 78 73 79 76 80 74 81 53 82 54 83 62 84 55 85 56 86
REMARK SMILES IDX 60 87 63 88 57 89 58 90 61 91 59 92
REMARK H PARENT 5 11 83 45 51 56
REMARK Flexibility Score: inf
ROOT
ATOM      1  C   UNL A   1      37.384  20.886  25.079  1.00  0.00     0.274 C 
ENDROOT
BRANCH   1   2
ATOM      2  O   UNL A   1      36.486  21.878  25.655  1.00  0.00    -0.460 OA
BRANCH   2   3
ATOM      3  C   UNL A   1      35.170  21.761  25.380  1.00  0.00     0.331 C 
ATOM      4  O   UNL A   1      34.708  20.710  24.958  1.00  0.00    -0.249 OA
BRANCH   3   5
ATOM      5  C   UNL A   1      34.351  23.101  25.394  1.00  0.00     0.135 C 
ATOM      6  C   UNL A   1      35.409  24.219  25.505  1.00  0.00     0.047 C 
BRANCH   5   7
ATOM      7  C   UNL A   1      33.573  23.251  24.028  1.00  0.00     0.037 C 
ATOM      8  C   UNL A   1      34.356  23.305  22.740  1.00  0.00     0.007 C 
ENDBRANCH   5   7
BRANCH   5   9
ATOM      9  N   UNL A   1      33.241  23.363  26.365  1.00  0.00    -0.336 N 
ATOM     10  C   UNL A   1      32.098  24.075  26.548  1.00  0.00     0.263 C 
ATOM     11  H   UNL A   1      33.397  22.815  27.169  1.00  0.00     0.165 HD
ATOM     12  O   UNL A   1      31.460  23.761  27.556  1.00  0.00    -0.268 OA
BRANCH  10  13
ATOM     13  C   UNL A   1      31.724  25.181  25.722  1.00  0.00     0.112 A 
ATOM     14  S   UNL A   1      30.513  24.911  24.545  1.00  0.00    -0.128 S 
ATOM     15  C   UNL A   1      32.263  26.439  25.610  1.00  0.00     0.072 A 
ATOM     16  C   UNL A   1      30.479  26.569  24.094  1.00  0.00     0.040 A 
ATOM     17  C   UNL A   1      31.487  27.292  24.744  1.00  0.00     0.012 A 
ATOM     18  Cl  UNL A   1      33.612  27.015  26.499  1.00  0.00    -0.082 Cl
ATOM     19  C   UNL A   1      29.541  27.192  23.248  1.00  0.00     0.059 A 
ATOM     20  C   UNL A   1      31.539  28.695  24.529  1.00  0.00     0.014 A 
ATOM     21  C   UNL A   1      29.586  28.576  23.125  1.00  0.00     0.124 A 
ATOM     22  C   UNL A   1      30.566  29.328  23.751  1.00  0.00     0.040 A 
ATOM     23  F   UNL A   1      28.631  29.202  22.424  1.00  0.00    -0.207 F 
ENDBRANCH  10  13
ENDBRANCH   5   9
ENDBRANCH   3   5
ENDBRANCH   2   3
ENDBRANCH   1   2
BRANCH   1  24
ATOM     24  C   UNL A   1      38.816  21.114  25.577  1.00  0.00     0.275 C 
BRANCH  24  25
ATOM     25  O   UNL A   1      38.924  22.370  26.245  1.00  0.00    -0.458 OA
BRANCH  25  26
ATOM     26  C   UNL A   1      39.910  22.455  27.180  1.00  0.00     0.338 C 
ATOM     27  O   UNL A   1      40.523  21.551  27.691  1.00  0.00    -0.246 OA
BRANCH  26  28
ATOM     28  C   UNL A   1      40.367  23.861  27.102  1.00  0.00     0.060 A 
ATOM     29  C   UNL A   1      41.520  24.259  27.794  1.00  0.00     0.016 A 
ATOM     30  C   UNL A   1      39.407  24.788  26.709  1.00  0.00     0.016 A 
ATOM     31  C   UNL A   1      41.563  25.524  28.355  1.00  0.00     0.010 A 
ATOM     32  C   UNL A   1      39.483  26.063  27.239  1.00  0.00     0.010 A 
ATOM     33  C   UNL A   1      40.482  26.387  28.172  1.00  0.00    -0.014 A 
BRANCH  33  34
ATOM     34  C   UNL A   1      40.537  27.733  28.738  1.00  0.00     0.031 A 
ATOM     35  C   UNL A   1      41.659  28.468  28.134  1.00  0.00     0.074 A 
ATOM     36  C   UNL A   1      39.751  28.357  29.647  1.00  0.00     0.049 A 
ATOM     37  N   UNL A   1      42.796  28.635  28.717  1.00  0.00    -0.248 NA
ATOM     38  C   UNL A   1      41.628  28.846  26.717  1.00  0.00     0.031 C 
ATOM     39  C   UNL A   1      38.541  27.920  30.348  1.00  0.00     0.029 A 
ATOM     40  N   UNL A   1      39.852  29.655  30.063  1.00  0.00    -0.354 N 
ATOM     41  C   UNL A   1      43.580  29.299  27.802  1.00  0.00     0.074 A 
ATOM     42  C   UNL A   1      42.896  29.221  26.535  1.00  0.00     0.031 C 
ATOM     43  C   UNL A   1      37.864  28.992  30.829  1.00  0.00     0.029 A 
ATOM     44  C   UNL A   1      38.720  30.153  30.698  1.00  0.00     0.049 A 
ATOM     45  H   UNL A   1      40.663  30.196  29.923  1.00  0.00     0.167 HD
ATOM     46  C   UNL A   1      44.604  30.080  28.223  1.00  0.00     0.037 A 
ATOM     47  C   UNL A   1      38.543  31.396  31.208  1.00  0.00     0.037 A 
ATOM     48  C   UNL A   1      44.934  29.836  29.606  1.00  0.00     0.049 A 
ATOM     49  C   UNL A   1      39.891  31.896  31.553  1.00  0.00     0.074 A 
ATOM     50  C   UNL A   1      45.341  28.720  30.315  1.00  0.00     0.029 A 
ATOM     51  N   UNL A   1      44.448  30.713  30.547  1.00  0.00    -0.354 N 
ATOM     52  N   UNL A   1      40.614  31.392  32.514  1.00  0.00    -0.248 NA
ATOM     53  C   UNL A   1      40.617  32.660  30.553  1.00  0.00     0.031 C 
ATOM     54  C   UNL A   1      44.659  28.796  31.567  1.00  0.00     0.029 A 
ATOM     55  C   UNL A   1      43.920  29.979  31.581  1.00  0.00     0.049 A 
ATOM     56  H   UNL A   1      44.473  31.696  30.490  1.00  0.00     0.167 HD
ATOM     57  C   UNL A   1      41.897  31.363  31.993  1.00  0.00     0.074 A 
ATOM     58  C   UNL A   1      41.859  32.264  30.843  1.00  0.00     0.031 C 
ATOM     59  C   UNL A   1      42.781  30.395  32.371  1.00  0.00     0.037 A 
BRANCH  46  60
ATOM     60  C   UNL A   1      45.033  31.296  27.470  1.00  0.00     0.064 A 
ATOM     61  C   UNL A   1      46.351  31.396  27.007  1.00  0.00     0.173 A 
ATOM     62  C   UNL A   1      44.250  32.470  27.392  1.00  0.00     0.173 A 
ATOM     63  F   UNL A   1      47.184  30.349  27.094  1.00  0.00    -0.203 F 
ATOM     64  C   UNL A   1      46.856  32.600  26.514  1.00  0.00     0.198 A 
ATOM     65  C   UNL A   1      44.735  33.647  26.840  1.00  0.00     0.198 A 
ATOM     66  F   UNL A   1      43.032  32.548  27.946  1.00  0.00    -0.203 F 
ATOM     67  F   UNL A   1      48.150  32.688  26.177  1.00  0.00    -0.200 F 
ATOM     68  C   UNL A   1      46.047  33.721  26.422  1.00  0.00     0.200 A 
ATOM     69  F   UNL A   1      43.943  34.727  26.788  1.00  0.00    -0.200 F 
ATOM     70  F   UNL A   1      46.542  34.884  25.984  1.00  0.00    -0.200 F 
ENDBRANCH  46  60
BRANCH  47  71
ATOM     71  C   UNL A   1      37.368  32.296  31.111  1.00  0.00     0.064 A 
ATOM     72  C   UNL A   1      37.080  32.962  29.906  1.00  0.00     0.173 A 
ATOM     73  C   UNL A   1      36.340  32.265  32.071  1.00  0.00     0.173 A 
ATOM     74  F   UNL A   1      37.996  33.010  28.928  1.00  0.00    -0.203 F 
ATOM     75  C   UNL A   1      35.821  33.516  29.653  1.00  0.00     0.198 A 
ATOM     76  C   UNL A   1      35.082  32.820  31.816  1.00  0.00     0.198 A 
ATOM     77  F   UNL A   1      36.506  31.610  33.229  1.00  0.00    -0.203 F 
ATOM     78  F   UNL A   1      35.564  34.074  28.461  1.00  0.00    -0.200 F 
ATOM     79  C   UNL A   1      34.817  33.428  30.601  1.00  0.00     0.200 A 
ATOM     80  F   UNL A   1      34.104  32.701  32.727  1.00  0.00    -0.200 F 
ATOM     81  F   UNL A   1      33.588  33.891  30.329  1.00  0.00    -0.200 F 
ENDBRANCH  47  71
BRANCH  59  82
ATOM     82  C   UNL A   1      42.421  29.544  33.564  1.00  0.00     0.064 A 
ATOM     83  C   UNL A   1      41.743  28.314  33.488  1.00  0.00     0.173 A 
ATOM     84  C   UNL A   1      42.901  29.925  34.824  1.00  0.00     0.173 A 
ATOM     85  F   UNL A   1      41.323  27.830  32.316  1.00  0.00    -0.203 F 
ATOM     86  C   UNL A   1      41.528  27.524  34.617  1.00  0.00     0.198 A 
ATOM     87  C   UNL A   1      42.717  29.118  35.946  1.00  0.00     0.198 A 
ATOM     88  F   UNL A   1      43.595  31.065  34.960  1.00  0.00    -0.203 F 
ATOM     89  F   UNL A   1      40.872  26.358  34.509  1.00  0.00    -0.200 F 
ATOM     90  C   UNL A   1      42.025  27.921  35.844  1.00  0.00     0.200 A 
ATOM     91  F   UNL A   1      43.236  29.488  37.124  1.00  0.00    -0.200 F 
ATOM     92  F   UNL A   1      41.860  27.143  36.923  1.00  0.00    -0.200 F 
ENDBRANCH  59  82
ENDBRANCH  33  34
ENDBRANCH  26  28
ENDBRANCH  25  26
ENDBRANCH  24  25
ENDBRANCH   1  24
TORSDOF 14
ENDMDL
