MODEL 1
REMARK VINA RESULT:     -10.5      0.000      0.000
REMARK SMILES C=CC[N@@H+](CC(=O)OCCOC(=O)c1ccc(-c2c3nc(c(-c4c(F)c(F)c(F)c(F)c4F)c4ccc([nH]4)c(-c4c(F)c(F)c(F)c(F)c4F)c4nc(c(-c5c(F)c(F)c(F)c(F)c5F)c5ccc2[nH]5)C=C4)C=C3)cc1)C[C@H]1C[N@@H+](C(C)C)CCO1
REMARK SMILES IDX 9 1 8 2 6 3 7 4 5 5 4 6 3 8 2 9 1 10 77 11 78 12 79 13 86 14
REMARK SMILES IDX 80 15 85 16 84 17 81 19 82 20 83 21 10 22 11 23 12 24 13 25
REMARK SMILES IDX 14 26 15 27 76 28 16 29 75 30 17 31 18 32 19 33 69 34 20 35
REMARK SMILES IDX 74 36 68 37 70 38 21 39 73 40 67 41 66 42 22 44 54 45 34 46
REMARK SMILES IDX 53 47 35 48 38 49 52 50 71 51 36 52 37 53 51 55 72 56 39 57
REMARK SMILES IDX 23 58 24 59 32 60 25 61 26 62 30 63 33 64 27 65 28 66 31 67
REMARK SMILES IDX 29 68 55 69 56 70 64 71 57 72 58 73 62 74 65 75 59 76 60 77
REMARK SMILES IDX 63 78 61 79 40 80 41 81 49 82 42 83 43 84 47 85 50 86 44 87
REMARK SMILES IDX 45 88 48 89 46 90
REMARK H PARENT 4 7 80 18 70 43 38 54
REMARK Flexibility Score: inf
ROOT
ATOM      1  C   UNL A   1      32.329  29.666  25.295  1.00  0.00     0.274 C 
ENDROOT
BRANCH   1   2
ATOM      2  O   UNL A   1      31.453  28.539  25.503  1.00  0.00    -0.458 OA
BRANCH   2   3
ATOM      3  C   UNL A   1      32.011  27.468  26.142  1.00  0.00     0.361 C 
ATOM      4  O   UNL A   1      31.394  26.708  26.883  1.00  0.00    -0.245 OA
BRANCH   3   5
ATOM      5  C   UNL A   1      33.468  27.228  25.733  1.00  0.00     0.386 C 
BRANCH   5   6
ATOM      6  N   UNL A   1      33.713  26.181  24.722  1.00  0.00    -0.320 N 
ATOM      7  H   UNL A   1      34.571  26.398  24.214  1.00  0.00     0.348 HD
BRANCH   6   8
ATOM      8  C   UNL A   1      32.770  26.245  23.620  1.00  0.00     0.290 C 
BRANCH   8   9
ATOM      9  C   UNL A   1      33.323  25.858  22.285  1.00  0.00     0.025 C 
ATOM     10  C   UNL A   1      32.548  25.583  21.225  1.00  0.00     0.010 C 
ENDBRANCH   8   9
ENDBRANCH   6   8
BRANCH   6  11
ATOM     11  C   UNL A   1      34.264  24.912  25.213  1.00  0.00     0.301 C 
BRANCH  11  12
ATOM     12  C   UNL A   1      33.520  23.537  25.225  1.00  0.00     0.228 C 
ATOM     13  C   UNL A   1      33.828  22.597  24.051  1.00  0.00     0.300 C 
ATOM     14  O   UNL A   1      33.785  22.930  26.516  1.00  0.00    -0.361 OA
ATOM     15  N   UNL A   1      34.896  21.613  24.279  1.00  0.00    -0.329 N 
ATOM     16  C   UNL A   1      33.844  21.499  26.586  1.00  0.00     0.222 C 
ATOM     17  C   UNL A   1      34.455  20.759  25.378  1.00  0.00     0.291 C 
ATOM     18  H   UNL A   1      35.035  21.039  23.448  1.00  0.00     0.348 HD
BRANCH  15  19
ATOM     19  C   UNL A   1      36.243  22.197  24.424  1.00  0.00     0.177 C 
ATOM     20  C   UNL A   1      37.424  21.271  24.758  1.00  0.00     0.075 C 
ATOM     21  C   UNL A   1      36.569  22.945  23.125  1.00  0.00     0.075 C 
ENDBRANCH  15  19
ENDBRANCH  11  12
ENDBRANCH   6  11
ENDBRANCH   5   6
ENDBRANCH   3   5
ENDBRANCH   2   3
ENDBRANCH   1   2
BRANCH   1  22
ATOM     22  C   UNL A   1      31.892  30.827  26.218  1.00  0.00     0.275 C 
BRANCH  22  23
ATOM     23  O   UNL A   1      32.539  31.025  27.516  1.00  0.00    -0.458 OA
BRANCH  23  24
ATOM     24  C   UNL A   1      33.603  31.835  27.630  1.00  0.00     0.338 C 
ATOM     25  O   UNL A   1      33.599  33.060  27.532  1.00  0.00    -0.246 OA
BRANCH  24  26
ATOM     26  C   UNL A   1      34.902  31.184  27.863  1.00  0.00     0.060 A 
ATOM     27  C   UNL A   1      35.951  32.067  28.170  1.00  0.00     0.016 A 
ATOM     28  C   UNL A   1      35.097  29.805  27.954  1.00  0.00     0.016 A 
ATOM     29  C   UNL A   1      37.157  31.600  28.649  1.00  0.00     0.010 A 
ATOM     30  C   UNL A   1      36.303  29.331  28.490  1.00  0.00     0.010 A 
ATOM     31  C   UNL A   1      37.305  30.235  28.892  1.00  0.00    -0.014 A 
BRANCH  31  32
ATOM     32  C   UNL A   1      38.462  29.818  29.709  1.00  0.00     0.031 A 
ATOM     33  C   UNL A   1      39.476  28.876  29.160  1.00  0.00     0.074 A 
ATOM     34  C   UNL A   1      38.604  30.374  30.929  1.00  0.00     0.049 A 
ATOM     35  N   UNL A   1      40.525  28.364  29.746  1.00  0.00    -0.248 NA
ATOM     36  C   UNL A   1      39.289  28.451  27.765  1.00  0.00     0.031 C 
ATOM     37  C   UNL A   1      37.690  31.362  31.513  1.00  0.00     0.029 A 
ATOM     38  N   UNL A   1      39.567  30.210  31.889  1.00  0.00    -0.354 N 
ATOM     39  C   UNL A   1      41.112  27.536  28.804  1.00  0.00     0.074 A 
ATOM     40  C   UNL A   1      40.298  27.605  27.608  1.00  0.00     0.031 C 
ATOM     41  C   UNL A   1      38.147  31.731  32.718  1.00  0.00     0.029 A 
ATOM     42  C   UNL A   1      39.338  30.950  33.024  1.00  0.00     0.049 A 
ATOM     43  H   UNL A   1      40.347  29.620  31.777  1.00  0.00     0.167 HD
ATOM     44  C   UNL A   1      42.231  26.786  28.944  1.00  0.00     0.037 A 
ATOM     45  C   UNL A   1      39.995  30.963  34.196  1.00  0.00     0.037 A 
ATOM     46  C   UNL A   1      43.017  26.744  30.151  1.00  0.00     0.049 A 
ATOM     47  C   UNL A   1      41.188  30.062  34.345  1.00  0.00     0.074 A 
ATOM     48  C   UNL A   1      44.162  26.015  30.412  1.00  0.00     0.029 A 
ATOM     49  N   UNL A   1      42.730  27.464  31.305  1.00  0.00    -0.354 N 
ATOM     50  N   UNL A   1      41.728  29.259  33.461  1.00  0.00    -0.248 NA
ATOM     51  C   UNL A   1      41.854  30.060  35.651  1.00  0.00     0.031 C 
ATOM     52  C   UNL A   1      44.536  26.252  31.739  1.00  0.00     0.029 A 
ATOM     53  C   UNL A   1      43.662  27.177  32.289  1.00  0.00     0.049 A 
ATOM     54  H   UNL A   1      41.974  28.087  31.409  1.00  0.00     0.167 HD
ATOM     55  C   UNL A   1      42.811  28.670  34.093  1.00  0.00     0.074 A 
ATOM     56  C   UNL A   1      42.860  29.226  35.432  1.00  0.00     0.031 C 
ATOM     57  C   UNL A   1      43.685  27.750  33.613  1.00  0.00     0.037 A 
BRANCH  44  58
ATOM     58  C   UNL A   1      42.628  25.916  27.788  1.00  0.00     0.064 A 
ATOM     59  C   UNL A   1      42.145  24.607  27.639  1.00  0.00     0.173 A 
ATOM     60  C   UNL A   1      43.503  26.407  26.805  1.00  0.00     0.173 A 
ATOM     61  F   UNL A   1      41.323  24.082  28.559  1.00  0.00    -0.203 F 
ATOM     62  C   UNL A   1      42.545  23.814  26.566  1.00  0.00     0.198 A 
ATOM     63  C   UNL A   1      43.875  25.622  25.717  1.00  0.00     0.198 A 
ATOM     64  F   UNL A   1      43.996  27.650  26.899  1.00  0.00    -0.203 F 
ATOM     65  F   UNL A   1      42.115  22.548  26.474  1.00  0.00    -0.200 F 
ATOM     66  C   UNL A   1      43.404  24.323  25.604  1.00  0.00     0.200 A 
ATOM     67  F   UNL A   1      44.699  26.120  24.784  1.00  0.00    -0.200 F 
ATOM     68  F   UNL A   1      43.786  23.559  24.571  1.00  0.00    -0.200 F 
ENDBRANCH  44  58
BRANCH  45  69
ATOM     69  C   UNL A   1      39.516  31.821  35.312  1.00  0.00     0.064 A 
ATOM     70  C   UNL A   1      39.956  33.144  35.450  1.00  0.00     0.173 A 
ATOM     71  C   UNL A   1      38.600  31.338  36.260  1.00  0.00     0.173 A 
ATOM     72  F   UNL A   1      40.844  33.649  34.582  1.00  0.00    -0.203 F 
ATOM     73  C   UNL A   1      39.510  33.945  36.500  1.00  0.00     0.198 A 
ATOM     74  C   UNL A   1      38.130  32.149  37.290  1.00  0.00     0.198 A 
ATOM     75  F   UNL A   1      38.145  30.079  36.175  1.00  0.00    -0.203 F 
ATOM     76  F   UNL A   1      39.980  35.193  36.633  1.00  0.00    -0.200 F 
ATOM     77  C   UNL A   1      38.592  33.450  37.415  1.00  0.00     0.200 A 
ATOM     78  F   UNL A   1      37.230  31.671  38.160  1.00  0.00    -0.200 F 
ATOM     79  F   UNL A   1      38.160  34.223  38.420  1.00  0.00    -0.200 F 
ENDBRANCH  45  69
BRANCH  57  80
ATOM     80  C   UNL A   1      44.787  27.325  34.536  1.00  0.00     0.064 A 
ATOM     81  C   UNL A   1      44.664  26.199  35.363  1.00  0.00     0.173 A 
ATOM     82  C   UNL A   1      45.993  28.042  34.574  1.00  0.00     0.173 A 
ATOM     83  F   UNL A   1      43.523  25.492  35.377  1.00  0.00    -0.203 F 
ATOM     84  C   UNL A   1      45.699  25.823  36.216  1.00  0.00     0.198 A 
ATOM     85  C   UNL A   1      47.037  27.643  35.400  1.00  0.00     0.198 A 
ATOM     86  F   UNL A   1      46.161  29.123  33.798  1.00  0.00    -0.203 F 
ATOM     87  F   UNL A   1      45.539  24.778  37.039  1.00  0.00    -0.200 F 
ATOM     88  C   UNL A   1      46.886  26.540  36.228  1.00  0.00     0.200 A 
ATOM     89  F   UNL A   1      48.189  28.328  35.400  1.00  0.00    -0.200 F 
ATOM     90  F   UNL A   1      47.883  26.173  37.043  1.00  0.00    -0.200 F 
ENDBRANCH  57  80
ENDBRANCH  31  32
ENDBRANCH  24  26
ENDBRANCH  23  24
ENDBRANCH  22  23
ENDBRANCH   1  22
TORSDOF 17
ENDMDL
MODEL 2
REMARK VINA RESULT:     -10.5      1.628      2.925
REMARK SMILES C=CC[N@@H+](CC(=O)OCCOC(=O)c1ccc(-c2c3nc(c(-c4c(F)c(F)c(F)c(F)c4F)c4ccc([nH]4)c(-c4c(F)c(F)c(F)c(F)c4F)c4nc(c(-c5c(F)c(F)c(F)c(F)c5F)c5ccc2[nH]5)C=C4)C=C3)cc1)C[C@H]1C[N@@H+](C(C)C)CCO1
REMARK SMILES IDX 9 1 8 2 6 3 7 4 5 5 4 6 3 8 2 9 1 10 77 11 78 12 79 13 86 14
REMARK SMILES IDX 80 15 85 16 84 17 81 19 82 20 83 21 10 22 11 23 12 24 13 25
REMARK SMILES IDX 14 26 15 27 76 28 16 29 75 30 17 31 18 32 19 33 69 34 20 35
REMARK SMILES IDX 74 36 68 37 70 38 21 39 73 40 67 41 66 42 22 44 54 45 34 46
REMARK SMILES IDX 53 47 35 48 38 49 52 50 71 51 36 52 37 53 51 55 72 56 39 57
REMARK SMILES IDX 23 58 24 59 32 60 25 61 26 62 30 63 33 64 27 65 28 66 31 67
REMARK SMILES IDX 29 68 55 69 56 70 64 71 57 72 58 73 62 74 65 75 59 76 60 77
REMARK SMILES IDX 63 78 61 79 40 80 41 81 49 82 42 83 43 84 47 85 50 86 44 87
REMARK SMILES IDX 45 88 48 89 46 90
REMARK H PARENT 4 7 80 18 70 43 38 54
REMARK Flexibility Score: inf
ROOT
ATOM      1  C   UNL A   1      31.418  31.353  26.813  1.00  0.00     0.274 C 
ENDROOT
BRANCH   1   2
ATOM      2  O   UNL A   1      31.128  31.036  25.436  1.00  0.00    -0.458 OA
BRANCH   2   3
ATOM      3  C   UNL A   1      31.728  29.908  24.951  1.00  0.00     0.361 C 
ATOM      4  O   UNL A   1      32.937  29.702  24.983  1.00  0.00    -0.245 OA
BRANCH   3   5
ATOM      5  C   UNL A   1      30.718  28.857  24.480  1.00  0.00     0.386 C 
BRANCH   5   6
ATOM      6  N   UNL A   1      30.593  28.659  23.022  1.00  0.00    -0.320 N 
ATOM      7  H   UNL A   1      31.466  28.930  22.570  1.00  0.00     0.348 HD
BRANCH   6   8
ATOM      8  C   UNL A   1      29.704  29.628  22.407  1.00  0.00     0.290 C 
BRANCH   8   9
ATOM      9  C   UNL A   1      28.349  29.737  23.033  1.00  0.00     0.025 C 
ATOM     10  C   UNL A   1      27.785  30.911  23.353  1.00  0.00     0.010 C 
ENDBRANCH   8   9
ENDBRANCH   6   8
BRANCH   6  11
ATOM     11  C   UNL A   1      30.710  27.278  22.536  1.00  0.00     0.301 C 
BRANCH  11  12
ATOM     12  C   UNL A   1      32.009  26.616  21.974  1.00  0.00     0.228 C 
ATOM     13  C   UNL A   1      33.314  26.981  22.695  1.00  0.00     0.300 C 
ATOM     14  O   UNL A   1      31.767  25.186  21.937  1.00  0.00    -0.361 OA
ATOM     15  N   UNL A   1      33.738  26.060  23.760  1.00  0.00    -0.329 N 
ATOM     16  C   UNL A   1      32.885  24.310  22.132  1.00  0.00     0.222 C 
ATOM     17  C   UNL A   1      33.971  24.764  23.131  1.00  0.00     0.291 C 
ATOM     18  H   UNL A   1      34.607  26.383  24.185  1.00  0.00     0.348 HD
BRANCH  15  19
ATOM     19  C   UNL A   1      32.855  26.048  24.942  1.00  0.00     0.177 C 
ATOM     20  C   UNL A   1      32.219  24.719  25.382  1.00  0.00     0.075 C 
ATOM     21  C   UNL A   1      33.651  26.617  26.123  1.00  0.00     0.075 C 
ENDBRANCH  15  19
ENDBRANCH  11  12
ENDBRANCH   6  11
ENDBRANCH   5   6
ENDBRANCH   3   5
ENDBRANCH   2   3
ENDBRANCH   1   2
BRANCH   1  22
ATOM     22  C   UNL A   1      32.015  32.777  26.892  1.00  0.00     0.275 C 
BRANCH  22  23
ATOM     23  O   UNL A   1      32.865  33.163  28.019  1.00  0.00    -0.458 OA
BRANCH  23  24
ATOM     24  C   UNL A   1      34.104  33.633  27.807  1.00  0.00     0.338 C 
ATOM     25  O   UNL A   1      34.396  34.749  27.384  1.00  0.00    -0.246 OA
BRANCH  24  26
ATOM     26  C   UNL A   1      35.214  32.707  28.081  1.00  0.00     0.060 A 
ATOM     27  C   UNL A   1      36.466  33.326  28.240  1.00  0.00     0.016 A 
ATOM     28  C   UNL A   1      35.068  31.344  28.340  1.00  0.00     0.016 A 
ATOM     29  C   UNL A   1      37.547  32.628  28.736  1.00  0.00     0.010 A 
ATOM     30  C   UNL A   1      36.152  30.645  28.894  1.00  0.00     0.010 A 
ATOM     31  C   UNL A   1      37.368  31.307  29.146  1.00  0.00    -0.014 A 
BRANCH  31  32
ATOM     32  C   UNL A   1      38.435  30.709  29.973  1.00  0.00     0.031 A 
ATOM     33  C   UNL A   1      39.392  29.731  29.383  1.00  0.00     0.074 A 
ATOM     34  C   UNL A   1      38.556  31.131  31.248  1.00  0.00     0.049 A 
ATOM     35  N   UNL A   1      40.356  29.071  29.965  1.00  0.00    -0.248 NA
ATOM     36  C   UNL A   1      39.248  29.460  27.945  1.00  0.00     0.031 C 
ATOM     37  C   UNL A   1      37.701  32.141  31.881  1.00  0.00     0.029 A 
ATOM     38  N   UNL A   1      39.443  30.788  32.232  1.00  0.00    -0.354 N 
ATOM     39  C   UNL A   1      40.921  28.284  28.975  1.00  0.00     0.074 A 
ATOM     40  C   UNL A   1      40.185  28.541  27.754  1.00  0.00     0.031 C 
ATOM     41  C   UNL A   1      38.119  32.350  33.137  1.00  0.00     0.029 A 
ATOM     42  C   UNL A   1      39.216  31.436  33.422  1.00  0.00     0.049 A 
ATOM     43  H   UNL A   1      40.173  30.141  32.100  1.00  0.00     0.167 HD
ATOM     44  C   UNL A   1      41.958  27.423  29.094  1.00  0.00     0.037 A 
ATOM     45  C   UNL A   1      39.804  31.277  34.620  1.00  0.00     0.037 A 
ATOM     46  C   UNL A   1      42.667  27.194  30.328  1.00  0.00     0.049 A 
ATOM     47  C   UNL A   1      40.902  30.259  34.737  1.00  0.00     0.074 A 
ATOM     48  C   UNL A   1      43.727  26.340  30.571  1.00  0.00     0.029 A 
ATOM     49  N   UNL A   1      42.379  27.826  31.532  1.00  0.00    -0.354 N 
ATOM     50  N   UNL A   1      41.418  29.496  33.805  1.00  0.00    -0.248 NA
ATOM     51  C   UNL A   1      41.489  30.071  36.067  1.00  0.00     0.031 C 
ATOM     52  C   UNL A   1      44.044  26.414  31.932  1.00  0.00     0.029 A 
ATOM     53  C   UNL A   1      43.225  27.361  32.527  1.00  0.00     0.049 A 
ATOM     54  H   UNL A   1      41.677  28.504  31.661  1.00  0.00     0.167 HD
ATOM     55  C   UNL A   1      42.407  28.750  34.427  1.00  0.00     0.074 A 
ATOM     56  C   UNL A   1      42.428  29.171  35.816  1.00  0.00     0.031 C 
ATOM     57  C   UNL A   1      43.222  27.803  33.901  1.00  0.00     0.037 A 
BRANCH  44  58
ATOM     58  C   UNL A   1      42.343  26.633  27.879  1.00  0.00     0.064 A 
ATOM     59  C   UNL A   1      43.340  27.067  26.992  1.00  0.00     0.173 A 
ATOM     60  C   UNL A   1      41.706  25.412  27.601  1.00  0.00     0.173 A 
ATOM     61  F   UNL A   1      43.966  28.235  27.199  1.00  0.00    -0.203 F 
ATOM     62  C   UNL A   1      43.665  26.323  25.860  1.00  0.00     0.198 A 
ATOM     63  C   UNL A   1      42.056  24.656  26.485  1.00  0.00     0.198 A 
ATOM     64  F   UNL A   1      40.745  24.951  28.414  1.00  0.00    -0.203 F 
ATOM     65  F   UNL A   1      44.582  26.784  24.997  1.00  0.00    -0.200 F 
ATOM     66  C   UNL A   1      43.028  25.117  25.611  1.00  0.00     0.200 A 
ATOM     67  F   UNL A   1      41.445  23.487  26.252  1.00  0.00    -0.200 F 
ATOM     68  F   UNL A   1      43.344  24.402  24.522  1.00  0.00    -0.200 F 
ENDBRANCH  44  58
BRANCH  45  69
ATOM     69  C   UNL A   1      39.340  32.067  35.792  1.00  0.00     0.064 A 
ATOM     70  C   UNL A   1      39.880  33.328  36.076  1.00  0.00     0.173 A 
ATOM     71  C   UNL A   1      38.337  31.581  36.646  1.00  0.00     0.173 A 
ATOM     72  F   UNL A   1      40.852  33.831  35.301  1.00  0.00    -0.203 F 
ATOM     73  C   UNL A   1      39.447  34.065  37.178  1.00  0.00     0.198 A 
ATOM     74  C   UNL A   1      37.882  32.332  37.727  1.00  0.00     0.198 A 
ATOM     75  F   UNL A   1      37.784  30.380  36.419  1.00  0.00    -0.203 F 
ATOM     76  F   UNL A   1      40.012  35.249  37.451  1.00  0.00    -0.200 F 
ATOM     77  C   UNL A   1      38.444  33.570  37.998  1.00  0.00     0.200 A 
ATOM     78  F   UNL A   1      36.901  31.856  38.506  1.00  0.00    -0.200 F 
ATOM     79  F   UNL A   1      38.025  34.281  39.052  1.00  0.00    -0.200 F 
ENDBRANCH  45  69
BRANCH  57  80
ATOM     80  C   UNL A   1      44.228  27.191  34.830  1.00  0.00     0.064 A 
ATOM     81  C   UNL A   1      45.486  27.774  35.043  1.00  0.00     0.173 A 
ATOM     82  C   UNL A   1      43.917  26.017  35.534  1.00  0.00     0.173 A 
ATOM     83  F   UNL A   1      45.837  28.885  34.378  1.00  0.00    -0.203 F 
ATOM     84  C   UNL A   1      46.406  27.187  35.907  1.00  0.00     0.198 A 
ATOM     85  C   UNL A   1      44.826  25.454  36.423  1.00  0.00     0.198 A 
ATOM     86  F   UNL A   1      42.725  25.425  35.367  1.00  0.00    -0.203 F 
ATOM     87  F   UNL A   1      47.623  27.729  36.054  1.00  0.00    -0.200 F 
ATOM     88  C   UNL A   1      46.073  26.033  36.602  1.00  0.00     0.200 A 
ATOM     89  F   UNL A   1      44.496  24.348  37.104  1.00  0.00    -0.200 F 
ATOM     90  F   UNL A   1      46.957  25.475  37.438  1.00  0.00    -0.200 F 
ENDBRANCH  57  80
ENDBRANCH  31  32
ENDBRANCH  24  26
ENDBRANCH  23  24
ENDBRANCH  22  23
ENDBRANCH   1  22
TORSDOF 17
ENDMDL
MODEL 3
REMARK VINA RESULT:     -10.4      4.143     10.173
REMARK SMILES C=CC[N@@H+](CC(=O)OCCOC(=O)c1ccc(-c2c3nc(c(-c4c(F)c(F)c(F)c(F)c4F)c4ccc([nH]4)c(-c4c(F)c(F)c(F)c(F)c4F)c4nc(c(-c5c(F)c(F)c(F)c(F)c5F)c5ccc2[nH]5)C=C4)C=C3)cc1)C[C@H]1C[N@@H+](C(C)C)CCO1
REMARK SMILES IDX 9 1 8 2 6 3 7 4 5 5 4 6 3 8 2 9 1 10 77 11 78 12 79 13 86 14
REMARK SMILES IDX 80 15 85 16 84 17 81 19 82 20 83 21 10 22 11 23 12 24 13 25
REMARK SMILES IDX 14 26 15 27 76 28 16 29 75 30 17 31 18 32 19 33 69 34 20 35
REMARK SMILES IDX 74 36 68 37 70 38 21 39 73 40 67 41 66 42 22 44 54 45 34 46
REMARK SMILES IDX 53 47 35 48 38 49 52 50 71 51 36 52 37 53 51 55 72 56 39 57
REMARK SMILES IDX 23 58 24 59 32 60 25 61 26 62 30 63 33 64 27 65 28 66 31 67
REMARK SMILES IDX 29 68 55 69 56 70 64 71 57 72 58 73 62 74 65 75 59 76 60 77
REMARK SMILES IDX 63 78 61 79 40 80 41 81 49 82 42 83 43 84 47 85 50 86 44 87
REMARK SMILES IDX 45 88 48 89 46 90
REMARK H PARENT 4 7 80 18 70 43 38 54
REMARK Flexibility Score: inf
ROOT
ATOM      1  C   UNL A   1      33.858  34.688  29.403  1.00  0.00     0.274 C 
ENDROOT
BRANCH   1   2
ATOM      2  O   UNL A   1      33.612  34.196  30.737  1.00  0.00    -0.458 OA
BRANCH   2   3
ATOM      3  C   UNL A   1      34.453  34.669  31.705  1.00  0.00     0.361 C 
ATOM      4  O   UNL A   1      34.315  35.748  32.272  1.00  0.00    -0.245 OA
BRANCH   3   5
ATOM      5  C   UNL A   1      35.521  33.648  32.110  1.00  0.00     0.386 C 
BRANCH   5   6
ATOM      6  N   UNL A   1      36.820  34.185  32.562  1.00  0.00    -0.320 N 
ATOM      7  H   UNL A   1      36.734  35.191  32.712  1.00  0.00     0.348 HD
BRANCH   6   8
ATOM      8  C   UNL A   1      37.812  34.194  31.503  1.00  0.00     0.290 C 
BRANCH   8   9
ATOM      9  C   UNL A   1      37.477  33.359  30.308  1.00  0.00     0.025 C 
ATOM     10  C   UNL A   1      37.853  33.682  29.062  1.00  0.00     0.010 C 
ENDBRANCH   8   9
ENDBRANCH   6   8
BRANCH   6  11
ATOM     11  C   UNL A   1      37.171  33.953  33.969  1.00  0.00     0.301 C 
BRANCH  11  12
ATOM     12  C   UNL A   1      38.033  32.767  34.510  1.00  0.00     0.228 C 
ATOM     13  C   UNL A   1      39.515  33.076  34.766  1.00  0.00     0.300 C 
ATOM     14  O   UNL A   1      37.353  32.261  35.688  1.00  0.00    -0.361 OA
ATOM     15  N   UNL A   1      39.860  33.480  36.137  1.00  0.00    -0.329 N 
ATOM     16  C   UNL A   1      38.153  31.700  36.737  1.00  0.00     0.222 C 
ATOM     17  C   UNL A   1      39.524  32.355  37.005  1.00  0.00     0.291 C 
ATOM     18  H   UNL A   1      40.859  33.669  36.211  1.00  0.00     0.348 HD
BRANCH  15  19
ATOM     19  C   UNL A   1      39.313  34.788  36.543  1.00  0.00     0.177 C 
ATOM     20  C   UNL A   1      39.364  35.187  38.027  1.00  0.00     0.075 C 
ATOM     21  C   UNL A   1      40.033  35.868  35.727  1.00  0.00     0.075 C 
ENDBRANCH  15  19
ENDBRANCH  11  12
ENDBRANCH   6  11
ENDBRANCH   5   6
ENDBRANCH   3   5
ENDBRANCH   2   3
ENDBRANCH   1   2
BRANCH   1  22
ATOM     22  C   UNL A   1      34.148  33.493  28.467  1.00  0.00     0.275 C 
BRANCH  22  23
ATOM     23  O   UNL A   1      34.592  32.211  29.017  1.00  0.00    -0.458 OA
BRANCH  23  24
ATOM     24  C   UNL A   1      34.794  31.157  28.210  1.00  0.00     0.338 C 
ATOM     25  O   UNL A   1      34.100  30.833  27.249  1.00  0.00    -0.246 OA
BRANCH  24  26
ATOM     26  C   UNL A   1      35.939  30.292  28.533  1.00  0.00     0.060 A 
ATOM     27  C   UNL A   1      36.918  30.219  27.528  1.00  0.00     0.016 A 
ATOM     28  C   UNL A   1      36.168  29.707  29.779  1.00  0.00     0.016 A 
ATOM     29  C   UNL A   1      38.151  29.652  27.776  1.00  0.00     0.010 A 
ATOM     30  C   UNL A   1      37.439  29.178  30.050  1.00  0.00     0.010 A 
ATOM     31  C   UNL A   1      38.445  29.208  29.064  1.00  0.00    -0.014 A 
BRANCH  31  32
ATOM     32  C   UNL A   1      39.861  28.928  29.374  1.00  0.00     0.031 A 
ATOM     33  C   UNL A   1      40.654  29.873  30.208  1.00  0.00     0.074 A 
ATOM     34  C   UNL A   1      40.382  27.763  28.940  1.00  0.00     0.049 A 
ATOM     35  N   UNL A   1      41.915  29.816  30.540  1.00  0.00    -0.248 NA
ATOM     36  C   UNL A   1      39.933  31.037  30.744  1.00  0.00     0.031 C 
ATOM     37  C   UNL A   1      39.648  26.748  28.175  1.00  0.00     0.029 A 
ATOM     38  N   UNL A   1      41.631  27.222  29.088  1.00  0.00    -0.354 N 
ATOM     39  C   UNL A   1      42.152  30.949  31.302  1.00  0.00     0.074 A 
ATOM     40  C   UNL A   1      40.905  31.681  31.377  1.00  0.00     0.031 C 
ATOM     41  C   UNL A   1      40.453  25.702  27.942  1.00  0.00     0.029 A 
ATOM     42  C   UNL A   1      41.776  26.005  28.468  1.00  0.00     0.049 A 
ATOM     43  H   UNL A   1      42.354  27.662  29.590  1.00  0.00     0.167 HD
ATOM     44  C   UNL A   1      43.317  31.330  31.877  1.00  0.00     0.037 A 
ATOM     45  C   UNL A   1      42.869  25.239  28.309  1.00  0.00     0.037 A 
ATOM     46  C   UNL A   1      44.539  30.573  31.781  1.00  0.00     0.049 A 
ATOM     47  C   UNL A   1      44.164  25.729  28.893  1.00  0.00     0.074 A 
ATOM     48  C   UNL A   1      45.782  30.865  32.313  1.00  0.00     0.029 A 
ATOM     49  N   UNL A   1      44.670  29.368  31.100  1.00  0.00    -0.354 N 
ATOM     50  N   UNL A   1      44.392  26.813  29.593  1.00  0.00    -0.248 NA
ATOM     51  C   UNL A   1      45.349  24.898  28.660  1.00  0.00     0.031 C 
ATOM     52  C   UNL A   1      46.675  29.867  31.908  1.00  0.00     0.029 A 
ATOM     53  C   UNL A   1      45.978  28.918  31.177  1.00  0.00     0.049 A 
ATOM     54  H   UNL A   1      43.940  28.902  30.631  1.00  0.00     0.167 HD
ATOM     55  C   UNL A   1      45.743  26.789  29.903  1.00  0.00     0.074 A 
ATOM     56  C   UNL A   1      46.276  25.568  29.330  1.00  0.00     0.031 C 
ATOM     57  C   UNL A   1      46.477  27.695  30.596  1.00  0.00     0.037 A 
BRANCH  44  58
ATOM     58  C   UNL A   1      43.331  32.643  32.603  1.00  0.00     0.064 A 
ATOM     59  C   UNL A   1      43.155  32.728  33.992  1.00  0.00     0.173 A 
ATOM     60  C   UNL A   1      43.534  33.838  31.894  1.00  0.00     0.173 A 
ATOM     61  F   UNL A   1      42.938  31.619  34.715  1.00  0.00    -0.203 F 
ATOM     62  C   UNL A   1      43.154  33.962  34.640  1.00  0.00     0.198 A 
ATOM     63  C   UNL A   1      43.563  35.066  32.549  1.00  0.00     0.198 A 
ATOM     64  F   UNL A   1      43.705  33.815  30.564  1.00  0.00    -0.203 F 
ATOM     65  F   UNL A   1      42.929  34.024  35.960  1.00  0.00    -0.200 F 
ATOM     66  C   UNL A   1      43.363  35.128  33.919  1.00  0.00     0.200 A 
ATOM     67  F   UNL A   1      43.775  36.191  31.852  1.00  0.00    -0.200 F 
ATOM     68  F   UNL A   1      43.364  36.313  34.545  1.00  0.00    -0.200 F 
ENDBRANCH  44  58
BRANCH  45  69
ATOM     69  C   UNL A   1      42.788  23.969  27.539  1.00  0.00     0.064 A 
ATOM     70  C   UNL A   1      42.355  22.782  28.144  1.00  0.00     0.173 A 
ATOM     71  C   UNL A   1      43.131  23.920  26.178  1.00  0.00     0.173 A 
ATOM     72  F   UNL A   1      42.033  22.771  29.445  1.00  0.00    -0.203 F 
ATOM     73  C   UNL A   1      42.285  21.591  27.422  1.00  0.00     0.198 A 
ATOM     74  C   UNL A   1      43.028  22.737  25.450  1.00  0.00     0.198 A 
ATOM     75  F   UNL A   1      43.549  25.028  25.549  1.00  0.00    -0.203 F 
ATOM     76  F   UNL A   1      41.910  20.461  28.036  1.00  0.00    -0.200 F 
ATOM     77  C   UNL A   1      42.613  21.571  26.075  1.00  0.00     0.200 A 
ATOM     78  F   UNL A   1      43.330  22.727  24.145  1.00  0.00    -0.200 F 
ATOM     79  F   UNL A   1      42.539  20.428  25.381  1.00  0.00    -0.200 F 
ENDBRANCH  45  69
BRANCH  57  80
ATOM     80  C   UNL A   1      47.927  27.369  30.801  1.00  0.00     0.064 A 
ATOM     81  C   UNL A   1      48.364  26.602  31.891  1.00  0.00     0.173 A 
ATOM     82  C   UNL A   1      48.886  27.811  29.878  1.00  0.00     0.173 A 
ATOM     83  F   UNL A   1      47.486  26.173  32.811  1.00  0.00    -0.203 F 
ATOM     84  C   UNL A   1      49.715  26.314  32.064  1.00  0.00     0.198 A 
ATOM     85  C   UNL A   1      50.231  27.491  30.035  1.00  0.00     0.198 A 
ATOM     86  F   UNL A   1      48.517  28.543  28.816  1.00  0.00    -0.203 F 
ATOM     87  F   UNL A   1      50.118  25.628  33.142  1.00  0.00    -0.200 F 
ATOM     88  C   UNL A   1      50.645  26.751  31.132  1.00  0.00     0.200 A 
ATOM     89  F   UNL A   1      51.126  27.902  29.126  1.00  0.00    -0.200 F 
ATOM     90  F   UNL A   1      51.944  26.467  31.297  1.00  0.00    -0.200 F 
ENDBRANCH  57  80
ENDBRANCH  31  32
ENDBRANCH  24  26
ENDBRANCH  23  24
ENDBRANCH  22  23
ENDBRANCH   1  22
TORSDOF 17
ENDMDL
