MODEL 1
REMARK VINA RESULT:     -11.7      0.000      0.000
REMARK SMILES C[NH+](C)C(C)(C)COc1nc2c(cc1C(=O)OCCOC(=O)c1ccc(-c3c4nc(c(-c5c(F)c(F)c(F)c(F)c5F)c5ccc([nH]5)c(-c5c(F)c(F)c(F)c(F)c5F)c5nc(c(-c6c(F)c(F)c(F)c(F)c6F)c6ccc3[nH]6)C=C5)C=C4)cc1)CCC2
REMARK SMILES IDX 18 1 17 2 15 3 16 4 14 5 9 6 10 7 11 8 13 9 12 10 88 11
REMARK SMILES IDX 86 12 87 13 8 14 7 15 4 16 5 17 6 18 2 19 1 20 3 21 19 23
REMARK SMILES IDX 20 24 21 25 22 26 23 27 24 28 85 29 25 30 84 31 26 32 27 33
REMARK SMILES IDX 28 34 78 35 29 36 83 37 77 38 79 39 30 40 82 41 76 42 75 43
REMARK SMILES IDX 31 45 63 46 43 47 62 48 44 49 47 50 61 51 80 52 45 53 46 54
REMARK SMILES IDX 60 56 81 57 48 58 32 59 33 60 41 61 34 62 35 63 39 64 42 65
REMARK SMILES IDX 36 66 37 67 40 68 38 69 64 70 65 71 73 72 66 73 67 74 71 75
REMARK SMILES IDX 74 76 68 77 69 78 72 79 70 80 49 81 50 82 58 83 51 84 52 85
REMARK SMILES IDX 56 86 59 87 53 88 54 89 57 90 55 91
REMARK H PARENT 2 22 79 44 47 55
REMARK Flexibility Score: inf
ROOT
ATOM      1  C   UNL A   1      33.597  28.555  24.938  1.00  0.00     0.275 C 
ENDROOT
BRANCH   1   2
ATOM      2  O   UNL A   1      33.791  28.693  23.503  1.00  0.00    -0.458 OA
BRANCH   2   3
ATOM      3  C   UNL A   1      33.163  27.811  22.692  1.00  0.00     0.343 C 
ATOM      4  O   UNL A   1      33.721  26.886  22.110  1.00  0.00    -0.246 OA
BRANCH   3   5
ATOM      5  C   UNL A   1      31.683  27.924  22.644  1.00  0.00     0.122 A 
ATOM      6  C   UNL A   1      30.746  26.981  23.121  1.00  0.00     0.228 A 
ATOM      7  N   UNL A   1      29.411  27.251  23.226  1.00  0.00    -0.218 NA
ATOM      8  C   UNL A   1      29.022  28.485  22.836  1.00  0.00     0.048 A 
ATOM      9  C   UNL A   1      31.221  29.198  22.278  1.00  0.00     0.027 A 
ATOM     10  C   UNL A   1      29.873  29.462  22.348  1.00  0.00    -0.025 A 
ATOM     11  C   UNL A   1      27.622  29.034  22.944  1.00  0.00     0.057 C 
ATOM     12  C   UNL A   1      29.166  30.738  22.047  1.00  0.00     0.038 C 
ATOM     13  C   UNL A   1      27.704  30.277  22.038  1.00  0.00     0.011 C 
BRANCH   6  14
ATOM     14  O   UNL A   1      31.042  25.649  23.202  1.00  0.00    -0.470 OA
BRANCH  14  15
ATOM     15  C   UNL A   1      30.747  24.906  24.400  1.00  0.00     0.299 C 
BRANCH  15  16
ATOM     16  C   UNL A   1      32.051  24.190  24.928  1.00  0.00     0.126 C 
ATOM     17  C   UNL A   1      31.936  22.638  25.036  1.00  0.00     0.082 C 
ATOM     18  C   UNL A   1      32.104  24.531  26.448  1.00  0.00     0.082 C 
BRANCH  16  19
ATOM     19  N   UNL A   1      33.302  24.479  24.106  1.00  0.00    -0.333 N 
ATOM     20  C   UNL A   1      33.848  23.475  23.180  1.00  0.00     0.333 C 
ATOM     21  C   UNL A   1      34.458  24.865  24.944  1.00  0.00     0.333 C 
ATOM     22  H   UNL A   1      32.899  25.218  23.530  1.00  0.00     0.348 HD
ENDBRANCH  16  19
ENDBRANCH  15  16
ENDBRANCH  14  15
ENDBRANCH   6  14
ENDBRANCH   3   5
ENDBRANCH   2   3
ENDBRANCH   1   2
BRANCH   1  23
ATOM     23  C   UNL A   1      32.796  29.711  25.541  1.00  0.00     0.275 C 
BRANCH  23  24
ATOM     24  O   UNL A   1      33.161  29.870  26.909  1.00  0.00    -0.458 OA
BRANCH  24  25
ATOM     25  C   UNL A   1      33.523  31.136  27.226  1.00  0.00     0.338 C 
ATOM     26  O   UNL A   1      32.864  32.147  27.233  1.00  0.00    -0.246 OA
BRANCH  25  27
ATOM     27  C   UNL A   1      34.816  30.974  27.888  1.00  0.00     0.060 A 
ATOM     28  C   UNL A   1      35.116  29.698  28.364  1.00  0.00     0.016 A 
ATOM     29  C   UNL A   1      35.726  32.012  27.982  1.00  0.00     0.016 A 
ATOM     30  C   UNL A   1      36.311  29.430  28.983  1.00  0.00     0.010 A 
ATOM     31  C   UNL A   1      36.953  31.744  28.575  1.00  0.00     0.010 A 
ATOM     32  C   UNL A   1      37.234  30.461  29.088  1.00  0.00    -0.014 A 
BRANCH  32  33
ATOM     33  C   UNL A   1      38.446  30.231  29.875  1.00  0.00     0.031 A 
ATOM     34  C   UNL A   1      39.498  29.372  29.263  1.00  0.00     0.074 A 
ATOM     35  C   UNL A   1      38.588  30.814  31.074  1.00  0.00     0.049 A 
ATOM     36  N   UNL A   1      40.512  28.784  29.827  1.00  0.00    -0.248 NA
ATOM     37  C   UNL A   1      39.377  29.128  27.814  1.00  0.00     0.031 C 
ATOM     38  C   UNL A   1      37.666  31.792  31.659  1.00  0.00     0.029 A 
ATOM     39  N   UNL A   1      39.561  30.660  32.020  1.00  0.00    -0.354 N 
ATOM     40  C   UNL A   1      41.115  28.050  28.817  1.00  0.00     0.074 A 
ATOM     41  C   UNL A   1      40.357  28.262  27.607  1.00  0.00     0.031 C 
ATOM     42  C   UNL A   1      38.117  32.144  32.872  1.00  0.00     0.029 A 
ATOM     43  C   UNL A   1      39.299  31.347  33.178  1.00  0.00     0.049 A 
ATOM     44  H   UNL A   1      40.367  30.112  31.885  1.00  0.00     0.167 HD
ATOM     45  C   UNL A   1      42.207  27.263  28.923  1.00  0.00     0.037 A 
ATOM     46  C   UNL A   1      39.920  31.278  34.368  1.00  0.00     0.037 A 
ATOM     47  C   UNL A   1      42.927  27.107  30.157  1.00  0.00     0.049 A 
ATOM     48  C   UNL A   1      41.069  30.315  34.495  1.00  0.00     0.074 A 
ATOM     49  C   UNL A   1      44.023  26.313  30.427  1.00  0.00     0.029 A 
ATOM     50  N   UNL A   1      42.611  27.778  31.335  1.00  0.00    -0.354 N 
ATOM     51  N   UNL A   1      41.597  29.536  33.577  1.00  0.00    -0.248 NA
ATOM     52  C   UNL A   1      41.693  30.198  35.815  1.00  0.00     0.031 C 
ATOM     53  C   UNL A   1      44.343  26.473  31.780  1.00  0.00     0.029 A 
ATOM     54  C   UNL A   1      43.482  27.408  32.340  1.00  0.00     0.049 A 
ATOM     55  H   UNL A   1      41.873  28.422  31.435  1.00  0.00     0.167 HD
ATOM     56  C   UNL A   1      42.624  28.848  34.201  1.00  0.00     0.074 A 
ATOM     57  C   UNL A   1      42.654  29.316  35.575  1.00  0.00     0.031 C 
ATOM     58  C   UNL A   1      43.466  27.912  33.693  1.00  0.00     0.037 A 
BRANCH  45  59
ATOM     59  C   UNL A   1      42.628  26.495  27.707  1.00  0.00     0.064 A 
ATOM     60  C   UNL A   1      42.107  25.225  27.413  1.00  0.00     0.173 A 
ATOM     61  C   UNL A   1      43.582  27.029  26.828  1.00  0.00     0.173 A 
ATOM     62  F   UNL A   1      41.217  24.653  28.236  1.00  0.00    -0.203 F 
ATOM     63  C   UNL A   1      42.543  24.511  26.298  1.00  0.00     0.198 A 
ATOM     64  C   UNL A   1      43.991  26.327  25.697  1.00  0.00     0.198 A 
ATOM     65  F   UNL A   1      44.124  28.232  27.069  1.00  0.00    -0.203 F 
ATOM     66  F   UNL A   1      42.074  23.277  26.070  1.00  0.00    -0.200 F 
ATOM     67  C   UNL A   1      43.478  25.066  25.438  1.00  0.00     0.200 A 
ATOM     68  F   UNL A   1      44.892  26.868  24.865  1.00  0.00    -0.200 F 
ATOM     69  F   UNL A   1      43.892  24.380  24.364  1.00  0.00    -0.200 F 
ENDBRANCH  45  59
BRANCH  46  70
ATOM     70  C   UNL A   1      39.444  32.112  35.500  1.00  0.00     0.064 A 
ATOM     71  C   UNL A   1      38.505  31.609  36.410  1.00  0.00     0.173 A 
ATOM     72  C   UNL A   1      39.961  33.396  35.741  1.00  0.00     0.173 A 
ATOM     73  F   UNL A   1      37.969  30.396  36.214  1.00  0.00    -0.203 F 
ATOM     74  C   UNL A   1      38.108  32.353  37.521  1.00  0.00     0.198 A 
ATOM     75  C   UNL A   1      39.583  34.126  36.866  1.00  0.00     0.198 A 
ATOM     76  F   UNL A   1      40.864  33.925  34.903  1.00  0.00    -0.203 F 
ATOM     77  F   UNL A   1      37.196  31.853  38.366  1.00  0.00    -0.200 F 
ATOM     78  C   UNL A   1      38.656  33.605  37.755  1.00  0.00     0.200 A 
ATOM     79  F   UNL A   1      40.131  35.327  37.099  1.00  0.00    -0.200 F 
ATOM     80  F   UNL A   1      38.292  34.307  38.836  1.00  0.00    -0.200 F 
ENDBRANCH  46  70
BRANCH  58  81
ATOM     81  C   UNL A   1      44.500  27.356  34.625  1.00  0.00     0.064 A 
ATOM     82  C   UNL A   1      45.725  28.005  34.827  1.00  0.00     0.173 A 
ATOM     83  C   UNL A   1      44.220  26.211  35.386  1.00  0.00     0.173 A 
ATOM     84  F   UNL A   1      46.040  29.095  34.111  1.00  0.00    -0.203 F 
ATOM     85  C   UNL A   1      46.642  27.519  35.754  1.00  0.00     0.198 A 
ATOM     86  C   UNL A   1      45.124  25.748  36.335  1.00  0.00     0.198 A 
ATOM     87  F   UNL A   1      43.055  25.564  35.232  1.00  0.00    -0.203 F 
ATOM     88  F   UNL A   1      47.822  28.132  35.909  1.00  0.00    -0.200 F 
ATOM     89  C   UNL A   1      46.335  26.399  36.514  1.00  0.00     0.200 A 
ATOM     90  F   UNL A   1      44.819  24.680  37.083  1.00  0.00    -0.200 F 
ATOM     91  F   UNL A   1      47.211  25.946  37.422  1.00  0.00    -0.200 F 
ENDBRANCH  58  81
ENDBRANCH  32  33
ENDBRANCH  25  27
ENDBRANCH  24  25
ENDBRANCH  23  24
ENDBRANCH   1  23
TORSDOF 15
ENDMDL
MODEL 2
REMARK VINA RESULT:     -11.7      1.325      3.440
REMARK SMILES C[NH+](C)C(C)(C)COc1nc2c(cc1C(=O)OCCOC(=O)c1ccc(-c3c4nc(c(-c5c(F)c(F)c(F)c(F)c5F)c5ccc([nH]5)c(-c5c(F)c(F)c(F)c(F)c5F)c5nc(c(-c6c(F)c(F)c(F)c(F)c6F)c6ccc3[nH]6)C=C5)C=C4)cc1)CCC2
REMARK SMILES IDX 18 1 17 2 15 3 16 4 14 5 9 6 10 7 11 8 13 9 12 10 88 11
REMARK SMILES IDX 86 12 87 13 8 14 7 15 4 16 5 17 6 18 2 19 1 20 3 21 19 23
REMARK SMILES IDX 20 24 21 25 22 26 23 27 24 28 85 29 25 30 84 31 26 32 27 33
REMARK SMILES IDX 28 34 78 35 29 36 83 37 77 38 79 39 30 40 82 41 76 42 75 43
REMARK SMILES IDX 31 45 63 46 43 47 62 48 44 49 47 50 61 51 80 52 45 53 46 54
REMARK SMILES IDX 60 56 81 57 48 58 32 59 33 60 41 61 34 62 35 63 39 64 42 65
REMARK SMILES IDX 36 66 37 67 40 68 38 69 64 70 65 71 73 72 66 73 67 74 71 75
REMARK SMILES IDX 74 76 68 77 69 78 72 79 70 80 49 81 50 82 58 83 51 84 52 85
REMARK SMILES IDX 56 86 59 87 53 88 54 89 57 90 55 91
REMARK H PARENT 2 22 79 44 47 55
REMARK Flexibility Score: inf
ROOT
ATOM      1  C   UNL A   1      31.430  28.739  25.625  1.00  0.00     0.275 C 
ENDROOT
BRANCH   1   2
ATOM      2  O   UNL A   1      31.861  27.684  26.530  1.00  0.00    -0.458 OA
BRANCH   2   3
ATOM      3  C   UNL A   1      31.395  26.433  26.311  1.00  0.00     0.343 C 
ATOM      4  O   UNL A   1      30.206  26.141  26.231  1.00  0.00    -0.246 OA
BRANCH   3   5
ATOM      5  C   UNL A   1      32.427  25.407  26.015  1.00  0.00     0.122 A 
ATOM      6  C   UNL A   1      33.507  25.529  25.113  1.00  0.00     0.228 A 
ATOM      7  N   UNL A   1      34.525  24.621  25.051  1.00  0.00    -0.218 NA
ATOM      8  C   UNL A   1      34.445  23.577  25.906  1.00  0.00     0.048 A 
ATOM      9  C   UNL A   1      32.412  24.315  26.896  1.00  0.00     0.027 A 
ATOM     10  C   UNL A   1      33.417  23.380  26.813  1.00  0.00    -0.025 A 
ATOM     11  C   UNL A   1      35.491  22.505  26.078  1.00  0.00     0.057 C 
ATOM     12  C   UNL A   1      33.625  22.170  27.657  1.00  0.00     0.038 C 
ATOM     13  C   UNL A   1      34.715  21.436  26.869  1.00  0.00     0.011 C 
BRANCH   6  14
ATOM     14  O   UNL A   1      33.451  26.363  24.031  1.00  0.00    -0.470 OA
BRANCH  14  15
ATOM     15  C   UNL A   1      33.697  25.857  22.705  1.00  0.00     0.299 C 
BRANCH  15  16
ATOM     16  C   UNL A   1      32.328  25.543  21.984  1.00  0.00     0.126 C 
ATOM     17  C   UNL A   1      32.345  25.772  20.441  1.00  0.00     0.082 C 
ATOM     18  C   UNL A   1      31.388  26.719  22.389  1.00  0.00     0.082 C 
BRANCH  16  19
ATOM     19  N   UNL A   1      31.810  24.127  22.210  1.00  0.00    -0.333 N 
ATOM     20  C   UNL A   1      30.873  23.830  23.304  1.00  0.00     0.333 C 
ATOM     21  C   UNL A   1      32.901  23.144  22.391  1.00  0.00     0.333 C 
ATOM     22  H   UNL A   1      31.279  24.053  21.343  1.00  0.00     0.348 HD
ENDBRANCH  16  19
ENDBRANCH  15  16
ENDBRANCH  14  15
ENDBRANCH   6  14
ENDBRANCH   3   5
ENDBRANCH   2   3
ENDBRANCH   1   2
BRANCH   1  23
ATOM     23  C   UNL A   1      32.416  29.909  25.568  1.00  0.00     0.275 C 
BRANCH  23  24
ATOM     24  O   UNL A   1      33.176  29.940  26.772  1.00  0.00    -0.458 OA
BRANCH  24  25
ATOM     25  C   UNL A   1      33.498  31.192  27.174  1.00  0.00     0.338 C 
ATOM     26  O   UNL A   1      32.812  32.185  27.227  1.00  0.00    -0.246 OA
BRANCH  25  27
ATOM     27  C   UNL A   1      34.780  31.022  27.853  1.00  0.00     0.060 A 
ATOM     28  C   UNL A   1      35.075  29.740  28.314  1.00  0.00     0.016 A 
ATOM     29  C   UNL A   1      35.685  32.061  27.980  1.00  0.00     0.016 A 
ATOM     30  C   UNL A   1      36.261  29.465  28.947  1.00  0.00     0.010 A 
ATOM     31  C   UNL A   1      36.903  31.787  28.589  1.00  0.00     0.010 A 
ATOM     32  C   UNL A   1      37.179  30.496  29.084  1.00  0.00    -0.014 A 
BRANCH  32  33
ATOM     33  C   UNL A   1      38.379  30.256  29.887  1.00  0.00     0.031 A 
ATOM     34  C   UNL A   1      39.433  29.391  29.288  1.00  0.00     0.074 A 
ATOM     35  C   UNL A   1      38.508  30.835  31.090  1.00  0.00     0.049 A 
ATOM     36  N   UNL A   1      40.436  28.795  29.864  1.00  0.00    -0.248 NA
ATOM     37  C   UNL A   1      39.330  29.151  27.836  1.00  0.00     0.031 C 
ATOM     38  C   UNL A   1      37.586  31.818  31.664  1.00  0.00     0.029 A 
ATOM     39  N   UNL A   1      39.468  30.673  32.048  1.00  0.00    -0.354 N 
ATOM     40  C   UNL A   1      41.047  28.059  28.860  1.00  0.00     0.074 A 
ATOM     41  C   UNL A   1      40.307  28.280  27.640  1.00  0.00     0.031 C 
ATOM     42  C   UNL A   1      38.022  32.164  32.885  1.00  0.00     0.029 A 
ATOM     43  C   UNL A   1      39.195  31.359  33.204  1.00  0.00     0.049 A 
ATOM     44  H   UNL A   1      40.272  30.120  31.923  1.00  0.00     0.167 HD
ATOM     45  C   UNL A   1      42.132  27.265  28.979  1.00  0.00     0.037 A 
ATOM     46  C   UNL A   1      39.800  31.282  34.402  1.00  0.00     0.037 A 
ATOM     47  C   UNL A   1      42.835  27.100  30.223  1.00  0.00     0.049 A 
ATOM     48  C   UNL A   1      40.940  30.311  34.542  1.00  0.00     0.074 A 
ATOM     49  C   UNL A   1      43.921  26.299  30.506  1.00  0.00     0.029 A 
ATOM     50  N   UNL A   1      42.507  27.772  31.398  1.00  0.00    -0.354 N 
ATOM     51  N   UNL A   1      41.475  29.531  33.630  1.00  0.00    -0.248 NA
ATOM     52  C   UNL A   1      41.545  30.187  35.871  1.00  0.00     0.031 C 
ATOM     53  C   UNL A   1      44.224  26.453  31.863  1.00  0.00     0.029 A 
ATOM     54  C   UNL A   1      43.362  27.393  32.414  1.00  0.00     0.049 A 
ATOM     55  H   UNL A   1      41.772  28.420  31.489  1.00  0.00     0.167 HD
ATOM     56  C   UNL A   1      42.489  28.835  34.266  1.00  0.00     0.074 A 
ATOM     57  C   UNL A   1      42.503  29.299  35.642  1.00  0.00     0.031 C 
ATOM     58  C   UNL A   1      43.331  27.894  33.768  1.00  0.00     0.037 A 
BRANCH  45  59
ATOM     59  C   UNL A   1      42.564  26.496  27.767  1.00  0.00     0.064 A 
ATOM     60  C   UNL A   1      43.544  26.983  26.888  1.00  0.00     0.173 A 
ATOM     61  C   UNL A   1      41.976  25.258  27.469  1.00  0.00     0.173 A 
ATOM     62  F   UNL A   1      44.116  28.176  27.108  1.00  0.00    -0.203 F 
ATOM     63  C   UNL A   1      43.901  26.270  25.746  1.00  0.00     0.198 A 
ATOM     64  C   UNL A   1      42.358  24.532  26.343  1.00  0.00     0.198 A 
ATOM     65  F   UNL A   1      41.024  24.752  28.267  1.00  0.00    -0.203 F 
ATOM     66  F   UNL A   1      44.798  26.782  24.891  1.00  0.00    -0.200 F 
ATOM     67  C   UNL A   1      43.314  25.043  25.479  1.00  0.00     0.200 A 
ATOM     68  F   UNL A   1      41.793  23.344  26.090  1.00  0.00    -0.200 F 
ATOM     69  F   UNL A   1      43.663  24.356  24.382  1.00  0.00    -0.200 F 
ENDBRANCH  45  59
BRANCH  46  70
ATOM     70  C   UNL A   1      39.313  32.117  35.530  1.00  0.00     0.064 A 
ATOM     71  C   UNL A   1      38.411  31.595  36.466  1.00  0.00     0.173 A 
ATOM     72  C   UNL A   1      39.786  33.423  35.740  1.00  0.00     0.173 A 
ATOM     73  F   UNL A   1      37.917  30.360  36.300  1.00  0.00    -0.203 F 
ATOM     74  C   UNL A   1      38.008  32.342  37.572  1.00  0.00     0.198 A 
ATOM     75  C   UNL A   1      39.403  34.158  36.861  1.00  0.00     0.198 A 
ATOM     76  F   UNL A   1      40.653  33.972  34.876  1.00  0.00    -0.203 F 
ATOM     77  F   UNL A   1      37.131  31.823  38.443  1.00  0.00    -0.200 F 
ATOM     78  C   UNL A   1      38.512  33.618  37.775  1.00  0.00     0.200 A 
ATOM     79  F   UNL A   1      39.909  35.382  37.063  1.00  0.00    -0.200 F 
ATOM     80  F   UNL A   1      38.143  34.324  38.852  1.00  0.00    -0.200 F 
ENDBRANCH  46  70
BRANCH  58  81
ATOM     81  C   UNL A   1      44.348  27.329  34.712  1.00  0.00     0.064 A 
ATOM     82  C   UNL A   1      44.110  26.144  35.420  1.00  0.00     0.173 A 
ATOM     83  C   UNL A   1      45.607  27.936  34.837  1.00  0.00     0.173 A 
ATOM     84  F   UNL A   1      42.915  25.537  35.340  1.00  0.00    -0.203 F 
ATOM     85  C   UNL A   1      45.094  25.591  36.232  1.00  0.00     0.198 A 
ATOM     86  C   UNL A   1      46.599  27.362  35.623  1.00  0.00     0.198 A 
ATOM     87  F   UNL A   1      45.883  29.066  34.169  1.00  0.00    -0.203 F 
ATOM     88  F   UNL A   1      44.835  24.476  36.929  1.00  0.00    -0.200 F 
ATOM     89  C   UNL A   1      46.340  26.194  36.323  1.00  0.00     0.200 A 
ATOM     90  F   UNL A   1      47.809  27.933  35.694  1.00  0.00    -0.200 F 
ATOM     91  F   UNL A   1      47.294  25.646  37.089  1.00  0.00    -0.200 F 
ENDBRANCH  58  81
ENDBRANCH  32  33
ENDBRANCH  25  27
ENDBRANCH  24  25
ENDBRANCH  23  24
ENDBRANCH   1  23
TORSDOF 15
ENDMDL
MODEL 3
REMARK VINA RESULT:     -11.7      0.851      3.152
REMARK SMILES C[NH+](C)C(C)(C)COc1nc2c(cc1C(=O)OCCOC(=O)c1ccc(-c3c4nc(c(-c5c(F)c(F)c(F)c(F)c5F)c5ccc([nH]5)c(-c5c(F)c(F)c(F)c(F)c5F)c5nc(c(-c6c(F)c(F)c(F)c(F)c6F)c6ccc3[nH]6)C=C5)C=C4)cc1)CCC2
REMARK SMILES IDX 18 1 17 2 15 3 16 4 14 5 9 6 10 7 11 8 13 9 12 10 88 11
REMARK SMILES IDX 86 12 87 13 8 14 7 15 4 16 5 17 6 18 2 19 1 20 3 21 19 23
REMARK SMILES IDX 20 24 21 25 22 26 23 27 24 28 85 29 25 30 84 31 26 32 27 33
REMARK SMILES IDX 28 34 78 35 29 36 83 37 77 38 79 39 30 40 82 41 76 42 75 43
REMARK SMILES IDX 31 45 63 46 43 47 62 48 44 49 47 50 61 51 80 52 45 53 46 54
REMARK SMILES IDX 60 56 81 57 48 58 32 59 33 60 41 61 34 62 35 63 39 64 42 65
REMARK SMILES IDX 36 66 37 67 40 68 38 69 64 70 65 71 73 72 66 73 67 74 71 75
REMARK SMILES IDX 74 76 68 77 69 78 72 79 70 80 49 81 50 82 58 83 51 84 52 85
REMARK SMILES IDX 56 86 59 87 53 88 54 89 57 90 55 91
REMARK H PARENT 2 22 79 44 47 55
REMARK Flexibility Score: inf
ROOT
ATOM      1  C   UNL A   1      33.711  29.041  24.868  1.00  0.00     0.275 C 
ENDROOT
BRANCH   1   2
ATOM      2  O   UNL A   1      33.651  29.362  23.450  1.00  0.00    -0.458 OA
BRANCH   2   3
ATOM      3  C   UNL A   1      33.618  28.335  22.570  1.00  0.00     0.343 C 
ATOM      4  O   UNL A   1      34.352  28.237  21.591  1.00  0.00    -0.246 OA
BRANCH   3   5
ATOM      5  C   UNL A   1      32.718  27.209  22.930  1.00  0.00     0.122 A 
ATOM      6  C   UNL A   1      31.306  27.233  22.962  1.00  0.00     0.228 A 
ATOM      7  N   UNL A   1      30.550  26.105  23.103  1.00  0.00    -0.218 NA
ATOM      8  C   UNL A   1      31.230  24.943  23.218  1.00  0.00     0.048 A 
ATOM      9  C   UNL A   1      33.367  25.970  23.029  1.00  0.00     0.027 A 
ATOM     10  C   UNL A   1      32.611  24.835  23.205  1.00  0.00    -0.025 A 
ATOM     11  C   UNL A   1      30.611  23.571  23.294  1.00  0.00     0.057 C 
ATOM     12  C   UNL A   1      33.075  23.422  23.301  1.00  0.00     0.038 C 
ATOM     13  C   UNL A   1      31.799  22.718  23.778  1.00  0.00     0.011 C 
BRANCH   6  14
ATOM     14  O   UNL A   1      30.610  28.389  23.183  1.00  0.00    -0.470 OA
BRANCH  14  15
ATOM     15  C   UNL A   1      30.122  29.172  22.077  1.00  0.00     0.299 C 
BRANCH  15  16
ATOM     16  C   UNL A   1      29.128  30.282  22.597  1.00  0.00     0.126 C 
ATOM     17  C   UNL A   1      29.438  30.803  24.035  1.00  0.00     0.082 C 
ATOM     18  C   UNL A   1      27.804  29.518  22.902  1.00  0.00     0.082 C 
BRANCH  16  19
ATOM     19  N   UNL A   1      29.032  31.510  21.699  1.00  0.00    -0.333 N 
ATOM     20  C   UNL A   1      28.782  32.844  22.265  1.00  0.00     0.333 C 
ATOM     21  C   UNL A   1      28.004  31.366  20.644  1.00  0.00     0.333 C 
ATOM     22  H   UNL A   1      30.002  31.505  21.384  1.00  0.00     0.348 HD
ENDBRANCH  16  19
ENDBRANCH  15  16
ENDBRANCH  14  15
ENDBRANCH   6  14
ENDBRANCH   3   5
ENDBRANCH   2   3
ENDBRANCH   1   2
BRANCH   1  23
ATOM     23  C   UNL A   1      32.637  29.763  25.684  1.00  0.00     0.275 C 
BRANCH  23  24
ATOM     24  O   UNL A   1      33.107  29.949  27.016  1.00  0.00    -0.458 OA
BRANCH  24  25
ATOM     25  C   UNL A   1      33.505  31.217  27.276  1.00  0.00     0.338 C 
ATOM     26  O   UNL A   1      32.872  32.245  27.243  1.00  0.00    -0.246 OA
BRANCH  25  27
ATOM     27  C   UNL A   1      34.798  31.050  27.934  1.00  0.00     0.060 A 
ATOM     28  C   UNL A   1      35.077  29.784  28.446  1.00  0.00     0.016 A 
ATOM     29  C   UNL A   1      35.728  32.073  27.993  1.00  0.00     0.016 A 
ATOM     30  C   UNL A   1      36.271  29.511  29.066  1.00  0.00     0.010 A 
ATOM     31  C   UNL A   1      36.954  31.800  28.586  1.00  0.00     0.010 A 
ATOM     32  C   UNL A   1      37.213  30.526  29.135  1.00  0.00    -0.014 A 
BRANCH  32  33
ATOM     33  C   UNL A   1      38.426  30.297  29.921  1.00  0.00     0.031 A 
ATOM     34  C   UNL A   1      39.470  29.422  29.317  1.00  0.00     0.074 A 
ATOM     35  C   UNL A   1      38.576  30.893  31.113  1.00  0.00     0.049 A 
ATOM     36  N   UNL A   1      40.480  28.833  29.886  1.00  0.00    -0.248 NA
ATOM     37  C   UNL A   1      39.342  29.161  27.871  1.00  0.00     0.031 C 
ATOM     38  C   UNL A   1      37.664  31.886  31.688  1.00  0.00     0.029 A 
ATOM     39  N   UNL A   1      39.550  30.744  32.058  1.00  0.00    -0.354 N 
ATOM     40  C   UNL A   1      41.075  28.082  28.883  1.00  0.00     0.074 A 
ATOM     41  C   UNL A   1      40.315  28.285  27.672  1.00  0.00     0.031 C 
ATOM     42  C   UNL A   1      38.121  32.249  32.896  1.00  0.00     0.029 A 
ATOM     43  C   UNL A   1      39.298  31.447  33.208  1.00  0.00     0.049 A 
ATOM     44  H   UNL A   1      40.352  30.188  31.927  1.00  0.00     0.167 HD
ATOM     45  C   UNL A   1      42.161  27.288  28.995  1.00  0.00     0.037 A 
ATOM     46  C   UNL A   1      39.922  31.387  34.397  1.00  0.00     0.037 A 
ATOM     47  C   UNL A   1      42.883  27.141  30.230  1.00  0.00     0.049 A 
ATOM     48  C   UNL A   1      41.063  30.417  34.533  1.00  0.00     0.074 A 
ATOM     49  C   UNL A   1      43.974  26.342  30.507  1.00  0.00     0.029 A 
ATOM     50  N   UNL A   1      42.575  27.829  31.400  1.00  0.00    -0.354 N 
ATOM     51  N   UNL A   1      41.582  29.623  33.623  1.00  0.00    -0.248 NA
ATOM     52  C   UNL A   1      41.690  30.311  35.853  1.00  0.00     0.031 C 
ATOM     53  C   UNL A   1      44.299  26.516  31.856  1.00  0.00     0.029 A 
ATOM     54  C   UNL A   1      43.447  27.464  32.407  1.00  0.00     0.049 A 
ATOM     55  H   UNL A   1      41.843  28.480  31.494  1.00  0.00     0.167 HD
ATOM     56  C   UNL A   1      42.606  28.934  34.253  1.00  0.00     0.074 A 
ATOM     57  C   UNL A   1      42.643  29.419  35.621  1.00  0.00     0.031 C 
ATOM     58  C   UNL A   1      43.439  27.985  33.754  1.00  0.00     0.037 A 
BRANCH  45  59
ATOM     59  C   UNL A   1      42.572  26.501  27.788  1.00  0.00     0.064 A 
ATOM     60  C   UNL A   1      43.530  26.978  26.880  1.00  0.00     0.173 A 
ATOM     61  C   UNL A   1      41.986  25.254  27.523  1.00  0.00     0.173 A 
ATOM     62  F   UNL A   1      44.098  28.179  27.067  1.00  0.00    -0.203 F 
ATOM     63  C   UNL A   1      43.867  26.248  25.743  1.00  0.00     0.198 A 
ATOM     64  C   UNL A   1      42.348  24.512  26.403  1.00  0.00     0.198 A 
ATOM     65  F   UNL A   1      41.053  24.757  28.350  1.00  0.00    -0.203 F 
ATOM     66  F   UNL A   1      44.742  26.751  24.861  1.00  0.00    -0.200 F 
ATOM     67  C   UNL A   1      43.283  25.013  25.509  1.00  0.00     0.200 A 
ATOM     68  F   UNL A   1      41.785  23.316  26.182  1.00  0.00    -0.200 F 
ATOM     69  F   UNL A   1      43.612  24.310  24.417  1.00  0.00    -0.200 F 
ENDBRANCH  45  59
BRANCH  46  70
ATOM     70  C   UNL A   1      39.455  32.238  35.520  1.00  0.00     0.064 A 
ATOM     71  C   UNL A   1      38.510  31.757  36.435  1.00  0.00     0.173 A 
ATOM     72  C   UNL A   1      39.987  33.519  35.748  1.00  0.00     0.173 A 
ATOM     73  F   UNL A   1      37.960  30.548  36.253  1.00  0.00    -0.203 F 
ATOM     74  C   UNL A   1      38.122  32.517  37.538  1.00  0.00     0.198 A 
ATOM     75  C   UNL A   1      39.618  34.266  36.865  1.00  0.00     0.198 A 
ATOM     76  F   UNL A   1      40.896  34.029  34.904  1.00  0.00    -0.203 F 
ATOM     77  F   UNL A   1      37.204  32.037  38.388  1.00  0.00    -0.200 F 
ATOM     78  C   UNL A   1      38.684  33.765  37.759  1.00  0.00     0.200 A 
ATOM     79  F   UNL A   1      40.180  35.463  37.084  1.00  0.00    -0.200 F 
ATOM     80  F   UNL A   1      38.329  34.483  38.832  1.00  0.00    -0.200 F 
ENDBRANCH  46  70
BRANCH  58  81
ATOM     81  C   UNL A   1      44.471  27.432  34.689  1.00  0.00     0.064 A 
ATOM     82  C   UNL A   1      45.728  28.034  34.828  1.00  0.00     0.173 A 
ATOM     83  C   UNL A   1      44.160  26.343  35.518  1.00  0.00     0.173 A 
ATOM     84  F   UNL A   1      46.072  29.070  34.047  1.00  0.00    -0.203 F 
ATOM     85  C   UNL A   1      46.646  27.557  35.757  1.00  0.00     0.198 A 
ATOM     86  C   UNL A   1      45.067  25.890  36.468  1.00  0.00     0.198 A 
ATOM     87  F   UNL A   1      42.964  25.743  35.426  1.00  0.00    -0.203 F 
ATOM     88  F   UNL A   1      47.856  28.123  35.851  1.00  0.00    -0.200 F 
ATOM     89  C   UNL A   1      46.310  26.494  36.584  1.00  0.00     0.200 A 
ATOM     90  F   UNL A   1      44.734  24.877  37.280  1.00  0.00    -0.200 F 
ATOM     91  F   UNL A   1      47.188  26.050  37.494  1.00  0.00    -0.200 F 
ENDBRANCH  58  81
ENDBRANCH  32  33
ENDBRANCH  25  27
ENDBRANCH  24  25
ENDBRANCH  23  24
ENDBRANCH   1  23
TORSDOF 15
ENDMDL
