MODEL 1
REMARK VINA RESULT:     -11.6      0.000      0.000
REMARK SMILES C[C@@H](NC(=O)C(C)(C)C)C(=O)N[C@H](C)C(=O)OCCOC(=O)c1ccc(-c2c3nc(c(-c4c(F)c(F)c(F)c(F)c4F)c4ccc([nH]4)c(-c4c(F)c(F)c(F)c(F)c4F)c4nc(c(-c5c(F)c(F)c(F)c(F)c5F)c5ccc2[nH]5)C=C4)C=C3)cc1
REMARK SMILES IDX 18 1 17 2 15 3 16 4 13 5 14 6 12 7 10 8 11 9 2 11 1 12 3 13
REMARK SMILES IDX 4 14 5 16 6 17 7 18 8 19 9 20 19 21 20 22 21 23 22 24 23 25
REMARK SMILES IDX 24 26 85 27 25 28 84 29 26 30 27 31 28 32 78 33 29 34 83 35
REMARK SMILES IDX 77 36 79 37 30 38 82 39 76 40 75 41 31 43 63 44 43 45 62 46
REMARK SMILES IDX 44 47 47 48 61 49 80 50 45 51 46 52 60 54 81 55 48 56 32 57
REMARK SMILES IDX 33 58 41 59 34 60 35 61 39 62 42 63 36 64 37 65 40 66 38 67
REMARK SMILES IDX 64 68 65 69 73 70 66 71 67 72 71 73 74 74 68 75 69 76 72 77
REMARK SMILES IDX 70 78 49 79 50 80 58 81 51 82 52 83 56 84 59 85 53 86 54 87
REMARK SMILES IDX 57 88 55 89
REMARK H PARENT 12 10 3 15 79 42 47 53
REMARK Flexibility Score: inf
ROOT
ATOM      1  C   UNL A   1      32.334  29.182  25.156  1.00  0.00     0.274 C 
ENDROOT
BRANCH   1   2
ATOM      2  O   UNL A   1      31.263  28.231  24.962  1.00  0.00    -0.461 OA
BRANCH   2   3
ATOM      3  C   UNL A   1      31.301  27.107  25.731  1.00  0.00     0.328 C 
ATOM      4  O   UNL A   1      32.169  26.861  26.563  1.00  0.00    -0.250 OA
BRANCH   3   5
ATOM      5  C   UNL A   1      30.147  26.136  25.429  1.00  0.00     0.189 C 
ATOM      6  C   UNL A   1      30.079  25.589  24.012  1.00  0.00     0.043 C 
BRANCH   5   7
ATOM      7  N   UNL A   1      29.788  25.155  26.460  1.00  0.00    -0.341 N 
ATOM      8  C   UNL A   1      30.191  23.896  26.765  1.00  0.00     0.242 C 
ATOM      9  O   UNL A   1      29.446  23.251  27.513  1.00  0.00    -0.273 OA
ATOM     10  H   UNL A   1      29.092  25.487  27.072  1.00  0.00     0.164 HD
BRANCH   8  11
ATOM     11  C   UNL A   1      31.427  23.214  26.160  1.00  0.00     0.168 C 
ATOM     12  C   UNL A   1      32.614  23.524  27.079  1.00  0.00     0.041 C 
BRANCH  11  13
ATOM     13  N   UNL A   1      31.370  21.778  25.900  1.00  0.00    -0.344 N 
ATOM     14  C   UNL A   1      31.934  20.951  24.981  1.00  0.00     0.226 C 
ATOM     15  H   UNL A   1      30.791  21.299  26.536  1.00  0.00     0.164 HD
ATOM     16  O   UNL A   1      31.976  19.765  25.342  1.00  0.00    -0.275 OA
BRANCH  14  17
ATOM     17  C   UNL A   1      32.517  21.373  23.611  1.00  0.00     0.041 C 
ATOM     18  C   UNL A   1      31.779  22.525  22.919  1.00  0.00     0.021 C 
ATOM     19  C   UNL A   1      34.004  21.706  23.754  1.00  0.00     0.021 C 
ATOM     20  C   UNL A   1      32.388  20.162  22.651  1.00  0.00     0.021 C 
ENDBRANCH  14  17
ENDBRANCH  11  13
ENDBRANCH   8  11
ENDBRANCH   5   7
ENDBRANCH   3   5
ENDBRANCH   2   3
ENDBRANCH   1   2
BRANCH   1  21
ATOM     21  C   UNL A   1      31.894  30.376  26.003  1.00  0.00     0.275 C 
BRANCH  21  22
ATOM     22  O   UNL A   1      32.632  30.437  27.237  1.00  0.00    -0.458 OA
BRANCH  22  23
ATOM     23  C   UNL A   1      33.344  31.571  27.410  1.00  0.00     0.338 C 
ATOM     24  O   UNL A   1      32.945  32.720  27.352  1.00  0.00    -0.246 OA
BRANCH  23  25
ATOM     25  C   UNL A   1      34.698  31.234  27.862  1.00  0.00     0.060 A 
ATOM     26  C   UNL A   1      34.933  29.917  28.269  1.00  0.00     0.016 A 
ATOM     27  C   UNL A   1      35.680  32.212  28.000  1.00  0.00     0.016 A 
ATOM     28  C   UNL A   1      36.140  29.567  28.849  1.00  0.00     0.010 A 
ATOM     29  C   UNL A   1      36.893  31.866  28.595  1.00  0.00     0.010 A 
ATOM     30  C   UNL A   1      37.109  30.551  29.048  1.00  0.00    -0.014 A 
BRANCH  30  31
ATOM     31  C   UNL A   1      38.284  30.226  29.872  1.00  0.00     0.031 A 
ATOM     32  C   UNL A   1      39.324  29.311  29.303  1.00  0.00     0.074 A 
ATOM     33  C   UNL A   1      38.433  30.789  31.081  1.00  0.00     0.049 A 
ATOM     34  N   UNL A   1      40.370  28.783  29.879  1.00  0.00    -0.248 NA
ATOM     35  C   UNL A   1      39.163  28.942  27.887  1.00  0.00     0.031 C 
ATOM     36  C   UNL A   1      37.523  31.767  31.674  1.00  0.00     0.029 A 
ATOM     37  N   UNL A   1      39.406  30.610  32.027  1.00  0.00    -0.354 N 
ATOM     38  C   UNL A   1      40.972  27.994  28.909  1.00  0.00     0.074 A 
ATOM     39  C   UNL A   1      40.177  28.111  27.707  1.00  0.00     0.031 C 
ATOM     40  C   UNL A   1      37.971  32.090  32.899  1.00  0.00     0.029 A 
ATOM     41  C   UNL A   1      39.165  31.300  33.187  1.00  0.00     0.049 A 
ATOM     42  H   UNL A   1      40.199  30.042  31.890  1.00  0.00     0.167 HD
ATOM     43  C   UNL A   1      42.086  27.235  29.026  1.00  0.00     0.037 A 
ATOM     44  C   UNL A   1      39.819  31.258  34.363  1.00  0.00     0.037 A 
ATOM     45  C   UNL A   1      42.863  27.145  30.232  1.00  0.00     0.049 A 
ATOM     46  C   UNL A   1      41.013  30.354  34.491  1.00  0.00     0.074 A 
ATOM     47  C   UNL A   1      44.003  26.400  30.475  1.00  0.00     0.029 A 
ATOM     48  N   UNL A   1      42.574  27.831  31.404  1.00  0.00    -0.354 N 
ATOM     49  N   UNL A   1      41.558  29.570  33.591  1.00  0.00    -0.248 NA
ATOM     50  C   UNL A   1      41.678  30.319  35.799  1.00  0.00     0.031 C 
ATOM     51  C   UNL A   1      44.382  26.609  31.806  1.00  0.00     0.029 A 
ATOM     52  C   UNL A   1      43.503  27.517  32.380  1.00  0.00     0.049 A 
ATOM     53  H   UNL A   1      41.818  28.452  31.522  1.00  0.00     0.167 HD
ATOM     54  C   UNL A   1      42.635  28.959  34.215  1.00  0.00     0.074 A 
ATOM     55  C   UNL A   1      42.675  29.475  35.569  1.00  0.00     0.031 C 
ATOM     56  C   UNL A   1      43.512  28.052  33.718  1.00  0.00     0.037 A 
BRANCH  43  57
ATOM     57  C   UNL A   1      42.482  26.411  27.839  1.00  0.00     0.064 A 
ATOM     58  C   UNL A   1      43.409  26.872  26.893  1.00  0.00     0.173 A 
ATOM     59  C   UNL A   1      41.914  25.144  27.640  1.00  0.00     0.173 A 
ATOM     60  F   UNL A   1      43.961  28.088  27.024  1.00  0.00    -0.203 F 
ATOM     61  C   UNL A   1      43.733  26.104  25.775  1.00  0.00     0.198 A 
ATOM     62  C   UNL A   1      42.258  24.370  26.535  1.00  0.00     0.198 A 
ATOM     63  F   UNL A   1      41.017  24.660  28.512  1.00  0.00    -0.203 F 
ATOM     64  F   UNL A   1      44.581  26.587  24.857  1.00  0.00    -0.200 F 
ATOM     65  C   UNL A   1      43.161  24.854  25.600  1.00  0.00     0.200 A 
ATOM     66  F   UNL A   1      41.707  23.159  26.370  1.00  0.00    -0.200 F 
ATOM     67  F   UNL A   1      43.470  24.118  24.523  1.00  0.00    -0.200 F 
ENDBRANCH  43  57
BRANCH  44  68
ATOM     68  C   UNL A   1      39.326  32.064  35.506  1.00  0.00     0.064 A 
ATOM     69  C   UNL A   1      38.473  31.508  36.468  1.00  0.00     0.173 A 
ATOM     70  C   UNL A   1      39.719  33.400  35.675  1.00  0.00     0.173 A 
ATOM     71  F   UNL A   1      38.052  30.242  36.338  1.00  0.00    -0.203 F 
ATOM     72  C   UNL A   1      38.027  32.262  37.553  1.00  0.00     0.198 A 
ATOM     73  C   UNL A   1      39.292  34.144  36.771  1.00  0.00     0.198 A 
ATOM     74  F   UNL A   1      40.535  33.978  34.780  1.00  0.00    -0.203 F 
ATOM     75  F   UNL A   1      37.186  31.717  38.443  1.00  0.00    -0.200 F 
ATOM     76  C   UNL A   1      38.443  33.576  37.708  1.00  0.00     0.200 A 
ATOM     77  F   UNL A   1      39.707  35.409  36.924  1.00  0.00    -0.200 F 
ATOM     78  F   UNL A   1      38.021  34.295  38.757  1.00  0.00    -0.200 F 
ENDBRANCH  44  68
BRANCH  56  79
ATOM     79  C   UNL A   1      44.597  27.584  34.639  1.00  0.00     0.064 A 
ATOM     80  C   UNL A   1      45.808  28.280  34.756  1.00  0.00     0.173 A 
ATOM     81  C   UNL A   1      44.403  26.451  35.444  1.00  0.00     0.173 A 
ATOM     82  F   UNL A   1      46.042  29.359  33.995  1.00  0.00    -0.203 F 
ATOM     83  C   UNL A   1      46.797  27.847  35.634  1.00  0.00     0.198 A 
ATOM     84  C   UNL A   1      45.384  26.035  36.337  1.00  0.00     0.198 A 
ATOM     85  F   UNL A   1      43.257  25.757  35.370  1.00  0.00    -0.203 F 
ATOM     86  F   UNL A   1      47.963  28.502  35.702  1.00  0.00    -0.200 F 
ATOM     87  C   UNL A   1      46.581  26.729  36.428  1.00  0.00     0.200 A 
ATOM     88  F   UNL A   1      45.172  24.962  37.112  1.00  0.00    -0.200 F 
ATOM     89  F   UNL A   1      47.533  26.317  37.276  1.00  0.00    -0.200 F 
ENDBRANCH  56  79
ENDBRANCH  30  31
ENDBRANCH  23  25
ENDBRANCH  22  23
ENDBRANCH  21  22
ENDBRANCH   1  21
TORSDOF 15
ENDMDL
MODEL 2
REMARK VINA RESULT:     -11.6      1.191      2.022
REMARK SMILES C[C@@H](NC(=O)C(C)(C)C)C(=O)N[C@H](C)C(=O)OCCOC(=O)c1ccc(-c2c3nc(c(-c4c(F)c(F)c(F)c(F)c4F)c4ccc([nH]4)c(-c4c(F)c(F)c(F)c(F)c4F)c4nc(c(-c5c(F)c(F)c(F)c(F)c5F)c5ccc2[nH]5)C=C4)C=C3)cc1
REMARK SMILES IDX 18 1 17 2 15 3 16 4 13 5 14 6 12 7 10 8 11 9 2 11 1 12 3 13
REMARK SMILES IDX 4 14 5 16 6 17 7 18 8 19 9 20 19 21 20 22 21 23 22 24 23 25
REMARK SMILES IDX 24 26 85 27 25 28 84 29 26 30 27 31 28 32 78 33 29 34 83 35
REMARK SMILES IDX 77 36 79 37 30 38 82 39 76 40 75 41 31 43 63 44 43 45 62 46
REMARK SMILES IDX 44 47 47 48 61 49 80 50 45 51 46 52 60 54 81 55 48 56 32 57
REMARK SMILES IDX 33 58 41 59 34 60 35 61 39 62 42 63 36 64 37 65 40 66 38 67
REMARK SMILES IDX 64 68 65 69 73 70 66 71 67 72 71 73 74 74 68 75 69 76 72 77
REMARK SMILES IDX 70 78 49 79 50 80 58 81 51 82 52 83 56 84 59 85 53 86 54 87
REMARK SMILES IDX 57 88 55 89
REMARK H PARENT 12 10 3 15 79 42 47 53
REMARK Flexibility Score: inf
ROOT
ATOM      1  C   UNL A   1      32.443  29.682  24.858  1.00  0.00     0.274 C 
ENDROOT
BRANCH   1   2
ATOM      2  O   UNL A   1      31.933  28.348  24.634  1.00  0.00    -0.461 OA
BRANCH   2   3
ATOM      3  C   UNL A   1      32.507  27.348  25.360  1.00  0.00     0.328 C 
ATOM      4  O   UNL A   1      32.163  27.023  26.492  1.00  0.00    -0.250 OA
BRANCH   3   5
ATOM      5  C   UNL A   1      33.676  26.670  24.625  1.00  0.00     0.189 C 
ATOM      6  C   UNL A   1      34.402  25.569  25.382  1.00  0.00     0.043 C 
BRANCH   5   7
ATOM      7  N   UNL A   1      33.520  26.397  23.192  1.00  0.00    -0.341 N 
ATOM      8  C   UNL A   1      32.994  25.381  22.462  1.00  0.00     0.242 C 
ATOM      9  O   UNL A   1      33.317  25.344  21.268  1.00  0.00    -0.273 OA
ATOM     10  H   UNL A   1      33.881  27.120  22.628  1.00  0.00     0.164 HD
BRANCH   8  11
ATOM     11  C   UNL A   1      32.138  24.249  23.048  1.00  0.00     0.168 C 
ATOM     12  C   UNL A   1      30.700  24.769  23.146  1.00  0.00     0.041 C 
BRANCH  11  13
ATOM     13  N   UNL A   1      32.147  22.953  22.376  1.00  0.00    -0.344 N 
ATOM     14  C   UNL A   1      32.215  21.661  22.793  1.00  0.00     0.226 C 
ATOM     15  H   UNL A   1      32.090  23.032  21.397  1.00  0.00     0.164 HD
ATOM     16  O   UNL A   1      31.777  20.850  21.964  1.00  0.00    -0.275 OA
BRANCH  14  17
ATOM     17  C   UNL A   1      32.743  21.173  24.163  1.00  0.00     0.041 C 
ATOM     18  C   UNL A   1      34.173  21.611  24.501  1.00  0.00     0.021 C 
ATOM     19  C   UNL A   1      31.782  21.595  25.277  1.00  0.00     0.021 C 
ATOM     20  C   UNL A   1      32.782  19.623  24.126  1.00  0.00     0.021 C 
ENDBRANCH  14  17
ENDBRANCH  11  13
ENDBRANCH   8  11
ENDBRANCH   5   7
ENDBRANCH   3   5
ENDBRANCH   2   3
ENDBRANCH   1   2
BRANCH   1  21
ATOM     21  C   UNL A   1      31.749  30.371  26.033  1.00  0.00     0.275 C 
BRANCH  21  22
ATOM     22  O   UNL A   1      32.600  30.402  27.193  1.00  0.00    -0.458 OA
BRANCH  22  23
ATOM     23  C   UNL A   1      33.311  31.540  27.338  1.00  0.00     0.338 C 
ATOM     24  O   UNL A   1      32.911  32.687  27.252  1.00  0.00    -0.246 OA
BRANCH  23  25
ATOM     25  C   UNL A   1      34.664  31.215  27.801  1.00  0.00     0.060 A 
ATOM     26  C   UNL A   1      34.933  29.883  28.126  1.00  0.00     0.016 A 
ATOM     27  C   UNL A   1      35.611  32.212  28.025  1.00  0.00     0.016 A 
ATOM     28  C   UNL A   1      36.137  29.532  28.712  1.00  0.00     0.010 A 
ATOM     29  C   UNL A   1      36.822  31.865  28.625  1.00  0.00     0.010 A 
ATOM     30  C   UNL A   1      37.069  30.530  28.997  1.00  0.00    -0.014 A 
BRANCH  30  31
ATOM     31  C   UNL A   1      38.236  30.188  29.827  1.00  0.00     0.031 A 
ATOM     32  C   UNL A   1      39.275  29.274  29.254  1.00  0.00     0.074 A 
ATOM     33  C   UNL A   1      38.379  30.735  31.043  1.00  0.00     0.049 A 
ATOM     34  N   UNL A   1      40.313  28.732  29.832  1.00  0.00    -0.248 NA
ATOM     35  C   UNL A   1      39.123  28.923  27.832  1.00  0.00     0.031 C 
ATOM     36  C   UNL A   1      37.470  31.711  31.641  1.00  0.00     0.029 A 
ATOM     37  N   UNL A   1      39.343  30.539  31.995  1.00  0.00    -0.354 N 
ATOM     38  C   UNL A   1      40.917  27.951  28.858  1.00  0.00     0.074 A 
ATOM     39  C   UNL A   1      40.134  28.088  27.650  1.00  0.00     0.031 C 
ATOM     40  C   UNL A   1      37.910  32.017  32.873  1.00  0.00     0.029 A 
ATOM     41  C   UNL A   1      39.097  31.217  33.161  1.00  0.00     0.049 A 
ATOM     42  H   UNL A   1      40.133  29.967  31.856  1.00  0.00     0.167 HD
ATOM     43  C   UNL A   1      42.026  27.184  28.974  1.00  0.00     0.037 A 
ATOM     44  C   UNL A   1      39.741  31.156  34.341  1.00  0.00     0.037 A 
ATOM     45  C   UNL A   1      42.793  27.074  30.185  1.00  0.00     0.049 A 
ATOM     46  C   UNL A   1      40.929  30.243  34.468  1.00  0.00     0.074 A 
ATOM     47  C   UNL A   1      43.927  26.320  30.428  1.00  0.00     0.029 A 
ATOM     48  N   UNL A   1      42.499  27.748  31.363  1.00  0.00    -0.354 N 
ATOM     49  N   UNL A   1      41.476  29.466  33.562  1.00  0.00    -0.248 NA
ATOM     50  C   UNL A   1      41.583  30.188  35.781  1.00  0.00     0.031 C 
ATOM     51  C   UNL A   1      44.296  26.510  31.765  1.00  0.00     0.029 A 
ATOM     52  C   UNL A   1      43.418  27.416  32.342  1.00  0.00     0.049 A 
ATOM     53  H   UNL A   1      41.746  28.372  31.483  1.00  0.00     0.167 HD
ATOM     54  C   UNL A   1      42.544  28.841  34.187  1.00  0.00     0.074 A 
ATOM     55  C   UNL A   1      42.577  29.341  35.548  1.00  0.00     0.031 C 
ATOM     56  C   UNL A   1      43.419  27.935  33.687  1.00  0.00     0.037 A 
BRANCH  43  57
ATOM     57  C   UNL A   1      42.427  26.372  27.780  1.00  0.00     0.064 A 
ATOM     58  C   UNL A   1      43.393  26.821  26.868  1.00  0.00     0.173 A 
ATOM     59  C   UNL A   1      41.823  25.129  27.539  1.00  0.00     0.173 A 
ATOM     60  F   UNL A   1      43.980  28.015  27.040  1.00  0.00    -0.203 F 
ATOM     61  C   UNL A   1      43.721  26.066  25.743  1.00  0.00     0.198 A 
ATOM     62  C   UNL A   1      42.171  24.366  26.428  1.00  0.00     0.198 A 
ATOM     63  F   UNL A   1      40.888  24.657  28.377  1.00  0.00    -0.203 F 
ATOM     64  F   UNL A   1      44.609  26.539  24.858  1.00  0.00    -0.200 F 
ATOM     65  C   UNL A   1      43.113  24.839  25.527  1.00  0.00     0.200 A 
ATOM     66  F   UNL A   1      41.585  23.178  26.222  1.00  0.00    -0.200 F 
ATOM     67  F   UNL A   1      43.427  24.116  24.443  1.00  0.00    -0.200 F 
ENDBRANCH  43  57
BRANCH  44  68
ATOM     68  C   UNL A   1      39.244  31.952  35.490  1.00  0.00     0.064 A 
ATOM     69  C   UNL A   1      39.594  33.300  35.641  1.00  0.00     0.173 A 
ATOM     70  C   UNL A   1      38.389  31.387  36.448  1.00  0.00     0.173 A 
ATOM     71  F   UNL A   1      40.427  33.878  34.763  1.00  0.00    -0.203 F 
ATOM     72  C   UNL A   1      39.110  34.051  36.711  1.00  0.00     0.198 A 
ATOM     73  C   UNL A   1      37.887  32.145  37.502  1.00  0.00     0.198 A 
ATOM     74  F   UNL A   1      38.025  30.099  36.348  1.00  0.00    -0.203 F 
ATOM     75  F   UNL A   1      39.483  35.331  36.850  1.00  0.00    -0.200 F 
ATOM     76  C   UNL A   1      38.251  33.475  37.635  1.00  0.00     0.200 A 
ATOM     77  F   UNL A   1      37.047  31.588  38.386  1.00  0.00    -0.200 F 
ATOM     78  F   UNL A   1      37.778  34.203  38.657  1.00  0.00    -0.200 F 
ENDBRANCH  44  68
BRANCH  56  79
ATOM     79  C   UNL A   1      44.494  27.449  34.611  1.00  0.00     0.064 A 
ATOM     80  C   UNL A   1      45.707  28.138  34.749  1.00  0.00     0.173 A 
ATOM     81  C   UNL A   1      44.289  26.305  35.397  1.00  0.00     0.173 A 
ATOM     82  F   UNL A   1      45.952  29.228  34.006  1.00  0.00    -0.203 F 
ATOM     83  C   UNL A   1      46.686  27.688  35.629  1.00  0.00     0.198 A 
ATOM     84  C   UNL A   1      45.260  25.872  36.292  1.00  0.00     0.198 A 
ATOM     85  F   UNL A   1      43.141  25.617  35.302  1.00  0.00    -0.203 F 
ATOM     86  F   UNL A   1      47.854  28.338  35.718  1.00  0.00    -0.200 F 
ATOM     87  C   UNL A   1      46.459  26.560  36.404  1.00  0.00     0.200 A 
ATOM     88  F   UNL A   1      45.037  24.789  37.049  1.00  0.00    -0.200 F 
ATOM     89  F   UNL A   1      47.402  26.131  37.255  1.00  0.00    -0.200 F 
ENDBRANCH  56  79
ENDBRANCH  30  31
ENDBRANCH  23  25
ENDBRANCH  22  23
ENDBRANCH  21  22
ENDBRANCH   1  21
TORSDOF 15
ENDMDL
MODEL 3
REMARK VINA RESULT:     -11.6      4.220      9.804
REMARK SMILES C[C@@H](NC(=O)C(C)(C)C)C(=O)N[C@H](C)C(=O)OCCOC(=O)c1ccc(-c2c3nc(c(-c4c(F)c(F)c(F)c(F)c4F)c4ccc([nH]4)c(-c4c(F)c(F)c(F)c(F)c4F)c4nc(c(-c5c(F)c(F)c(F)c(F)c5F)c5ccc2[nH]5)C=C4)C=C3)cc1
REMARK SMILES IDX 18 1 17 2 15 3 16 4 13 5 14 6 12 7 10 8 11 9 2 11 1 12 3 13
REMARK SMILES IDX 4 14 5 16 6 17 7 18 8 19 9 20 19 21 20 22 21 23 22 24 23 25
REMARK SMILES IDX 24 26 85 27 25 28 84 29 26 30 27 31 28 32 78 33 29 34 83 35
REMARK SMILES IDX 77 36 79 37 30 38 82 39 76 40 75 41 31 43 63 44 43 45 62 46
REMARK SMILES IDX 44 47 47 48 61 49 80 50 45 51 46 52 60 54 81 55 48 56 32 57
REMARK SMILES IDX 33 58 41 59 34 60 35 61 39 62 42 63 36 64 37 65 40 66 38 67
REMARK SMILES IDX 64 68 65 69 73 70 66 71 67 72 71 73 74 74 68 75 69 76 72 77
REMARK SMILES IDX 70 78 49 79 50 80 58 81 51 82 52 83 56 84 59 85 53 86 54 87
REMARK SMILES IDX 57 88 55 89
REMARK H PARENT 12 10 3 15 79 42 47 53
REMARK Flexibility Score: inf
ROOT
ATOM      1  C   UNL A   1      35.254  20.897  25.208  1.00  0.00     0.274 C 
ENDROOT
BRANCH   1   2
ATOM      2  O   UNL A   1      34.413  19.856  24.659  1.00  0.00    -0.461 OA
BRANCH   2   3
ATOM      3  C   UNL A   1      33.096  19.891  25.009  1.00  0.00     0.328 C 
ATOM      4  O   UNL A   1      32.465  18.932  25.440  1.00  0.00    -0.250 OA
BRANCH   3   5
ATOM      5  C   UNL A   1      32.452  21.268  24.775  1.00  0.00     0.189 C 
ATOM      6  C   UNL A   1      32.193  21.655  23.327  1.00  0.00     0.043 C 
BRANCH   5   7
ATOM      7  N   UNL A   1      31.396  21.698  25.699  1.00  0.00    -0.341 N 
ATOM      8  C   UNL A   1      30.974  22.893  26.183  1.00  0.00     0.242 C 
ATOM      9  O   UNL A   1      30.255  22.850  27.189  1.00  0.00    -0.273 OA
ATOM     10  H   UNL A   1      30.871  20.941  26.050  1.00  0.00     0.164 HD
BRANCH   8  11
ATOM     11  C   UNL A   1      31.422  24.254  25.632  1.00  0.00     0.168 C 
ATOM     12  C   UNL A   1      30.538  24.568  24.420  1.00  0.00     0.041 C 
BRANCH  11  13
ATOM     13  N   UNL A   1      31.436  25.399  26.538  1.00  0.00    -0.344 N 
ATOM     14  C   UNL A   1      32.043  26.616  26.531  1.00  0.00     0.226 C 
ATOM     15  H   UNL A   1      30.879  25.259  27.337  1.00  0.00     0.164 HD
ATOM     16  O   UNL A   1      31.483  27.452  27.255  1.00  0.00    -0.275 OA
BRANCH  14  17
ATOM     17  C   UNL A   1      33.292  27.006  25.705  1.00  0.00     0.041 C 
ATOM     18  C   UNL A   1      33.026  27.295  24.224  1.00  0.00     0.021 C 
ATOM     19  C   UNL A   1      34.003  28.194  26.358  1.00  0.00     0.021 C 
ATOM     20  C   UNL A   1      34.264  25.798  25.724  1.00  0.00     0.021 C 
ENDBRANCH  14  17
ENDBRANCH  11  13
ENDBRANCH   8  11
ENDBRANCH   5   7
ENDBRANCH   3   5
ENDBRANCH   2   3
ENDBRANCH   1   2
BRANCH   1  21
ATOM     21  C   UNL A   1      36.740  20.592  25.019  1.00  0.00     0.275 C 
BRANCH  21  22
ATOM     22  O   UNL A   1      37.551  21.730  25.361  1.00  0.00    -0.458 OA
BRANCH  22  23
ATOM     23  C   UNL A   1      38.756  21.424  25.885  1.00  0.00     0.338 C 
ATOM     24  O   UNL A   1      39.390  20.393  25.749  1.00  0.00    -0.246 OA
BRANCH  23  25
ATOM     25  C   UNL A   1      39.319  22.609  26.541  1.00  0.00     0.060 A 
ATOM     26  C   UNL A   1      38.839  23.859  26.139  1.00  0.00     0.016 A 
ATOM     27  C   UNL A   1      40.377  22.504  27.441  1.00  0.00     0.016 A 
ATOM     28  C   UNL A   1      39.431  25.020  26.603  1.00  0.00     0.010 A 
ATOM     29  C   UNL A   1      40.983  23.672  27.904  1.00  0.00     0.010 A 
ATOM     30  C   UNL A   1      40.530  24.928  27.458  1.00  0.00    -0.014 A 
BRANCH  30  31
ATOM     31  C   UNL A   1      41.295  26.149  27.757  1.00  0.00     0.031 A 
ATOM     32  C   UNL A   1      40.627  27.234  28.544  1.00  0.00     0.074 A 
ATOM     33  C   UNL A   1      42.577  26.249  27.375  1.00  0.00     0.049 A 
ATOM     34  N   UNL A   1      41.048  28.440  28.817  1.00  0.00    -0.248 NA
ATOM     35  C   UNL A   1      39.302  26.915  29.101  1.00  0.00     0.031 C 
ATOM     36  C   UNL A   1      43.338  25.204  26.694  1.00  0.00     0.029 A 
ATOM     37  N   UNL A   1      43.461  27.287  27.503  1.00  0.00    -0.354 N 
ATOM     38  C   UNL A   1      40.028  29.035  29.546  1.00  0.00     0.074 A 
ATOM     39  C   UNL A   1      38.968  28.060  29.676  1.00  0.00     0.031 C 
ATOM     40  C   UNL A   1      44.576  25.661  26.444  1.00  0.00     0.029 A 
ATOM     41  C   UNL A   1      44.669  27.044  26.901  1.00  0.00     0.049 A 
ATOM     42  H   UNL A   1      43.251  28.123  27.979  1.00  0.00     0.167 HD
ATOM     43  C   UNL A   1      39.988  30.289  30.052  1.00  0.00     0.037 A 
ATOM     44  C   UNL A   1      45.713  27.872  26.707  1.00  0.00     0.037 A 
ATOM     45  C   UNL A   1      41.061  31.236  29.917  1.00  0.00     0.049 A 
ATOM     46  C   UNL A   1      45.617  29.283  27.217  1.00  0.00     0.074 A 
ATOM     47  C   UNL A   1      41.132  32.539  30.375  1.00  0.00     0.029 A 
ATOM     48  N   UNL A   1      42.262  30.972  29.271  1.00  0.00    -0.354 N 
ATOM     49  N   UNL A   1      44.636  29.864  27.866  1.00  0.00    -0.248 NA
ATOM     50  C   UNL A   1      46.768  30.158  26.958  1.00  0.00     0.031 C 
ATOM     51  C   UNL A   1      42.361  33.074  29.974  1.00  0.00     0.029 A 
ATOM     52  C   UNL A   1      43.074  32.091  29.303  1.00  0.00     0.049 A 
ATOM     53  H   UNL A   1      42.500  30.113  28.852  1.00  0.00     0.167 HD
ATOM     54  C   UNL A   1      45.052  31.165  28.107  1.00  0.00     0.074 A 
ATOM     55  C   UNL A   1      46.383  31.284  27.545  1.00  0.00     0.031 C 
ATOM     56  C   UNL A   1      44.396  32.173  28.733  1.00  0.00     0.037 A 
BRANCH  43  57
ATOM     57  C   UNL A   1      38.725  30.711  30.740  1.00  0.00     0.064 A 
ATOM     58  C   UNL A   1      37.617  31.190  30.026  1.00  0.00     0.173 A 
ATOM     59  C   UNL A   1      38.630  30.646  32.138  1.00  0.00     0.173 A 
ATOM     60  F   UNL A   1      37.668  31.296  28.690  1.00  0.00    -0.203 F 
ATOM     61  C   UNL A   1      36.467  31.614  30.690  1.00  0.00     0.198 A 
ATOM     62  C   UNL A   1      37.470  31.048  32.797  1.00  0.00     0.198 A 
ATOM     63  F   UNL A   1      39.664  30.202  32.867  1.00  0.00    -0.203 F 
ATOM     64  F   UNL A   1      35.440  32.118  29.992  1.00  0.00    -0.200 F 
ATOM     65  C   UNL A   1      36.394  31.539  32.073  1.00  0.00     0.200 A 
ATOM     66  F   UNL A   1      37.400  30.970  34.133  1.00  0.00    -0.200 F 
ATOM     67  F   UNL A   1      35.289  31.951  32.710  1.00  0.00    -0.200 F 
ENDBRANCH  43  57
BRANCH  44  68
ATOM     68  C   UNL A   1      46.904  27.390  25.966  1.00  0.00     0.064 A 
ATOM     69  C   UNL A   1      47.025  27.589  24.585  1.00  0.00     0.173 A 
ATOM     70  C   UNL A   1      47.958  26.743  26.629  1.00  0.00     0.173 A 
ATOM     71  F   UNL A   1      46.034  28.183  23.905  1.00  0.00    -0.203 F 
ATOM     72  C   UNL A   1      48.155  27.153  23.894  1.00  0.00     0.198 A 
ATOM     73  C   UNL A   1      49.096  26.330  25.941  1.00  0.00     0.198 A 
ATOM     74  F   UNL A   1      47.889  26.528  27.952  1.00  0.00    -0.203 F 
ATOM     75  F   UNL A   1      48.233  27.328  22.567  1.00  0.00    -0.200 F 
ATOM     76  C   UNL A   1      49.192  26.532  24.573  1.00  0.00     0.200 A 
ATOM     77  F   UNL A   1      50.101  25.741  26.604  1.00  0.00    -0.200 F 
ATOM     78  F   UNL A   1      50.281  26.123  23.908  1.00  0.00    -0.200 F 
ENDBRANCH  44  68
BRANCH  56  79
ATOM     79  C   UNL A   1      45.121  33.478  28.860  1.00  0.00     0.064 A 
ATOM     80  C   UNL A   1      45.978  33.736  29.938  1.00  0.00     0.173 A 
ATOM     81  C   UNL A   1      44.988  34.461  27.868  1.00  0.00     0.173 A 
ATOM     82  F   UNL A   1      46.123  32.830  30.917  1.00  0.00    -0.203 F 
ATOM     83  C   UNL A   1      46.664  34.943  30.030  1.00  0.00     0.198 A 
ATOM     84  C   UNL A   1      45.693  35.656  27.951  1.00  0.00     0.198 A 
ATOM     85  F   UNL A   1      44.183  34.255  26.815  1.00  0.00    -0.203 F 
ATOM     86  F   UNL A   1      47.447  35.187  31.088  1.00  0.00    -0.200 F 
ATOM     87  C   UNL A   1      46.526  35.899  29.033  1.00  0.00     0.200 A 
ATOM     88  F   UNL A   1      45.568  36.575  26.983  1.00  0.00    -0.200 F 
ATOM     89  F   UNL A   1      47.191  37.059  29.121  1.00  0.00    -0.200 F 
ENDBRANCH  56  79
ENDBRANCH  30  31
ENDBRANCH  23  25
ENDBRANCH  22  23
ENDBRANCH  21  22
ENDBRANCH   1  21
TORSDOF 15
ENDMDL
