MODEL 1
REMARK VINA RESULT:     -11.8      0.000      0.000
REMARK SMILES CCCc1cc(OC(F)(F)F)cc2c1O[C@@H](C(F)(F)F)C(C(=O)OCCOC(=O)c1ccc(-c3c4nc(c(-c5c(F)c(F)c(F)c(F)c5F)c5ccc([nH]5)c(-c5c(F)c(F)c(F)c(F)c5F)c5nc(c(-c6c(F)c(F)c(F)c(F)c6F)c6ccc3[nH]6)C=C5)C=C4)cc1)=C2
REMARK SMILES IDX 25 1 24 2 22 3 23 4 21 5 4 6 5 7 14 8 6 9 13 10 15 11 12 12
REMARK SMILES IDX 93 13 16 14 3 15 2 16 1 17 7 18 8 19 9 20 10 21 11 22 17 23
REMARK SMILES IDX 18 24 19 25 20 26 26 27 27 28 28 29 29 30 30 31 31 32 92 33
REMARK SMILES IDX 32 34 91 35 33 36 34 37 35 38 85 39 36 40 90 41 84 42 86 43
REMARK SMILES IDX 37 44 89 45 83 46 82 47 38 49 70 50 50 51 69 52 51 53 54 54
REMARK SMILES IDX 68 55 87 56 52 57 53 58 67 60 88 61 55 62 39 63 40 64 48 65
REMARK SMILES IDX 41 66 42 67 46 68 49 69 43 70 44 71 47 72 45 73 71 74 72 75
REMARK SMILES IDX 80 76 73 77 74 78 78 79 81 80 75 81 76 82 79 83 77 84 56 85
REMARK SMILES IDX 57 86 65 87 58 88 59 89 63 90 66 91 60 92 61 93 64 94 62 95
REMARK H PARENT 86 48 54 59
REMARK Flexibility Score: inf
ROOT
ATOM      1  C   UNL A   1      35.578  21.023  25.439  1.00  0.00     0.275 C 
ENDROOT
BRANCH   1   2
ATOM      2  O   UNL A   1      35.161  22.352  25.061  1.00  0.00    -0.459 OA
BRANCH   2   3
ATOM      3  C   UNL A   1      33.833  22.592  25.146  1.00  0.00     0.338 C 
ATOM      4  O   UNL A   1      32.956  21.788  25.415  1.00  0.00    -0.246 OA
BRANCH   3   5
ATOM      5  C   UNL A   1      33.555  24.017  24.921  1.00  0.00     0.087 C 
ATOM      6  C   UNL A   1      33.131  28.062  23.938  1.00  0.00    -0.002 A 
ATOM      7  C   UNL A   1      33.320  29.027  24.946  1.00  0.00     0.054 A 
ATOM      8  C   UNL A   1      33.311  26.710  24.266  1.00  0.00     0.131 A 
ATOM      9  C   UNL A   1      33.663  28.653  26.249  1.00  0.00     0.130 A 
ATOM     10  C   UNL A   1      33.650  26.320  25.569  1.00  0.00     0.021 A 
ATOM     11  O   UNL A   1      33.183  25.802  23.256  1.00  0.00    -0.475 OA
ATOM     12  C   UNL A   1      33.813  27.297  26.555  1.00  0.00     0.058 A 
ATOM     13  C   UNL A   1      33.878  24.907  25.869  1.00  0.00     0.027 C 
ATOM     14  C   UNL A   1      32.934  24.425  23.614  1.00  0.00     0.316 C 
BRANCH   6  15
ATOM     15  C   UNL A   1      32.646  28.508  22.571  1.00  0.00     0.039 C 
BRANCH  15  16
ATOM     16  C   UNL A   1      31.187  28.964  22.453  1.00  0.00     0.001 C 
ATOM     17  C   UNL A   1      30.155  27.870  22.697  1.00  0.00     0.004 C 
ENDBRANCH  15  16
ENDBRANCH   6  15
BRANCH   9  18
ATOM     18  O   UNL A   1      33.862  29.495  27.307  1.00  0.00    -0.406 OA
BRANCH  18  19
ATOM     19  C   UNL A   1      35.191  29.902  27.590  1.00  0.00     0.573 C 
ATOM     20  F   UNL A   1      35.526  29.623  28.867  1.00  0.00    -0.132 F 
ATOM     21  F   UNL A   1      36.068  29.310  26.752  1.00  0.00    -0.132 F 
ATOM     22  F   UNL A   1      35.280  31.239  27.415  1.00  0.00    -0.132 F 
ENDBRANCH  18  19
ENDBRANCH   9  18
BRANCH  14  23
ATOM     23  C   UNL A   1      33.252  23.546  22.393  1.00  0.00     0.430 C 
ATOM     24  F   UNL A   1      32.526  22.402  22.402  1.00  0.00    -0.167 F 
ATOM     25  F   UNL A   1      32.915  24.188  21.243  1.00  0.00    -0.167 F 
ATOM     26  F   UNL A   1      34.558  23.224  22.301  1.00  0.00    -0.167 F 
ENDBRANCH  14  23
ENDBRANCH   3   5
ENDBRANCH   2   3
ENDBRANCH   1   2
BRANCH   1  27
ATOM     27  C   UNL A   1      37.015  20.759  24.988  1.00  0.00     0.275 C 
BRANCH  27  28
ATOM     28  O   UNL A   1      37.865  21.877  25.317  1.00  0.00    -0.458 OA
BRANCH  28  29
ATOM     29  C   UNL A   1      38.964  21.554  26.039  1.00  0.00     0.338 C 
ATOM     30  O   UNL A   1      39.531  20.473  26.067  1.00  0.00    -0.246 OA
BRANCH  29  31
ATOM     31  C   UNL A   1      39.528  22.752  26.691  1.00  0.00     0.060 A 
ATOM     32  C   UNL A   1      38.984  23.982  26.311  1.00  0.00     0.016 A 
ATOM     33  C   UNL A   1      40.582  22.707  27.609  1.00  0.00     0.016 A 
ATOM     34  C   UNL A   1      39.443  25.166  26.875  1.00  0.00     0.010 A 
ATOM     35  C   UNL A   1      41.095  23.906  28.128  1.00  0.00     0.010 A 
ATOM     36  C   UNL A   1      40.529  25.139  27.758  1.00  0.00    -0.014 A 
BRANCH  36  37
ATOM     37  C   UNL A   1      41.160  26.432  28.115  1.00  0.00     0.031 A 
ATOM     38  C   UNL A   1      42.588  26.666  27.707  1.00  0.00     0.074 A 
ATOM     39  C   UNL A   1      40.452  27.420  28.688  1.00  0.00     0.049 A 
ATOM     40  N   UNL A   1      43.322  27.743  27.824  1.00  0.00    -0.248 NA
ATOM     41  C   UNL A   1      43.272  25.537  27.056  1.00  0.00     0.031 C 
ATOM     42  C   UNL A   1      39.040  27.347  29.052  1.00  0.00     0.029 A 
ATOM     43  N   UNL A   1      40.830  28.691  29.045  1.00  0.00    -0.354 N 
ATOM     44  C   UNL A   1      44.541  27.430  27.239  1.00  0.00     0.074 A 
ATOM     45  C   UNL A   1      44.461  26.057  26.790  1.00  0.00     0.031 C 
ATOM     46  C   UNL A   1      38.671  28.522  29.592  1.00  0.00     0.029 A 
ATOM     47  C   UNL A   1      39.824  29.421  29.627  1.00  0.00     0.049 A 
ATOM     48  H   UNL A   1      41.738  29.044  28.899  1.00  0.00     0.167 HD
ATOM     49  C   UNL A   1      45.633  28.217  27.087  1.00  0.00     0.037 A 
ATOM     50  C   UNL A   1      39.842  30.668  30.135  1.00  0.00     0.037 A 
ATOM     51  C   UNL A   1      45.736  29.566  27.573  1.00  0.00     0.049 A 
ATOM     52  C   UNL A   1      41.108  31.485  30.057  1.00  0.00     0.074 A 
ATOM     53  C   UNL A   1      46.820  30.424  27.518  1.00  0.00     0.029 A 
ATOM     54  N   UNL A   1      44.717  30.248  28.220  1.00  0.00    -0.354 N 
ATOM     55  N   UNL A   1      42.257  31.185  29.501  1.00  0.00    -0.248 NA
ATOM     56  C   UNL A   1      41.076  32.819  30.675  1.00  0.00     0.031 C 
ATOM     57  C   UNL A   1      46.472  31.611  28.171  1.00  0.00     0.029 A 
ATOM     58  C   UNL A   1      45.153  31.512  28.586  1.00  0.00     0.049 A 
ATOM     59  H   UNL A   1      43.817  29.890  28.393  1.00  0.00     0.167 HD
ATOM     60  C   UNL A   1      43.066  32.302  29.666  1.00  0.00     0.074 A 
ATOM     61  C   UNL A   1      42.277  33.290  30.369  1.00  0.00     0.031 C 
ATOM     62  C   UNL A   1      44.348  32.494  29.266  1.00  0.00     0.037 A 
BRANCH  49  63
ATOM     63  C   UNL A   1      46.820  27.609  26.405  1.00  0.00     0.064 A 
ATOM     64  C   UNL A   1      47.811  26.927  27.127  1.00  0.00     0.173 A 
ATOM     65  C   UNL A   1      46.969  27.708  25.015  1.00  0.00     0.173 A 
ATOM     66  F   UNL A   1      47.725  26.824  28.463  1.00  0.00    -0.203 F 
ATOM     67  C   UNL A   1      48.920  26.385  26.482  1.00  0.00     0.198 A 
ATOM     68  C   UNL A   1      48.066  27.144  24.370  1.00  0.00     0.198 A 
ATOM     69  F   UNL A   1      46.049  28.354  24.282  1.00  0.00    -0.203 F 
ATOM     70  F   UNL A   1      49.878  25.777  27.195  1.00  0.00    -0.200 F 
ATOM     71  C   UNL A   1      49.043  26.491  25.105  1.00  0.00     0.200 A 
ATOM     72  F   UNL A   1      48.182  27.242  23.039  1.00  0.00    -0.200 F 
ATOM     73  F   UNL A   1      50.112  25.970  24.485  1.00  0.00    -0.200 F 
ENDBRANCH  49  63
BRANCH  50  74
ATOM     74  C   UNL A   1      38.626  31.229  30.784  1.00  0.00     0.064 A 
ATOM     75  C   UNL A   1      38.419  31.117  32.166  1.00  0.00     0.173 A 
ATOM     76  C   UNL A   1      37.620  31.842  30.021  1.00  0.00     0.173 A 
ATOM     77  F   UNL A   1      39.336  30.509  32.933  1.00  0.00    -0.203 F 
ATOM     78  C   UNL A   1      37.243  31.575  32.757  1.00  0.00     0.198 A 
ATOM     79  C   UNL A   1      36.458  32.326  30.618  1.00  0.00     0.198 A 
ATOM     80  F   UNL A   1      37.764  31.965  28.694  1.00  0.00    -0.203 F 
ATOM     81  F   UNL A   1      37.045  31.402  34.070  1.00  0.00    -0.200 F 
ATOM     82  C   UNL A   1      36.265  32.182  31.983  1.00  0.00     0.200 A 
ATOM     83  F   UNL A   1      35.517  32.913  29.867  1.00  0.00    -0.200 F 
ATOM     84  F   UNL A   1      35.130  32.613  32.550  1.00  0.00    -0.200 F 
ENDBRANCH  50  74
BRANCH  62  85
ATOM     85  C   UNL A   1      44.962  33.840  29.527  1.00  0.00     0.064 A 
ATOM     86  C   UNL A   1      45.689  34.109  30.696  1.00  0.00     0.173 A 
ATOM     87  C   UNL A   1      44.857  34.860  28.570  1.00  0.00     0.173 A 
ATOM     88  F   UNL A   1      45.809  33.171  31.647  1.00  0.00    -0.203 F 
ATOM     89  C   UNL A   1      46.263  35.360  30.909  1.00  0.00     0.198 A 
ATOM     90  C   UNL A   1      45.457  36.100  28.773  1.00  0.00     0.198 A 
ATOM     91  F   UNL A   1      44.180  34.651  27.429  1.00  0.00    -0.203 F 
ATOM     92  F   UNL A   1      46.913  35.610  32.054  1.00  0.00    -0.200 F 
ATOM     93  C   UNL A   1      46.153  36.352  29.945  1.00  0.00     0.200 A 
ATOM     94  F   UNL A   1      45.361  37.051  27.834  1.00  0.00    -0.200 F 
ATOM     95  F   UNL A   1      46.711  37.552  30.149  1.00  0.00    -0.200 F 
ENDBRANCH  62  85
ENDBRANCH  36  37
ENDBRANCH  29  31
ENDBRANCH  28  29
ENDBRANCH  27  28
ENDBRANCH   1  27
TORSDOF 16
ENDMDL
MODEL 2
REMARK VINA RESULT:     -11.7      4.227      9.504
REMARK SMILES CCCc1cc(OC(F)(F)F)cc2c1O[C@@H](C(F)(F)F)C(C(=O)OCCOC(=O)c1ccc(-c3c4nc(c(-c5c(F)c(F)c(F)c(F)c5F)c5ccc([nH]5)c(-c5c(F)c(F)c(F)c(F)c5F)c5nc(c(-c6c(F)c(F)c(F)c(F)c6F)c6ccc3[nH]6)C=C5)C=C4)cc1)=C2
REMARK SMILES IDX 25 1 24 2 22 3 23 4 21 5 4 6 5 7 14 8 6 9 13 10 15 11 12 12
REMARK SMILES IDX 93 13 16 14 3 15 2 16 1 17 7 18 8 19 9 20 10 21 11 22 17 23
REMARK SMILES IDX 18 24 19 25 20 26 26 27 27 28 28 29 29 30 30 31 31 32 92 33
REMARK SMILES IDX 32 34 91 35 33 36 34 37 35 38 85 39 36 40 90 41 84 42 86 43
REMARK SMILES IDX 37 44 89 45 83 46 82 47 38 49 70 50 50 51 69 52 51 53 54 54
REMARK SMILES IDX 68 55 87 56 52 57 53 58 67 60 88 61 55 62 39 63 40 64 48 65
REMARK SMILES IDX 41 66 42 67 46 68 49 69 43 70 44 71 47 72 45 73 71 74 72 75
REMARK SMILES IDX 80 76 73 77 74 78 78 79 81 80 75 81 76 82 79 83 77 84 56 85
REMARK SMILES IDX 57 86 65 87 58 88 59 89 63 90 66 91 60 92 61 93 64 94 62 95
REMARK H PARENT 86 48 54 59
REMARK Flexibility Score: inf
ROOT
ATOM      1  C   UNL A   1      32.437  29.875  25.576  1.00  0.00     0.275 C 
ENDROOT
BRANCH   1   2
ATOM      2  O   UNL A   1      31.413  28.859  25.573  1.00  0.00    -0.459 OA
BRANCH   2   3
ATOM      3  C   UNL A   1      31.662  27.778  26.346  1.00  0.00     0.338 C 
ATOM      4  O   UNL A   1      31.387  27.639  27.526  1.00  0.00    -0.246 OA
BRANCH   3   5
ATOM      5  C   UNL A   1      32.284  26.711  25.550  1.00  0.00     0.087 C 
ATOM      6  C   UNL A   1      33.700  23.366  23.473  1.00  0.00    -0.002 A 
ATOM      7  C   UNL A   1      35.018  22.930  23.711  1.00  0.00     0.054 A 
ATOM      8  C   UNL A   1      33.220  24.466  24.200  1.00  0.00     0.131 A 
ATOM      9  C   UNL A   1      35.839  23.582  24.637  1.00  0.00     0.130 A 
ATOM     10  C   UNL A   1      34.033  25.132  25.128  1.00  0.00     0.021 A 
ATOM     11  O   UNL A   1      31.921  24.827  23.995  1.00  0.00    -0.475 OA
ATOM     12  C   UNL A   1      35.343  24.690  25.331  1.00  0.00     0.058 A 
ATOM     13  C   UNL A   1      33.488  26.244  25.905  1.00  0.00     0.027 C 
ATOM     14  C   UNL A   1      31.525  26.164  24.373  1.00  0.00     0.316 C 
BRANCH   6  15
ATOM     15  C   UNL A   1      32.890  22.701  22.377  1.00  0.00     0.039 C 
BRANCH  15  16
ATOM     16  C   UNL A   1      32.208  21.368  22.711  1.00  0.00     0.001 C 
ATOM     17  C   UNL A   1      31.779  20.550  21.499  1.00  0.00     0.004 C 
ENDBRANCH  15  16
ENDBRANCH   6  15
BRANCH   9  18
ATOM     18  O   UNL A   1      37.131  23.257  24.943  1.00  0.00    -0.406 OA
BRANCH  18  19
ATOM     19  C   UNL A   1      37.391  21.944  25.412  1.00  0.00     0.573 C 
ATOM     20  F   UNL A   1      37.554  21.081  24.387  1.00  0.00    -0.132 F 
ATOM     21  F   UNL A   1      38.484  21.919  26.204  1.00  0.00    -0.132 F 
ATOM     22  F   UNL A   1      36.333  21.529  26.145  1.00  0.00    -0.132 F 
ENDBRANCH  18  19
ENDBRANCH   9  18
BRANCH  14  23
ATOM     23  C   UNL A   1      29.990  26.204  24.461  1.00  0.00     0.430 C 
ATOM     24  F   UNL A   1      29.423  25.268  23.664  1.00  0.00    -0.167 F 
ATOM     25  F   UNL A   1      29.578  25.912  25.724  1.00  0.00    -0.167 F 
ATOM     26  F   UNL A   1      29.475  27.408  24.142  1.00  0.00    -0.167 F 
ENDBRANCH  14  23
ENDBRANCH   3   5
ENDBRANCH   2   3
ENDBRANCH   1   2
BRANCH   1  27
ATOM     27  C   UNL A   1      31.990  31.091  26.390  1.00  0.00     0.275 C 
BRANCH  27  28
ATOM     28  O   UNL A   1      32.723  31.170  27.630  1.00  0.00    -0.458 OA
BRANCH  28  29
ATOM     29  C   UNL A   1      33.591  32.206  27.705  1.00  0.00     0.338 C 
ATOM     30  O   UNL A   1      33.325  33.393  27.597  1.00  0.00    -0.246 OA
BRANCH  29  31
ATOM     31  C   UNL A   1      34.928  31.736  28.117  1.00  0.00     0.060 A 
ATOM     32  C   UNL A   1      35.018  30.405  28.534  1.00  0.00     0.016 A 
ATOM     33  C   UNL A   1      36.059  32.557  28.148  1.00  0.00     0.016 A 
ATOM     34  C   UNL A   1      36.236  29.868  28.933  1.00  0.00     0.010 A 
ATOM     35  C   UNL A   1      37.275  32.037  28.616  1.00  0.00     0.010 A 
ATOM     36  C   UNL A   1      37.365  30.691  29.014  1.00  0.00    -0.014 A 
BRANCH  36  37
ATOM     37  C   UNL A   1      38.564  30.154  29.702  1.00  0.00     0.031 A 
ATOM     38  C   UNL A   1      38.841  30.605  31.109  1.00  0.00     0.074 A 
ATOM     39  C   UNL A   1      39.325  29.203  29.136  1.00  0.00     0.049 A 
ATOM     40  N   UNL A   1      39.767  30.208  31.944  1.00  0.00    -0.248 NA
ATOM     41  C   UNL A   1      37.933  31.626  31.656  1.00  0.00     0.031 C 
ATOM     42  C   UNL A   1      39.109  28.620  27.815  1.00  0.00     0.029 A 
ATOM     43  N   UNL A   1      40.430  28.546  29.621  1.00  0.00    -0.354 N 
ATOM     44  C   UNL A   1      39.537  30.909  33.119  1.00  0.00     0.074 A 
ATOM     45  C   UNL A   1      38.401  31.774  32.886  1.00  0.00     0.031 C 
ATOM     46  C   UNL A   1      40.060  27.697  27.587  1.00  0.00     0.029 A 
ATOM     47  C   UNL A   1      40.959  27.636  28.739  1.00  0.00     0.049 A 
ATOM     48  H   UNL A   1      40.807  28.713  30.515  1.00  0.00     0.167 HD
ATOM     49  C   UNL A   1      40.212  30.839  34.292  1.00  0.00     0.037 A 
ATOM     50  C   UNL A   1      42.050  26.854  28.853  1.00  0.00     0.037 A 
ATOM     51  C   UNL A   1      41.369  30.018  34.514  1.00  0.00     0.049 A 
ATOM     52  C   UNL A   1      42.853  26.880  30.130  1.00  0.00     0.074 A 
ATOM     53  C   UNL A   1      42.155  29.920  35.650  1.00  0.00     0.029 A 
ATOM     54  N   UNL A   1      41.918  29.160  33.574  1.00  0.00    -0.354 N 
ATOM     55  N   UNL A   1      42.629  27.543  31.239  1.00  0.00    -0.248 NA
ATOM     56  C   UNL A   1      44.060  26.041  30.171  1.00  0.00     0.031 C 
ATOM     57  C   UNL A   1      43.205  29.036  35.380  1.00  0.00     0.029 A 
ATOM     58  C   UNL A   1      43.044  28.542  34.096  1.00  0.00     0.049 A 
ATOM     59  H   UNL A   1      41.560  29.010  32.669  1.00  0.00     0.167 HD
ATOM     60  C   UNL A   1      43.639  27.172  32.118  1.00  0.00     0.074 A 
ATOM     61  C   UNL A   1      44.475  26.222  31.417  1.00  0.00     0.031 C 
ATOM     62  C   UNL A   1      43.853  27.580  33.394  1.00  0.00     0.037 A 
BRANCH  49  63
ATOM     63  C   UNL A   1      39.732  31.719  35.406  1.00  0.00     0.064 A 
ATOM     64  C   UNL A   1      40.283  32.989  35.626  1.00  0.00     0.173 A 
ATOM     65  C   UNL A   1      38.708  31.286  36.261  1.00  0.00     0.173 A 
ATOM     66  F   UNL A   1      41.280  33.439  34.848  1.00  0.00    -0.203 F 
ATOM     67  C   UNL A   1      39.841  33.787  36.679  1.00  0.00     0.198 A 
ATOM     68  C   UNL A   1      38.253  32.096  37.298  1.00  0.00     0.198 A 
ATOM     69  F   UNL A   1      38.152  30.077  36.092  1.00  0.00    -0.203 F 
ATOM     70  F   UNL A   1      40.413  34.979  36.901  1.00  0.00    -0.200 F 
ATOM     71  C   UNL A   1      38.825  33.341  37.510  1.00  0.00     0.200 A 
ATOM     72  F   UNL A   1      37.267  31.666  38.097  1.00  0.00    -0.200 F 
ATOM     73  F   UNL A   1      38.402  34.108  38.524  1.00  0.00    -0.200 F 
ENDBRANCH  49  63
BRANCH  50  74
ATOM     74  C   UNL A   1      42.468  25.985  27.720  1.00  0.00     0.064 A 
ATOM     75  C   UNL A   1      43.475  26.383  26.829  1.00  0.00     0.173 A 
ATOM     76  C   UNL A   1      41.829  24.760  27.478  1.00  0.00     0.173 A 
ATOM     77  F   UNL A   1      44.093  27.561  26.999  1.00  0.00    -0.203 F 
ATOM     78  C   UNL A   1      43.809  25.600  25.726  1.00  0.00     0.198 A 
ATOM     79  C   UNL A   1      42.184  23.965  26.391  1.00  0.00     0.198 A 
ATOM     80  F   UNL A   1      40.852  24.339  28.294  1.00  0.00    -0.203 F 
ATOM     81  F   UNL A   1      44.732  26.031  24.856  1.00  0.00    -0.200 F 
ATOM     82  C   UNL A   1      43.166  24.390  25.509  1.00  0.00     0.200 A 
ATOM     83  F   UNL A   1      41.562  22.796  26.186  1.00  0.00    -0.200 F 
ATOM     84  F   UNL A   1      43.481  23.643  24.443  1.00  0.00    -0.200 F 
ENDBRANCH  50  74
BRANCH  62  85
ATOM     85  C   UNL A   1      45.002  26.960  34.137  1.00  0.00     0.064 A 
ATOM     86  C   UNL A   1      46.256  27.582  34.216  1.00  0.00     0.173 A 
ATOM     87  C   UNL A   1      44.827  25.745  34.818  1.00  0.00     0.173 A 
ATOM     88  F   UNL A   1      46.478  28.738  33.574  1.00  0.00    -0.203 F 
ATOM     89  C   UNL A   1      47.302  26.995  34.924  1.00  0.00     0.198 A 
ATOM     90  C   UNL A   1      45.866  25.176  35.550  1.00  0.00     0.198 A 
ATOM     91  F   UNL A   1      43.643  25.114  34.782  1.00  0.00    -0.203 F 
ATOM     92  F   UNL A   1      48.506  27.583  34.947  1.00  0.00    -0.200 F 
ATOM     93  C   UNL A   1      47.104  25.798  35.597  1.00  0.00     0.200 A 
ATOM     94  F   UNL A   1      45.668  24.027  36.209  1.00  0.00    -0.200 F 
ATOM     95  F   UNL A   1      48.109  25.239  36.283  1.00  0.00    -0.200 F 
ENDBRANCH  62  85
ENDBRANCH  36  37
ENDBRANCH  29  31
ENDBRANCH  28  29
ENDBRANCH  27  28
ENDBRANCH   1  27
TORSDOF 16
ENDMDL
MODEL 3
REMARK VINA RESULT:     -11.3      0.691      7.171
REMARK SMILES CCCc1cc(OC(F)(F)F)cc2c1O[C@@H](C(F)(F)F)C(C(=O)OCCOC(=O)c1ccc(-c3c4nc(c(-c5c(F)c(F)c(F)c(F)c5F)c5ccc([nH]5)c(-c5c(F)c(F)c(F)c(F)c5F)c5nc(c(-c6c(F)c(F)c(F)c(F)c6F)c6ccc3[nH]6)C=C5)C=C4)cc1)=C2
REMARK SMILES IDX 25 1 24 2 22 3 23 4 21 5 4 6 5 7 14 8 6 9 13 10 15 11 12 12
REMARK SMILES IDX 93 13 16 14 3 15 2 16 1 17 7 18 8 19 9 20 10 21 11 22 17 23
REMARK SMILES IDX 18 24 19 25 20 26 26 27 27 28 28 29 29 30 30 31 31 32 92 33
REMARK SMILES IDX 32 34 91 35 33 36 34 37 35 38 85 39 36 40 90 41 84 42 86 43
REMARK SMILES IDX 37 44 89 45 83 46 82 47 38 49 70 50 50 51 69 52 51 53 54 54
REMARK SMILES IDX 68 55 87 56 52 57 53 58 67 60 88 61 55 62 39 63 40 64 48 65
REMARK SMILES IDX 41 66 42 67 46 68 49 69 43 70 44 71 47 72 45 73 71 74 72 75
REMARK SMILES IDX 80 76 73 77 74 78 78 79 81 80 75 81 76 82 79 83 77 84 56 85
REMARK SMILES IDX 57 86 65 87 58 88 59 89 63 90 66 91 60 92 61 93 64 94 62 95
REMARK H PARENT 86 48 54 59
REMARK Flexibility Score: inf
ROOT
ATOM      1  C   UNL A   1      35.933  21.480  24.567  1.00  0.00     0.275 C 
ENDROOT
BRANCH   1   2
ATOM      2  O   UNL A   1      35.439  22.736  25.075  1.00  0.00    -0.459 OA
BRANCH   2   3
ATOM      3  C   UNL A   1      34.093  22.859  25.116  1.00  0.00     0.338 C 
ATOM      4  O   UNL A   1      33.281  21.976  25.334  1.00  0.00    -0.246 OA
BRANCH   3   5
ATOM      5  C   UNL A   1      33.700  24.260  24.913  1.00  0.00     0.087 C 
ATOM      6  C   UNL A   1      32.932  28.264  23.972  1.00  0.00    -0.002 A 
ATOM      7  C   UNL A   1      33.107  29.240  24.972  1.00  0.00     0.054 A 
ATOM      8  C   UNL A   1      33.227  26.928  24.284  1.00  0.00     0.131 A 
ATOM      9  C   UNL A   1      33.549  28.892  26.252  1.00  0.00     0.130 A 
ATOM     10  C   UNL A   1      33.666  26.564  25.564  1.00  0.00     0.021 A 
ATOM     11  O   UNL A   1      33.108  26.015  23.278  1.00  0.00    -0.475 OA
ATOM     12  C   UNL A   1      33.813  27.550  26.544  1.00  0.00     0.058 A 
ATOM     13  C   UNL A   1      34.012  25.171  25.845  1.00  0.00     0.027 C 
ATOM     14  C   UNL A   1      32.979  24.623  23.644  1.00  0.00     0.316 C 
BRANCH   6  15
ATOM     15  C   UNL A   1      32.340  28.674  22.637  1.00  0.00     0.039 C 
BRANCH  15  16
ATOM     16  C   UNL A   1      30.866  29.101  22.617  1.00  0.00     0.001 C 
ATOM     17  C   UNL A   1      29.900  28.081  23.207  1.00  0.00     0.004 C 
ENDBRANCH  15  16
ENDBRANCH   6  15
BRANCH   9  18
ATOM     18  O   UNL A   1      33.745  29.746  27.301  1.00  0.00    -0.406 OA
BRANCH  18  19
ATOM     19  C   UNL A   1      35.067  30.195  27.551  1.00  0.00     0.573 C 
ATOM     20  F   UNL A   1      35.935  29.688  26.649  1.00  0.00    -0.132 F 
ATOM     21  F   UNL A   1      35.132  31.544  27.534  1.00  0.00    -0.132 F 
ATOM     22  F   UNL A   1      35.443  29.773  28.779  1.00  0.00    -0.132 F 
ENDBRANCH  18  19
ENDBRANCH   9  18
BRANCH  14  23
ATOM     23  C   UNL A   1      33.291  23.769  22.404  1.00  0.00     0.430 C 
ATOM     24  F   UNL A   1      32.529  22.650  22.367  1.00  0.00    -0.167 F 
ATOM     25  F   UNL A   1      32.996  24.455  21.267  1.00  0.00    -0.167 F 
ATOM     26  F   UNL A   1      34.588  23.408  22.325  1.00  0.00    -0.167 F 
ENDBRANCH  14  23
ENDBRANCH   3   5
ENDBRANCH   2   3
ENDBRANCH   1   2
BRANCH   1  27
ATOM     27  C   UNL A   1      36.991  20.895  25.505  1.00  0.00     0.275 C 
BRANCH  27  28
ATOM     28  O   UNL A   1      38.268  21.529  25.288  1.00  0.00    -0.458 OA
BRANCH  28  29
ATOM     29  C   UNL A   1      39.191  21.275  26.246  1.00  0.00     0.338 C 
ATOM     30  O   UNL A   1      39.592  20.178  26.604  1.00  0.00    -0.246 OA
BRANCH  29  31
ATOM     31  C   UNL A   1      39.813  22.528  26.715  1.00  0.00     0.060 A 
ATOM     32  C   UNL A   1      39.394  23.704  26.086  1.00  0.00     0.016 A 
ATOM     33  C   UNL A   1      40.805  22.576  27.699  1.00  0.00     0.016 A 
ATOM     34  C   UNL A   1      39.915  24.935  26.465  1.00  0.00     0.010 A 
ATOM     35  C   UNL A   1      41.383  23.811  28.034  1.00  0.00     0.010 A 
ATOM     36  C   UNL A   1      40.943  24.993  27.414  1.00  0.00    -0.014 A 
BRANCH  36  37
ATOM     37  C   UNL A   1      41.656  26.282  27.582  1.00  0.00     0.031 A 
ATOM     38  C   UNL A   1      40.978  27.375  28.361  1.00  0.00     0.074 A 
ATOM     39  C   UNL A   1      42.919  26.442  27.153  1.00  0.00     0.049 A 
ATOM     40  N   UNL A   1      41.435  28.548  28.719  1.00  0.00    -0.248 NA
ATOM     41  C   UNL A   1      39.608  27.095  28.819  1.00  0.00     0.031 C 
ATOM     42  C   UNL A   1      43.713  25.429  26.464  1.00  0.00     0.029 A 
ATOM     43  N   UNL A   1      43.761  27.522  27.257  1.00  0.00    -0.354 N 
ATOM     44  C   UNL A   1      40.421  29.133  29.464  1.00  0.00     0.074 A 
ATOM     45  C   UNL A   1      39.315  28.200  29.488  1.00  0.00     0.031 C 
ATOM     46  C   UNL A   1      44.928  25.940  26.195  1.00  0.00     0.029 A 
ATOM     47  C   UNL A   1      44.989  27.318  26.679  1.00  0.00     0.049 A 
ATOM     48  H   UNL A   1      43.507  28.362  27.702  1.00  0.00     0.167 HD
ATOM     49  C   UNL A   1      40.410  30.341  30.076  1.00  0.00     0.037 A 
ATOM     50  C   UNL A   1      46.035  28.158  26.550  1.00  0.00     0.037 A 
ATOM     51  C   UNL A   1      41.487  31.291  30.017  1.00  0.00     0.049 A 
ATOM     52  C   UNL A   1      45.954  29.543  27.143  1.00  0.00     0.074 A 
ATOM     53  C   UNL A   1      41.547  32.564  30.557  1.00  0.00     0.029 A 
ATOM     54  N   UNL A   1      42.690  31.076  29.362  1.00  0.00    -0.354 N 
ATOM     55  N   UNL A   1      44.994  30.089  27.849  1.00  0.00    -0.248 NA
ATOM     56  C   UNL A   1      47.109  30.426  26.925  1.00  0.00     0.031 C 
ATOM     57  C   UNL A   1      42.771  33.136  30.191  1.00  0.00     0.029 A 
ATOM     58  C   UNL A   1      43.494  32.200  29.469  1.00  0.00     0.049 A 
ATOM     59  H   UNL A   1      42.938  30.247  28.892  1.00  0.00     0.167 HD
ATOM     60  C   UNL A   1      45.443  31.359  28.191  1.00  0.00     0.074 A 
ATOM     61  C   UNL A   1      46.765  31.501  27.620  1.00  0.00     0.031 C 
ATOM     62  C   UNL A   1      44.817  32.319  28.916  1.00  0.00     0.037 A 
BRANCH  49  63
ATOM     63  C   UNL A   1      39.166  30.713  30.824  1.00  0.00     0.064 A 
ATOM     64  C   UNL A   1      38.085  31.336  30.183  1.00  0.00     0.173 A 
ATOM     65  C   UNL A   1      39.054  30.443  32.195  1.00  0.00     0.173 A 
ATOM     66  F   UNL A   1      38.154  31.635  28.876  1.00  0.00    -0.203 F 
ATOM     67  C   UNL A   1      36.943  31.696  30.895  1.00  0.00     0.198 A 
ATOM     68  C   UNL A   1      37.902  30.782  32.898  1.00  0.00     0.198 A 
ATOM     69  F   UNL A   1      40.063  29.852  32.852  1.00  0.00    -0.203 F 
ATOM     70  F   UNL A   1      35.940  32.332  30.274  1.00  0.00    -0.200 F 
ATOM     71  C   UNL A   1      36.852  31.415  32.250  1.00  0.00     0.200 A 
ATOM     72  F   UNL A   1      37.812  30.505  34.206  1.00  0.00    -0.200 F 
ATOM     73  F   UNL A   1      35.753  31.763  32.935  1.00  0.00    -0.200 F 
ENDBRANCH  49  63
BRANCH  50  74
ATOM     74  C   UNL A   1      47.254  27.726  25.815  1.00  0.00     0.064 A 
ATOM     75  C   UNL A   1      48.418  27.341  26.496  1.00  0.00     0.173 A 
ATOM     76  C   UNL A   1      47.294  27.742  24.413  1.00  0.00     0.173 A 
ATOM     77  F   UNL A   1      48.441  27.342  27.837  1.00  0.00    -0.203 F 
ATOM     78  C   UNL A   1      49.581  27.012  25.802  1.00  0.00     0.198 A 
ATOM     79  C   UNL A   1      48.449  27.385  23.720  1.00  0.00     0.198 A 
ATOM     80  F   UNL A   1      46.211  28.113  23.714  1.00  0.00    -0.203 F 
ATOM     81  F   UNL A   1      50.697  26.706  26.478  1.00  0.00    -0.200 F 
ATOM     82  C   UNL A   1      49.594  27.031  24.415  1.00  0.00     0.200 A 
ATOM     83  F   UNL A   1      48.457  27.402  22.381  1.00  0.00    -0.200 F 
ATOM     84  F   UNL A   1      50.716  26.724  23.750  1.00  0.00    -0.200 F 
ENDBRANCH  50  74
BRANCH  62  85
ATOM     85  C   UNL A   1      45.575  33.589  29.184  1.00  0.00     0.064 A 
ATOM     86  C   UNL A   1      46.412  33.730  30.299  1.00  0.00     0.173 A 
ATOM     87  C   UNL A   1      45.492  34.662  28.284  1.00  0.00     0.173 A 
ATOM     88  F   UNL A   1      46.517  32.738  31.195  1.00  0.00    -0.203 F 
ATOM     89  C   UNL A   1      47.117  34.911  30.519  1.00  0.00     0.198 A 
ATOM     90  C   UNL A   1      46.222  35.830  28.491  1.00  0.00     0.198 A 
ATOM     91  F   UNL A   1      44.712  34.574  27.195  1.00  0.00    -0.203 F 
ATOM     92  F   UNL A   1      47.876  35.043  31.616  1.00  0.00    -0.200 F 
ATOM     93  C   UNL A   1      47.027  35.957  29.611  1.00  0.00     0.200 A 
ATOM     94  F   UNL A   1      46.143  36.833  27.605  1.00  0.00    -0.200 F 
ATOM     95  F   UNL A   1      47.712  37.089  29.821  1.00  0.00    -0.200 F 
ENDBRANCH  62  85
ENDBRANCH  36  37
ENDBRANCH  29  31
ENDBRANCH  28  29
ENDBRANCH  27  28
ENDBRANCH   1  27
TORSDOF 16
ENDMDL
