MODEL 1
REMARK VINA RESULT:     -12.6      0.000      0.000
REMARK SMILES O=C(CCOc1cc(-c2ccncc2)nc(-c2ccc(C(F)(F)F)cc2)n1)OCCOC(=O)c1ccc(-c2c3nc(c(-c4c(F)c(F)c(F)c(F)c4F)c4ccc([nH]4)c(-c4c(F)c(F)c(F)c(F)c4F)c4nc(c(-c5c(F)c(F)c(F)c(F)c5F)c5ccc2[nH]5)C=C4)C=C3)cc1
REMARK SMILES IDX 28 1 2 2 1 3 3 4 4 5 5 6 6 7 7 8 27 9 8 10 16 11 15 12 9 13
REMARK SMILES IDX 10 14 14 15 11 16 13 17 12 18 17 19 18 20 26 21 19 22 25 23
REMARK SMILES IDX 20 24 21 25 22 26 23 27 24 28 29 29 30 30 31 31 32 32 33 33
REMARK SMILES IDX 34 34 35 35 96 36 36 37 95 38 37 39 38 40 39 41 89 42 40 43
REMARK SMILES IDX 94 44 88 45 90 46 41 47 93 48 87 49 86 50 42 52 74 53 54 54
REMARK SMILES IDX 73 55 55 56 58 57 72 58 91 59 56 60 57 61 71 63 92 64 59 65
REMARK SMILES IDX 43 66 44 67 52 68 45 69 46 70 50 71 53 72 47 73 48 74 51 75
REMARK SMILES IDX 49 76 75 77 76 78 84 79 77 80 78 81 82 82 85 83 79 84 80 85
REMARK SMILES IDX 83 86 81 87 60 88 61 89 69 90 62 91 63 92 67 93 70 94 64 95
REMARK SMILES IDX 65 96 68 97 66 98
REMARK H PARENT 90 51 58 62
REMARK Flexibility Score: inf
ROOT
ATOM      1  O   UNL A   1      41.382  21.483  25.912  1.00  0.00    -0.462 OA
ENDROOT
BRANCH   1   2
ATOM      2  C   UNL A   1      40.504  21.567  26.931  1.00  0.00     0.309 C 
ATOM      3  O   UNL A   1      40.453  20.668  27.772  1.00  0.00    -0.252 OA
BRANCH   2   4
ATOM      4  C   UNL A   1      39.709  22.818  27.141  1.00  0.00     0.164 C 
BRANCH   4   5
ATOM      5  C   UNL A   1      38.651  22.930  26.048  1.00  0.00     0.243 C 
BRANCH   5   6
ATOM      6  O   UNL A   1      38.162  21.666  25.603  1.00  0.00    -0.477 OA
BRANCH   6   7
ATOM      7  C   UNL A   1      36.831  21.479  25.384  1.00  0.00     0.217 A 
ATOM      8  C   UNL A   1      36.243  20.379  24.817  1.00  0.00     0.097 A 
ATOM      9  N   UNL A   1      36.105  22.495  25.853  1.00  0.00    -0.193 NA
ATOM     10  C   UNL A   1      34.878  20.249  25.001  1.00  0.00     0.078 A 
ATOM     11  C   UNL A   1      34.768  22.372  25.804  1.00  0.00     0.163 A 
ATOM     12  N   UNL A   1      34.113  21.245  25.486  1.00  0.00    -0.228 NA
BRANCH  10  13
ATOM     13  C   UNL A   1      34.228  18.949  24.807  1.00  0.00     0.003 A 
ATOM     14  C   UNL A   1      34.984  17.848  24.378  1.00  0.00     0.030 A 
ATOM     15  C   UNL A   1      32.848  18.782  24.939  1.00  0.00     0.030 A 
ATOM     16  C   UNL A   1      34.338  16.660  24.079  1.00  0.00     0.111 A 
ATOM     17  C   UNL A   1      32.296  17.547  24.634  1.00  0.00     0.111 A 
ATOM     18  N   UNL A   1      33.008  16.484  24.204  1.00  0.00    -0.265 NA
ENDBRANCH  10  13
BRANCH  11  19
ATOM     19  C   UNL A   1      34.009  23.624  25.875  1.00  0.00     0.019 A 
ATOM     20  C   UNL A   1      34.656  24.829  25.534  1.00  0.00     0.012 A 
ATOM     21  C   UNL A   1      32.654  23.681  26.222  1.00  0.00     0.012 A 
ATOM     22  C   UNL A   1      33.978  26.044  25.529  1.00  0.00     0.014 A 
ATOM     23  C   UNL A   1      31.971  24.906  26.234  1.00  0.00     0.014 A 
ATOM     24  C   UNL A   1      32.626  26.096  25.882  1.00  0.00     0.056 A 
BRANCH  24  25
ATOM     25  C   UNL A   1      31.915  27.425  25.859  1.00  0.00     0.416 C 
ATOM     26  F   UNL A   1      31.055  27.536  24.807  1.00  0.00    -0.166 F 
ATOM     27  F   UNL A   1      31.162  27.630  26.976  1.00  0.00    -0.166 F 
ATOM     28  F   UNL A   1      32.752  28.495  25.771  1.00  0.00    -0.166 F 
ENDBRANCH  24  25
ENDBRANCH  11  19
ENDBRANCH   6   7
ENDBRANCH   5   6
ENDBRANCH   4   5
ENDBRANCH   2   4
ENDBRANCH   1   2
BRANCH   1  29
ATOM     29  C   UNL A   1      42.718  20.932  25.954  1.00  0.00     0.274 C 
BRANCH  29  30
ATOM     30  C   UNL A   1      43.687  21.931  25.326  1.00  0.00     0.275 C 
BRANCH  30  31
ATOM     31  O   UNL A   1      43.040  23.210  25.240  1.00  0.00    -0.458 OA
BRANCH  31  32
ATOM     32  C   UNL A   1      43.877  24.283  25.240  1.00  0.00     0.338 C 
ATOM     33  O   UNL A   1      44.801  24.497  24.481  1.00  0.00    -0.246 OA
BRANCH  32  34
ATOM     34  C   UNL A   1      43.325  25.273  26.190  1.00  0.00     0.060 A 
ATOM     35  C   UNL A   1      43.628  26.628  26.005  1.00  0.00     0.016 A 
ATOM     36  C   UNL A   1      42.466  24.873  27.215  1.00  0.00     0.016 A 
ATOM     37  C   UNL A   1      43.060  27.593  26.836  1.00  0.00     0.010 A 
ATOM     38  C   UNL A   1      41.923  25.832  28.066  1.00  0.00     0.010 A 
ATOM     39  C   UNL A   1      42.231  27.191  27.890  1.00  0.00    -0.014 A 
BRANCH  39  40
ATOM     40  C   UNL A   1      41.842  28.139  28.953  1.00  0.00     0.031 A 
ATOM     41  C   UNL A   1      42.641  28.120  30.223  1.00  0.00     0.074 A 
ATOM     42  C   UNL A   1      40.753  28.916  28.829  1.00  0.00     0.049 A 
ATOM     43  N   UNL A   1      42.400  28.706  31.365  1.00  0.00    -0.248 NA
ATOM     44  C   UNL A   1      43.871  27.310  30.206  1.00  0.00     0.031 C 
ATOM     45  C   UNL A   1      39.923  29.024  27.632  1.00  0.00     0.029 A 
ATOM     46  N   UNL A   1      40.139  29.733  29.744  1.00  0.00    -0.354 N 
ATOM     47  C   UNL A   1      43.437  28.324  32.204  1.00  0.00     0.074 A 
ATOM     48  C   UNL A   1      44.302  27.445  31.449  1.00  0.00     0.031 C 
ATOM     49  C   UNL A   1      38.881  29.832  27.899  1.00  0.00     0.029 A 
ATOM     50  C   UNL A   1      38.956  30.264  29.294  1.00  0.00     0.049 A 
ATOM     51  H   UNL A   1      40.511  29.921  30.636  1.00  0.00     0.167 HD
ATOM     52  C   UNL A   1      43.643  28.676  33.493  1.00  0.00     0.037 A 
ATOM     53  C   UNL A   1      38.025  30.983  29.955  1.00  0.00     0.037 A 
ATOM     54  C   UNL A   1      42.774  29.545  34.235  1.00  0.00     0.049 A 
ATOM     55  C   UNL A   1      38.248  31.307  31.412  1.00  0.00     0.074 A 
ATOM     56  C   UNL A   1      42.917  30.007  35.530  1.00  0.00     0.029 A 
ATOM     57  N   UNL A   1      41.588  30.071  33.745  1.00  0.00    -0.354 N 
ATOM     58  N   UNL A   1      39.259  30.993  32.185  1.00  0.00    -0.248 NA
ATOM     59  C   UNL A   1      37.197  32.080  32.089  1.00  0.00     0.031 C 
ATOM     60  C   UNL A   1      41.788  30.770  35.843  1.00  0.00     0.029 A 
ATOM     61  C   UNL A   1      40.968  30.823  34.727  1.00  0.00     0.049 A 
ATOM     62  H   UNL A   1      41.240  29.930  32.836  1.00  0.00     0.167 HD
ATOM     63  C   UNL A   1      38.980  31.548  33.428  1.00  0.00     0.074 A 
ATOM     64  C   UNL A   1      37.708  32.230  33.303  1.00  0.00     0.031 C 
ATOM     65  C   UNL A   1      39.706  31.499  34.572  1.00  0.00     0.037 A 
BRANCH  52  66
ATOM     66  C   UNL A   1      44.837  28.093  34.187  1.00  0.00     0.064 A 
ATOM     67  C   UNL A   1      46.062  28.772  34.243  1.00  0.00     0.173 A 
ATOM     68  C   UNL A   1      44.743  26.847  34.825  1.00  0.00     0.173 A 
ATOM     69  F   UNL A   1      46.206  29.956  33.629  1.00  0.00    -0.203 F 
ATOM     70  C   UNL A   1      47.156  28.217  34.899  1.00  0.00     0.198 A 
ATOM     71  C   UNL A   1      45.832  26.307  35.502  1.00  0.00     0.198 A 
ATOM     72  F   UNL A   1      43.593  26.156  34.794  1.00  0.00    -0.203 F 
ATOM     73  F   UNL A   1      48.330  28.863  34.907  1.00  0.00    -0.200 F 
ATOM     74  C   UNL A   1      47.038  26.989  35.535  1.00  0.00     0.200 A 
ATOM     75  F   UNL A   1      45.714  25.124  36.121  1.00  0.00    -0.200 F 
ATOM     76  F   UNL A   1      48.092  26.459  36.172  1.00  0.00    -0.200 F 
ENDBRANCH  52  66
BRANCH  53  77
ATOM     77  C   UNL A   1      36.781  31.414  29.265  1.00  0.00     0.064 A 
ATOM     78  C   UNL A   1      35.761  30.497  28.976  1.00  0.00     0.173 A 
ATOM     79  C   UNL A   1      36.601  32.741  28.849  1.00  0.00     0.173 A 
ATOM     80  F   UNL A   1      35.898  29.211  29.330  1.00  0.00    -0.203 F 
ATOM     81  C   UNL A   1      34.619  30.885  28.277  1.00  0.00     0.198 A 
ATOM     82  C   UNL A   1      35.446  33.135  28.174  1.00  0.00     0.198 A 
ATOM     83  F   UNL A   1      37.546  33.658  29.096  1.00  0.00    -0.203 F 
ATOM     84  F   UNL A   1      33.684  29.977  27.968  1.00  0.00    -0.200 F 
ATOM     85  C   UNL A   1      34.461  32.204  27.880  1.00  0.00     0.200 A 
ATOM     86  F   UNL A   1      35.293  34.413  27.801  1.00  0.00    -0.200 F 
ATOM     87  F   UNL A   1      33.364  32.577  27.206  1.00  0.00    -0.200 F 
ENDBRANCH  53  77
BRANCH  65  88
ATOM     88  C   UNL A   1      39.164  32.221  35.769  1.00  0.00     0.064 A 
ATOM     89  C   UNL A   1      38.361  31.568  36.715  1.00  0.00     0.173 A 
ATOM     90  C   UNL A   1      39.515  33.557  36.011  1.00  0.00     0.173 A 
ATOM     91  F   UNL A   1      37.987  30.295  36.521  1.00  0.00    -0.203 F 
ATOM     92  C   UNL A   1      37.920  32.233  37.856  1.00  0.00     0.198 A 
ATOM     93  C   UNL A   1      39.095  34.211  37.166  1.00  0.00     0.198 A 
ATOM     94  F   UNL A   1      40.288  34.222  35.139  1.00  0.00    -0.203 F 
ATOM     95  F   UNL A   1      37.127  31.602  38.733  1.00  0.00    -0.200 F 
ATOM     96  C   UNL A   1      38.295  33.549  38.086  1.00  0.00     0.200 A 
ATOM     97  F   UNL A   1      39.472  35.476  37.393  1.00  0.00    -0.200 F 
ATOM     98  F   UNL A   1      37.884  34.181  39.193  1.00  0.00    -0.200 F 
ENDBRANCH  65  88
ENDBRANCH  39  40
ENDBRANCH  32  34
ENDBRANCH  31  32
ENDBRANCH  30  31
ENDBRANCH  29  30
ENDBRANCH   1  29
TORSDOF 17
ENDMDL
MODEL 2
REMARK VINA RESULT:     -12.4      5.709     10.689
REMARK SMILES O=C(CCOc1cc(-c2ccncc2)nc(-c2ccc(C(F)(F)F)cc2)n1)OCCOC(=O)c1ccc(-c2c3nc(c(-c4c(F)c(F)c(F)c(F)c4F)c4ccc([nH]4)c(-c4c(F)c(F)c(F)c(F)c4F)c4nc(c(-c5c(F)c(F)c(F)c(F)c5F)c5ccc2[nH]5)C=C4)C=C3)cc1
REMARK SMILES IDX 28 1 2 2 1 3 3 4 4 5 5 6 6 7 7 8 27 9 8 10 16 11 15 12 9 13
REMARK SMILES IDX 10 14 14 15 11 16 13 17 12 18 17 19 18 20 26 21 19 22 25 23
REMARK SMILES IDX 20 24 21 25 22 26 23 27 24 28 29 29 30 30 31 31 32 32 33 33
REMARK SMILES IDX 34 34 35 35 96 36 36 37 95 38 37 39 38 40 39 41 89 42 40 43
REMARK SMILES IDX 94 44 88 45 90 46 41 47 93 48 87 49 86 50 42 52 74 53 54 54
REMARK SMILES IDX 73 55 55 56 58 57 72 58 91 59 56 60 57 61 71 63 92 64 59 65
REMARK SMILES IDX 43 66 44 67 52 68 45 69 46 70 50 71 53 72 47 73 48 74 51 75
REMARK SMILES IDX 49 76 75 77 76 78 84 79 77 80 78 81 82 82 85 83 79 84 80 85
REMARK SMILES IDX 83 86 81 87 60 88 61 89 69 90 62 91 63 92 67 93 70 94 64 95
REMARK SMILES IDX 65 96 68 97 66 98
REMARK H PARENT 90 51 58 62
REMARK Flexibility Score: inf
ROOT
ATOM      1  O   UNL A   1      33.818  33.206  29.458  1.00  0.00    -0.462 OA
ENDROOT
BRANCH   1   2
ATOM      2  C   UNL A   1      34.038  32.740  28.212  1.00  0.00     0.309 C 
ATOM      3  O   UNL A   1      35.105  32.981  27.647  1.00  0.00    -0.252 OA
BRANCH   2   4
ATOM      4  C   UNL A   1      33.065  31.795  27.578  1.00  0.00     0.164 C 
BRANCH   4   5
ATOM      5  C   UNL A   1      33.712  30.419  27.451  1.00  0.00     0.243 C 
BRANCH   5   6
ATOM      6  O   UNL A   1      34.044  30.072  26.109  1.00  0.00    -0.477 OA
BRANCH   6   7
ATOM      7  C   UNL A   1      33.277  29.186  25.415  1.00  0.00     0.217 A 
ATOM      8  C   UNL A   1      31.981  29.370  25.007  1.00  0.00     0.097 A 
ATOM      9  N   UNL A   1      33.959  28.085  25.097  1.00  0.00    -0.193 NA
ATOM     10  C   UNL A   1      31.514  28.503  24.035  1.00  0.00     0.078 A 
ATOM     11  C   UNL A   1      33.346  27.186  24.307  1.00  0.00     0.163 A 
ATOM     12  N   UNL A   1      32.181  27.390  23.675  1.00  0.00    -0.228 NA
BRANCH  10  13
ATOM     13  C   UNL A   1      30.328  28.849  23.247  1.00  0.00     0.003 A 
ATOM     14  C   UNL A   1      30.379  29.916  22.339  1.00  0.00     0.030 A 
ATOM     15  C   UNL A   1      29.099  28.212  23.437  1.00  0.00     0.030 A 
ATOM     16  C   UNL A   1      29.220  30.312  21.694  1.00  0.00     0.111 A 
ATOM     17  C   UNL A   1      27.998  28.669  22.728  1.00  0.00     0.111 A 
ATOM     18  N   UNL A   1      28.029  29.705  21.865  1.00  0.00    -0.265 NA
ENDBRANCH  10  13
BRANCH  11  19
ATOM     19  C   UNL A   1      33.891  25.826  24.348  1.00  0.00     0.019 A 
ATOM     20  C   UNL A   1      34.355  25.318  25.578  1.00  0.00     0.012 A 
ATOM     21  C   UNL A   1      33.931  24.982  23.231  1.00  0.00     0.012 A 
ATOM     22  C   UNL A   1      34.832  24.016  25.696  1.00  0.00     0.014 A 
ATOM     23  C   UNL A   1      34.428  23.675  23.341  1.00  0.00     0.014 A 
ATOM     24  C   UNL A   1      34.876  23.180  24.576  1.00  0.00     0.056 A 
BRANCH  24  25
ATOM     25  C   UNL A   1      35.391  21.771  24.734  1.00  0.00     0.416 C 
ATOM     26  F   UNL A   1      35.826  21.517  26.001  1.00  0.00    -0.166 F 
ATOM     27  F   UNL A   1      34.434  20.837  24.476  1.00  0.00    -0.166 F 
ATOM     28  F   UNL A   1      36.436  21.473  23.914  1.00  0.00    -0.166 F 
ENDBRANCH  24  25
ENDBRANCH  11  19
ENDBRANCH   6   7
ENDBRANCH   5   6
ENDBRANCH   4   5
ENDBRANCH   2   4
ENDBRANCH   1   2
BRANCH   1  29
ATOM     29  C   UNL A   1      33.980  34.565  29.922  1.00  0.00     0.274 C 
BRANCH  29  30
ATOM     30  C   UNL A   1      34.504  34.540  31.357  1.00  0.00     0.275 C 
BRANCH  30  31
ATOM     31  O   UNL A   1      35.806  33.936  31.363  1.00  0.00    -0.458 OA
BRANCH  31  32
ATOM     32  C   UNL A   1      35.902  32.772  32.063  1.00  0.00     0.338 C 
ATOM     33  O   UNL A   1      35.105  32.327  32.864  1.00  0.00    -0.246 OA
BRANCH  32  34
ATOM     34  C   UNL A   1      37.046  32.018  31.508  1.00  0.00     0.060 A 
ATOM     35  C   UNL A   1      37.892  31.331  32.389  1.00  0.00     0.016 A 
ATOM     36  C   UNL A   1      37.244  31.937  30.128  1.00  0.00     0.016 A 
ATOM     37  C   UNL A   1      38.932  30.547  31.892  1.00  0.00     0.010 A 
ATOM     38  C   UNL A   1      38.302  31.181  29.633  1.00  0.00     0.010 A 
ATOM     39  C   UNL A   1      39.159  30.498  30.512  1.00  0.00    -0.014 A 
BRANCH  39  40
ATOM     40  C   UNL A   1      40.403  29.919  29.967  1.00  0.00     0.031 A 
ATOM     41  C   UNL A   1      41.557  30.850  29.742  1.00  0.00     0.074 A 
ATOM     42  C   UNL A   1      40.466  28.631  29.591  1.00  0.00     0.049 A 
ATOM     43  N   UNL A   1      42.682  30.642  29.110  1.00  0.00    -0.248 NA
ATOM     44  C   UNL A   1      41.413  32.210  30.289  1.00  0.00     0.031 C 
ATOM     45  C   UNL A   1      39.409  27.640  29.785  1.00  0.00     0.029 A 
ATOM     46  N   UNL A   1      41.454  27.948  28.930  1.00  0.00    -0.354 N 
ATOM     47  C   UNL A   1      43.369  31.845  29.170  1.00  0.00     0.074 A 
ATOM     48  C   UNL A   1      42.534  32.785  29.885  1.00  0.00     0.031 C 
ATOM     49  C   UNL A   1      39.791  26.483  29.216  1.00  0.00     0.029 A 
ATOM     50  C   UNL A   1      41.100  26.666  28.590  1.00  0.00     0.049 A 
ATOM     51  H   UNL A   1      42.333  28.339  28.719  1.00  0.00     0.167 HD
ATOM     52  C   UNL A   1      44.590  32.138  28.668  1.00  0.00     0.037 A 
ATOM     53  C   UNL A   1      41.748  25.765  27.825  1.00  0.00     0.037 A 
ATOM     54  C   UNL A   1      45.409  31.198  27.955  1.00  0.00     0.049 A 
ATOM     55  C   UNL A   1      43.080  26.138  27.221  1.00  0.00     0.074 A 
ATOM     56  C   UNL A   1      46.682  31.375  27.448  1.00  0.00     0.029 A 
ATOM     57  N   UNL A   1      45.021  29.905  27.636  1.00  0.00    -0.354 N 
ATOM     58  N   UNL A   1      43.753  27.258  27.329  1.00  0.00    -0.248 NA
ATOM     59  C   UNL A   1      43.738  25.125  26.384  1.00  0.00     0.031 C 
ATOM     60  C   UNL A   1      47.045  30.205  26.774  1.00  0.00     0.029 A 
ATOM     61  C   UNL A   1      46.017  29.284  26.904  1.00  0.00     0.049 A 
ATOM     62  H   UNL A   1      44.165  29.492  27.892  1.00  0.00     0.167 HD
ATOM     63  C   UNL A   1      44.921  27.077  26.598  1.00  0.00     0.074 A 
ATOM     64  C   UNL A   1      44.871  25.734  26.059  1.00  0.00     0.031 C 
ATOM     65  C   UNL A   1      45.944  27.941  26.388  1.00  0.00     0.037 A 
BRANCH  52  66
ATOM     66  C   UNL A   1      45.094  33.537  28.846  1.00  0.00     0.064 A 
ATOM     67  C   UNL A   1      44.813  34.546  27.914  1.00  0.00     0.173 A 
ATOM     68  C   UNL A   1      45.848  33.877  29.979  1.00  0.00     0.173 A 
ATOM     69  F   UNL A   1      44.113  34.264  26.804  1.00  0.00    -0.203 F 
ATOM     70  C   UNL A   1      45.284  35.842  28.100  1.00  0.00     0.198 A 
ATOM     71  C   UNL A   1      46.296  35.180  30.175  1.00  0.00     0.198 A 
ATOM     72  F   UNL A   1      46.148  32.945  30.896  1.00  0.00    -0.203 F 
ATOM     73  F   UNL A   1      45.039  36.783  27.178  1.00  0.00    -0.200 F 
ATOM     74  C   UNL A   1      46.018  36.160  29.234  1.00  0.00     0.200 A 
ATOM     75  F   UNL A   1      46.999  35.486  31.274  1.00  0.00    -0.200 F 
ATOM     76  F   UNL A   1      46.465  37.411  29.416  1.00  0.00    -0.200 F 
ENDBRANCH  52  66
BRANCH  53  77
ATOM     77  C   UNL A   1      41.139  24.437  27.550  1.00  0.00     0.064 A 
ATOM     78  C   UNL A   1      41.670  23.268  28.111  1.00  0.00     0.173 A 
ATOM     79  C   UNL A   1      40.037  24.304  26.692  1.00  0.00     0.173 A 
ATOM     80  F   UNL A   1      42.741  23.340  28.916  1.00  0.00    -0.203 F 
ATOM     81  C   UNL A   1      41.138  22.016  27.809  1.00  0.00     0.198 A 
ATOM     82  C   UNL A   1      39.487  23.054  26.411  1.00  0.00     0.198 A 
ATOM     83  F   UNL A   1      39.490  25.389  26.125  1.00  0.00    -0.203 F 
ATOM     84  F   UNL A   1      41.699  20.911  28.318  1.00  0.00    -0.200 F 
ATOM     85  C   UNL A   1      40.046  21.910  26.962  1.00  0.00     0.200 A 
ATOM     86  F   UNL A   1      38.425  22.957  25.601  1.00  0.00    -0.200 F 
ATOM     87  F   UNL A   1      39.535  20.706  26.669  1.00  0.00    -0.200 F 
ENDBRANCH  53  77
BRANCH  65  88
ATOM     88  C   UNL A   1      47.103  27.459  25.567  1.00  0.00     0.064 A 
ATOM     89  C   UNL A   1      47.166  27.687  24.185  1.00  0.00     0.173 A 
ATOM     90  C   UNL A   1      48.195  26.831  26.183  1.00  0.00     0.173 A 
ATOM     91  F   UNL A   1      46.140  28.272  23.550  1.00  0.00    -0.203 F 
ATOM     92  C   UNL A   1      48.278  27.293  23.448  1.00  0.00     0.198 A 
ATOM     93  C   UNL A   1      49.317  26.462  25.447  1.00  0.00     0.198 A 
ATOM     94  F   UNL A   1      48.185  26.598  27.504  1.00  0.00    -0.203 F 
ATOM     95  F   UNL A   1      48.306  27.491  22.122  1.00  0.00    -0.200 F 
ATOM     96  C   UNL A   1      49.356  26.690  24.080  1.00  0.00     0.200 A 
ATOM     97  F   UNL A   1      50.364  25.895  26.063  1.00  0.00    -0.200 F 
ATOM     98  F   UNL A   1      50.433  26.326  23.370  1.00  0.00    -0.200 F 
ENDBRANCH  65  88
ENDBRANCH  39  40
ENDBRANCH  32  34
ENDBRANCH  31  32
ENDBRANCH  30  31
ENDBRANCH  29  30
ENDBRANCH   1  29
TORSDOF 17
ENDMDL
MODEL 3
REMARK VINA RESULT:     -12.2      4.525      9.634
REMARK SMILES O=C(CCOc1cc(-c2ccncc2)nc(-c2ccc(C(F)(F)F)cc2)n1)OCCOC(=O)c1ccc(-c2c3nc(c(-c4c(F)c(F)c(F)c(F)c4F)c4ccc([nH]4)c(-c4c(F)c(F)c(F)c(F)c4F)c4nc(c(-c5c(F)c(F)c(F)c(F)c5F)c5ccc2[nH]5)C=C4)C=C3)cc1
REMARK SMILES IDX 28 1 2 2 1 3 3 4 4 5 5 6 6 7 7 8 27 9 8 10 16 11 15 12 9 13
REMARK SMILES IDX 10 14 14 15 11 16 13 17 12 18 17 19 18 20 26 21 19 22 25 23
REMARK SMILES IDX 20 24 21 25 22 26 23 27 24 28 29 29 30 30 31 31 32 32 33 33
REMARK SMILES IDX 34 34 35 35 96 36 36 37 95 38 37 39 38 40 39 41 89 42 40 43
REMARK SMILES IDX 94 44 88 45 90 46 41 47 93 48 87 49 86 50 42 52 74 53 54 54
REMARK SMILES IDX 73 55 55 56 58 57 72 58 91 59 56 60 57 61 71 63 92 64 59 65
REMARK SMILES IDX 43 66 44 67 52 68 45 69 46 70 50 71 53 72 47 73 48 74 51 75
REMARK SMILES IDX 49 76 75 77 76 78 84 79 77 80 78 81 82 82 85 83 79 84 80 85
REMARK SMILES IDX 83 86 81 87 60 88 61 89 69 90 62 91 63 92 67 93 70 94 64 95
REMARK SMILES IDX 65 96 68 97 66 98
REMARK H PARENT 90 51 58 62
REMARK Flexibility Score: inf
ROOT
ATOM      1  O   UNL A   1      33.813  34.172  28.338  1.00  0.00    -0.462 OA
ENDROOT
BRANCH   1   2
ATOM      2  C   UNL A   1      34.736  33.225  28.077  1.00  0.00     0.309 C 
ATOM      3  O   UNL A   1      35.840  33.551  27.639  1.00  0.00    -0.252 OA
BRANCH   2   4
ATOM      4  C   UNL A   1      34.490  31.802  28.471  1.00  0.00     0.164 C 
BRANCH   4   5
ATOM      5  C   UNL A   1      33.419  31.207  27.561  1.00  0.00     0.243 C 
BRANCH   5   6
ATOM      6  O   UNL A   1      33.935  30.270  26.619  1.00  0.00    -0.477 OA
BRANCH   6   7
ATOM      7  C   UNL A   1      33.092  29.475  25.904  1.00  0.00     0.217 A 
ATOM      8  C   UNL A   1      31.787  29.744  25.585  1.00  0.00     0.097 A 
ATOM      9  N   UNL A   1      33.704  28.374  25.465  1.00  0.00    -0.193 NA
ATOM     10  C   UNL A   1      31.229  28.977  24.578  1.00  0.00     0.078 A 
ATOM     11  C   UNL A   1      33.010  27.567  24.645  1.00  0.00     0.163 A 
ATOM     12  N   UNL A   1      31.823  27.869  24.097  1.00  0.00    -0.228 NA
BRANCH  10  13
ATOM     13  C   UNL A   1      30.020  29.434  23.886  1.00  0.00     0.003 A 
ATOM     14  C   UNL A   1      29.268  28.529  23.123  1.00  0.00     0.030 A 
ATOM     15  C   UNL A   1      29.633  30.776  23.876  1.00  0.00     0.030 A 
ATOM     16  C   UNL A   1      28.201  28.998  22.376  1.00  0.00     0.111 A 
ATOM     17  C   UNL A   1      28.537  31.146  23.111  1.00  0.00     0.111 A 
ATOM     18  N   UNL A   1      27.815  30.289  22.358  1.00  0.00    -0.265 NA
ENDBRANCH  10  13
BRANCH  11  19
ATOM     19  C   UNL A   1      33.492  26.186  24.551  1.00  0.00     0.019 A 
ATOM     20  C   UNL A   1      33.826  25.503  25.738  1.00  0.00     0.012 A 
ATOM     21  C   UNL A   1      33.594  25.490  23.340  1.00  0.00     0.012 A 
ATOM     22  C   UNL A   1      34.237  24.173  25.722  1.00  0.00     0.014 A 
ATOM     23  C   UNL A   1      34.024  24.155  23.318  1.00  0.00     0.014 A 
ATOM     24  C   UNL A   1      34.343  23.485  24.509  1.00  0.00     0.056 A 
BRANCH  24  25
ATOM     25  C   UNL A   1      34.783  22.042  24.523  1.00  0.00     0.416 C 
ATOM     26  F   UNL A   1      33.889  21.221  23.905  1.00  0.00    -0.166 F 
ATOM     27  F   UNL A   1      35.967  21.855  23.876  1.00  0.00    -0.166 F 
ATOM     28  F   UNL A   1      34.956  21.533  25.774  1.00  0.00    -0.166 F 
ENDBRANCH  24  25
ENDBRANCH  11  19
ENDBRANCH   6   7
ENDBRANCH   5   6
ENDBRANCH   4   5
ENDBRANCH   2   4
ENDBRANCH   1   2
BRANCH   1  29
ATOM     29  C   UNL A   1      34.025  35.599  28.422  1.00  0.00     0.274 C 
BRANCH  29  30
ATOM     30  C   UNL A   1      32.907  36.220  29.256  1.00  0.00     0.275 C 
BRANCH  30  31
ATOM     31  O   UNL A   1      32.535  35.295  30.290  1.00  0.00    -0.458 OA
BRANCH  31  32
ATOM     32  C   UNL A   1      32.732  35.740  31.562  1.00  0.00     0.338 C 
ATOM     33  O   UNL A   1      32.018  36.486  32.200  1.00  0.00    -0.246 OA
BRANCH  32  34
ATOM     34  C   UNL A   1      33.861  34.970  32.127  1.00  0.00     0.060 A 
ATOM     35  C   UNL A   1      35.145  35.531  32.091  1.00  0.00     0.016 A 
ATOM     36  C   UNL A   1      33.645  33.736  32.742  1.00  0.00     0.016 A 
ATOM     37  C   UNL A   1      36.217  34.866  32.684  1.00  0.00     0.010 A 
ATOM     38  C   UNL A   1      34.720  33.056  33.307  1.00  0.00     0.010 A 
ATOM     39  C   UNL A   1      36.010  33.610  33.265  1.00  0.00    -0.014 A 
BRANCH  39  40
ATOM     40  C   UNL A   1      37.151  32.754  33.648  1.00  0.00     0.031 A 
ATOM     41  C   UNL A   1      37.849  33.068  34.938  1.00  0.00     0.074 A 
ATOM     42  C   UNL A   1      37.611  31.797  32.824  1.00  0.00     0.049 A 
ATOM     43  N   UNL A   1      38.974  32.600  35.410  1.00  0.00    -0.248 NA
ATOM     44  C   UNL A   1      37.196  34.062  35.806  1.00  0.00     0.031 C 
ATOM     45  C   UNL A   1      36.994  31.400  31.561  1.00  0.00     0.029 A 
ATOM     46  N   UNL A   1      38.731  31.012  32.917  1.00  0.00    -0.354 N 
ATOM     47  C   UNL A   1      39.170  33.253  36.617  1.00  0.00     0.074 A 
ATOM     48  C   UNL A   1      38.060  34.161  36.803  1.00  0.00     0.031 C 
ATOM     49  C   UNL A   1      37.769  30.470  30.973  1.00  0.00     0.029 A 
ATOM     50  C   UNL A   1      38.950  30.238  31.804  1.00  0.00     0.049 A 
ATOM     51  H   UNL A   1      39.322  31.004  33.704  1.00  0.00     0.167 HD
ATOM     52  C   UNL A   1      40.191  33.108  37.491  1.00  0.00     0.037 A 
ATOM     53  C   UNL A   1      40.007  29.465  31.483  1.00  0.00     0.037 A 
ATOM     54  C   UNL A   1      41.293  32.208  37.294  1.00  0.00     0.049 A 
ATOM     55  C   UNL A   1      41.165  29.371  32.446  1.00  0.00     0.074 A 
ATOM     56  C   UNL A   1      42.354  31.946  38.139  1.00  0.00     0.029 A 
ATOM     57  N   UNL A   1      41.477  31.434  36.158  1.00  0.00    -0.354 N 
ATOM     58  N   UNL A   1      41.319  29.945  33.615  1.00  0.00    -0.248 NA
ATOM     59  C   UNL A   1      42.298  28.526  32.043  1.00  0.00     0.031 C 
ATOM     60  C   UNL A   1      43.211  31.051  37.491  1.00  0.00     0.029 A 
ATOM     61  C   UNL A   1      42.657  30.720  36.264  1.00  0.00     0.049 A 
ATOM     62  H   UNL A   1      40.861  31.398  35.392  1.00  0.00     0.167 HD
ATOM     63  C   UNL A   1      42.549  29.514  34.096  1.00  0.00     0.074 A 
ATOM     64  C   UNL A   1      43.097  28.619  33.097  1.00  0.00     0.031 C 
ATOM     65  C   UNL A   1      43.174  29.829  35.258  1.00  0.00     0.037 A 
BRANCH  52  66
ATOM     66  C   UNL A   1      40.178  33.966  38.720  1.00  0.00     0.064 A 
ATOM     67  C   UNL A   1      39.543  33.554  39.899  1.00  0.00     0.173 A 
ATOM     68  C   UNL A   1      40.833  35.206  38.721  1.00  0.00     0.173 A 
ATOM     69  F   UNL A   1      38.886  32.385  39.940  1.00  0.00    -0.203 F 
ATOM     70  C   UNL A   1      39.548  34.362  41.033  1.00  0.00     0.198 A 
ATOM     71  C   UNL A   1      40.858  36.000  39.864  1.00  0.00     0.198 A 
ATOM     72  F   UNL A   1      41.451  35.647  37.614  1.00  0.00    -0.203 F 
ATOM     73  F   UNL A   1      38.901  33.968  42.138  1.00  0.00    -0.200 F 
ATOM     74  C   UNL A   1      40.213  35.580  41.017  1.00  0.00     0.200 A 
ATOM     75  F   UNL A   1      41.506  37.173  39.849  1.00  0.00    -0.200 F 
ATOM     76  F   UNL A   1      40.223  36.353  42.112  1.00  0.00    -0.200 F 
ENDBRANCH  52  66
BRANCH  53  77
ATOM     77  C   UNL A   1      40.045  28.748  30.182  1.00  0.00     0.064 A 
ATOM     78  C   UNL A   1      40.645  29.327  29.056  1.00  0.00     0.173 A 
ATOM     79  C   UNL A   1      39.452  27.486  30.027  1.00  0.00     0.173 A 
ATOM     80  F   UNL A   1      41.202  30.544  29.146  1.00  0.00    -0.203 F 
ATOM     81  C   UNL A   1      40.631  28.684  27.819  1.00  0.00     0.198 A 
ATOM     82  C   UNL A   1      39.462  26.830  28.797  1.00  0.00     0.198 A 
ATOM     83  F   UNL A   1      38.862  26.887  31.071  1.00  0.00    -0.203 F 
ATOM     84  F   UNL A   1      41.165  29.284  26.748  1.00  0.00    -0.200 F 
ATOM     85  C   UNL A   1      40.043  27.435  27.692  1.00  0.00     0.200 A 
ATOM     86  F   UNL A   1      38.902  25.619  28.680  1.00  0.00    -0.200 F 
ATOM     87  F   UNL A   1      40.027  26.817  26.502  1.00  0.00    -0.200 F 
ENDBRANCH  53  77
BRANCH  65  88
ATOM     88  C   UNL A   1      44.501  29.185  35.528  1.00  0.00     0.064 A 
ATOM     89  C   UNL A   1      45.704  29.819  35.187  1.00  0.00     0.173 A 
ATOM     90  C   UNL A   1      44.570  27.959  36.205  1.00  0.00     0.173 A 
ATOM     91  F   UNL A   1      45.690  30.986  34.527  1.00  0.00    -0.203 F 
ATOM     92  C   UNL A   1      46.930  29.240  35.504  1.00  0.00     0.198 A 
ATOM     93  C   UNL A   1      45.796  27.396  36.545  1.00  0.00     0.198 A 
ATOM     94  F   UNL A   1      43.446  27.318  36.560  1.00  0.00    -0.203 F 
ATOM     95  F   UNL A   1      48.069  29.846  35.141  1.00  0.00    -0.200 F 
ATOM     96  C   UNL A   1      46.976  28.035  36.191  1.00  0.00     0.200 A 
ATOM     97  F   UNL A   1      45.838  26.241  37.222  1.00  0.00    -0.200 F 
ATOM     98  F   UNL A   1      48.156  27.489  36.510  1.00  0.00    -0.200 F 
ENDBRANCH  65  88
ENDBRANCH  39  40
ENDBRANCH  32  34
ENDBRANCH  31  32
ENDBRANCH  30  31
ENDBRANCH  29  30
ENDBRANCH   1  29
TORSDOF 17
ENDMDL
