MODEL 1
REMARK VINA RESULT:     -11.6      0.000      0.000
REMARK SMILES Cc1[nH]c(=O)n(C)c(=O)c1CC(=O)OCCOC(=O)c1ccc(-c2c3nc(c(-c4c(F)c(F)c(F)c(F)c4F)c4ccc([nH]4)c(-c4c(F)c(F)c(F)c(F)c4F)c4nc(c(-c5c(F)c(F)c(F)c(F)c5F)c5ccc2[nH]5)C=C4)C=C3)cc1
REMARK SMILES IDX 16 1 15 2 14 3 12 4 13 5 11 6 10 7 1 8 2 9 3 10 4 11 8 13
REMARK SMILES IDX 5 14 6 15 9 16 7 17 17 18 18 19 19 20 20 21 21 22 82 23
REMARK SMILES IDX 22 24 81 25 23 26 24 27 25 28 75 29 26 30 80 31 74 32 76 33
REMARK SMILES IDX 27 34 79 35 73 36 72 37 28 39 60 40 40 41 59 42 41 43 44 44
REMARK SMILES IDX 58 45 77 46 42 47 43 48 57 50 78 51 45 52 29 53 30 54 38 55
REMARK SMILES IDX 31 56 32 57 36 58 39 59 33 60 34 61 37 62 35 63 61 64 62 65
REMARK SMILES IDX 70 66 63 67 64 68 68 69 71 70 65 71 66 72 69 73 67 74 46 75
REMARK SMILES IDX 47 76 55 77 48 78 49 79 53 80 56 81 50 82 51 83 54 84 52 85
REMARK H PARENT 3 12 76 38 44 49
REMARK Flexibility Score: inf
ROOT
ATOM      1  C   UNL A   1      31.825  30.382  26.293  1.00  0.00     0.275 C 
ENDROOT
BRANCH   1   2
ATOM      2  C   UNL A   1      31.745  29.029  26.998  1.00  0.00     0.274 C 
BRANCH   2   3
ATOM      3  O   UNL A   1      32.427  28.015  26.232  1.00  0.00    -0.462 OA
BRANCH   3   4
ATOM      4  C   UNL A   1      31.657  26.974  25.816  1.00  0.00     0.310 C 
ATOM      5  O   UNL A   1      31.018  26.236  26.560  1.00  0.00    -0.252 OA
BRANCH   4   6
ATOM      6  C   UNL A   1      31.684  26.748  24.312  1.00  0.00     0.165 C 
BRANCH   6   7
ATOM      7  C   UNL A   1      31.092  27.849  23.480  1.00  0.00     0.048 A 
ATOM      8  C   UNL A   1      33.290  28.809  22.752  1.00  0.00     0.065 C 
ATOM      9  C   UNL A   1      31.790  28.764  22.787  1.00  0.00     0.026 A 
ATOM     10  N   UNL A   1      31.129  29.720  22.067  1.00  0.00    -0.311 N 
ATOM     11  C   UNL A   1      29.770  29.868  22.012  1.00  0.00     0.328 A 
ATOM     12  H   UNL A   1      31.676  30.352  21.545  1.00  0.00     0.171 HD
ATOM     13  C   UNL A   1      29.604  27.869  23.373  1.00  0.00     0.259 A 
ATOM     14  O   UNL A   1      29.285  30.777  21.342  1.00  0.00    -0.248 OA
ATOM     15  N   UNL A   1      29.034  28.944  22.725  1.00  0.00    -0.263 N 
ATOM     16  O   UNL A   1      28.964  26.924  23.832  1.00  0.00    -0.269 OA
ATOM     17  C   UNL A   1      27.590  29.064  22.686  1.00  0.00     0.158 C 
ENDBRANCH   6   7
ENDBRANCH   4   6
ENDBRANCH   3   4
ENDBRANCH   2   3
ENDBRANCH   1   2
BRANCH   1  18
ATOM     18  O   UNL A   1      33.192  30.823  26.273  1.00  0.00    -0.458 OA
BRANCH  18  19
ATOM     19  C   UNL A   1      33.528  31.742  27.209  1.00  0.00     0.338 C 
ATOM     20  O   UNL A   1      32.947  32.780  27.471  1.00  0.00    -0.246 OA
BRANCH  19  21
ATOM     21  C   UNL A   1      34.792  31.329  27.847  1.00  0.00     0.060 A 
ATOM     22  C   UNL A   1      34.964  30.025  28.316  1.00  0.00     0.016 A 
ATOM     23  C   UNL A   1      35.789  32.284  28.050  1.00  0.00     0.016 A 
ATOM     24  C   UNL A   1      36.098  29.687  29.048  1.00  0.00     0.010 A 
ATOM     25  C   UNL A   1      36.961  31.925  28.718  1.00  0.00     0.010 A 
ATOM     26  C   UNL A   1      37.113  30.632  29.248  1.00  0.00    -0.014 A 
BRANCH  26  27
ATOM     27  C   UNL A   1      38.313  30.287  30.047  1.00  0.00     0.031 A 
ATOM     28  C   UNL A   1      39.370  29.394  29.461  1.00  0.00     0.074 A 
ATOM     29  C   UNL A   1      38.460  30.778  31.292  1.00  0.00     0.049 A 
ATOM     30  N   UNL A   1      40.414  28.857  30.039  1.00  0.00    -0.248 NA
ATOM     31  C   UNL A   1      39.233  29.058  28.035  1.00  0.00     0.031 C 
ATOM     32  C   UNL A   1      37.535  31.699  31.951  1.00  0.00     0.029 A 
ATOM     33  N   UNL A   1      39.446  30.572  32.224  1.00  0.00    -0.354 N 
ATOM     34  C   UNL A   1      41.039  28.097  29.059  1.00  0.00     0.074 A 
ATOM     35  C   UNL A   1      40.250  28.228  27.852  1.00  0.00     0.031 C 
ATOM     36  C   UNL A   1      38.009  31.999  33.170  1.00  0.00     0.029 A 
ATOM     37  C   UNL A   1      39.232  31.238  33.404  1.00  0.00     0.049 A 
ATOM     38  H   UNL A   1      40.232  30.001  32.060  1.00  0.00     0.167 HD
ATOM     39  C   UNL A   1      42.172  27.363  29.160  1.00  0.00     0.037 A 
ATOM     40  C   UNL A   1      39.926  31.213  34.558  1.00  0.00     0.037 A 
ATOM     41  C   UNL A   1      42.970  27.262  30.352  1.00  0.00     0.049 A 
ATOM     42  C   UNL A   1      41.140  30.333  34.665  1.00  0.00     0.074 A 
ATOM     43  C   UNL A   1      44.136  26.544  30.553  1.00  0.00     0.029 A 
ATOM     44  N   UNL A   1      42.688  27.910  31.547  1.00  0.00    -0.354 N 
ATOM     45  N   UNL A   1      41.698  29.579  33.750  1.00  0.00    -0.248 NA
ATOM     46  C   UNL A   1      41.811  30.286  35.973  1.00  0.00     0.031 C 
ATOM     47  C   UNL A   1      44.542  26.730  31.878  1.00  0.00     0.029 A 
ATOM     48  C   UNL A   1      43.651  27.595  32.493  1.00  0.00     0.049 A 
ATOM     49  H   UNL A   1      41.919  28.505  31.700  1.00  0.00     0.167 HD
ATOM     50  C   UNL A   1      42.787  28.977  34.364  1.00  0.00     0.074 A 
ATOM     51  C   UNL A   1      42.824  29.467  35.726  1.00  0.00     0.031 C 
ATOM     52  C   UNL A   1      43.672  28.092  33.844  1.00  0.00     0.037 A 
BRANCH  39  53
ATOM     53  C   UNL A   1      42.612  26.593  27.951  1.00  0.00     0.064 A 
ATOM     54  C   UNL A   1      42.149  25.294  27.698  1.00  0.00     0.173 A 
ATOM     55  C   UNL A   1      43.461  27.185  27.004  1.00  0.00     0.173 A 
ATOM     56  F   UNL A   1      41.345  24.680  28.580  1.00  0.00    -0.203 F 
ATOM     57  C   UNL A   1      42.533  24.610  26.547  1.00  0.00     0.198 A 
ATOM     58  C   UNL A   1      43.823  26.508  25.843  1.00  0.00     0.198 A 
ATOM     59  F   UNL A   1      43.927  28.429  27.197  1.00  0.00    -0.203 F 
ATOM     60  F   UNL A   1      42.104  23.357  26.340  1.00  0.00    -0.200 F 
ATOM     61  C   UNL A   1      43.362  25.220  25.617  1.00  0.00     0.200 A 
ATOM     62  F   UNL A   1      44.615  27.103  24.940  1.00  0.00    -0.200 F 
ATOM     63  F   UNL A   1      43.719  24.565  24.504  1.00  0.00    -0.200 F 
ENDBRANCH  39  53
BRANCH  40  64
ATOM     64  C   UNL A   1      39.473  32.037  35.706  1.00  0.00     0.064 A 
ATOM     65  C   UNL A   1      38.507  31.552  36.598  1.00  0.00     0.173 A 
ATOM     66  C   UNL A   1      40.007  33.312  35.950  1.00  0.00     0.173 A 
ATOM     67  F   UNL A   1      37.950  30.350  36.393  1.00  0.00    -0.203 F 
ATOM     68  C   UNL A   1      38.093  32.311  37.691  1.00  0.00     0.198 A 
ATOM     69  C   UNL A   1      39.610  34.059  37.057  1.00  0.00     0.198 A 
ATOM     70  F   UNL A   1      40.931  33.821  35.122  1.00  0.00    -0.203 F 
ATOM     71  F   UNL A   1      37.147  31.837  38.513  1.00  0.00    -0.200 F 
ATOM     72  C   UNL A   1      38.650  33.559  37.923  1.00  0.00     0.200 A 
ATOM     73  F   UNL A   1      40.160  35.259  37.284  1.00  0.00    -0.200 F 
ATOM     74  F   UNL A   1      38.260  34.284  38.982  1.00  0.00    -0.200 F 
ENDBRANCH  40  64
BRANCH  52  75
ATOM     75  C   UNL A   1      44.766  27.602  34.744  1.00  0.00     0.064 A 
ATOM     76  C   UNL A   1      44.628  26.418  35.480  1.00  0.00     0.173 A 
ATOM     77  C   UNL A   1      45.987  28.289  34.819  1.00  0.00     0.173 A 
ATOM     78  F   UNL A   1      43.473  25.735  35.451  1.00  0.00    -0.203 F 
ATOM     79  C   UNL A   1      45.672  25.941  36.268  1.00  0.00     0.198 A 
ATOM     80  C   UNL A   1      47.037  27.797  35.589  1.00  0.00     0.198 A 
ATOM     81  F   UNL A   1      46.168  29.425  34.129  1.00  0.00    -0.203 F 
ATOM     82  F   UNL A   1      45.511  24.822  36.986  1.00  0.00    -0.200 F 
ATOM     83  C   UNL A   1      46.878  26.625  36.314  1.00  0.00     0.200 A 
ATOM     84  F   UNL A   1      48.205  28.453  35.624  1.00  0.00    -0.200 F 
ATOM     85  F   UNL A   1      47.886  26.159  37.063  1.00  0.00    -0.200 F 
ENDBRANCH  52  75
ENDBRANCH  26  27
ENDBRANCH  19  21
ENDBRANCH  18  19
ENDBRANCH   1  18
TORSDOF 12
ENDMDL
MODEL 2
REMARK VINA RESULT:     -11.5      0.363      1.714
REMARK SMILES Cc1[nH]c(=O)n(C)c(=O)c1CC(=O)OCCOC(=O)c1ccc(-c2c3nc(c(-c4c(F)c(F)c(F)c(F)c4F)c4ccc([nH]4)c(-c4c(F)c(F)c(F)c(F)c4F)c4nc(c(-c5c(F)c(F)c(F)c(F)c5F)c5ccc2[nH]5)C=C4)C=C3)cc1
REMARK SMILES IDX 16 1 15 2 14 3 12 4 13 5 11 6 10 7 1 8 2 9 3 10 4 11 8 13
REMARK SMILES IDX 5 14 6 15 9 16 7 17 17 18 18 19 19 20 20 21 21 22 82 23
REMARK SMILES IDX 22 24 81 25 23 26 24 27 25 28 75 29 26 30 80 31 74 32 76 33
REMARK SMILES IDX 27 34 79 35 73 36 72 37 28 39 60 40 40 41 59 42 41 43 44 44
REMARK SMILES IDX 58 45 77 46 42 47 43 48 57 50 78 51 45 52 29 53 30 54 38 55
REMARK SMILES IDX 31 56 32 57 36 58 39 59 33 60 34 61 37 62 35 63 61 64 62 65
REMARK SMILES IDX 70 66 63 67 64 68 68 69 71 70 65 71 66 72 69 73 67 74 46 75
REMARK SMILES IDX 47 76 55 77 48 78 49 79 53 80 56 81 50 82 51 83 54 84 52 85
REMARK H PARENT 3 12 76 38 44 49
REMARK Flexibility Score: inf
ROOT
ATOM      1  C   UNL A   1      31.774  29.940  26.224  1.00  0.00     0.275 C 
ENDROOT
BRANCH   1   2
ATOM      2  C   UNL A   1      31.755  28.745  27.175  1.00  0.00     0.274 C 
BRANCH   2   3
ATOM      3  O   UNL A   1      31.378  27.542  26.473  1.00  0.00    -0.462 OA
BRANCH   3   4
ATOM      4  C   UNL A   1      32.337  27.000  25.675  1.00  0.00     0.310 C 
ATOM      5  O   UNL A   1      33.517  26.878  25.988  1.00  0.00    -0.252 OA
BRANCH   4   6
ATOM      6  C   UNL A   1      31.836  26.587  24.301  1.00  0.00     0.165 C 
BRANCH   6   7
ATOM      7  C   UNL A   1      31.235  27.686  23.471  1.00  0.00     0.048 A 
ATOM      8  C   UNL A   1      33.424  28.613  22.678  1.00  0.00     0.065 C 
ATOM      9  C   UNL A   1      31.925  28.585  22.751  1.00  0.00     0.026 A 
ATOM     10  N   UNL A   1      31.257  29.541  22.037  1.00  0.00    -0.311 N 
ATOM     11  C   UNL A   1      29.899  29.703  22.014  1.00  0.00     0.328 A 
ATOM     12  H   UNL A   1      31.797  30.161  21.495  1.00  0.00     0.171 HD
ATOM     13  C   UNL A   1      29.745  27.720  23.401  1.00  0.00     0.259 A 
ATOM     14  O   UNL A   1      29.407  30.610  21.346  1.00  0.00    -0.248 OA
ATOM     15  N   UNL A   1      29.171  28.795  22.755  1.00  0.00    -0.263 N 
ATOM     16  O   UNL A   1      29.107  26.788  23.886  1.00  0.00    -0.269 OA
ATOM     17  C   UNL A   1      27.728  28.930  22.751  1.00  0.00     0.158 C 
ENDBRANCH   6   7
ENDBRANCH   4   6
ENDBRANCH   3   4
ENDBRANCH   2   3
ENDBRANCH   1   2
BRANCH   1  18
ATOM     18  O   UNL A   1      33.115  30.446  26.129  1.00  0.00    -0.458 OA
BRANCH  18  19
ATOM     19  C   UNL A   1      33.448  31.404  27.026  1.00  0.00     0.338 C 
ATOM     20  O   UNL A   1      32.857  32.444  27.252  1.00  0.00    -0.246 OA
BRANCH  19  21
ATOM     21  C   UNL A   1      34.723  31.031  27.668  1.00  0.00     0.060 A 
ATOM     22  C   UNL A   1      34.988  29.704  28.013  1.00  0.00     0.016 A 
ATOM     23  C   UNL A   1      35.630  32.037  28.001  1.00  0.00     0.016 A 
ATOM     24  C   UNL A   1      36.124  29.385  28.750  1.00  0.00     0.010 A 
ATOM     25  C   UNL A   1      36.807  31.707  28.674  1.00  0.00     0.010 A 
ATOM     26  C   UNL A   1      37.050  30.383  29.081  1.00  0.00    -0.014 A 
BRANCH  26  27
ATOM     27  C   UNL A   1      38.251  30.056  29.887  1.00  0.00     0.031 A 
ATOM     28  C   UNL A   1      39.318  29.168  29.312  1.00  0.00     0.074 A 
ATOM     29  C   UNL A   1      38.389  30.559  31.128  1.00  0.00     0.049 A 
ATOM     30  N   UNL A   1      40.365  28.645  29.899  1.00  0.00    -0.248 NA
ATOM     31  C   UNL A   1      39.189  28.818  27.889  1.00  0.00     0.031 C 
ATOM     32  C   UNL A   1      37.453  31.478  31.776  1.00  0.00     0.029 A 
ATOM     33  N   UNL A   1      39.374  30.371  32.065  1.00  0.00    -0.354 N 
ATOM     34  C   UNL A   1      41.000  27.883  28.928  1.00  0.00     0.074 A 
ATOM     35  C   UNL A   1      40.215  27.996  27.717  1.00  0.00     0.031 C 
ATOM     36  C   UNL A   1      37.920  31.793  32.993  1.00  0.00     0.029 A 
ATOM     37  C   UNL A   1      39.149  31.045  33.238  1.00  0.00     0.049 A 
ATOM     38  H   UNL A   1      40.165  29.806  31.909  1.00  0.00     0.167 HD
ATOM     39  C   UNL A   1      42.140  27.160  29.039  1.00  0.00     0.037 A 
ATOM     40  C   UNL A   1      39.840  31.037  34.395  1.00  0.00     0.037 A 
ATOM     41  C   UNL A   1      42.934  27.077  30.235  1.00  0.00     0.049 A 
ATOM     42  C   UNL A   1      41.061  30.169  34.514  1.00  0.00     0.074 A 
ATOM     43  C   UNL A   1      44.106  26.372  30.446  1.00  0.00     0.029 A 
ATOM     44  N   UNL A   1      42.642  27.732  31.423  1.00  0.00    -0.354 N 
ATOM     45  N   UNL A   1      41.629  29.412  33.608  1.00  0.00    -0.248 NA
ATOM     46  C   UNL A   1      41.727  30.140  35.825  1.00  0.00     0.031 C 
ATOM     47  C   UNL A   1      44.506  26.573  31.771  1.00  0.00     0.029 A 
ATOM     48  C   UNL A   1      43.604  27.435  32.375  1.00  0.00     0.049 A 
ATOM     49  H   UNL A   1      41.867  28.322  31.568  1.00  0.00     0.167 HD
ATOM     50  C   UNL A   1      42.721  28.825  34.231  1.00  0.00     0.074 A 
ATOM     51  C   UNL A   1      42.749  29.327  35.589  1.00  0.00     0.031 C 
ATOM     52  C   UNL A   1      43.616  27.944  33.722  1.00  0.00     0.037 A 
BRANCH  39  53
ATOM     53  C   UNL A   1      42.591  26.383  27.839  1.00  0.00     0.064 A 
ATOM     54  C   UNL A   1      43.542  26.898  26.946  1.00  0.00     0.173 A 
ATOM     55  C   UNL A   1      42.111  25.085  27.614  1.00  0.00     0.173 A 
ATOM     56  F   UNL A   1      44.022  28.140  27.111  1.00  0.00    -0.203 F 
ATOM     57  C   UNL A   1      43.984  26.145  25.860  1.00  0.00     0.198 A 
ATOM     58  C   UNL A   1      42.573  24.325  26.542  1.00  0.00     0.198 A 
ATOM     59  F   UNL A   1      41.205  24.544  28.443  1.00  0.00    -0.203 F 
ATOM     60  F   UNL A   1      44.869  26.667  25.001  1.00  0.00    -0.200 F 
ATOM     61  C   UNL A   1      43.506  24.857  25.665  1.00  0.00     0.200 A 
ATOM     62  F   UNL A   1      42.120  23.077  26.361  1.00  0.00    -0.200 F 
ATOM     63  F   UNL A   1      43.943  24.129  24.627  1.00  0.00    -0.200 F 
ENDBRANCH  39  53
BRANCH  40  64
ATOM     64  C   UNL A   1      39.374  31.867  35.534  1.00  0.00     0.064 A 
ATOM     65  C   UNL A   1      38.490  31.344  36.487  1.00  0.00     0.173 A 
ATOM     66  C   UNL A   1      39.818  33.187  35.708  1.00  0.00     0.173 A 
ATOM     67  F   UNL A   1      38.019  30.096  36.349  1.00  0.00    -0.203 F 
ATOM     68  C   UNL A   1      38.067  32.109  37.571  1.00  0.00     0.198 A 
ATOM     69  C   UNL A   1      39.413  33.943  36.806  1.00  0.00     0.198 A 
ATOM     70  F   UNL A   1      40.661  33.734  34.821  1.00  0.00    -0.203 F 
ATOM     71  F   UNL A   1      37.198  31.596  38.452  1.00  0.00    -0.200 F 
ATOM     72  C   UNL A   1      38.535  33.405  37.734  1.00  0.00     0.200 A 
ATOM     73  F   UNL A   1      39.878  35.189  36.966  1.00  0.00    -0.200 F 
ATOM     74  F   UNL A   1      38.136  34.137  38.784  1.00  0.00    -0.200 F 
ENDBRANCH  40  64
BRANCH  52  75
ATOM     75  C   UNL A   1      44.711  27.472  34.630  1.00  0.00     0.064 A 
ATOM     76  C   UNL A   1      45.904  28.195  34.770  1.00  0.00     0.173 A 
ATOM     77  C   UNL A   1      44.538  26.323  35.417  1.00  0.00     0.173 A 
ATOM     78  F   UNL A   1      46.120  29.291  34.027  1.00  0.00    -0.203 F 
ATOM     79  C   UNL A   1      46.890  27.780  35.659  1.00  0.00     0.198 A 
ATOM     80  C   UNL A   1      45.516  25.924  36.323  1.00  0.00     0.198 A 
ATOM     81  F   UNL A   1      43.411  25.602  35.322  1.00  0.00    -0.203 F 
ATOM     82  F   UNL A   1      48.035  28.468  35.758  1.00  0.00    -0.200 F 
ATOM     83  C   UNL A   1      46.692  26.651  36.442  1.00  0.00     0.200 A 
ATOM     84  F   UNL A   1      45.319  24.840  37.085  1.00  0.00    -0.200 F 
ATOM     85  F   UNL A   1      47.637  26.260  37.307  1.00  0.00    -0.200 F 
ENDBRANCH  52  75
ENDBRANCH  26  27
ENDBRANCH  19  21
ENDBRANCH  18  19
ENDBRANCH   1  18
TORSDOF 12
ENDMDL
MODEL 3
REMARK VINA RESULT:     -11.5      5.454     10.393
REMARK SMILES Cc1[nH]c(=O)n(C)c(=O)c1CC(=O)OCCOC(=O)c1ccc(-c2c3nc(c(-c4c(F)c(F)c(F)c(F)c4F)c4ccc([nH]4)c(-c4c(F)c(F)c(F)c(F)c4F)c4nc(c(-c5c(F)c(F)c(F)c(F)c5F)c5ccc2[nH]5)C=C4)C=C3)cc1
REMARK SMILES IDX 16 1 15 2 14 3 12 4 13 5 11 6 10 7 1 8 2 9 3 10 4 11 8 13
REMARK SMILES IDX 5 14 6 15 9 16 7 17 17 18 18 19 19 20 20 21 21 22 82 23
REMARK SMILES IDX 22 24 81 25 23 26 24 27 25 28 75 29 26 30 80 31 74 32 76 33
REMARK SMILES IDX 27 34 79 35 73 36 72 37 28 39 60 40 40 41 59 42 41 43 44 44
REMARK SMILES IDX 58 45 77 46 42 47 43 48 57 50 78 51 45 52 29 53 30 54 38 55
REMARK SMILES IDX 31 56 32 57 36 58 39 59 33 60 34 61 37 62 35 63 61 64 62 65
REMARK SMILES IDX 70 66 63 67 64 68 68 69 71 70 65 71 66 72 69 73 67 74 46 75
REMARK SMILES IDX 47 76 55 77 48 78 49 79 53 80 56 81 50 82 51 83 54 84 52 85
REMARK H PARENT 3 12 76 38 44 49
REMARK Flexibility Score: inf
ROOT
ATOM      1  C   UNL A   1      37.052  21.076  24.823  1.00  0.00     0.275 C 
ENDROOT
BRANCH   1   2
ATOM      2  C   UNL A   1      36.660  22.207  23.876  1.00  0.00     0.274 C 
BRANCH   2   3
ATOM      3  O   UNL A   1      35.724  23.102  24.512  1.00  0.00    -0.462 OA
BRANCH   3   4
ATOM      4  C   UNL A   1      34.579  23.348  23.819  1.00  0.00     0.310 C 
ATOM      5  O   UNL A   1      34.534  23.859  22.704  1.00  0.00    -0.252 OA
BRANCH   4   6
ATOM      6  C   UNL A   1      33.311  22.976  24.570  1.00  0.00     0.165 C 
BRANCH   6   7
ATOM      7  C   UNL A   1      33.169  21.525  24.929  1.00  0.00     0.048 A 
ATOM      8  C   UNL A   1      33.951  21.785  27.296  1.00  0.00     0.065 C 
ATOM      9  C   UNL A   1      33.448  20.988  26.128  1.00  0.00     0.026 A 
ATOM     10  N   UNL A   1      33.279  19.645  26.328  1.00  0.00    -0.311 N 
ATOM     11  C   UNL A   1      32.874  18.752  25.375  1.00  0.00     0.328 A 
ATOM     12  H   UNL A   1      33.462  19.295  27.230  1.00  0.00     0.171 HD
ATOM     13  C   UNL A   1      32.607  20.635  23.872  1.00  0.00     0.259 A 
ATOM     14  O   UNL A   1      32.771  17.561  25.664  1.00  0.00    -0.248 OA
ATOM     15  N   UNL A   1      32.591  19.281  24.133  1.00  0.00    -0.263 N 
ATOM     16  O   UNL A   1      32.159  21.144  22.846  1.00  0.00    -0.269 OA
ATOM     17  C   UNL A   1      32.153  18.366  23.098  1.00  0.00     0.158 C 
ENDBRANCH   6   7
ENDBRANCH   4   6
ENDBRANCH   3   4
ENDBRANCH   2   3
ENDBRANCH   1   2
BRANCH   1  18
ATOM     18  O   UNL A   1      37.647  21.634  26.004  1.00  0.00    -0.458 OA
BRANCH  18  19
ATOM     19  C   UNL A   1      38.983  21.454  26.133  1.00  0.00     0.338 C 
ATOM     20  O   UNL A   1      39.611  20.423  25.968  1.00  0.00    -0.246 OA
BRANCH  19  21
ATOM     21  C   UNL A   1      39.592  22.717  26.590  1.00  0.00     0.060 A 
ATOM     22  C   UNL A   1      39.122  23.947  26.123  1.00  0.00     0.016 A 
ATOM     23  C   UNL A   1      40.700  22.665  27.435  1.00  0.00     0.016 A 
ATOM     24  C   UNL A   1      39.796  25.121  26.442  1.00  0.00     0.010 A 
ATOM     25  C   UNL A   1      41.330  23.850  27.818  1.00  0.00     0.010 A 
ATOM     26  C   UNL A   1      40.902  25.086  27.301  1.00  0.00    -0.014 A 
BRANCH  26  27
ATOM     27  C   UNL A   1      41.640  26.330  27.626  1.00  0.00     0.031 A 
ATOM     28  C   UNL A   1      40.974  27.403  28.441  1.00  0.00     0.074 A 
ATOM     29  C   UNL A   1      42.906  26.495  27.200  1.00  0.00     0.049 A 
ATOM     30  N   UNL A   1      41.387  28.615  28.708  1.00  0.00    -0.248 NA
ATOM     31  C   UNL A   1      39.669  27.068  29.030  1.00  0.00     0.031 C 
ATOM     32  C   UNL A   1      43.682  25.505  26.452  1.00  0.00     0.029 A 
ATOM     33  N   UNL A   1      43.765  27.557  27.338  1.00  0.00    -0.354 N 
ATOM     34  C   UNL A   1      40.382  29.197  29.469  1.00  0.00     0.074 A 
ATOM     35  C   UNL A   1      39.330  28.212  29.609  1.00  0.00     0.031 C 
ATOM     36  C   UNL A   1      44.909  25.995  26.220  1.00  0.00     0.029 A 
ATOM     37  C   UNL A   1      44.983  27.357  26.740  1.00  0.00     0.049 A 
ATOM     38  H   UNL A   1      43.529  28.381  27.822  1.00  0.00     0.167 HD
ATOM     39  C   UNL A   1      40.346  30.440  30.006  1.00  0.00     0.037 A 
ATOM     40  C   UNL A   1      46.031  28.191  26.596  1.00  0.00     0.037 A 
ATOM     41  C   UNL A   1      41.408  31.403  29.892  1.00  0.00     0.049 A 
ATOM     42  C   UNL A   1      45.937  29.589  27.139  1.00  0.00     0.074 A 
ATOM     43  C   UNL A   1      41.466  32.688  30.402  1.00  0.00     0.029 A 
ATOM     44  N   UNL A   1      42.606  31.182  29.228  1.00  0.00    -0.354 N 
ATOM     45  N   UNL A   1      44.964  30.149  27.814  1.00  0.00    -0.248 NA
ATOM     46  C   UNL A   1      47.080  30.478  26.883  1.00  0.00     0.031 C 
ATOM     47  C   UNL A   1      42.685  33.257  30.019  1.00  0.00     0.029 A 
ATOM     48  C   UNL A   1      43.403  32.313  29.303  1.00  0.00     0.049 A 
ATOM     49  H   UNL A   1      42.853  30.346  28.771  1.00  0.00     0.167 HD
ATOM     50  C   UNL A   1      45.377  31.448  28.073  1.00  0.00     0.074 A 
ATOM     51  C   UNL A   1      46.699  31.590  27.497  1.00  0.00     0.031 C 
ATOM     52  C   UNL A   1      44.716  32.436  28.724  1.00  0.00     0.037 A 
BRANCH  39  53
ATOM     53  C   UNL A   1      39.110  30.839  30.754  1.00  0.00     0.064 A 
ATOM     54  C   UNL A   1      38.000  31.390  30.099  1.00  0.00     0.173 A 
ATOM     55  C   UNL A   1      39.014  30.613  32.135  1.00  0.00     0.173 A 
ATOM     56  F   UNL A   1      38.047  31.637  28.781  1.00  0.00    -0.203 F 
ATOM     57  C   UNL A   1      36.842  31.714  30.803  1.00  0.00     0.198 A 
ATOM     58  C   UNL A   1      37.847  30.914  32.832  1.00  0.00     0.198 A 
ATOM     59  F   UNL A   1      40.047  30.082  32.808  1.00  0.00    -0.203 F 
ATOM     60  F   UNL A   1      35.804  32.268  30.162  1.00  0.00    -0.200 F 
ATOM     61  C   UNL A   1      36.764  31.468  32.166  1.00  0.00     0.200 A 
ATOM     62  F   UNL A   1      37.768  30.666  34.146  1.00  0.00    -0.200 F 
ATOM     63  F   UNL A   1      35.644  31.768  32.839  1.00  0.00    -0.200 F 
ENDBRANCH  39  53
BRANCH  40  64
ATOM     64  C   UNL A   1      47.251  27.723  25.890  1.00  0.00     0.064 A 
ATOM     65  C   UNL A   1      48.341  27.211  26.606  1.00  0.00     0.173 A 
ATOM     66  C   UNL A   1      47.345  27.758  24.490  1.00  0.00     0.173 A 
ATOM     67  F   UNL A   1      48.307  27.181  27.946  1.00  0.00    -0.203 F 
ATOM     68  C   UNL A   1      49.479  26.750  25.949  1.00  0.00     0.198 A 
ATOM     69  C   UNL A   1      48.474  27.274  23.833  1.00  0.00     0.198 A 
ATOM     70  F   UNL A   1      46.329  28.243  23.761  1.00  0.00    -0.203 F 
ATOM     71  F   UNL A   1      50.520  26.292  26.657  1.00  0.00    -0.200 F 
ATOM     72  C   UNL A   1      49.542  26.774  24.563  1.00  0.00     0.200 A 
ATOM     73  F   UNL A   1      48.524  27.288  22.495  1.00  0.00    -0.200 F 
ATOM     74  F   UNL A   1      50.633  26.320  23.931  1.00  0.00    -0.200 F 
ENDBRANCH  40  64
BRANCH  52  75
ATOM     75  C   UNL A   1      45.412  33.756  28.863  1.00  0.00     0.064 A 
ATOM     76  C   UNL A   1      46.286  34.010  29.929  1.00  0.00     0.173 A 
ATOM     77  C   UNL A   1      45.255  34.750  27.885  1.00  0.00     0.173 A 
ATOM     78  F   UNL A   1      46.455  33.095  30.896  1.00  0.00    -0.203 F 
ATOM     79  C   UNL A   1      46.972  35.218  30.017  1.00  0.00     0.198 A 
ATOM     80  C   UNL A   1      45.962  35.947  27.963  1.00  0.00     0.198 A 
ATOM     81  F   UNL A   1      44.434  34.550  26.843  1.00  0.00    -0.203 F 
ATOM     82  F   UNL A   1      47.781  35.453  31.059  1.00  0.00    -0.200 F 
ATOM     83  C   UNL A   1      46.817  36.180  29.030  1.00  0.00     0.200 A 
ATOM     84  F   UNL A   1      45.819  36.871  27.003  1.00  0.00    -0.200 F 
ATOM     85  F   UNL A   1      47.488  37.337  29.109  1.00  0.00    -0.200 F 
ENDBRANCH  52  75
ENDBRANCH  26  27
ENDBRANCH  19  21
ENDBRANCH  18  19
ENDBRANCH   1  18
TORSDOF 12
ENDMDL
