MODEL 1
REMARK VINA RESULT:     -13.4      0.000      0.000
REMARK SMILES O=C(Nc1ccc2c(c1)[C@@H]1C=CC[C@@H]1[C@H](C(=O)OCCOC(=O)c1ccc(-c3c4nc(c(-c5c(F)c(F)c(F)c(F)c5F)c5ccc([nH]5)c(-c5c(F)c(F)c(F)c(F)c5F)c5nc(c(-c6c(F)c(F)c(F)c(F)c6F)c6ccc3[nH]6)C=C5)C=C4)cc1)N2)c1ccccc1
REMARK SMILES IDX 19 1 18 2 16 3 17 4 15 5 4 6 5 7 9 8 6 9 8 10 7 11 10 12
REMARK SMILES IDX 87 13 11 14 14 15 12 17 13 18 3 19 1 20 2 21 88 23 89 24
REMARK SMILES IDX 93 25 90 26 92 27 91 28 20 29 21 30 22 31 23 32 24 33 25 34
REMARK SMILES IDX 86 35 26 36 85 37 27 38 28 39 29 40 79 41 30 42 84 43 78 44
REMARK SMILES IDX 80 45 31 46 83 47 77 48 76 49 32 51 64 52 44 53 63 54 45 55
REMARK SMILES IDX 48 56 62 57 81 58 46 59 47 60 61 62 82 63 49 64 33 65 34 66
REMARK SMILES IDX 42 67 35 68 36 69 40 70 43 71 37 72 38 73 41 74 39 75 65 76
REMARK SMILES IDX 66 77 74 78 67 79 68 80 72 81 75 82 69 83 70 84 73 85 71 86
REMARK SMILES IDX 50 87 51 88 59 89 52 90 53 91 57 92 60 93 54 94 55 95 58 96
REMARK SMILES IDX 56 97
REMARK H PARENT 87 16 3 22 80 50 48 61
REMARK Flexibility Score: inf
ROOT
ATOM      1  C   UNL A   1      31.442  29.885  24.471  1.00  0.00     0.274 C 
ENDROOT
BRANCH   1   2
ATOM      2  O   UNL A   1      30.142  29.310  24.241  1.00  0.00    -0.461 OA
BRANCH   2   3
ATOM      3  C   UNL A   1      29.963  28.657  23.068  1.00  0.00     0.329 C 
ATOM      4  O   UNL A   1      29.591  29.194  22.026  1.00  0.00    -0.250 OA
BRANCH   3   5
ATOM      5  C   UNL A   1      30.249  27.152  23.144  1.00  0.00     0.194 C 
ATOM      6  C   UNL A   1      31.266  22.718  25.404  1.00  0.00     0.041 A 
ATOM      7  C   UNL A   1      30.621  23.515  26.343  1.00  0.00     0.028 A 
ATOM      8  C   UNL A   1      31.468  23.209  24.113  1.00  0.00     0.032 A 
ATOM      9  C   UNL A   1      30.323  24.844  26.035  1.00  0.00     0.028 A 
ATOM     10  C   UNL A   1      31.176  24.545  23.793  1.00  0.00    -0.015 A 
ATOM     11  C   UNL A   1      30.608  25.375  24.771  1.00  0.00     0.039 A 
ATOM     12  C   UNL A   1      31.470  25.064  22.399  1.00  0.00     0.050 C 
ATOM     13  N   UNL A   1      30.383  26.724  24.534  1.00  0.00    -0.372 N 
ATOM     14  C   UNL A   1      32.896  24.843  21.967  1.00  0.00    -0.023 C 
ATOM     15  C   UNL A   1      31.364  26.598  22.265  1.00  0.00     0.038 C 
ATOM     16  H   UNL A   1      30.315  27.368  25.275  1.00  0.00     0.161 HD
ATOM     17  C   UNL A   1      33.618  25.968  22.026  1.00  0.00    -0.030 C 
ATOM     18  C   UNL A   1      32.789  27.121  22.494  1.00  0.00     0.034 C 
BRANCH   6  19
ATOM     19  N   UNL A   1      31.729  21.456  25.813  1.00  0.00    -0.322 N 
ATOM     20  O   UNL A   1      33.167  19.707  25.869  1.00  0.00    -0.269 OA
ATOM     21  C   UNL A   1      32.990  20.909  25.683  1.00  0.00     0.255 C 
ATOM     22  H   UNL A   1      31.061  20.882  26.252  1.00  0.00     0.170 HD
BRANCH  21  23
ATOM     23  C   UNL A   1      34.169  21.778  25.418  1.00  0.00     0.040 A 
ATOM     24  C   UNL A   1      34.779  22.514  26.443  1.00  0.00     0.014 A 
ATOM     25  C   UNL A   1      34.681  21.841  24.119  1.00  0.00     0.014 A 
ATOM     26  C   UNL A   1      35.840  23.373  26.153  1.00  0.00     0.001 A 
ATOM     27  C   UNL A   1      35.751  22.692  23.834  1.00  0.00     0.001 A 
ATOM     28  C   UNL A   1      36.320  23.467  24.847  1.00  0.00     0.000 A 
ENDBRANCH  21  23
ENDBRANCH   6  19
ENDBRANCH   3   5
ENDBRANCH   2   3
ENDBRANCH   1   2
BRANCH   1  29
ATOM     29  C   UNL A   1      31.494  30.568  25.840  1.00  0.00     0.275 C 
BRANCH  29  30
ATOM     30  O   UNL A   1      32.759  30.346  26.493  1.00  0.00    -0.458 OA
BRANCH  30  31
ATOM     31  C   UNL A   1      33.295  31.444  27.077  1.00  0.00     0.338 C 
ATOM     32  O   UNL A   1      32.767  32.530  27.235  1.00  0.00    -0.246 OA
BRANCH  31  33
ATOM     33  C   UNL A   1      34.604  31.118  27.663  1.00  0.00     0.060 A 
ATOM     34  C   UNL A   1      34.830  29.796  28.050  1.00  0.00     0.016 A 
ATOM     35  C   UNL A   1      35.551  32.107  27.935  1.00  0.00     0.016 A 
ATOM     36  C   UNL A   1      36.000  29.448  28.718  1.00  0.00     0.010 A 
ATOM     37  C   UNL A   1      36.725  31.760  28.616  1.00  0.00     0.010 A 
ATOM     38  C   UNL A   1      36.945  30.432  29.025  1.00  0.00    -0.014 A 
BRANCH  38  39
ATOM     39  C   UNL A   1      38.113  30.067  29.860  1.00  0.00     0.031 A 
ATOM     40  C   UNL A   1      39.172  29.163  29.298  1.00  0.00     0.074 A 
ATOM     41  C   UNL A   1      38.256  30.595  31.088  1.00  0.00     0.049 A 
ATOM     42  N   UNL A   1      40.258  28.703  29.866  1.00  0.00    -0.248 NA
ATOM     43  C   UNL A   1      38.982  28.716  27.909  1.00  0.00     0.031 C 
ATOM     44  C   UNL A   1      37.325  31.532  31.715  1.00  0.00     0.029 A 
ATOM     45  N   UNL A   1      39.246  30.427  32.021  1.00  0.00    -0.354 N 
ATOM     46  C   UNL A   1      40.868  27.898  28.915  1.00  0.00     0.074 A 
ATOM     47  C   UNL A   1      40.029  27.921  27.736  1.00  0.00     0.031 C 
ATOM     48  C   UNL A   1      37.794  31.864  32.930  1.00  0.00     0.029 A 
ATOM     49  C   UNL A   1      39.036  31.135  33.177  1.00  0.00     0.049 A 
ATOM     50  H   UNL A   1      40.032  29.853  31.876  1.00  0.00     0.167 HD
ATOM     51  C   UNL A   1      42.028  27.205  29.017  1.00  0.00     0.037 A 
ATOM     52  C   UNL A   1      39.759  31.177  34.313  1.00  0.00     0.037 A 
ATOM     53  C   UNL A   1      42.874  27.201  30.182  1.00  0.00     0.049 A 
ATOM     54  C   UNL A   1      41.019  30.364  34.415  1.00  0.00     0.074 A 
ATOM     55  C   UNL A   1      44.072  26.535  30.379  1.00  0.00     0.029 A 
ATOM     56  N   UNL A   1      42.609  27.901  31.349  1.00  0.00    -0.354 N 
ATOM     57  N   UNL A   1      41.584  29.595  33.516  1.00  0.00    -0.248 NA
ATOM     58  C   UNL A   1      41.742  30.423  35.693  1.00  0.00     0.031 C 
ATOM     59  C   UNL A   1      44.513  26.806  31.679  1.00  0.00     0.029 A 
ATOM     60  C   UNL A   1      43.613  27.673  32.277  1.00  0.00     0.049 A 
ATOM     61  H   UNL A   1      41.824  28.477  31.497  1.00  0.00     0.167 HD
ATOM     62  C   UNL A   1      42.737  29.098  34.108  1.00  0.00     0.074 A 
ATOM     63  C   UNL A   1      42.798  29.663  35.441  1.00  0.00     0.031 C 
ATOM     64  C   UNL A   1      43.661  28.249  33.595  1.00  0.00     0.037 A 
BRANCH  51  65
ATOM     65  C   UNL A   1      42.428  26.360  27.845  1.00  0.00     0.064 A 
ATOM     66  C   UNL A   1      43.317  26.825  26.865  1.00  0.00     0.173 A 
ATOM     67  C   UNL A   1      41.923  25.057  27.709  1.00  0.00     0.173 A 
ATOM     68  F   UNL A   1      43.813  28.070  26.941  1.00  0.00    -0.203 F 
ATOM     69  C   UNL A   1      43.667  26.028  25.779  1.00  0.00     0.198 A 
ATOM     70  C   UNL A   1      42.294  24.253  26.634  1.00  0.00     0.198 A 
ATOM     71  F   UNL A   1      41.070  24.564  28.619  1.00  0.00    -0.203 F 
ATOM     72  F   UNL A   1      44.482  26.509  24.831  1.00  0.00    -0.200 F 
ATOM     73  C   UNL A   1      43.160  24.741  25.667  1.00  0.00     0.200 A 
ATOM     74  F   UNL A   1      41.808  23.008  26.533  1.00  0.00    -0.200 F 
ATOM     75  F   UNL A   1      43.497  23.974  24.621  1.00  0.00    -0.200 F 
ENDBRANCH  51  65
BRANCH  52  76
ATOM     76  C   UNL A   1      39.302  32.020  35.447  1.00  0.00     0.064 A 
ATOM     77  C   UNL A   1      38.480  31.492  36.452  1.00  0.00     0.173 A 
ATOM     78  C   UNL A   1      39.674  33.369  35.547  1.00  0.00     0.173 A 
ATOM     79  F   UNL A   1      38.078  30.214  36.385  1.00  0.00    -0.203 F 
ATOM     80  C   UNL A   1      38.039  32.285  37.509  1.00  0.00     0.198 A 
ATOM     81  C   UNL A   1      39.252  34.153  36.617  1.00  0.00     0.198 A 
ATOM     82  F   UNL A   1      40.456  33.920  34.608  1.00  0.00    -0.203 F 
ATOM     83  F   UNL A   1      37.222  31.766  38.436  1.00  0.00    -0.200 F 
ATOM     84  C   UNL A   1      38.430  33.612  37.594  1.00  0.00     0.200 A 
ATOM     85  F   UNL A   1      39.639  35.433  36.700  1.00  0.00    -0.200 F 
ATOM     86  F   UNL A   1      38.007  34.373  38.613  1.00  0.00    -0.200 F 
ENDBRANCH  52  76
BRANCH  64  87
ATOM     87  C   UNL A   1      44.834  27.910  34.466  1.00  0.00     0.064 A 
ATOM     88  C   UNL A   1      44.824  26.792  35.310  1.00  0.00     0.173 A 
ATOM     89  C   UNL A   1      45.992  28.702  34.435  1.00  0.00     0.173 A 
ATOM     90  F   UNL A   1      43.734  26.013  35.387  1.00  0.00    -0.203 F 
ATOM     91  C   UNL A   1      45.921  26.492  36.114  1.00  0.00     0.198 A 
ATOM     92  C   UNL A   1      47.097  28.385  35.220  1.00  0.00     0.198 A 
ATOM     93  F   UNL A   1      46.054  29.781  33.640  1.00  0.00    -0.203 F 
ATOM     94  F   UNL A   1      45.873  25.444  36.948  1.00  0.00    -0.200 F 
ATOM     95  C   UNL A   1      47.058  27.285  36.064  1.00  0.00     0.200 A 
ATOM     96  F   UNL A   1      48.198  29.146  35.165  1.00  0.00    -0.200 F 
ATOM     97  F   UNL A   1      48.114  26.995  36.837  1.00  0.00    -0.200 F 
ENDBRANCH  64  87
ENDBRANCH  38  39
ENDBRANCH  31  33
ENDBRANCH  30  31
ENDBRANCH  29  30
ENDBRANCH   1  29
TORSDOF 13
ENDMDL
MODEL 2
REMARK VINA RESULT:     -13.4      3.927      9.480
REMARK SMILES O=C(Nc1ccc2c(c1)[C@@H]1C=CC[C@@H]1[C@H](C(=O)OCCOC(=O)c1ccc(-c3c4nc(c(-c5c(F)c(F)c(F)c(F)c5F)c5ccc([nH]5)c(-c5c(F)c(F)c(F)c(F)c5F)c5nc(c(-c6c(F)c(F)c(F)c(F)c6F)c6ccc3[nH]6)C=C5)C=C4)cc1)N2)c1ccccc1
REMARK SMILES IDX 19 1 18 2 16 3 17 4 15 5 4 6 5 7 9 8 6 9 8 10 7 11 10 12
REMARK SMILES IDX 87 13 11 14 14 15 12 17 13 18 3 19 1 20 2 21 88 23 89 24
REMARK SMILES IDX 93 25 90 26 92 27 91 28 20 29 21 30 22 31 23 32 24 33 25 34
REMARK SMILES IDX 86 35 26 36 85 37 27 38 28 39 29 40 79 41 30 42 84 43 78 44
REMARK SMILES IDX 80 45 31 46 83 47 77 48 76 49 32 51 64 52 44 53 63 54 45 55
REMARK SMILES IDX 48 56 62 57 81 58 46 59 47 60 61 62 82 63 49 64 33 65 34 66
REMARK SMILES IDX 42 67 35 68 36 69 40 70 43 71 37 72 38 73 41 74 39 75 65 76
REMARK SMILES IDX 66 77 74 78 67 79 68 80 72 81 75 82 69 83 70 84 73 85 71 86
REMARK SMILES IDX 50 87 51 88 59 89 52 90 53 91 57 92 60 93 54 94 55 95 58 96
REMARK SMILES IDX 56 97
REMARK H PARENT 87 16 3 22 80 50 48 61
REMARK Flexibility Score: inf
ROOT
ATOM      1  C   UNL A   1      35.169  20.354  25.473  1.00  0.00     0.274 C 
ENDROOT
BRANCH   1   2
ATOM      2  O   UNL A   1      34.296  19.969  24.394  1.00  0.00    -0.461 OA
BRANCH   2   3
ATOM      3  C   UNL A   1      32.967  19.955  24.660  1.00  0.00     0.329 C 
ATOM      4  O   UNL A   1      32.366  18.994  25.134  1.00  0.00    -0.250 OA
BRANCH   3   5
ATOM      5  C   UNL A   1      32.247  21.261  24.298  1.00  0.00     0.194 C 
ATOM      6  C   UNL A   1      31.723  25.860  22.207  1.00  0.00     0.041 A 
ATOM      7  C   UNL A   1      32.698  25.189  21.476  1.00  0.00     0.028 A 
ATOM      8  C   UNL A   1      31.087  25.203  23.262  1.00  0.00     0.032 A 
ATOM      9  C   UNL A   1      33.138  23.933  21.899  1.00  0.00     0.028 A 
ATOM     10  C   UNL A   1      31.524  23.943  23.698  1.00  0.00    -0.015 A 
ATOM     11  C   UNL A   1      32.571  23.305  23.015  1.00  0.00     0.039 A 
ATOM     12  C   UNL A   1      30.854  23.288  24.891  1.00  0.00     0.050 C 
ATOM     13  N   UNL A   1      33.097  22.101  23.459  1.00  0.00    -0.372 N 
ATOM     14  C   UNL A   1      30.833  24.160  26.119  1.00  0.00    -0.023 C 
ATOM     15  C   UNL A   1      31.601  22.050  25.430  1.00  0.00     0.038 C 
ATOM     16  H   UNL A   1      34.010  21.822  23.216  1.00  0.00     0.161 HD
ATOM     17  C   UNL A   1      31.745  23.778  27.020  1.00  0.00    -0.030 C 
ATOM     18  C   UNL A   1      32.511  22.585  26.546  1.00  0.00     0.034 C 
BRANCH   6  19
ATOM     19  N   UNL A   1      31.449  27.197  21.874  1.00  0.00    -0.322 N 
ATOM     20  O   UNL A   1      30.889  29.351  22.290  1.00  0.00    -0.269 OA
ATOM     21  C   UNL A   1      31.379  28.301  22.699  1.00  0.00     0.255 C 
ATOM     22  H   UNL A   1      31.283  27.369  20.919  1.00  0.00     0.170 HD
BRANCH  21  23
ATOM     23  C   UNL A   1      31.986  28.271  24.058  1.00  0.00     0.040 A 
ATOM     24  C   UNL A   1      33.376  28.305  24.237  1.00  0.00     0.014 A 
ATOM     25  C   UNL A   1      31.143  28.225  25.172  1.00  0.00     0.014 A 
ATOM     26  C   UNL A   1      33.919  28.207  25.519  1.00  0.00     0.001 A 
ATOM     27  C   UNL A   1      31.690  28.140  26.454  1.00  0.00     0.001 A 
ATOM     28  C   UNL A   1      33.075  28.117  26.625  1.00  0.00     0.000 A 
ENDBRANCH  21  23
ENDBRANCH   6  19
ENDBRANCH   3   5
ENDBRANCH   2   3
ENDBRANCH   1   2
BRANCH   1  29
ATOM     29  C   UNL A   1      36.620  20.423  24.991  1.00  0.00     0.275 C 
BRANCH  29  30
ATOM     30  O   UNL A   1      37.327  21.522  25.600  1.00  0.00    -0.458 OA
BRANCH  30  31
ATOM     31  C   UNL A   1      38.608  21.251  25.941  1.00  0.00     0.338 C 
ATOM     32  O   UNL A   1      39.229  20.224  25.731  1.00  0.00    -0.246 OA
BRANCH  31  33
ATOM     33  C   UNL A   1      39.251  22.453  26.496  1.00  0.00     0.060 A 
ATOM     34  C   UNL A   1      38.737  23.695  26.117  1.00  0.00     0.016 A 
ATOM     35  C   UNL A   1      40.404  22.373  27.277  1.00  0.00     0.016 A 
ATOM     36  C   UNL A   1      39.371  24.869  26.510  1.00  0.00     0.010 A 
ATOM     37  C   UNL A   1      41.049  23.554  27.665  1.00  0.00     0.010 A 
ATOM     38  C   UNL A   1      40.544  24.805  27.268  1.00  0.00    -0.014 A 
BRANCH  38  39
ATOM     39  C   UNL A   1      41.281  26.059  27.554  1.00  0.00     0.031 A 
ATOM     40  C   UNL A   1      40.612  27.149  28.340  1.00  0.00     0.074 A 
ATOM     41  C   UNL A   1      42.562  26.191  27.167  1.00  0.00     0.049 A 
ATOM     42  N   UNL A   1      41.067  28.328  28.678  1.00  0.00    -0.248 NA
ATOM     43  C   UNL A   1      39.244  26.873  28.809  1.00  0.00     0.031 C 
ATOM     44  C   UNL A   1      43.335  25.178  26.453  1.00  0.00     0.029 A 
ATOM     45  N   UNL A   1      43.440  27.231  27.335  1.00  0.00    -0.354 N 
ATOM     46  C   UNL A   1      40.039  28.942  29.379  1.00  0.00     0.074 A 
ATOM     47  C   UNL A   1      38.931  28.013  29.409  1.00  0.00     0.031 C 
ATOM     48  C   UNL A   1      44.579  25.642  26.249  1.00  0.00     0.029 A 
ATOM     49  C   UNL A   1      44.676  26.997  26.787  1.00  0.00     0.049 A 
ATOM     50  H   UNL A   1      43.207  28.065  27.802  1.00  0.00     0.167 HD
ATOM     51  C   UNL A   1      40.025  30.173  29.947  1.00  0.00     0.037 A 
ATOM     52  C   UNL A   1      45.759  27.795  26.716  1.00  0.00     0.037 A 
ATOM     53  C   UNL A   1      41.135  31.087  29.936  1.00  0.00     0.049 A 
ATOM     54  C   UNL A   1      45.701  29.172  27.317  1.00  0.00     0.074 A 
ATOM     55  C   UNL A   1      41.220  32.353  30.491  1.00  0.00     0.029 A 
ATOM     56  N   UNL A   1      42.361  30.831  29.338  1.00  0.00    -0.354 N 
ATOM     57  N   UNL A   1      44.721  29.752  27.968  1.00  0.00    -0.248 NA
ATOM     58  C   UNL A   1      46.901  30.007  27.173  1.00  0.00     0.031 C 
ATOM     59  C   UNL A   1      42.485  32.875  30.198  1.00  0.00     0.029 A 
ATOM     60  C   UNL A   1      43.203  31.920  29.497  1.00  0.00     0.049 A 
ATOM     61  H   UNL A   1      42.597  29.997  28.871  1.00  0.00     0.167 HD
ATOM     62  C   UNL A   1      45.191  31.006  28.329  1.00  0.00     0.074 A 
ATOM     63  C   UNL A   1      46.551  31.100  27.837  1.00  0.00     0.031 C 
ATOM     64  C   UNL A   1      44.554  31.992  29.008  1.00  0.00     0.037 A 
BRANCH  51  65
ATOM     65  C   UNL A   1      38.747  30.612  30.598  1.00  0.00     0.064 A 
ATOM     66  C   UNL A   1      38.550  30.517  31.983  1.00  0.00     0.173 A 
ATOM     67  C   UNL A   1      37.710  31.152  29.822  1.00  0.00     0.173 A 
ATOM     68  F   UNL A   1      39.506  29.992  32.766  1.00  0.00    -0.203 F 
ATOM     69  C   UNL A   1      37.352  30.922  32.566  1.00  0.00     0.198 A 
ATOM     70  C   UNL A   1      36.522  31.579  30.411  1.00  0.00     0.198 A 
ATOM     71  F   UNL A   1      37.848  31.266  28.492  1.00  0.00    -0.203 F 
ATOM     72  F   UNL A   1      37.168  30.780  33.885  1.00  0.00    -0.200 F 
ATOM     73  C   UNL A   1      36.341  31.457  31.780  1.00  0.00     0.200 A 
ATOM     74  F   UNL A   1      35.550  32.102  29.650  1.00  0.00    -0.200 F 
ATOM     75  F   UNL A   1      35.189  31.846  32.341  1.00  0.00    -0.200 F 
ENDBRANCH  51  65
BRANCH  52  76
ATOM     76  C   UNL A   1      46.990  27.310  26.043  1.00  0.00     0.064 A 
ATOM     77  C   UNL A   1      47.971  26.607  26.755  1.00  0.00     0.173 A 
ATOM     78  C   UNL A   1      47.214  27.543  24.678  1.00  0.00     0.173 A 
ATOM     79  F   UNL A   1      47.813  26.383  28.068  1.00  0.00    -0.203 F 
ATOM     80  C   UNL A   1      49.134  26.163  26.129  1.00  0.00     0.198 A 
ATOM     81  C   UNL A   1      48.364  27.077  24.048  1.00  0.00     0.198 A 
ATOM     82  F   UNL A   1      46.306  28.215  23.955  1.00  0.00    -0.203 F 
ATOM     83  F   UNL A   1      50.074  25.527  26.841  1.00  0.00    -0.200 F 
ATOM     84  C   UNL A   1      49.327  26.393  24.775  1.00  0.00     0.200 A 
ATOM     85  F   UNL A   1      48.543  27.294  22.737  1.00  0.00    -0.200 F 
ATOM     86  F   UNL A   1      50.444  25.963  24.173  1.00  0.00    -0.200 F 
ENDBRANCH  52  76
BRANCH  64  87
ATOM     87  C   UNL A   1      45.335  33.242  29.286  1.00  0.00     0.064 A 
ATOM     88  C   UNL A   1      46.125  33.375  30.436  1.00  0.00     0.173 A 
ATOM     89  C   UNL A   1      45.312  34.309  28.374  1.00  0.00     0.173 A 
ATOM     90  F   UNL A   1      46.167  32.389  31.344  1.00  0.00    -0.203 F 
ATOM     91  C   UNL A   1      46.844  34.544  30.678  1.00  0.00     0.198 A 
ATOM     92  C   UNL A   1      46.052  35.465  28.607  1.00  0.00     0.198 A 
ATOM     93  F   UNL A   1      44.576  34.228  27.256  1.00  0.00    -0.203 F 
ATOM     94  F   UNL A   1      47.556  34.668  31.807  1.00  0.00    -0.200 F 
ATOM     95  C   UNL A   1      46.811  35.585  29.762  1.00  0.00     0.200 A 
ATOM     96  F   UNL A   1      46.027  36.467  27.717  1.00  0.00    -0.200 F 
ATOM     97  F   UNL A   1      47.504  36.708  29.996  1.00  0.00    -0.200 F 
ENDBRANCH  64  87
ENDBRANCH  38  39
ENDBRANCH  31  33
ENDBRANCH  30  31
ENDBRANCH  29  30
ENDBRANCH   1  29
TORSDOF 13
ENDMDL
MODEL 3
REMARK VINA RESULT:     -13.4      0.619      7.341
REMARK SMILES O=C(Nc1ccc2c(c1)[C@@H]1C=CC[C@@H]1[C@H](C(=O)OCCOC(=O)c1ccc(-c3c4nc(c(-c5c(F)c(F)c(F)c(F)c5F)c5ccc([nH]5)c(-c5c(F)c(F)c(F)c(F)c5F)c5nc(c(-c6c(F)c(F)c(F)c(F)c6F)c6ccc3[nH]6)C=C5)C=C4)cc1)N2)c1ccccc1
REMARK SMILES IDX 19 1 18 2 16 3 17 4 15 5 4 6 5 7 9 8 6 9 8 10 7 11 10 12
REMARK SMILES IDX 87 13 11 14 14 15 12 17 13 18 3 19 1 20 2 21 88 23 89 24
REMARK SMILES IDX 93 25 90 26 92 27 91 28 20 29 21 30 22 31 23 32 24 33 25 34
REMARK SMILES IDX 86 35 26 36 85 37 27 38 28 39 29 40 79 41 30 42 84 43 78 44
REMARK SMILES IDX 80 45 31 46 83 47 77 48 76 49 32 51 64 52 44 53 63 54 45 55
REMARK SMILES IDX 48 56 62 57 81 58 46 59 47 60 61 62 82 63 49 64 33 65 34 66
REMARK SMILES IDX 42 67 35 68 36 69 40 70 43 71 37 72 38 73 41 74 39 75 65 76
REMARK SMILES IDX 66 77 74 78 67 79 68 80 72 81 75 82 69 83 70 84 73 85 71 86
REMARK SMILES IDX 50 87 51 88 59 89 52 90 53 91 57 92 60 93 54 94 55 95 58 96
REMARK SMILES IDX 56 97
REMARK H PARENT 87 16 3 22 80 50 48 61
REMARK Flexibility Score: inf
ROOT
ATOM      1  C   UNL A   1      30.818  31.286  25.344  1.00  0.00     0.274 C 
ENDROOT
BRANCH   1   2
ATOM      2  O   UNL A   1      31.041  29.906  24.999  1.00  0.00    -0.461 OA
BRANCH   2   3
ATOM      3  C   UNL A   1      30.338  29.418  23.949  1.00  0.00     0.329 C 
ATOM      4  O   UNL A   1      29.690  30.111  23.168  1.00  0.00    -0.250 OA
BRANCH   3   5
ATOM      5  C   UNL A   1      30.400  27.891  23.815  1.00  0.00     0.194 C 
ATOM      6  C   UNL A   1      31.078  23.107  25.383  1.00  0.00     0.041 A 
ATOM      7  C   UNL A   1      30.721  23.855  26.500  1.00  0.00     0.028 A 
ATOM      8  C   UNL A   1      31.143  23.730  24.135  1.00  0.00     0.032 A 
ATOM      9  C   UNL A   1      30.584  25.240  26.390  1.00  0.00     0.028 A 
ATOM     10  C   UNL A   1      31.011  25.123  24.014  1.00  0.00    -0.015 A 
ATOM     11  C   UNL A   1      30.740  25.888  25.158  1.00  0.00     0.039 A 
ATOM     12  C   UNL A   1      31.154  25.774  22.652  1.00  0.00     0.050 C 
ATOM     13  N   UNL A   1      30.689  27.274  25.107  1.00  0.00    -0.372 N 
ATOM     14  C   UNL A   1      32.442  25.424  21.953  1.00  0.00    -0.023 C 
ATOM     15  C   UNL A   1      31.262  27.313  22.700  1.00  0.00     0.038 C 
ATOM     16  H   UNL A   1      30.839  27.820  25.912  1.00  0.00     0.161 HD
ATOM     17  C   UNL A   1      33.327  26.426  22.001  1.00  0.00    -0.030 C 
ATOM     18  C   UNL A   1      32.769  27.608  22.726  1.00  0.00     0.034 C 
BRANCH   6  19
ATOM     19  N   UNL A   1      31.403  21.753  25.569  1.00  0.00    -0.322 N 
ATOM     20  O   UNL A   1      32.641  19.875  25.303  1.00  0.00    -0.269 OA
ATOM     21  C   UNL A   1      32.596  21.103  25.320  1.00  0.00     0.255 C 
ATOM     22  H   UNL A   1      30.679  21.190  25.925  1.00  0.00     0.170 HD
BRANCH  21  23
ATOM     23  C   UNL A   1      33.861  21.873  25.169  1.00  0.00     0.040 A 
ATOM     24  C   UNL A   1      34.610  22.272  26.285  1.00  0.00     0.014 A 
ATOM     25  C   UNL A   1      34.311  22.185  23.883  1.00  0.00     0.014 A 
ATOM     26  C   UNL A   1      35.755  23.050  26.117  1.00  0.00     0.001 A 
ATOM     27  C   UNL A   1      35.465  22.953  23.718  1.00  0.00     0.001 A 
ATOM     28  C   UNL A   1      36.177  23.397  24.834  1.00  0.00     0.000 A 
ENDBRANCH  21  23
ENDBRANCH   6  19
ENDBRANCH   3   5
ENDBRANCH   2   3
ENDBRANCH   1   2
BRANCH   1  29
ATOM     29  C   UNL A   1      31.339  31.580  26.753  1.00  0.00     0.275 C 
BRANCH  29  30
ATOM     30  O   UNL A   1      32.758  31.345  26.851  1.00  0.00    -0.458 OA
BRANCH  30  31
ATOM     31  C   UNL A   1      33.455  32.338  27.451  1.00  0.00     0.338 C 
ATOM     32  O   UNL A   1      33.075  33.470  27.689  1.00  0.00    -0.246 OA
BRANCH  31  33
ATOM     33  C   UNL A   1      34.744  31.826  27.943  1.00  0.00     0.060 A 
ATOM     34  C   UNL A   1      34.809  30.480  28.310  1.00  0.00     0.016 A 
ATOM     35  C   UNL A   1      35.835  32.670  28.153  1.00  0.00     0.016 A 
ATOM     36  C   UNL A   1      35.962  29.964  28.893  1.00  0.00     0.010 A 
ATOM     37  C   UNL A   1      36.993  32.155  28.749  1.00  0.00     0.010 A 
ATOM     38  C   UNL A   1      37.053  30.804  29.137  1.00  0.00    -0.014 A 
BRANCH  38  39
ATOM     39  C   UNL A   1      38.213  30.269  29.888  1.00  0.00     0.031 A 
ATOM     40  C   UNL A   1      38.416  30.666  31.321  1.00  0.00     0.074 A 
ATOM     41  C   UNL A   1      39.041  29.383  29.307  1.00  0.00     0.049 A 
ATOM     42  N   UNL A   1      39.374  30.333  32.148  1.00  0.00    -0.248 NA
ATOM     43  C   UNL A   1      37.401  31.560  31.903  1.00  0.00     0.031 C 
ATOM     44  C   UNL A   1      38.910  28.876  27.942  1.00  0.00     0.029 A 
ATOM     45  N   UNL A   1      40.149  28.743  29.800  1.00  0.00    -0.354 N 
ATOM     46  C   UNL A   1      39.091  30.990  33.337  1.00  0.00     0.074 A 
ATOM     47  C   UNL A   1      37.880  31.752  33.124  1.00  0.00     0.031 C 
ATOM     48  C   UNL A   1      39.896  27.994  27.708  1.00  0.00     0.029 A 
ATOM     49  C   UNL A   1      40.746  27.904  28.893  1.00  0.00     0.049 A 
ATOM     50  H   UNL A   1      40.485  28.873  30.716  1.00  0.00     0.167 HD
ATOM     51  C   UNL A   1      39.783  30.957  34.502  1.00  0.00     0.037 A 
ATOM     52  C   UNL A   1      41.864  27.160  29.004  1.00  0.00     0.037 A 
ATOM     53  C   UNL A   1      40.975  30.181  34.719  1.00  0.00     0.049 A 
ATOM     54  C   UNL A   1      42.635  27.176  30.295  1.00  0.00     0.074 A 
ATOM     55  C   UNL A   1      41.742  30.077  35.867  1.00  0.00     0.029 A 
ATOM     56  N   UNL A   1      41.573  29.372  33.765  1.00  0.00    -0.354 N 
ATOM     57  N   UNL A   1      42.369  27.810  31.411  1.00  0.00    -0.248 NA
ATOM     58  C   UNL A   1      43.865  26.373  30.339  1.00  0.00     0.031 C 
ATOM     59  C   UNL A   1      42.823  29.232  35.595  1.00  0.00     0.029 A 
ATOM     60  C   UNL A   1      42.708  28.777  34.292  1.00  0.00     0.049 A 
ATOM     61  H   UNL A   1      41.239  29.239  32.848  1.00  0.00     0.167 HD
ATOM     62  C   UNL A   1      43.381  27.466  32.296  1.00  0.00     0.074 A 
ATOM     63  C   UNL A   1      44.261  26.556  31.591  1.00  0.00     0.031 C 
ATOM     64  C   UNL A   1      43.566  27.868  33.578  1.00  0.00     0.037 A 
BRANCH  51  65
ATOM     65  C   UNL A   1      39.281  31.820  35.621  1.00  0.00     0.064 A 
ATOM     66  C   UNL A   1      38.383  31.336  36.584  1.00  0.00     0.173 A 
ATOM     67  C   UNL A   1      39.718  33.148  35.739  1.00  0.00     0.173 A 
ATOM     68  F   UNL A   1      37.923  30.078  36.506  1.00  0.00    -0.203 F 
ATOM     69  C   UNL A   1      37.922  32.157  37.610  1.00  0.00     0.198 A 
ATOM     70  C   UNL A   1      39.274  33.960  36.780  1.00  0.00     0.198 A 
ATOM     71  F   UNL A   1      40.577  33.659  34.844  1.00  0.00    -0.203 F 
ATOM     72  F   UNL A   1      37.030  31.688  38.493  1.00  0.00    -0.200 F 
ATOM     73  C   UNL A   1      38.372  33.466  37.710  1.00  0.00     0.200 A 
ATOM     74  F   UNL A   1      39.715  35.221  36.878  1.00  0.00    -0.200 F 
ATOM     75  F   UNL A   1      37.927  34.256  38.697  1.00  0.00    -0.200 F 
ENDBRANCH  51  65
BRANCH  52  76
ATOM     76  C   UNL A   1      42.320  26.339  27.854  1.00  0.00     0.064 A 
ATOM     77  C   UNL A   1      43.278  26.827  26.956  1.00  0.00     0.173 A 
ATOM     78  C   UNL A   1      41.805  25.054  27.628  1.00  0.00     0.173 A 
ATOM     79  F   UNL A   1      43.780  28.060  27.117  1.00  0.00    -0.203 F 
ATOM     80  C   UNL A   1      43.697  26.064  25.868  1.00  0.00     0.198 A 
ATOM     81  C   UNL A   1      42.243  24.283  26.554  1.00  0.00     0.198 A 
ATOM     82  F   UNL A   1      40.883  24.545  28.458  1.00  0.00    -0.203 F 
ATOM     83  F   UNL A   1      44.586  26.569  25.002  1.00  0.00    -0.200 F 
ATOM     84  C   UNL A   1      43.184  24.791  25.671  1.00  0.00     0.200 A 
ATOM     85  F   UNL A   1      41.751  23.050  26.373  1.00  0.00    -0.200 F 
ATOM     86  F   UNL A   1      43.590  24.057  24.627  1.00  0.00    -0.200 F 
ENDBRANCH  52  76
BRANCH  64  87
ATOM     87  C   UNL A   1      44.746  27.298  34.307  1.00  0.00     0.064 A 
ATOM     88  C   UNL A   1      45.984  27.955  34.331  1.00  0.00     0.173 A 
ATOM     89  C   UNL A   1      44.627  26.091  35.014  1.00  0.00     0.173 A 
ATOM     90  F   UNL A   1      46.151  29.104  33.659  1.00  0.00    -0.203 F 
ATOM     91  C   UNL A   1      47.069  27.411  35.013  1.00  0.00     0.198 A 
ATOM     92  C   UNL A   1      45.707  25.563  35.716  1.00  0.00     0.198 A 
ATOM     93  F   UNL A   1      43.462  25.427  35.026  1.00  0.00    -0.203 F 
ATOM     94  F   UNL A   1      48.257  28.033  34.985  1.00  0.00    -0.200 F 
ATOM     95  C   UNL A   1      46.928  26.219  35.709  1.00  0.00     0.200 A 
ATOM     96  F   UNL A   1      45.567  24.416  36.395  1.00  0.00    -0.200 F 
ATOM     97  F   UNL A   1      47.974  25.698  36.366  1.00  0.00    -0.200 F 
ENDBRANCH  64  87
ENDBRANCH  38  39
ENDBRANCH  31  33
ENDBRANCH  30  31
ENDBRANCH  29  30
ENDBRANCH   1  29
TORSDOF 13
ENDMDL
