MODEL 1
REMARK VINA RESULT:     -11.4      0.000      0.000
REMARK SMILES CCNc1nc(C)c(C(=O)N2CC[NH2+][C@H](C(=O)OCCOC(=O)c3ccc(-c4c5nc(c(-c6c(F)c(F)c(F)c(F)c6F)c6ccc([nH]6)c(-c6c(F)c(F)c(F)c(F)c6F)c6nc(c(-c7c(F)c(F)c(F)c(F)c7F)c7ccc4[nH]7)C=C6)C=C5)cc3)C2)s1
REMARK SMILES IDX 19 1 18 2 16 3 17 4 15 5 11 6 12 7 87 8 13 9 14 10 9 13
REMARK SMILES IDX 10 14 8 15 4 16 5 17 88 18 6 19 7 20 3 21 2 23 1 24 20 25
REMARK SMILES IDX 21 26 22 27 23 28 24 29 25 30 86 31 26 32 85 33 27 34 28 35
REMARK SMILES IDX 29 36 79 37 30 38 84 39 78 40 80 41 31 42 83 43 77 44 76 45
REMARK SMILES IDX 32 47 64 48 44 49 63 50 45 51 48 52 62 53 81 54 46 55 47 56
REMARK SMILES IDX 61 58 82 59 49 60 33 61 34 62 42 63 35 64 36 65 40 66 43 67
REMARK SMILES IDX 37 68 38 69 41 70 39 71 65 72 66 73 74 74 67 75 68 76 72 77
REMARK SMILES IDX 75 78 69 79 70 80 73 81 71 82 50 83 51 84 59 85 52 86 53 87
REMARK SMILES IDX 57 88 60 89 54 90 55 91 58 92 56 93
REMARK H PARENT 14 11 14 12 3 22 80 46 48 57
REMARK Flexibility Score: inf
ROOT
ATOM      1  C   UNL A   1      31.574  29.065  25.445  1.00  0.00     0.274 C 
ENDROOT
BRANCH   1   2
ATOM      2  O   UNL A   1      31.992  27.688  25.491  1.00  0.00    -0.458 OA
BRANCH   2   3
ATOM      3  C   UNL A   1      31.611  26.969  26.580  1.00  0.00     0.366 C 
ATOM      4  O   UNL A   1      31.171  27.459  27.615  1.00  0.00    -0.245 OA
BRANCH   3   5
ATOM      5  C   UNL A   1      31.683  25.457  26.356  1.00  0.00     0.313 C 
ATOM      6  N   UNL A   1      32.374  23.717  24.724  1.00  0.00    -0.326 N 
ATOM      7  C   UNL A   1      31.178  22.930  25.035  1.00  0.00     0.181 C 
ATOM      8  C   UNL A   1      32.230  25.162  24.943  1.00  0.00     0.197 C 
ATOM      9  C   UNL A   1      30.601  23.295  26.417  1.00  0.00     0.283 C 
ATOM     10  N   UNL A   1      30.400  24.743  26.613  1.00  0.00    -0.332 N 
ATOM     11  H   UNL A   1      30.098  24.918  27.572  1.00  0.00     0.347 HD
ATOM     12  H   UNL A   1      29.685  25.080  25.968  1.00  0.00     0.347 HD
BRANCH   6  13
ATOM     13  C   UNL A   1      33.367  23.128  23.933  1.00  0.00     0.266 C 
ATOM     14  O   UNL A   1      33.152  22.980  22.728  1.00  0.00    -0.268 OA
BRANCH  13  15
ATOM     15  C   UNL A   1      34.580  22.617  24.561  1.00  0.00     0.117 A 
ATOM     16  C   UNL A   1      36.938  22.338  25.143  1.00  0.00     0.183 A 
ATOM     17  N   UNL A   1      36.297  21.209  25.294  1.00  0.00    -0.225 NA
ATOM     18  S   UNL A   1      35.946  23.667  24.711  1.00  0.00    -0.092 S 
ATOM     19  C   UNL A   1      34.959  21.346  24.967  1.00  0.00     0.063 A 
ATOM     20  C   UNL A   1      34.174  20.094  25.000  1.00  0.00     0.068 C 
BRANCH  16  21
ATOM     21  N   UNL A   1      38.281  22.362  25.258  1.00  0.00    -0.362 N 
ATOM     22  H   UNL A   1      38.815  22.209  24.445  1.00  0.00     0.162 HD
BRANCH  21  23
ATOM     23  C   UNL A   1      38.986  22.595  26.494  1.00  0.00     0.112 C 
ATOM     24  C   UNL A   1      38.890  24.078  26.830  1.00  0.00     0.027 C 
ENDBRANCH  21  23
ENDBRANCH  16  21
ENDBRANCH  13  15
ENDBRANCH   6  13
ENDBRANCH   3   5
ENDBRANCH   2   3
ENDBRANCH   1   2
BRANCH   1  25
ATOM     25  C   UNL A   1      32.750  29.999  25.736  1.00  0.00     0.275 C 
BRANCH  25  26
ATOM     26  O   UNL A   1      32.807  30.349  27.134  1.00  0.00    -0.458 OA
BRANCH  26  27
ATOM     27  C   UNL A   1      33.493  31.485  27.408  1.00  0.00     0.338 C 
ATOM     28  O   UNL A   1      33.073  32.629  27.363  1.00  0.00    -0.246 OA
BRANCH  27  29
ATOM     29  C   UNL A   1      34.840  31.164  27.917  1.00  0.00     0.060 A 
ATOM     30  C   UNL A   1      35.053  29.860  28.370  1.00  0.00     0.016 A 
ATOM     31  C   UNL A   1      35.853  32.122  28.027  1.00  0.00     0.016 A 
ATOM     32  C   UNL A   1      36.282  29.502  28.916  1.00  0.00     0.010 A 
ATOM     33  C   UNL A   1      37.085  31.765  28.596  1.00  0.00     0.010 A 
ATOM     34  C   UNL A   1      37.304  30.452  29.043  1.00  0.00    -0.014 A 
BRANCH  34  35
ATOM     35  C   UNL A   1      38.541  30.051  29.754  1.00  0.00     0.031 A 
ATOM     36  C   UNL A   1      38.768  30.538  31.154  1.00  0.00     0.074 A 
ATOM     37  C   UNL A   1      39.390  29.163  29.204  1.00  0.00     0.049 A 
ATOM     38  N   UNL A   1      39.712  30.221  32.003  1.00  0.00    -0.248 NA
ATOM     39  C   UNL A   1      37.784  31.499  31.676  1.00  0.00     0.031 C 
ATOM     40  C   UNL A   1      39.239  28.559  27.882  1.00  0.00     0.029 A 
ATOM     41  N   UNL A   1      40.531  28.591  29.709  1.00  0.00    -0.354 N 
ATOM     42  C   UNL A   1      39.428  30.928  33.163  1.00  0.00     0.074 A 
ATOM     43  C   UNL A   1      38.236  31.708  32.903  1.00  0.00     0.031 C 
ATOM     44  C   UNL A   1      40.240  27.684  27.686  1.00  0.00     0.029 A 
ATOM     45  C   UNL A   1      41.118  27.689  28.856  1.00  0.00     0.049 A 
ATOM     46  H   UNL A   1      40.895  28.806  30.598  1.00  0.00     0.167 HD
ATOM     47  C   UNL A   1      40.099  30.925  34.339  1.00  0.00     0.037 A 
ATOM     48  C   UNL A   1      42.239  26.956  29.003  1.00  0.00     0.037 A 
ATOM     49  C   UNL A   1      41.298  30.171  34.593  1.00  0.00     0.049 A 
ATOM     50  C   UNL A   1      43.019  27.047  30.290  1.00  0.00     0.074 A 
ATOM     51  C   UNL A   1      42.066  30.131  35.744  1.00  0.00     0.029 A 
ATOM     52  N   UNL A   1      41.911  29.332  33.675  1.00  0.00    -0.354 N 
ATOM     53  N   UNL A   1      42.742  27.713  31.384  1.00  0.00    -0.248 NA
ATOM     54  C   UNL A   1      44.272  26.279  30.360  1.00  0.00     0.031 C 
ATOM     55  C   UNL A   1      43.168  29.302  35.506  1.00  0.00     0.029 A 
ATOM     56  C   UNL A   1      43.061  28.789  34.225  1.00  0.00     0.049 A 
ATOM     57  H   UNL A   1      41.578  29.150  32.767  1.00  0.00     0.167 HD
ATOM     58  C   UNL A   1      43.764  27.423  32.279  1.00  0.00     0.074 A 
ATOM     59  C   UNL A   1      44.662  26.509  31.605  1.00  0.00     0.031 C 
ATOM     60  C   UNL A   1      43.941  27.871  33.547  1.00  0.00     0.037 A 
BRANCH  47  61
ATOM     61  C   UNL A   1      39.567  31.806  35.428  1.00  0.00     0.064 A 
ATOM     62  C   UNL A   1      38.626  31.338  36.358  1.00  0.00     0.173 A 
ATOM     63  C   UNL A   1      40.008  33.131  35.545  1.00  0.00     0.173 A 
ATOM     64  F   UNL A   1      38.160  30.083  36.274  1.00  0.00    -0.203 F 
ATOM     65  C   UNL A   1      38.130  32.176  37.353  1.00  0.00     0.198 A 
ATOM     66  C   UNL A   1      39.526  33.958  36.555  1.00  0.00     0.198 A 
ATOM     67  F   UNL A   1      40.905  33.624  34.678  1.00  0.00    -0.203 F 
ATOM     68  F   UNL A   1      37.199  31.724  38.205  1.00  0.00    -0.200 F 
ATOM     69  C   UNL A   1      38.583  33.484  37.454  1.00  0.00     0.200 A 
ATOM     70  F   UNL A   1      39.970  35.219  36.654  1.00  0.00    -0.200 F 
ATOM     71  F   UNL A   1      38.102  34.289  38.411  1.00  0.00    -0.200 F 
ENDBRANCH  47  61
BRANCH  48  72
ATOM     72  C   UNL A   1      42.709  26.078  27.900  1.00  0.00     0.064 A 
ATOM     73  C   UNL A   1      42.317  24.735  27.824  1.00  0.00     0.173 A 
ATOM     74  C   UNL A   1      43.598  26.554  26.925  1.00  0.00     0.173 A 
ATOM     75  F   UNL A   1      41.489  24.224  28.747  1.00  0.00    -0.203 F 
ATOM     76  C   UNL A   1      42.812  23.896  26.828  1.00  0.00     0.198 A 
ATOM     77  C   UNL A   1      44.072  25.722  25.915  1.00  0.00     0.198 A 
ATOM     78  F   UNL A   1      44.012  27.829  26.960  1.00  0.00    -0.203 F 
ATOM     79  F   UNL A   1      42.458  22.604  26.803  1.00  0.00    -0.200 F 
ATOM     80  C   UNL A   1      43.687  24.391  25.871  1.00  0.00     0.200 A 
ATOM     81  F   UNL A   1      44.912  26.206  24.989  1.00  0.00    -0.200 F 
ATOM     82  F   UNL A   1      44.164  23.584  24.915  1.00  0.00    -0.200 F 
ENDBRANCH  48  72
BRANCH  60  83
ATOM     83  C   UNL A   1      45.131  27.353  34.301  1.00  0.00     0.064 A 
ATOM     84  C   UNL A   1      46.355  28.038  34.308  1.00  0.00     0.173 A 
ATOM     85  C   UNL A   1      45.035  26.172  35.052  1.00  0.00     0.173 A 
ATOM     86  F   UNL A   1      46.503  29.164  33.594  1.00  0.00    -0.203 F 
ATOM     87  C   UNL A   1      47.447  27.545  35.018  1.00  0.00     0.198 A 
ATOM     88  C   UNL A   1      46.120  25.697  35.784  1.00  0.00     0.198 A 
ATOM     89  F   UNL A   1      43.884  25.482  35.086  1.00  0.00    -0.203 F 
ATOM     90  F   UNL A   1      48.621  28.191  34.972  1.00  0.00    -0.200 F 
ATOM     91  C   UNL A   1      47.327  26.379  35.759  1.00  0.00     0.200 A 
ATOM     92  F   UNL A   1      45.999  24.578  36.510  1.00  0.00    -0.200 F 
ATOM     93  F   UNL A   1      48.378  25.908  36.445  1.00  0.00    -0.200 F 
ENDBRANCH  60  83
ENDBRANCH  34  35
ENDBRANCH  27  29
ENDBRANCH  26  27
ENDBRANCH  25  26
ENDBRANCH   1  25
TORSDOF 15
ENDMDL
MODEL 2
REMARK VINA RESULT:     -11.2      1.210      2.524
REMARK SMILES CCNc1nc(C)c(C(=O)N2CC[NH2+][C@H](C(=O)OCCOC(=O)c3ccc(-c4c5nc(c(-c6c(F)c(F)c(F)c(F)c6F)c6ccc([nH]6)c(-c6c(F)c(F)c(F)c(F)c6F)c6nc(c(-c7c(F)c(F)c(F)c(F)c7F)c7ccc4[nH]7)C=C6)C=C5)cc3)C2)s1
REMARK SMILES IDX 19 1 18 2 16 3 17 4 15 5 11 6 12 7 87 8 13 9 14 10 9 13
REMARK SMILES IDX 10 14 8 15 4 16 5 17 88 18 6 19 7 20 3 21 2 23 1 24 20 25
REMARK SMILES IDX 21 26 22 27 23 28 24 29 25 30 86 31 26 32 85 33 27 34 28 35
REMARK SMILES IDX 29 36 79 37 30 38 84 39 78 40 80 41 31 42 83 43 77 44 76 45
REMARK SMILES IDX 32 47 64 48 44 49 63 50 45 51 48 52 62 53 81 54 46 55 47 56
REMARK SMILES IDX 61 58 82 59 49 60 33 61 34 62 42 63 35 64 36 65 40 66 43 67
REMARK SMILES IDX 37 68 38 69 41 70 39 71 65 72 66 73 74 74 67 75 68 76 72 77
REMARK SMILES IDX 75 78 69 79 70 80 73 81 71 82 50 83 51 84 59 85 52 86 53 87
REMARK SMILES IDX 57 88 60 89 54 90 55 91 58 92 56 93
REMARK H PARENT 14 11 14 12 3 22 80 46 48 57
REMARK Flexibility Score: inf
ROOT
ATOM      1  C   UNL A   1      31.821  29.234  25.142  1.00  0.00     0.274 C 
ENDROOT
BRANCH   1   2
ATOM      2  O   UNL A   1      30.765  29.194  24.165  1.00  0.00    -0.458 OA
BRANCH   2   3
ATOM      3  C   UNL A   1      30.670  28.066  23.411  1.00  0.00     0.366 C 
ATOM      4  O   UNL A   1      30.402  28.052  22.214  1.00  0.00    -0.245 OA
BRANCH   3   5
ATOM      5  C   UNL A   1      31.039  26.797  24.182  1.00  0.00     0.313 C 
ATOM      6  N   UNL A   1      32.012  24.525  23.931  1.00  0.00    -0.326 N 
ATOM      7  C   UNL A   1      31.009  23.979  24.850  1.00  0.00     0.181 C 
ATOM      8  C   UNL A   1      31.587  25.731  23.209  1.00  0.00     0.197 C 
ATOM      9  C   UNL A   1      30.417  25.072  25.761  1.00  0.00     0.283 C 
ATOM     10  N   UNL A   1      29.934  26.259  25.028  1.00  0.00    -0.332 N 
ATOM     11  H   UNL A   1      29.636  26.972  25.693  1.00  0.00     0.347 HD
ATOM     12  H   UNL A   1      29.146  25.998  24.437  1.00  0.00     0.347 HD
BRANCH   6  13
ATOM     13  C   UNL A   1      33.076  23.702  23.547  1.00  0.00     0.266 C 
ATOM     14  O   UNL A   1      33.657  23.945  22.486  1.00  0.00    -0.268 OA
BRANCH  13  15
ATOM     15  C   UNL A   1      33.406  22.529  24.348  1.00  0.00     0.117 A 
ATOM     16  C   UNL A   1      33.256  20.313  25.371  1.00  0.00     0.183 A 
ATOM     17  N   UNL A   1      33.948  21.119  26.132  1.00  0.00    -0.225 NA
ATOM     18  S   UNL A   1      32.775  20.991  23.871  1.00  0.00    -0.092 S 
ATOM     19  C   UNL A   1      34.042  22.381  25.571  1.00  0.00     0.063 A 
ATOM     20  C   UNL A   1      34.713  23.393  26.413  1.00  0.00     0.068 C 
BRANCH  16  21
ATOM     21  N   UNL A   1      32.920  19.091  25.826  1.00  0.00    -0.362 N 
ATOM     22  H   UNL A   1      32.939  18.941  26.799  1.00  0.00     0.162 HD
BRANCH  21  23
ATOM     23  C   UNL A   1      32.535  17.987  24.981  1.00  0.00     0.112 C 
ATOM     24  C   UNL A   1      32.763  16.691  25.750  1.00  0.00     0.027 C 
ENDBRANCH  21  23
ENDBRANCH  16  21
ENDBRANCH  13  15
ENDBRANCH   6  13
ENDBRANCH   3   5
ENDBRANCH   2   3
ENDBRANCH   1   2
BRANCH   1  25
ATOM     25  C   UNL A   1      31.763  30.531  25.952  1.00  0.00     0.275 C 
BRANCH  25  26
ATOM     26  O   UNL A   1      32.630  30.468  27.103  1.00  0.00    -0.458 OA
BRANCH  26  27
ATOM     27  C   UNL A   1      33.333  31.600  27.346  1.00  0.00     0.338 C 
ATOM     28  O   UNL A   1      32.927  32.748  27.288  1.00  0.00    -0.246 OA
BRANCH  27  29
ATOM     29  C   UNL A   1      34.684  31.271  27.841  1.00  0.00     0.060 A 
ATOM     30  C   UNL A   1      34.913  29.949  28.228  1.00  0.00     0.016 A 
ATOM     31  C   UNL A   1      35.685  32.235  28.001  1.00  0.00     0.016 A 
ATOM     32  C   UNL A   1      36.147  29.579  28.758  1.00  0.00     0.010 A 
ATOM     33  C   UNL A   1      36.921  31.865  28.554  1.00  0.00     0.010 A 
ATOM     34  C   UNL A   1      37.155  30.534  28.934  1.00  0.00    -0.014 A 
BRANCH  34  35
ATOM     35  C   UNL A   1      38.397  30.114  29.626  1.00  0.00     0.031 A 
ATOM     36  C   UNL A   1      38.647  30.588  31.028  1.00  0.00     0.074 A 
ATOM     37  C   UNL A   1      39.228  29.221  29.059  1.00  0.00     0.049 A 
ATOM     38  N   UNL A   1      39.598  30.253  31.862  1.00  0.00    -0.248 NA
ATOM     39  C   UNL A   1      37.681  31.556  31.569  1.00  0.00     0.031 C 
ATOM     40  C   UNL A   1      39.054  28.629  27.735  1.00  0.00     0.029 A 
ATOM     41  N   UNL A   1      40.370  28.632  29.546  1.00  0.00    -0.354 N 
ATOM     42  C   UNL A   1      39.337  30.955  33.031  1.00  0.00     0.074 A 
ATOM     43  C   UNL A   1      38.151  31.751  32.792  1.00  0.00     0.031 C 
ATOM     44  C   UNL A   1      40.043  27.744  27.520  1.00  0.00     0.029 A 
ATOM     45  C   UNL A   1      40.936  27.730  28.678  1.00  0.00     0.049 A 
ATOM     46  H   UNL A   1      40.747  28.836  30.431  1.00  0.00     0.167 HD
ATOM     47  C   UNL A   1      40.023  30.935  34.198  1.00  0.00     0.037 A 
ATOM     48  C   UNL A   1      42.049  26.984  28.806  1.00  0.00     0.037 A 
ATOM     49  C   UNL A   1      41.216  30.166  34.431  1.00  0.00     0.049 A 
ATOM     50  C   UNL A   1      42.847  27.056  30.083  1.00  0.00     0.074 A 
ATOM     51  C   UNL A   1      41.998  30.109  35.572  1.00  0.00     0.029 A 
ATOM     52  N   UNL A   1      41.807  29.327  33.499  1.00  0.00    -0.354 N 
ATOM     53  N   UNL A   1      42.591  27.717  31.185  1.00  0.00    -0.248 NA
ATOM     54  C   UNL A   1      44.091  26.273  30.131  1.00  0.00     0.031 C 
ATOM     55  C   UNL A   1      43.087  29.269  35.314  1.00  0.00     0.029 A 
ATOM     56  C   UNL A   1      42.958  28.767  34.030  1.00  0.00     0.049 A 
ATOM     57  H   UNL A   1      41.461  29.156  32.594  1.00  0.00     0.167 HD
ATOM     58  C   UNL A   1      43.621  27.408  32.065  1.00  0.00     0.074 A 
ATOM     59  C   UNL A   1      44.500  26.489  31.373  1.00  0.00     0.031 C 
ATOM     60  C   UNL A   1      43.819  27.845  33.334  1.00  0.00     0.037 A 
BRANCH  47  61
ATOM     61  C   UNL A   1      39.514  31.814  35.300  1.00  0.00     0.064 A 
ATOM     62  C   UNL A   1      38.607  31.340  36.259  1.00  0.00     0.173 A 
ATOM     63  C   UNL A   1      39.945  33.144  35.401  1.00  0.00     0.173 A 
ATOM     64  F   UNL A   1      38.152  30.079  36.193  1.00  0.00    -0.203 F 
ATOM     65  C   UNL A   1      38.132  32.175  37.267  1.00  0.00     0.198 A 
ATOM     66  C   UNL A   1      39.485  33.969  36.422  1.00  0.00     0.198 A 
ATOM     67  F   UNL A   1      40.811  33.643  34.506  1.00  0.00    -0.203 F 
ATOM     68  F   UNL A   1      37.232  31.716  38.148  1.00  0.00    -0.200 F 
ATOM     69  C   UNL A   1      38.575  33.487  37.350  1.00  0.00     0.200 A 
ATOM     70  F   UNL A   1      39.918  35.235  36.504  1.00  0.00    -0.200 F 
ATOM     71  F   UNL A   1      38.115  34.291  38.319  1.00  0.00    -0.200 F 
ENDBRANCH  47  61
BRANCH  48  72
ATOM     72  C   UNL A   1      42.495  26.109  27.690  1.00  0.00     0.064 A 
ATOM     73  C   UNL A   1      43.437  26.552  26.752  1.00  0.00     0.173 A 
ATOM     74  C   UNL A   1      41.953  24.827  27.515  1.00  0.00     0.173 A 
ATOM     75  F   UNL A   1      43.966  27.780  26.860  1.00  0.00    -0.203 F 
ATOM     76  C   UNL A   1      43.803  25.755  25.669  1.00  0.00     0.198 A 
ATOM     77  C   UNL A   1      42.339  24.022  26.447  1.00  0.00     0.198 A 
ATOM     78  F   UNL A   1      41.040  24.360  28.379  1.00  0.00    -0.203 F 
ATOM     79  F   UNL A   1      44.672  26.220  24.759  1.00  0.00    -0.200 F 
ATOM     80  C   UNL A   1      43.257  24.489  25.519  1.00  0.00     0.200 A 
ATOM     81  F   UNL A   1      41.814  22.796  26.309  1.00  0.00    -0.200 F 
ATOM     82  F   UNL A   1      43.608  23.725  24.477  1.00  0.00    -0.200 F 
ENDBRANCH  48  72
BRANCH  60  83
ATOM     83  C   UNL A   1      45.012  27.307  34.069  1.00  0.00     0.064 A 
ATOM     84  C   UNL A   1      44.950  26.115  34.806  1.00  0.00     0.173 A 
ATOM     85  C   UNL A   1      46.243  27.978  34.008  1.00  0.00     0.173 A 
ATOM     86  F   UNL A   1      43.792  25.444  34.908  1.00  0.00    -0.203 F 
ATOM     87  C   UNL A   1      46.069  25.629  35.477  1.00  0.00     0.198 A 
ATOM     88  C   UNL A   1      47.368  27.474  34.657  1.00  0.00     0.198 A 
ATOM     89  F   UNL A   1      46.359  29.118  33.311  1.00  0.00    -0.203 F 
ATOM     90  F   UNL A   1      45.974  24.513  36.214  1.00  0.00    -0.200 F 
ATOM     91  C   UNL A   1      47.277  26.305  35.398  1.00  0.00     0.200 A 
ATOM     92  F   UNL A   1      48.537  28.121  34.569  1.00  0.00    -0.200 F 
ATOM     93  F   UNL A   1      48.354  25.833  36.041  1.00  0.00    -0.200 F 
ENDBRANCH  60  83
ENDBRANCH  34  35
ENDBRANCH  27  29
ENDBRANCH  26  27
ENDBRANCH  25  26
ENDBRANCH   1  25
TORSDOF 15
ENDMDL
MODEL 3
REMARK VINA RESULT:     -11.2      4.325      9.895
REMARK SMILES CCNc1nc(C)c(C(=O)N2CC[NH2+][C@H](C(=O)OCCOC(=O)c3ccc(-c4c5nc(c(-c6c(F)c(F)c(F)c(F)c6F)c6ccc([nH]6)c(-c6c(F)c(F)c(F)c(F)c6F)c6nc(c(-c7c(F)c(F)c(F)c(F)c7F)c7ccc4[nH]7)C=C6)C=C5)cc3)C2)s1
REMARK SMILES IDX 19 1 18 2 16 3 17 4 15 5 11 6 12 7 87 8 13 9 14 10 9 13
REMARK SMILES IDX 10 14 8 15 4 16 5 17 88 18 6 19 7 20 3 21 2 23 1 24 20 25
REMARK SMILES IDX 21 26 22 27 23 28 24 29 25 30 86 31 26 32 85 33 27 34 28 35
REMARK SMILES IDX 29 36 79 37 30 38 84 39 78 40 80 41 31 42 83 43 77 44 76 45
REMARK SMILES IDX 32 47 64 48 44 49 63 50 45 51 48 52 62 53 81 54 46 55 47 56
REMARK SMILES IDX 61 58 82 59 49 60 33 61 34 62 42 63 35 64 36 65 40 66 43 67
REMARK SMILES IDX 37 68 38 69 41 70 39 71 65 72 66 73 74 74 67 75 68 76 72 77
REMARK SMILES IDX 75 78 69 79 70 80 73 81 71 82 50 83 51 84 59 85 52 86 53 87
REMARK SMILES IDX 57 88 60 89 54 90 55 91 58 92 56 93
REMARK H PARENT 14 11 14 12 3 22 80 46 48 57
REMARK Flexibility Score: inf
ROOT
ATOM      1  C   UNL A   1      36.527  22.194  23.914  1.00  0.00     0.274 C 
ENDROOT
BRANCH   1   2
ATOM      2  O   UNL A   1      35.253  22.281  24.580  1.00  0.00    -0.458 OA
BRANCH   2   3
ATOM      3  C   UNL A   1      34.945  23.473  25.160  1.00  0.00     0.366 C 
ATOM      4  O   UNL A   1      35.765  24.222  25.681  1.00  0.00    -0.245 OA
BRANCH   3   5
ATOM      5  C   UNL A   1      33.471  23.850  25.007  1.00  0.00     0.313 C 
ATOM      6  N   UNL A   1      31.787  25.581  25.588  1.00  0.00    -0.326 N 
ATOM      7  C   UNL A   1      30.793  24.541  25.865  1.00  0.00     0.181 C 
ATOM      8  C   UNL A   1      33.182  25.159  25.773  1.00  0.00     0.197 C 
ATOM      9  C   UNL A   1      31.140  23.219  25.154  1.00  0.00     0.283 C 
ATOM     10  N   UNL A   1      32.524  22.763  25.390  1.00  0.00    -0.332 N 
ATOM     11  H   UNL A   1      32.710  21.934  24.827  1.00  0.00     0.347 HD
ATOM     12  H   UNL A   1      32.645  22.535  26.377  1.00  0.00     0.347 HD
BRANCH   6  13
ATOM     13  C   UNL A   1      31.359  26.913  25.546  1.00  0.00     0.266 C 
ATOM     14  O   UNL A   1      31.342  27.561  26.595  1.00  0.00    -0.268 OA
BRANCH  13  15
ATOM     15  C   UNL A   1      30.854  27.469  24.296  1.00  0.00     0.117 A 
ATOM     16  C   UNL A   1      30.432  29.039  22.470  1.00  0.00     0.183 A 
ATOM     17  N   UNL A   1      29.442  28.192  22.579  1.00  0.00    -0.225 NA
ATOM     18  S   UNL A   1      31.747  28.734  23.526  1.00  0.00    -0.092 S 
ATOM     19  C   UNL A   1      29.661  27.296  23.610  1.00  0.00     0.063 A 
ATOM     20  C   UNL A   1      28.543  26.368  23.882  1.00  0.00     0.068 C 
BRANCH  16  21
ATOM     21  N   UNL A   1      30.325  30.086  21.628  1.00  0.00    -0.362 N 
ATOM     22  H   UNL A   1      31.153  30.454  21.244  1.00  0.00     0.162 HD
BRANCH  21  23
ATOM     23  C   UNL A   1      29.076  30.702  21.254  1.00  0.00     0.112 C 
ATOM     24  C   UNL A   1      28.777  31.822  22.244  1.00  0.00     0.027 C 
ENDBRANCH  21  23
ENDBRANCH  16  21
ENDBRANCH  13  15
ENDBRANCH   6  13
ENDBRANCH   3   5
ENDBRANCH   2   3
ENDBRANCH   1   2
BRANCH   1  25
ATOM     25  C   UNL A   1      37.392  21.097  24.538  1.00  0.00     0.275 C 
BRANCH  25  26
ATOM     26  O   UNL A   1      37.803  21.451  25.875  1.00  0.00    -0.458 OA
BRANCH  26  27
ATOM     27  C   UNL A   1      39.122  21.278  26.127  1.00  0.00     0.338 C 
ATOM     28  O   UNL A   1      39.811  20.316  25.829  1.00  0.00    -0.246 OA
BRANCH  27  29
ATOM     29  C   UNL A   1      39.698  22.499  26.722  1.00  0.00     0.060 A 
ATOM     30  C   UNL A   1      39.177  23.721  26.290  1.00  0.00     0.016 A 
ATOM     31  C   UNL A   1      40.770  22.469  27.620  1.00  0.00     0.016 A 
ATOM     32  C   UNL A   1      39.710  24.916  26.766  1.00  0.00     0.010 A 
ATOM     33  C   UNL A   1      41.320  23.674  28.084  1.00  0.00     0.010 A 
ATOM     34  C   UNL A   1      40.791  24.903  27.657  1.00  0.00    -0.014 A 
BRANCH  34  35
ATOM     35  C   UNL A   1      41.405  26.201  28.024  1.00  0.00     0.031 A 
ATOM     36  C   UNL A   1      42.796  26.509  27.554  1.00  0.00     0.074 A 
ATOM     37  C   UNL A   1      40.685  27.143  28.662  1.00  0.00     0.049 A 
ATOM     38  N   UNL A   1      43.480  27.620  27.654  1.00  0.00    -0.248 NA
ATOM     39  C   UNL A   1      43.502  25.423  26.858  1.00  0.00     0.031 C 
ATOM     40  C   UNL A   1      39.301  26.991  29.102  1.00  0.00     0.029 A 
ATOM     41  N   UNL A   1      41.015  28.428  29.017  1.00  0.00    -0.354 N 
ATOM     42  C   UNL A   1      44.691  27.374  27.020  1.00  0.00     0.074 A 
ATOM     43  C   UNL A   1      44.656  26.001  26.558  1.00  0.00     0.031 C 
ATOM     44  C   UNL A   1      38.890  28.147  29.653  1.00  0.00     0.029 A 
ATOM     45  C   UNL A   1      39.992  29.108  29.631  1.00  0.00     0.049 A 
ATOM     46  H   UNL A   1      41.900  28.824  28.848  1.00  0.00     0.167 HD
ATOM     47  C   UNL A   1      45.735  28.216  26.837  1.00  0.00     0.037 A 
ATOM     48  C   UNL A   1      39.955  30.362  30.121  1.00  0.00     0.037 A 
ATOM     49  C   UNL A   1      45.784  29.571  27.317  1.00  0.00     0.049 A 
ATOM     50  C   UNL A   1      41.169  31.245  29.989  1.00  0.00     0.074 A 
ATOM     51  C   UNL A   1      46.814  30.489  27.209  1.00  0.00     0.029 A 
ATOM     52  N   UNL A   1      44.760  30.199  28.009  1.00  0.00    -0.354 N 
ATOM     53  N   UNL A   1      42.307  31.008  29.384  1.00  0.00    -0.248 NA
ATOM     54  C   UNL A   1      41.089  32.577  30.609  1.00  0.00     0.031 C 
ATOM     55  C   UNL A   1      46.430  31.659  27.874  1.00  0.00     0.029 A 
ATOM     56  C   UNL A   1      45.143  31.486  28.355  1.00  0.00     0.049 A 
ATOM     57  H   UNL A   1      43.890  29.792  28.223  1.00  0.00     0.167 HD
ATOM     58  C   UNL A   1      43.064  32.164  29.524  1.00  0.00     0.074 A 
ATOM     59  C   UNL A   1      42.252  33.109  30.260  1.00  0.00     0.031 C 
ATOM     60  C   UNL A   1      44.320  32.420  29.079  1.00  0.00     0.037 A 
BRANCH  47  61
ATOM     61  C   UNL A   1      46.932  27.669  26.122  1.00  0.00     0.064 A 
ATOM     62  C   UNL A   1      47.029  27.699  24.722  1.00  0.00     0.173 A 
ATOM     63  C   UNL A   1      47.998  27.114  26.845  1.00  0.00     0.173 A 
ATOM     64  F   UNL A   1      46.027  28.203  23.987  1.00  0.00    -0.203 F 
ATOM     65  C   UNL A   1      48.142  27.171  24.073  1.00  0.00     0.198 A 
ATOM     66  C   UNL A   1      49.117  26.608  26.193  1.00  0.00     0.198 A 
ATOM     67  F   UNL A   1      47.950  27.061  28.184  1.00  0.00    -0.203 F 
ATOM     68  F   UNL A   1      48.196  27.170  22.733  1.00  0.00    -0.200 F 
ATOM     69  C   UNL A   1      49.187  26.631  24.808  1.00  0.00     0.200 A 
ATOM     70  F   UNL A   1      50.128  26.091  26.905  1.00  0.00    -0.200 F 
ATOM     71  F   UNL A   1      50.256  26.121  24.181  1.00  0.00    -0.200 F 
ENDBRANCH  47  61
BRANCH  48  72
ATOM     72  C   UNL A   1      38.732  30.863  30.800  1.00  0.00     0.064 A 
ATOM     73  C   UNL A   1      37.695  31.468  30.076  1.00  0.00     0.173 A 
ATOM     74  C   UNL A   1      38.597  30.789  32.195  1.00  0.00     0.173 A 
ATOM     75  F   UNL A   1      37.788  31.588  28.744  1.00  0.00    -0.203 F 
ATOM     76  C   UNL A   1      36.580  31.998  30.723  1.00  0.00     0.198 A 
ATOM     77  C   UNL A   1      37.470  31.295  32.837  1.00  0.00     0.198 A 
ATOM     78  F   UNL A   1      39.565  30.229  32.934  1.00  0.00    -0.203 F 
ATOM     79  F   UNL A   1      35.623  32.612  30.013  1.00  0.00    -0.200 F 
ATOM     80  C   UNL A   1      36.466  31.908  32.103  1.00  0.00     0.200 A 
ATOM     81  F   UNL A   1      37.361  31.200  34.170  1.00  0.00    -0.200 F 
ATOM     82  F   UNL A   1      35.395  32.418  32.723  1.00  0.00    -0.200 F 
ENDBRANCH  48  72
BRANCH  60  83
ATOM     83  C   UNL A   1      44.879  33.788  29.346  1.00  0.00     0.064 A 
ATOM     84  C   UNL A   1      45.631  34.066  30.497  1.00  0.00     0.173 A 
ATOM     85  C   UNL A   1      44.687  34.825  28.421  1.00  0.00     0.173 A 
ATOM     86  F   UNL A   1      45.831  33.112  31.420  1.00  0.00    -0.203 F 
ATOM     87  C   UNL A   1      46.146  35.339  30.725  1.00  0.00     0.198 A 
ATOM     88  C   UNL A   1      45.227  36.090  28.638  1.00  0.00     0.198 A 
ATOM     89  F   UNL A   1      43.982  34.611  27.300  1.00  0.00    -0.203 F 
ATOM     90  F   UNL A   1      46.822  35.594  31.855  1.00  0.00    -0.200 F 
ATOM     91  C   UNL A   1      45.950  36.348  29.794  1.00  0.00     0.200 A 
ATOM     92  F   UNL A   1      45.047  37.060  27.732  1.00  0.00    -0.200 F 
ATOM     93  F   UNL A   1      46.450  37.572  30.013  1.00  0.00    -0.200 F 
ENDBRANCH  60  83
ENDBRANCH  34  35
ENDBRANCH  27  29
ENDBRANCH  26  27
ENDBRANCH  25  26
ENDBRANCH   1  25
TORSDOF 15
ENDMDL
