MODEL 1
REMARK VINA RESULT:     -12.8      0.000      0.000
REMARK SMILES Cc1cccc(-c2cccc(C(=O)OCCOC(=O)c3ccc(-c4c5nc(c(-c6c(F)c(F)c(F)c(F)c6F)c6ccc([nH]6)c(-c6c(F)c(F)c(F)c(F)c6F)c6nc(c(-c7c(F)c(F)c(F)c(F)c7F)c7ccc4[nH]7)C=C6)C=C5)cc3)c2)c1
REMARK SMILES IDX 16 1 15 2 14 3 12 4 13 5 11 6 7 7 8 8 83 9 9 10 10 11 6 12
REMARK SMILES IDX 1 13 2 14 3 15 84 16 4 17 5 18 17 19 18 20 19 21 20 22 21 23
REMARK SMILES IDX 82 24 22 25 81 26 23 27 24 28 25 29 75 30 26 31 80 32 74 33
REMARK SMILES IDX 76 34 27 35 79 36 73 37 72 38 28 40 60 41 40 42 59 43 41 44
REMARK SMILES IDX 44 45 58 46 77 47 42 48 43 49 57 51 78 52 45 53 29 54 30 55
REMARK SMILES IDX 38 56 31 57 32 58 36 59 39 60 33 61 34 62 37 63 35 64 61 65
REMARK SMILES IDX 62 66 70 67 63 68 64 69 68 70 71 71 65 72 66 73 69 74 67 75
REMARK SMILES IDX 46 76 47 77 55 78 48 79 49 80 53 81 56 82 50 83 51 84 54 85
REMARK SMILES IDX 52 86
REMARK H PARENT 76 39 44 50
REMARK Flexibility Score: inf
ROOT
ATOM      1  C   UNL A   1      36.293  33.072  28.016  1.00  0.00     0.275 C 
ENDROOT
BRANCH   1   2
ATOM      2  C   UNL A   1      34.970  33.845  28.128  1.00  0.00     0.275 C 
BRANCH   2   3
ATOM      3  O   UNL A   1      34.088  33.402  29.179  1.00  0.00    -0.458 OA
BRANCH   3   4
ATOM      4  C   UNL A   1      33.486  34.455  29.796  1.00  0.00     0.338 C 
ATOM      5  O   UNL A   1      32.507  35.043  29.349  1.00  0.00    -0.246 OA
BRANCH   4   6
ATOM      6  C   UNL A   1      34.115  34.927  31.060  1.00  0.00     0.060 A 
ATOM      7  C   UNL A   1      35.641  34.749  32.978  1.00  0.00    -0.018 A 
ATOM      8  C   UNL A   1      34.838  35.706  33.636  1.00  0.00     0.009 A 
ATOM      9  C   UNL A   1      35.295  34.419  31.643  1.00  0.00     0.024 A 
ATOM     10  C   UNL A   1      33.707  36.257  33.043  1.00  0.00     0.002 A 
ATOM     11  C   UNL A   1      33.336  35.849  31.773  1.00  0.00     0.016 A 
BRANCH   7  12
ATOM     12  C   UNL A   1      36.763  34.127  33.737  1.00  0.00    -0.018 A 
ATOM     13  C   UNL A   1      40.599  34.450  33.883  1.00  0.00     0.044 C 
ATOM     14  C   UNL A   1      39.202  33.974  34.159  1.00  0.00    -0.051 A 
ATOM     15  C   UNL A   1      38.988  32.860  34.968  1.00  0.00     0.003 A 
ATOM     16  C   UNL A   1      38.090  34.597  33.566  1.00  0.00     0.012 A 
ATOM     17  C   UNL A   1      37.689  32.402  35.195  1.00  0.00     0.001 A 
ATOM     18  C   UNL A   1      36.588  33.028  34.589  1.00  0.00     0.009 A 
ENDBRANCH   7  12
ENDBRANCH   4   6
ENDBRANCH   3   4
ENDBRANCH   2   3
ENDBRANCH   1   2
BRANCH   1  19
ATOM     19  O   UNL A   1      36.409  31.778  28.671  1.00  0.00    -0.458 OA
BRANCH  19  20
ATOM     20  C   UNL A   1      36.415  30.556  28.084  1.00  0.00     0.338 C 
ATOM     21  O   UNL A   1      35.516  30.179  27.340  1.00  0.00    -0.246 OA
BRANCH  20  22
ATOM     22  C   UNL A   1      37.573  29.695  28.349  1.00  0.00     0.060 A 
ATOM     23  C   UNL A   1      37.526  28.782  29.417  1.00  0.00     0.016 A 
ATOM     24  C   UNL A   1      38.637  29.711  27.458  1.00  0.00     0.016 A 
ATOM     25  C   UNL A   1      38.499  27.803  29.533  1.00  0.00     0.010 A 
ATOM     26  C   UNL A   1      39.487  28.643  27.451  1.00  0.00     0.010 A 
ATOM     27  C   UNL A   1      39.466  27.754  28.536  1.00  0.00    -0.014 A 
BRANCH  27  28
ATOM     28  C   UNL A   1      40.728  27.066  28.696  1.00  0.00     0.031 A 
ATOM     29  C   UNL A   1      40.826  25.629  28.443  1.00  0.00     0.074 A 
ATOM     30  C   UNL A   1      41.723  27.959  28.911  1.00  0.00     0.049 A 
ATOM     31  N   UNL A   1      41.753  24.876  28.912  1.00  0.00    -0.248 NA
ATOM     32  C   UNL A   1      39.834  24.881  27.675  1.00  0.00     0.031 C 
ATOM     33  C   UNL A   1      43.166  27.875  28.833  1.00  0.00     0.029 A 
ATOM     34  N   UNL A   1      41.502  29.263  29.410  1.00  0.00    -0.354 N 
ATOM     35  C   UNL A   1      41.719  23.702  28.186  1.00  0.00     0.074 A 
ATOM     36  C   UNL A   1      40.407  23.674  27.597  1.00  0.00     0.031 C 
ATOM     37  C   UNL A   1      43.684  28.873  29.582  1.00  0.00     0.029 A 
ATOM     38  C   UNL A   1      42.570  29.535  30.260  1.00  0.00     0.049 A 
ATOM     39  H   UNL A   1      40.746  29.857  29.198  1.00  0.00     0.167 HD
ATOM     40  C   UNL A   1      42.901  23.040  28.002  1.00  0.00     0.037 A 
ATOM     41  C   UNL A   1      42.304  29.514  31.601  1.00  0.00     0.037 A 
ATOM     42  C   UNL A   1      43.950  23.746  28.746  1.00  0.00     0.049 A 
ATOM     43  C   UNL A   1      43.014  28.344  32.236  1.00  0.00     0.074 A 
ATOM     44  C   UNL A   1      44.875  24.699  28.348  1.00  0.00     0.029 A 
ATOM     45  N   UNL A   1      43.852  23.845  30.130  1.00  0.00    -0.354 N 
ATOM     46  N   UNL A   1      43.217  27.195  31.646  1.00  0.00    -0.248 NA
ATOM     47  C   UNL A   1      43.644  28.436  33.544  1.00  0.00     0.031 C 
ATOM     48  C   UNL A   1      45.256  25.440  29.501  1.00  0.00     0.029 A 
ATOM     49  C   UNL A   1      44.562  24.939  30.592  1.00  0.00     0.049 A 
ATOM     50  H   UNL A   1      43.347  23.222  30.702  1.00  0.00     0.167 HD
ATOM     51  C   UNL A   1      44.076  26.450  32.408  1.00  0.00     0.074 A 
ATOM     52  C   UNL A   1      44.294  27.262  33.596  1.00  0.00     0.031 C 
ATOM     53  C   UNL A   1      44.589  25.245  32.013  1.00  0.00     0.037 A 
BRANCH  40  54
ATOM     54  C   UNL A   1      43.215  22.003  26.935  1.00  0.00     0.064 A 
ATOM     55  C   UNL A   1      42.561  20.746  26.960  1.00  0.00     0.173 A 
ATOM     56  C   UNL A   1      44.160  22.137  25.899  1.00  0.00     0.173 A 
ATOM     57  F   UNL A   1      41.583  20.484  27.837  1.00  0.00    -0.203 F 
ATOM     58  C   UNL A   1      42.880  19.703  26.084  1.00  0.00     0.198 A 
ATOM     59  C   UNL A   1      44.489  21.088  25.029  1.00  0.00     0.198 A 
ATOM     60  F   UNL A   1      44.778  23.293  25.650  1.00  0.00    -0.203 F 
ATOM     61  F   UNL A   1      42.232  18.532  26.181  1.00  0.00    -0.200 F 
ATOM     62  C   UNL A   1      43.856  19.867  25.126  1.00  0.00     0.200 A 
ATOM     63  F   UNL A   1      45.427  21.275  24.089  1.00  0.00    -0.200 F 
ATOM     64  F   UNL A   1      44.168  18.868  24.291  1.00  0.00    -0.200 F 
ENDBRANCH  40  54
BRANCH  41  65
ATOM     65  C   UNL A   1      40.932  30.025  31.966  1.00  0.00     0.064 A 
ATOM     66  C   UNL A   1      40.524  31.292  31.477  1.00  0.00     0.173 A 
ATOM     67  C   UNL A   1      39.930  29.229  32.534  1.00  0.00     0.173 A 
ATOM     68  F   UNL A   1      41.427  32.121  30.927  1.00  0.00    -0.203 F 
ATOM     69  C   UNL A   1      39.186  31.687  31.452  1.00  0.00     0.198 A 
ATOM     70  C   UNL A   1      38.589  29.644  32.539  1.00  0.00     0.198 A 
ATOM     71  F   UNL A   1      40.220  28.015  33.022  1.00  0.00    -0.203 F 
ATOM     72  F   UNL A   1      38.838  32.838  30.857  1.00  0.00    -0.200 F 
ATOM     73  C   UNL A   1      38.215  30.857  31.978  1.00  0.00     0.200 A 
ATOM     74  F   UNL A   1      37.638  28.822  33.011  1.00  0.00    -0.200 F 
ATOM     75  F   UNL A   1      36.921  31.197  31.898  1.00  0.00    -0.200 F 
ENDBRANCH  41  65
BRANCH  53  76
ATOM     76  C   UNL A   1      45.254  24.248  32.928  1.00  0.00     0.064 A 
ATOM     77  C   UNL A   1      46.516  24.452  33.505  1.00  0.00     0.173 A 
ATOM     78  C   UNL A   1      44.540  23.119  33.403  1.00  0.00     0.173 A 
ATOM     79  F   UNL A   1      47.232  25.557  33.259  1.00  0.00    -0.203 F 
ATOM     80  C   UNL A   1      47.060  23.551  34.420  1.00  0.00     0.198 A 
ATOM     81  C   UNL A   1      45.048  22.276  34.385  1.00  0.00     0.198 A 
ATOM     82  F   UNL A   1      43.310  22.818  32.961  1.00  0.00    -0.203 F 
ATOM     83  F   UNL A   1      48.298  23.755  34.888  1.00  0.00    -0.200 F 
ATOM     84  C   UNL A   1      46.320  22.476  34.874  1.00  0.00     0.200 A 
ATOM     85  F   UNL A   1      44.286  21.286  34.871  1.00  0.00    -0.200 F 
ATOM     86  F   UNL A   1      46.824  21.650  35.800  1.00  0.00    -0.200 F 
ENDBRANCH  53  76
ENDBRANCH  27  28
ENDBRANCH  20  22
ENDBRANCH  19  20
ENDBRANCH   1  19
TORSDOF 12
ENDMDL
MODEL 2
REMARK VINA RESULT:     -12.5      2.626      5.818
REMARK SMILES Cc1cccc(-c2cccc(C(=O)OCCOC(=O)c3ccc(-c4c5nc(c(-c6c(F)c(F)c(F)c(F)c6F)c6ccc([nH]6)c(-c6c(F)c(F)c(F)c(F)c6F)c6nc(c(-c7c(F)c(F)c(F)c(F)c7F)c7ccc4[nH]7)C=C6)C=C5)cc3)c2)c1
REMARK SMILES IDX 16 1 15 2 14 3 12 4 13 5 11 6 7 7 8 8 83 9 9 10 10 11 6 12
REMARK SMILES IDX 1 13 2 14 3 15 84 16 4 17 5 18 17 19 18 20 19 21 20 22 21 23
REMARK SMILES IDX 82 24 22 25 81 26 23 27 24 28 25 29 75 30 26 31 80 32 74 33
REMARK SMILES IDX 76 34 27 35 79 36 73 37 72 38 28 40 60 41 40 42 59 43 41 44
REMARK SMILES IDX 44 45 58 46 77 47 42 48 43 49 57 51 78 52 45 53 29 54 30 55
REMARK SMILES IDX 38 56 31 57 32 58 36 59 39 60 33 61 34 62 37 63 35 64 61 65
REMARK SMILES IDX 62 66 70 67 63 68 64 69 68 70 71 71 65 72 66 73 69 74 67 75
REMARK SMILES IDX 46 76 47 77 55 78 48 79 49 80 53 81 56 82 50 83 51 84 54 85
REMARK SMILES IDX 52 86
REMARK H PARENT 76 39 44 50
REMARK Flexibility Score: inf
ROOT
ATOM      1  C   UNL A   1      34.012  30.585  27.234  1.00  0.00     0.275 C 
ENDROOT
BRANCH   1   2
ATOM      2  C   UNL A   1      32.916  29.583  26.835  1.00  0.00     0.275 C 
BRANCH   2   3
ATOM      3  O   UNL A   1      33.362  28.482  26.018  1.00  0.00    -0.458 OA
BRANCH   3   4
ATOM      4  C   UNL A   1      32.349  27.606  25.774  1.00  0.00     0.338 C 
ATOM      5  O   UNL A   1      31.231  27.940  25.394  1.00  0.00    -0.246 OA
BRANCH   4   6
ATOM      6  C   UNL A   1      32.636  26.171  26.046  1.00  0.00     0.060 A 
ATOM      7  C   UNL A   1      33.962  24.108  25.892  1.00  0.00    -0.018 A 
ATOM      8  C   UNL A   1      32.791  23.396  26.231  1.00  0.00     0.009 A 
ATOM      9  C   UNL A   1      33.877  25.523  25.872  1.00  0.00     0.024 A 
ATOM     10  C   UNL A   1      31.578  24.034  26.466  1.00  0.00     0.002 A 
ATOM     11  C   UNL A   1      31.499  25.410  26.348  1.00  0.00     0.016 A 
BRANCH   7  12
ATOM     12  C   UNL A   1      35.185  23.331  25.542  1.00  0.00    -0.018 A 
ATOM     13  C   UNL A   1      36.102  19.645  24.896  1.00  0.00     0.044 C 
ATOM     14  C   UNL A   1      36.229  21.130  25.074  1.00  0.00    -0.051 A 
ATOM     15  C   UNL A   1      37.487  21.730  25.087  1.00  0.00     0.003 A 
ATOM     16  C   UNL A   1      35.098  21.937  25.289  1.00  0.00     0.012 A 
ATOM     17  C   UNL A   1      37.602  23.106  25.286  1.00  0.00     0.001 A 
ATOM     18  C   UNL A   1      36.465  23.899  25.509  1.00  0.00     0.009 A 
ENDBRANCH   7  12
ENDBRANCH   4   6
ENDBRANCH   3   4
ENDBRANCH   2   3
ENDBRANCH   1   2
BRANCH   1  19
ATOM     19  O   UNL A   1      35.396  30.140  27.260  1.00  0.00    -0.458 OA
BRANCH  19  20
ATOM     20  C   UNL A   1      36.427  30.695  27.944  1.00  0.00     0.338 C 
ATOM     21  O   UNL A   1      36.406  31.856  28.337  1.00  0.00    -0.246 OA
BRANCH  20  22
ATOM     22  C   UNL A   1      37.577  29.832  28.232  1.00  0.00     0.060 A 
ATOM     23  C   UNL A   1      37.560  29.013  29.374  1.00  0.00     0.016 A 
ATOM     24  C   UNL A   1      38.601  29.747  27.298  1.00  0.00     0.016 A 
ATOM     25  C   UNL A   1      38.517  28.024  29.531  1.00  0.00     0.010 A 
ATOM     26  C   UNL A   1      39.428  28.663  27.346  1.00  0.00     0.010 A 
ATOM     27  C   UNL A   1      39.437  27.868  28.502  1.00  0.00    -0.014 A 
BRANCH  27  28
ATOM     28  C   UNL A   1      40.691  27.166  28.666  1.00  0.00     0.031 A 
ATOM     29  C   UNL A   1      40.770  25.725  28.428  1.00  0.00     0.074 A 
ATOM     30  C   UNL A   1      41.698  28.048  28.870  1.00  0.00     0.049 A 
ATOM     31  N   UNL A   1      41.689  24.966  28.902  1.00  0.00    -0.248 NA
ATOM     32  C   UNL A   1      39.767  24.983  27.669  1.00  0.00     0.031 C 
ATOM     33  C   UNL A   1      43.139  27.946  28.789  1.00  0.00     0.029 A 
ATOM     34  N   UNL A   1      41.494  29.360  29.356  1.00  0.00    -0.354 N 
ATOM     35  C   UNL A   1      41.639  23.785  28.188  1.00  0.00     0.074 A 
ATOM     36  C   UNL A   1      40.325  23.767  27.602  1.00  0.00     0.031 C 
ATOM     37  C   UNL A   1      43.671  28.945  29.527  1.00  0.00     0.029 A 
ATOM     38  C   UNL A   1      42.567  29.627  30.200  1.00  0.00     0.049 A 
ATOM     39  H   UNL A   1      40.745  29.961  29.140  1.00  0.00     0.167 HD
ATOM     40  C   UNL A   1      42.812  23.107  28.008  1.00  0.00     0.037 A 
ATOM     41  C   UNL A   1      42.304  29.624  31.542  1.00  0.00     0.037 A 
ATOM     42  C   UNL A   1      43.871  23.807  28.742  1.00  0.00     0.049 A 
ATOM     43  C   UNL A   1      43.001  28.451  32.188  1.00  0.00     0.074 A 
ATOM     44  C   UNL A   1      44.807  24.743  28.332  1.00  0.00     0.029 A 
ATOM     45  N   UNL A   1      43.778  23.921  30.126  1.00  0.00    -0.354 N 
ATOM     46  N   UNL A   1      43.189  27.293  31.609  1.00  0.00    -0.248 NA
ATOM     47  C   UNL A   1      43.636  28.549  33.493  1.00  0.00     0.031 C 
ATOM     48  C   UNL A   1      45.200  25.492  29.477  1.00  0.00     0.029 A 
ATOM     49  C   UNL A   1      44.502  25.011  30.575  1.00  0.00     0.049 A 
ATOM     50  H   UNL A   1      43.266  23.310  30.705  1.00  0.00     0.167 HD
ATOM     51  C   UNL A   1      44.040  26.545  32.377  1.00  0.00     0.074 A 
ATOM     52  C   UNL A   1      44.271  27.367  33.555  1.00  0.00     0.031 C 
ATOM     53  C   UNL A   1      44.537  25.330  31.993  1.00  0.00     0.037 A 
BRANCH  40  54
ATOM     54  C   UNL A   1      43.110  22.055  26.951  1.00  0.00     0.064 A 
ATOM     55  C   UNL A   1      42.451  20.801  26.998  1.00  0.00     0.173 A 
ATOM     56  C   UNL A   1      44.045  22.172  25.904  1.00  0.00     0.173 A 
ATOM     57  F   UNL A   1      41.479  20.555  27.887  1.00  0.00    -0.203 F 
ATOM     58  C   UNL A   1      42.756  19.746  26.131  1.00  0.00     0.198 A 
ATOM     59  C   UNL A   1      44.361  21.109  25.044  1.00  0.00     0.198 A 
ATOM     60  F   UNL A   1      44.667  23.321  25.635  1.00  0.00    -0.203 F 
ATOM     61  F   UNL A   1      42.103  18.580  26.249  1.00  0.00    -0.200 F 
ATOM     62  C   UNL A   1      43.723  19.894  25.163  1.00  0.00     0.200 A 
ATOM     63  F   UNL A   1      45.291  21.280  24.092  1.00  0.00    -0.200 F 
ATOM     64  F   UNL A   1      44.022  18.882  24.337  1.00  0.00    -0.200 F 
ENDBRANCH  40  54
BRANCH  41  65
ATOM     65  C   UNL A   1      40.940  30.155  31.906  1.00  0.00     0.064 A 
ATOM     66  C   UNL A   1      39.928  29.236  32.282  1.00  0.00     0.173 A 
ATOM     67  C   UNL A   1      40.671  31.506  32.154  1.00  0.00     0.173 A 
ATOM     68  F   UNL A   1      40.104  27.921  32.069  1.00  0.00    -0.203 F 
ATOM     69  C   UNL A   1      38.778  29.631  32.966  1.00  0.00     0.198 A 
ATOM     70  C   UNL A   1      39.496  31.905  32.811  1.00  0.00     0.198 A 
ATOM     71  F   UNL A   1      41.568  32.449  31.833  1.00  0.00    -0.203 F 
ATOM     72  F   UNL A   1      37.917  28.707  33.418  1.00  0.00    -0.200 F 
ATOM     73  C   UNL A   1      38.565  30.969  33.237  1.00  0.00     0.200 A 
ATOM     74  F   UNL A   1      39.306  33.199  33.112  1.00  0.00    -0.200 F 
ATOM     75  F   UNL A   1      37.497  31.351  33.952  1.00  0.00    -0.200 F 
ENDBRANCH  41  65
BRANCH  53  76
ATOM     76  C   UNL A   1      45.192  24.335  32.916  1.00  0.00     0.064 A 
ATOM     77  C   UNL A   1      46.457  24.528  33.489  1.00  0.00     0.173 A 
ATOM     78  C   UNL A   1      44.465  23.219  33.403  1.00  0.00     0.173 A 
ATOM     79  F   UNL A   1      47.186  25.622  33.230  1.00  0.00    -0.203 F 
ATOM     80  C   UNL A   1      46.992  23.630  34.412  1.00  0.00     0.198 A 
ATOM     81  C   UNL A   1      44.965  22.380  34.393  1.00  0.00     0.198 A 
ATOM     82  F   UNL A   1      43.231  22.928  32.967  1.00  0.00    -0.203 F 
ATOM     83  F   UNL A   1      48.233  23.823  34.875  1.00  0.00    -0.200 F 
ATOM     84  C   UNL A   1      46.240  22.569  34.877  1.00  0.00     0.200 A 
ATOM     85  F   UNL A   1      44.191  21.403  34.890  1.00  0.00    -0.200 F 
ATOM     86  F   UNL A   1      46.735  21.746  35.811  1.00  0.00    -0.200 F 
ENDBRANCH  53  76
ENDBRANCH  27  28
ENDBRANCH  20  22
ENDBRANCH  19  20
ENDBRANCH   1  19
TORSDOF 12
ENDMDL
MODEL 3
REMARK VINA RESULT:     -12.5      2.706      5.870
REMARK SMILES Cc1cccc(-c2cccc(C(=O)OCCOC(=O)c3ccc(-c4c5nc(c(-c6c(F)c(F)c(F)c(F)c6F)c6ccc([nH]6)c(-c6c(F)c(F)c(F)c(F)c6F)c6nc(c(-c7c(F)c(F)c(F)c(F)c7F)c7ccc4[nH]7)C=C6)C=C5)cc3)c2)c1
REMARK SMILES IDX 16 1 15 2 14 3 12 4 13 5 11 6 7 7 8 8 83 9 9 10 10 11 6 12
REMARK SMILES IDX 1 13 2 14 3 15 84 16 4 17 5 18 17 19 18 20 19 21 20 22 21 23
REMARK SMILES IDX 82 24 22 25 81 26 23 27 24 28 25 29 75 30 26 31 80 32 74 33
REMARK SMILES IDX 76 34 27 35 79 36 73 37 72 38 28 40 60 41 40 42 59 43 41 44
REMARK SMILES IDX 44 45 58 46 77 47 42 48 43 49 57 51 78 52 45 53 29 54 30 55
REMARK SMILES IDX 38 56 31 57 32 58 36 59 39 60 33 61 34 62 37 63 35 64 61 65
REMARK SMILES IDX 62 66 70 67 63 68 64 69 68 70 71 71 65 72 66 73 69 74 67 75
REMARK SMILES IDX 46 76 47 77 55 78 48 79 49 80 53 81 56 82 50 83 51 84 54 85
REMARK SMILES IDX 52 86
REMARK H PARENT 76 39 44 50
REMARK Flexibility Score: inf
ROOT
ATOM      1  C   UNL A   1      34.484  29.170  27.085  1.00  0.00     0.275 C 
ENDROOT
BRANCH   1   2
ATOM      2  C   UNL A   1      33.001  29.565  27.186  1.00  0.00     0.275 C 
BRANCH   2   3
ATOM      3  O   UNL A   1      32.085  28.465  27.361  1.00  0.00    -0.458 OA
BRANCH   3   4
ATOM      4  C   UNL A   1      31.863  27.816  26.186  1.00  0.00     0.338 C 
ATOM      5  O   UNL A   1      31.422  28.357  25.176  1.00  0.00    -0.246 OA
BRANCH   4   6
ATOM      6  C   UNL A   1      32.132  26.352  26.178  1.00  0.00     0.060 A 
ATOM      7  C   UNL A   1      33.514  24.354  25.806  1.00  0.00    -0.018 A 
ATOM      8  C   UNL A   1      32.319  23.603  25.764  1.00  0.00     0.009 A 
ATOM      9  C   UNL A   1      33.400  25.740  26.087  1.00  0.00     0.024 A 
ATOM     10  C   UNL A   1      31.068  24.192  25.915  1.00  0.00     0.002 A 
ATOM     11  C   UNL A   1      30.977  25.561  26.095  1.00  0.00     0.016 A 
BRANCH   7  12
ATOM     12  C   UNL A   1      34.798  23.655  25.515  1.00  0.00    -0.018 A 
ATOM     13  C   UNL A   1      35.970  20.036  24.907  1.00  0.00     0.044 C 
ATOM     14  C   UNL A   1      35.997  21.526  25.094  1.00  0.00    -0.051 A 
ATOM     15  C   UNL A   1      37.214  22.201  25.172  1.00  0.00     0.003 A 
ATOM     16  C   UNL A   1      34.810  22.261  25.255  1.00  0.00     0.012 A 
ATOM     17  C   UNL A   1      37.234  23.581  25.379  1.00  0.00     0.001 A 
ATOM     18  C   UNL A   1      36.040  24.301  25.547  1.00  0.00     0.009 A 
ENDBRANCH   7  12
ENDBRANCH   4   6
ENDBRANCH   3   4
ENDBRANCH   2   3
ENDBRANCH   1   2
BRANCH   1  19
ATOM     19  O   UNL A   1      35.482  30.219  26.941  1.00  0.00    -0.458 OA
BRANCH  19  20
ATOM     20  C   UNL A   1      36.344  30.670  27.885  1.00  0.00     0.338 C 
ATOM     21  O   UNL A   1      36.171  31.729  28.481  1.00  0.00    -0.246 OA
BRANCH  20  22
ATOM     22  C   UNL A   1      37.495  29.818  28.199  1.00  0.00     0.060 A 
ATOM     23  C   UNL A   1      37.450  28.983  29.329  1.00  0.00     0.016 A 
ATOM     24  C   UNL A   1      38.550  29.759  27.299  1.00  0.00     0.016 A 
ATOM     25  C   UNL A   1      38.414  28.005  29.505  1.00  0.00     0.010 A 
ATOM     26  C   UNL A   1      39.389  28.684  27.360  1.00  0.00     0.010 A 
ATOM     27  C   UNL A   1      39.370  27.874  28.505  1.00  0.00    -0.014 A 
BRANCH  27  28
ATOM     28  C   UNL A   1      40.627  27.185  28.701  1.00  0.00     0.031 A 
ATOM     29  C   UNL A   1      40.729  25.747  28.461  1.00  0.00     0.074 A 
ATOM     30  C   UNL A   1      41.617  28.079  28.936  1.00  0.00     0.049 A 
ATOM     31  N   UNL A   1      41.643  24.996  28.957  1.00  0.00    -0.248 NA
ATOM     32  C   UNL A   1      39.756  24.996  27.672  1.00  0.00     0.031 C 
ATOM     33  C   UNL A   1      43.061  27.992  28.895  1.00  0.00     0.029 A 
ATOM     34  N   UNL A   1      41.385  29.386  29.421  1.00  0.00    -0.354 N 
ATOM     35  C   UNL A   1      41.626  23.817  28.238  1.00  0.00     0.074 A 
ATOM     36  C   UNL A   1      40.329  23.787  27.616  1.00  0.00     0.031 C 
ATOM     37  C   UNL A   1      43.562  28.995  29.651  1.00  0.00     0.029 A 
ATOM     38  C   UNL A   1      42.432  29.662  30.296  1.00  0.00     0.049 A 
ATOM     39  H   UNL A   1      40.636  29.979  29.187  1.00  0.00     0.167 HD
ATOM     40  C   UNL A   1      42.811  23.153  28.088  1.00  0.00     0.037 A 
ATOM     41  C   UNL A   1      42.132  29.650  31.630  1.00  0.00     0.037 A 
ATOM     42  C   UNL A   1      43.842  23.862  28.854  1.00  0.00     0.049 A 
ATOM     43  C   UNL A   1      42.824  28.483  32.290  1.00  0.00     0.074 A 
ATOM     44  C   UNL A   1      44.778  24.811  28.473  1.00  0.00     0.029 A 
ATOM     45  N   UNL A   1      43.709  23.970  30.235  1.00  0.00    -0.354 N 
ATOM     46  N   UNL A   1      43.040  27.329  31.713  1.00  0.00    -0.248 NA
ATOM     47  C   UNL A   1      43.421  28.582  33.613  1.00  0.00     0.031 C 
ATOM     48  C   UNL A   1      45.130  25.559  29.631  1.00  0.00     0.029 A 
ATOM     49  C   UNL A   1      44.408  25.066  30.707  1.00  0.00     0.049 A 
ATOM     50  H   UNL A   1      43.188  23.351  30.797  1.00  0.00     0.167 HD
ATOM     51  C   UNL A   1      43.878  26.588  32.502  1.00  0.00     0.074 A 
ATOM     52  C   UNL A   1      44.067  27.408  33.689  1.00  0.00     0.031 C 
ATOM     53  C   UNL A   1      44.399  25.381  32.127  1.00  0.00     0.037 A 
BRANCH  40  54
ATOM     54  C   UNL A   1      43.151  22.109  27.036  1.00  0.00     0.064 A 
ATOM     55  C   UNL A   1      42.474  20.864  27.035  1.00  0.00     0.173 A 
ATOM     56  C   UNL A   1      44.140  22.225  26.040  1.00  0.00     0.173 A 
ATOM     57  F   UNL A   1      41.455  20.620  27.870  1.00  0.00    -0.203 F 
ATOM     58  C   UNL A   1      42.810  19.814  26.173  1.00  0.00     0.198 A 
ATOM     59  C   UNL A   1      44.486  21.168  25.186  1.00  0.00     0.198 A 
ATOM     60  F   UNL A   1      44.788  23.369  25.816  1.00  0.00    -0.203 F 
ATOM     61  F   UNL A   1      42.138  18.655  26.244  1.00  0.00    -0.200 F 
ATOM     62  C   UNL A   1      43.828  19.959  25.257  1.00  0.00     0.200 A 
ATOM     63  F   UNL A   1      45.466  21.337  24.285  1.00  0.00    -0.200 F 
ATOM     64  F   UNL A   1      44.157  18.953  24.436  1.00  0.00    -0.200 F 
ENDBRANCH  40  54
BRANCH  41  65
ATOM     65  C   UNL A   1      40.752  30.165  31.958  1.00  0.00     0.064 A 
ATOM     66  C   UNL A   1      39.742  29.233  32.306  1.00  0.00     0.173 A 
ATOM     67  C   UNL A   1      40.460  31.513  32.200  1.00  0.00     0.173 A 
ATOM     68  F   UNL A   1      39.939  27.921  32.096  1.00  0.00    -0.203 F 
ATOM     69  C   UNL A   1      38.569  29.613  32.959  1.00  0.00     0.198 A 
ATOM     70  C   UNL A   1      39.264  31.896  32.825  1.00  0.00     0.198 A 
ATOM     71  F   UNL A   1      41.354  32.466  31.904  1.00  0.00    -0.203 F 
ATOM     72  F   UNL A   1      37.707  28.678  33.387  1.00  0.00    -0.200 F 
ATOM     73  C   UNL A   1      38.333  30.948  33.225  1.00  0.00     0.200 A 
ATOM     74  F   UNL A   1      39.050  33.187  33.123  1.00  0.00    -0.200 F 
ATOM     75  F   UNL A   1      37.241  31.316  33.912  1.00  0.00    -0.200 F 
ENDBRANCH  41  65
BRANCH  53  76
ATOM     76  C   UNL A   1      45.040  24.389  33.065  1.00  0.00     0.064 A 
ATOM     77  C   UNL A   1      44.421  23.198  33.471  1.00  0.00     0.173 A 
ATOM     78  C   UNL A   1      46.401  24.528  33.439  1.00  0.00     0.173 A 
ATOM     79  F   UNL A   1      43.188  22.871  33.061  1.00  0.00    -0.203 F 
ATOM     80  C   UNL A   1      45.080  22.259  34.263  1.00  0.00     0.198 A 
ATOM     81  C   UNL A   1      47.081  23.546  34.149  1.00  0.00     0.198 A 
ATOM     82  F   UNL A   1      47.127  25.602  33.095  1.00  0.00    -0.203 F 
ATOM     83  F   UNL A   1      44.420  21.172  34.684  1.00  0.00    -0.200 F 
ATOM     84  C   UNL A   1      46.414  22.423  34.586  1.00  0.00     0.200 A 
ATOM     85  F   UNL A   1      48.394  23.684  34.384  1.00  0.00    -0.200 F 
ATOM     86  F   UNL A   1      47.059  21.487  35.294  1.00  0.00    -0.200 F 
ENDBRANCH  53  76
ENDBRANCH  27  28
ENDBRANCH  20  22
ENDBRANCH  19  20
ENDBRANCH   1  19
TORSDOF 12
ENDMDL
