MODEL 1
REMARK VINA RESULT:     -12.8      0.000      0.000
REMARK SMILES O=C(OCCOC(=O)c1ccc(-c2c3nc(c(-c4c(F)c(F)c(F)c(F)c4F)c4ccc([nH]4)c(-c4c(F)c(F)c(F)c(F)c4F)c4nc(c(-c5c(F)c(F)c(F)c(F)c5F)c5ccc2[nH]5)C=C4)C=C3)cc1)C1=Cc2cc(S(F)(F)(F)(F)F)ccc2O[C@@H]1C(F)(F)F
REMARK SMILES IDX 5 1 4 2 3 3 2 4 1 5 72 6 73 7 87 8 74 9 86 10 75 11 85 12
REMARK SMILES IDX 76 13 84 14 83 15 88 16 89 17 90 18 91 19 77 20 78 21 79 22
REMARK SMILES IDX 80 23 81 24 82 25 6 26 7 27 8 28 9 29 10 30 71 31 11 32
REMARK SMILES IDX 70 33 12 34 13 35 14 36 64 37 15 38 69 39 63 40 65 41 16 42
REMARK SMILES IDX 68 43 62 44 61 45 17 47 49 48 29 49 48 50 30 51 33 52 47 53
REMARK SMILES IDX 66 54 31 55 32 56 46 58 67 59 34 60 18 61 19 62 27 63 20 64
REMARK SMILES IDX 21 65 25 66 28 67 22 68 23 69 26 70 24 71 50 72 51 73 59 74
REMARK SMILES IDX 52 75 53 76 57 77 60 78 54 79 55 80 58 81 56 82 35 83 36 84
REMARK SMILES IDX 44 85 37 86 38 87 42 88 45 89 39 90 40 91 43 92 41 93
REMARK H PARENT 65 46 33 57
REMARK Flexibility Score: inf
ROOT
ATOM      1  C   UNL A   1      31.710  29.792  25.984  1.00  0.00     0.275 C 
ENDROOT
BRANCH   1   2
ATOM      2  C   UNL A   1      31.770  28.623  26.953  1.00  0.00     0.275 C 
BRANCH   2   3
ATOM      3  O   UNL A   1      31.850  27.407  26.224  1.00  0.00    -0.459 OA
BRANCH   3   4
ATOM      4  C   UNL A   1      33.020  27.101  25.480  1.00  0.00     0.338 C 
ATOM      5  O   UNL A   1      34.161  27.157  26.039  1.00  0.00    -0.246 OA
BRANCH   4   6
ATOM      6  C   UNL A   1      32.909  26.706  24.017  1.00  0.00     0.087 C 
ATOM      7  C   UNL A   1      33.366  25.494  23.603  1.00  0.00     0.027 C 
ATOM      8  C   UNL A   1      32.287  27.666  23.015  1.00  0.00     0.316 C 
ATOM      9  C   UNL A   1      33.987  24.534  24.603  1.00  0.00     0.019 A 
ATOM     10  O   UNL A   1      32.158  25.172  25.979  1.00  0.00    -0.475 OA
ATOM     11  C   UNL A   1      35.211  23.917  24.405  1.00  0.00     0.036 A 
ATOM     12  C   UNL A   1      33.327  24.400  25.748  1.00  0.00     0.128 A 
ATOM     13  C   UNL A   1      35.525  22.937  25.376  1.00  0.00     0.107 A 
ATOM     14  C   UNL A   1      33.766  23.523  26.711  1.00  0.00     0.048 A 
ATOM     15  C   UNL A   1      34.937  22.836  26.555  1.00  0.00     0.028 A 
BRANCH   8  16
ATOM     16  C   UNL A   1      31.072  27.015  22.376  1.00  0.00     0.430 C 
ATOM     17  F   UNL A   1      30.499  26.192  23.251  1.00  0.00    -0.167 F 
ATOM     18  F   UNL A   1      30.202  27.955  22.017  1.00  0.00    -0.167 F 
ATOM     19  F   UNL A   1      31.451  26.327  21.303  1.00  0.00    -0.167 F 
ENDBRANCH   8  16
BRANCH  13  20
ATOM     20  S   UNL A   1      36.821  21.738  24.975  1.00  0.00     0.310 S 
ATOM     21  F   UNL A   1      36.915  22.233  23.472  1.00  0.00    -0.094 F 
ATOM     22  F   UNL A   1      35.707  20.729  24.501  1.00  0.00    -0.094 F 
ATOM     23  F   UNL A   1      37.935  20.707  24.642  1.00  0.00    -0.094 F 
ATOM     24  F   UNL A   1      37.927  22.811  25.323  1.00  0.00    -0.094 F 
ATOM     25  F   UNL A   1      35.705  22.833  25.212  1.00  0.00    -0.094 F 
ENDBRANCH  13  20
ENDBRANCH   4   6
ENDBRANCH   3   4
ENDBRANCH   2   3
ENDBRANCH   1   2
BRANCH   1  26
ATOM     26  O   UNL A   1      32.963  30.462  25.972  1.00  0.00    -0.458 OA
BRANCH  26  27
ATOM     27  C   UNL A   1      33.279  31.393  26.996  1.00  0.00     0.338 C 
ATOM     28  O   UNL A   1      32.533  32.405  27.188  1.00  0.00    -0.246 OA
BRANCH  27  29
ATOM     29  C   UNL A   1      34.509  31.182  27.863  1.00  0.00     0.060 A 
ATOM     30  C   UNL A   1      35.468  32.172  27.994  1.00  0.00     0.016 A 
ATOM     31  C   UNL A   1      34.709  29.962  28.348  1.00  0.00     0.016 A 
ATOM     32  C   UNL A   1      36.735  31.695  28.402  1.00  0.00     0.010 A 
ATOM     33  C   UNL A   1      35.934  29.604  28.858  1.00  0.00     0.010 A 
ATOM     34  C   UNL A   1      36.947  30.516  28.962  1.00  0.00    -0.014 A 
BRANCH  34  35
ATOM     35  C   UNL A   1      38.245  30.194  29.683  1.00  0.00     0.031 A 
ATOM     36  C   UNL A   1      38.359  30.747  30.960  1.00  0.00     0.074 A 
ATOM     37  C   UNL A   1      39.144  29.286  29.149  1.00  0.00     0.049 A 
ATOM     38  N   UNL A   1      39.294  30.491  31.876  1.00  0.00    -0.248 NA
ATOM     39  C   UNL A   1      37.425  31.737  31.516  1.00  0.00     0.031 C 
ATOM     40  C   UNL A   1      39.030  28.717  27.866  1.00  0.00     0.029 A 
ATOM     41  N   UNL A   1      40.281  28.778  29.737  1.00  0.00    -0.354 N 
ATOM     42  C   UNL A   1      39.059  31.199  32.983  1.00  0.00     0.074 A 
ATOM     43  C   UNL A   1      37.857  32.015  32.765  1.00  0.00     0.031 C 
ATOM     44  C   UNL A   1      40.090  27.887  27.678  1.00  0.00     0.029 A 
ATOM     45  C   UNL A   1      40.883  27.923  28.841  1.00  0.00     0.049 A 
ATOM     46  H   UNL A   1      40.607  28.989  30.642  1.00  0.00     0.167 HD
ATOM     47  C   UNL A   1      39.800  31.194  34.166  1.00  0.00     0.037 A 
ATOM     48  C   UNL A   1      42.057  27.207  29.009  1.00  0.00     0.037 A 
ATOM     49  C   UNL A   1      40.951  30.445  34.350  1.00  0.00     0.049 A 
ATOM     50  C   UNL A   1      42.831  27.247  30.172  1.00  0.00     0.074 A 
ATOM     51  C   UNL A   1      41.705  30.423  35.539  1.00  0.00     0.029 A 
ATOM     52  N   UNL A   1      41.566  29.608  33.445  1.00  0.00    -0.354 N 
ATOM     53  N   UNL A   1      42.575  27.924  31.292  1.00  0.00    -0.248 NA
ATOM     54  C   UNL A   1      44.093  26.518  30.349  1.00  0.00     0.031 C 
ATOM     55  C   UNL A   1      42.764  29.593  35.351  1.00  0.00     0.029 A 
ATOM     56  C   UNL A   1      42.691  29.083  34.041  1.00  0.00     0.049 A 
ATOM     57  H   UNL A   1      41.255  29.420  32.530  1.00  0.00     0.167 HD
ATOM     58  C   UNL A   1      43.533  27.699  32.194  1.00  0.00     0.074 A 
ATOM     59  C   UNL A   1      44.527  26.797  31.597  1.00  0.00     0.031 C 
ATOM     60  C   UNL A   1      43.615  28.208  33.491  1.00  0.00     0.037 A 
BRANCH  47  61
ATOM     61  C   UNL A   1      39.316  32.060  35.318  1.00  0.00     0.064 A 
ATOM     62  C   UNL A   1      39.725  33.378  35.438  1.00  0.00     0.173 A 
ATOM     63  C   UNL A   1      38.501  31.508  36.210  1.00  0.00     0.173 A 
ATOM     64  F   UNL A   1      40.324  34.044  34.455  1.00  0.00    -0.203 F 
ATOM     65  C   UNL A   1      39.450  33.952  36.702  1.00  0.00     0.198 A 
ATOM     66  C   UNL A   1      38.164  32.181  37.359  1.00  0.00     0.198 A 
ATOM     67  F   UNL A   1      38.006  30.294  35.987  1.00  0.00    -0.203 F 
ATOM     68  F   UNL A   1      40.109  35.057  37.037  1.00  0.00    -0.200 F 
ATOM     69  C   UNL A   1      38.584  33.465  37.572  1.00  0.00     0.200 A 
ATOM     70  F   UNL A   1      37.420  31.575  38.280  1.00  0.00    -0.200 F 
ATOM     71  F   UNL A   1      38.142  34.185  38.599  1.00  0.00    -0.200 F 
ENDBRANCH  47  61
BRANCH  48  72
ATOM     72  C   UNL A   1      42.531  26.327  27.862  1.00  0.00     0.064 A 
ATOM     73  C   UNL A   1      43.460  26.849  26.977  1.00  0.00     0.173 A 
ATOM     74  C   UNL A   1      42.067  25.091  27.724  1.00  0.00     0.173 A 
ATOM     75  F   UNL A   1      44.136  27.970  27.212  1.00  0.00    -0.203 F 
ATOM     76  C   UNL A   1      43.622  26.082  25.800  1.00  0.00     0.198 A 
ATOM     77  C   UNL A   1      42.376  24.347  26.612  1.00  0.00     0.198 A 
ATOM     78  F   UNL A   1      41.293  24.568  28.673  1.00  0.00    -0.203 F 
ATOM     79  F   UNL A   1      44.200  26.667  24.754  1.00  0.00    -0.200 F 
ATOM     80  C   UNL A   1      43.241  24.824  25.666  1.00  0.00     0.200 A 
ATOM     81  F   UNL A   1      41.828  23.146  26.452  1.00  0.00    -0.200 F 
ATOM     82  F   UNL A   1      43.675  24.063  24.665  1.00  0.00    -0.200 F 
ENDBRANCH  48  72
BRANCH  60  83
ATOM     83  C   UNL A   1      44.789  27.775  34.353  1.00  0.00     0.064 A 
ATOM     84  C   UNL A   1      45.987  28.471  34.349  1.00  0.00     0.173 A 
ATOM     85  C   UNL A   1      44.661  26.630  35.014  1.00  0.00     0.173 A 
ATOM     86  F   UNL A   1      46.094  29.726  33.923  1.00  0.00    -0.203 F 
ATOM     87  C   UNL A   1      47.085  27.725  34.839  1.00  0.00     0.198 A 
ATOM     88  C   UNL A   1      45.754  26.025  35.585  1.00  0.00     0.198 A 
ATOM     89  F   UNL A   1      43.461  26.064  35.125  1.00  0.00    -0.203 F 
ATOM     90  F   UNL A   1      48.308  28.159  34.545  1.00  0.00    -0.200 F 
ATOM     91  C   UNL A   1      46.981  26.628  35.566  1.00  0.00     0.200 A 
ATOM     92  F   UNL A   1      45.617  24.835  36.164  1.00  0.00    -0.200 F 
ATOM     93  F   UNL A   1      48.014  26.137  36.245  1.00  0.00    -0.200 F 
ENDBRANCH  60  83
ENDBRANCH  34  35
ENDBRANCH  27  29
ENDBRANCH  26  27
ENDBRANCH   1  26
TORSDOF 13
ENDMDL
MODEL 2
REMARK VINA RESULT:     -12.8      0.463      1.646
REMARK SMILES O=C(OCCOC(=O)c1ccc(-c2c3nc(c(-c4c(F)c(F)c(F)c(F)c4F)c4ccc([nH]4)c(-c4c(F)c(F)c(F)c(F)c4F)c4nc(c(-c5c(F)c(F)c(F)c(F)c5F)c5ccc2[nH]5)C=C4)C=C3)cc1)C1=Cc2cc(S(F)(F)(F)(F)F)ccc2O[C@@H]1C(F)(F)F
REMARK SMILES IDX 5 1 4 2 3 3 2 4 1 5 72 6 73 7 87 8 74 9 86 10 75 11 85 12
REMARK SMILES IDX 76 13 84 14 83 15 88 16 89 17 90 18 91 19 77 20 78 21 79 22
REMARK SMILES IDX 80 23 81 24 82 25 6 26 7 27 8 28 9 29 10 30 71 31 11 32
REMARK SMILES IDX 70 33 12 34 13 35 14 36 64 37 15 38 69 39 63 40 65 41 16 42
REMARK SMILES IDX 68 43 62 44 61 45 17 47 49 48 29 49 48 50 30 51 33 52 47 53
REMARK SMILES IDX 66 54 31 55 32 56 46 58 67 59 34 60 18 61 19 62 27 63 20 64
REMARK SMILES IDX 21 65 25 66 28 67 22 68 23 69 26 70 24 71 50 72 51 73 59 74
REMARK SMILES IDX 52 75 53 76 57 77 60 78 54 79 55 80 58 81 56 82 35 83 36 84
REMARK SMILES IDX 44 85 37 86 38 87 42 88 45 89 39 90 40 91 43 92 41 93
REMARK H PARENT 65 46 33 57
REMARK Flexibility Score: inf
ROOT
ATOM      1  C   UNL A   1      31.778  29.887  26.124  1.00  0.00     0.275 C 
ENDROOT
BRANCH   1   2
ATOM      2  C   UNL A   1      31.798  28.665  27.026  1.00  0.00     0.275 C 
BRANCH   2   3
ATOM      3  O   UNL A   1      31.833  27.489  26.230  1.00  0.00    -0.459 OA
BRANCH   3   4
ATOM      4  C   UNL A   1      33.008  27.159  25.502  1.00  0.00     0.338 C 
ATOM      5  O   UNL A   1      34.140  27.182  26.079  1.00  0.00    -0.246 OA
BRANCH   4   6
ATOM      6  C   UNL A   1      32.910  26.779  24.035  1.00  0.00     0.087 C 
ATOM      7  C   UNL A   1      33.370  25.570  23.613  1.00  0.00     0.027 C 
ATOM      8  C   UNL A   1      32.298  27.749  23.036  1.00  0.00     0.316 C 
ATOM      9  C   UNL A   1      33.982  24.600  24.610  1.00  0.00     0.019 A 
ATOM     10  O   UNL A   1      32.140  25.226  25.975  1.00  0.00    -0.475 OA
ATOM     11  C   UNL A   1      35.208  23.985  24.417  1.00  0.00     0.036 A 
ATOM     12  C   UNL A   1      33.311  24.456  25.747  1.00  0.00     0.128 A 
ATOM     13  C   UNL A   1      35.512  22.996  25.382  1.00  0.00     0.107 A 
ATOM     14  C   UNL A   1      33.741  23.569  26.706  1.00  0.00     0.048 A 
ATOM     15  C   UNL A   1      34.913  22.884  26.554  1.00  0.00     0.028 A 
BRANCH   8  16
ATOM     16  C   UNL A   1      31.088  27.104  22.380  1.00  0.00     0.430 C 
ATOM     17  F   UNL A   1      30.226  28.049  22.014  1.00  0.00    -0.167 F 
ATOM     18  F   UNL A   1      31.477  26.420  21.308  1.00  0.00    -0.167 F 
ATOM     19  F   UNL A   1      30.502  26.280  23.244  1.00  0.00    -0.167 F 
ENDBRANCH   8  16
BRANCH  13  20
ATOM     20  S   UNL A   1      36.812  21.801  24.982  1.00  0.00     0.310 S 
ATOM     21  F   UNL A   1      36.923  22.312  23.485  1.00  0.00    -0.094 F 
ATOM     22  F   UNL A   1      35.702  20.798  24.484  1.00  0.00    -0.094 F 
ATOM     23  F   UNL A   1      37.929  20.773  24.649  1.00  0.00    -0.094 F 
ATOM     24  F   UNL A   1      37.914  22.868  25.353  1.00  0.00    -0.094 F 
ATOM     25  F   UNL A   1      35.694  22.893  25.219  1.00  0.00    -0.094 F 
ENDBRANCH  13  20
ENDBRANCH   4   6
ENDBRANCH   3   4
ENDBRANCH   2   3
ENDBRANCH   1   2
BRANCH   1  26
ATOM     26  O   UNL A   1      33.069  30.477  26.095  1.00  0.00    -0.458 OA
BRANCH  26  27
ATOM     27  C   UNL A   1      33.450  31.401  27.103  1.00  0.00     0.338 C 
ATOM     28  O   UNL A   1      32.739  32.432  27.321  1.00  0.00    -0.246 OA
BRANCH  27  29
ATOM     29  C   UNL A   1      34.708  31.160  27.921  1.00  0.00     0.060 A 
ATOM     30  C   UNL A   1      35.688  32.132  28.025  1.00  0.00     0.016 A 
ATOM     31  C   UNL A   1      34.905  29.931  28.386  1.00  0.00     0.016 A 
ATOM     32  C   UNL A   1      36.961  31.628  28.381  1.00  0.00     0.010 A 
ATOM     33  C   UNL A   1      36.141  29.547  28.846  1.00  0.00     0.010 A 
ATOM     34  C   UNL A   1      37.173  30.440  28.921  1.00  0.00    -0.014 A 
BRANCH  34  35
ATOM     35  C   UNL A   1      38.492  30.088  29.589  1.00  0.00     0.031 A 
ATOM     36  C   UNL A   1      38.676  30.649  30.854  1.00  0.00     0.074 A 
ATOM     37  C   UNL A   1      39.341  29.150  29.027  1.00  0.00     0.049 A 
ATOM     38  N   UNL A   1      39.641  30.376  31.733  1.00  0.00    -0.248 NA
ATOM     39  C   UNL A   1      37.793  31.670  31.439  1.00  0.00     0.031 C 
ATOM     40  C   UNL A   1      39.157  28.574  27.755  1.00  0.00     0.029 A 
ATOM     41  N   UNL A   1      40.488  28.616  29.571  1.00  0.00    -0.354 N 
ATOM     42  C   UNL A   1      39.473  31.100  32.842  1.00  0.00     0.074 A 
ATOM     43  C   UNL A   1      38.286  31.947  32.666  1.00  0.00     0.031 C 
ATOM     44  C   UNL A   1      40.184  27.712  27.531  1.00  0.00     0.029 A 
ATOM     45  C   UNL A   1      41.027  27.736  28.659  1.00  0.00     0.049 A 
ATOM     46  H   UNL A   1      40.858  28.826  30.459  1.00  0.00     0.167 HD
ATOM     47  C   UNL A   1      40.264  31.085  33.992  1.00  0.00     0.037 A 
ATOM     48  C   UNL A   1      42.187  26.989  28.784  1.00  0.00     0.037 A 
ATOM     49  C   UNL A   1      41.400  30.305  34.134  1.00  0.00     0.049 A 
ATOM     50  C   UNL A   1      43.011  27.017  29.912  1.00  0.00     0.074 A 
ATOM     51  C   UNL A   1      42.203  30.273  35.290  1.00  0.00     0.029 A 
ATOM     52  N   UNL A   1      41.952  29.443  33.212  1.00  0.00    -0.354 N 
ATOM     53  N   UNL A   1      42.822  27.712  31.036  1.00  0.00    -0.248 NA
ATOM     54  C   UNL A   1      44.258  26.255  30.044  1.00  0.00     0.031 C 
ATOM     55  C   UNL A   1      43.230  29.411  35.066  1.00  0.00     0.029 A 
ATOM     56  C   UNL A   1      43.087  28.892  33.765  1.00  0.00     0.049 A 
ATOM     57  H   UNL A   1      41.598  29.255  32.314  1.00  0.00     0.167 HD
ATOM     58  C   UNL A   1      43.810  27.468  31.898  1.00  0.00     0.074 A 
ATOM     59  C   UNL A   1      44.753  26.533  31.269  1.00  0.00     0.031 C 
ATOM     60  C   UNL A   1      43.962  27.986  33.186  1.00  0.00     0.037 A 
BRANCH  47  61
ATOM     61  C   UNL A   1      39.853  31.974  35.154  1.00  0.00     0.064 A 
ATOM     62  C   UNL A   1      38.950  31.530  36.105  1.00  0.00     0.173 A 
ATOM     63  C   UNL A   1      40.379  33.192  35.219  1.00  0.00     0.173 A 
ATOM     64  F   UNL A   1      38.595  30.254  36.229  1.00  0.00    -0.203 F 
ATOM     65  C   UNL A   1      38.437  32.556  36.933  1.00  0.00     0.198 A 
ATOM     66  C   UNL A   1      39.924  34.101  36.144  1.00  0.00     0.198 A 
ATOM     67  F   UNL A   1      41.354  33.535  34.382  1.00  0.00    -0.203 F 
ATOM     68  F   UNL A   1      37.323  32.304  37.615  1.00  0.00    -0.200 F 
ATOM     69  C   UNL A   1      38.987  33.748  37.076  1.00  0.00     0.200 A 
ATOM     70  F   UNL A   1      40.400  35.343  36.132  1.00  0.00    -0.200 F 
ATOM     71  F   UNL A   1      38.650  34.562  38.073  1.00  0.00    -0.200 F 
ENDBRANCH  47  61
BRANCH  48  72
ATOM     72  C   UNL A   1      42.587  26.086  27.628  1.00  0.00     0.064 A 
ATOM     73  C   UNL A   1      42.056  24.808  27.580  1.00  0.00     0.173 A 
ATOM     74  C   UNL A   1      43.420  26.521  26.689  1.00  0.00     0.173 A 
ATOM     75  F   UNL A   1      41.038  24.417  28.342  1.00  0.00    -0.203 F 
ATOM     76  C   UNL A   1      42.695  23.956  26.649  1.00  0.00     0.198 A 
ATOM     77  C   UNL A   1      43.900  25.666  25.728  1.00  0.00     0.198 A 
ATOM     78  F   UNL A   1      43.794  27.799  26.681  1.00  0.00    -0.203 F 
ATOM     79  F   UNL A   1      42.510  22.646  26.780  1.00  0.00    -0.200 F 
ATOM     80  C   UNL A   1      43.463  24.372  25.658  1.00  0.00     0.200 A 
ATOM     81  F   UNL A   1      44.802  26.101  24.853  1.00  0.00    -0.200 F 
ATOM     82  F   UNL A   1      43.793  23.574  24.646  1.00  0.00    -0.200 F 
ENDBRANCH  48  72
BRANCH  60  83
ATOM     83  C   UNL A   1      45.160  27.528  34.002  1.00  0.00     0.064 A 
ATOM     84  C   UNL A   1      46.376  28.189  33.938  1.00  0.00     0.173 A 
ATOM     85  C   UNL A   1      45.027  26.394  34.680  1.00  0.00     0.173 A 
ATOM     86  F   UNL A   1      46.500  29.436  33.494  1.00  0.00    -0.203 F 
ATOM     87  C   UNL A   1      47.472  27.417  34.389  1.00  0.00     0.198 A 
ATOM     88  C   UNL A   1      46.127  25.764  35.211  1.00  0.00     0.198 A 
ATOM     89  F   UNL A   1      43.818  25.864  34.849  1.00  0.00    -0.203 F 
ATOM     90  F   UNL A   1      48.693  27.812  34.038  1.00  0.00    -0.200 F 
ATOM     91  C   UNL A   1      47.368  26.330  35.133  1.00  0.00     0.200 A 
ATOM     92  F   UNL A   1      45.981  24.584  35.808  1.00  0.00    -0.200 F 
ATOM     93  F   UNL A   1      48.415  25.817  35.772  1.00  0.00    -0.200 F 
ENDBRANCH  60  83
ENDBRANCH  34  35
ENDBRANCH  27  29
ENDBRANCH  26  27
ENDBRANCH   1  26
TORSDOF 13
ENDMDL
MODEL 3
REMARK VINA RESULT:     -12.6      4.420      9.451
REMARK SMILES O=C(OCCOC(=O)c1ccc(-c2c3nc(c(-c4c(F)c(F)c(F)c(F)c4F)c4ccc([nH]4)c(-c4c(F)c(F)c(F)c(F)c4F)c4nc(c(-c5c(F)c(F)c(F)c(F)c5F)c5ccc2[nH]5)C=C4)C=C3)cc1)C1=Cc2cc(S(F)(F)(F)(F)F)ccc2O[C@@H]1C(F)(F)F
REMARK SMILES IDX 5 1 4 2 3 3 2 4 1 5 72 6 73 7 87 8 74 9 86 10 75 11 85 12
REMARK SMILES IDX 76 13 84 14 83 15 88 16 89 17 90 18 91 19 77 20 78 21 79 22
REMARK SMILES IDX 80 23 81 24 82 25 6 26 7 27 8 28 9 29 10 30 71 31 11 32
REMARK SMILES IDX 70 33 12 34 13 35 14 36 64 37 15 38 69 39 63 40 65 41 16 42
REMARK SMILES IDX 68 43 62 44 61 45 17 47 49 48 29 49 48 50 30 51 33 52 47 53
REMARK SMILES IDX 66 54 31 55 32 56 46 58 67 59 34 60 18 61 19 62 27 63 20 64
REMARK SMILES IDX 21 65 25 66 28 67 22 68 23 69 26 70 24 71 50 72 51 73 59 74
REMARK SMILES IDX 52 75 53 76 57 77 60 78 54 79 55 80 58 81 56 82 35 83 36 84
REMARK SMILES IDX 44 85 37 86 38 87 42 88 45 89 39 90 40 91 43 92 41 93
REMARK H PARENT 65 46 33 57
REMARK Flexibility Score: inf
ROOT
ATOM      1  C   UNL A   1      37.066  21.111  24.539  1.00  0.00     0.275 C 
ENDROOT
BRANCH   1   2
ATOM      2  C   UNL A   1      36.874  22.403  23.762  1.00  0.00     0.275 C 
BRANCH   2   3
ATOM      3  O   UNL A   1      35.515  22.805  23.841  1.00  0.00    -0.459 OA
BRANCH   3   4
ATOM      4  C   UNL A   1      35.029  23.437  25.016  1.00  0.00     0.338 C 
ATOM      5  O   UNL A   1      35.729  24.324  25.597  1.00  0.00    -0.246 OA
BRANCH   4   6
ATOM      6  C   UNL A   1      33.671  23.053  25.579  1.00  0.00     0.087 C 
ATOM      7  C   UNL A   1      32.715  24.004  25.760  1.00  0.00     0.027 C 
ATOM      8  C   UNL A   1      33.379  21.605  25.941  1.00  0.00     0.316 C 
ATOM      9  C   UNL A   1      33.006  25.451  25.399  1.00  0.00     0.019 A 
ATOM     10  O   UNL A   1      33.981  24.510  23.446  1.00  0.00    -0.475 OA
ATOM     11  C   UNL A   1      32.769  26.511  26.259  1.00  0.00     0.036 A 
ATOM     12  C   UNL A   1      33.610  25.635  24.230  1.00  0.00     0.128 A 
ATOM     13  C   UNL A   1      32.951  27.783  25.666  1.00  0.00     0.107 A 
ATOM     14  C   UNL A   1      33.880  26.902  23.774  1.00  0.00     0.048 A 
ATOM     15  C   UNL A   1      33.618  27.999  24.547  1.00  0.00     0.028 A 
BRANCH   8  16
ATOM     16  C   UNL A   1      32.203  21.104  25.119  1.00  0.00     0.430 C 
ATOM     17  F   UNL A   1      31.069  21.562  25.642  1.00  0.00    -0.167 F 
ATOM     18  F   UNL A   1      32.320  21.538  23.867  1.00  0.00    -0.167 F 
ATOM     19  F   UNL A   1      32.190  19.774  25.128  1.00  0.00    -0.167 F 
ENDBRANCH   8  16
BRANCH  13  20
ATOM     20  S   UNL A   1      32.218  29.213  26.499  1.00  0.00     0.310 S 
ATOM     21  F   UNL A   1      31.320  28.299  27.434  1.00  0.00    -0.094 F 
ATOM     22  F   UNL A   1      31.038  29.185  25.455  1.00  0.00    -0.094 F 
ATOM     23  F   UNL A   1      31.596  30.447  27.211  1.00  0.00    -0.094 F 
ATOM     24  F   UNL A   1      33.331  29.138  27.617  1.00  0.00    -0.094 F 
ATOM     25  F   UNL A   1      32.798  27.892  25.853  1.00  0.00    -0.094 F 
ENDBRANCH  13  20
ENDBRANCH   4   6
ENDBRANCH   3   4
ENDBRANCH   2   3
ENDBRANCH   1   2
BRANCH   1  26
ATOM     26  O   UNL A   1      37.503  21.410  25.857  1.00  0.00    -0.458 OA
BRANCH  26  27
ATOM     27  C   UNL A   1      38.889  21.553  26.130  1.00  0.00     0.338 C 
ATOM     28  O   UNL A   1      39.687  20.594  25.886  1.00  0.00    -0.246 OA
BRANCH  27  29
ATOM     29  C   UNL A   1      39.419  22.853  26.713  1.00  0.00     0.060 A 
ATOM     30  C   UNL A   1      38.991  24.078  26.231  1.00  0.00     0.016 A 
ATOM     31  C   UNL A   1      40.424  22.766  27.576  1.00  0.00     0.016 A 
ATOM     32  C   UNL A   1      39.881  25.144  26.499  1.00  0.00     0.010 A 
ATOM     33  C   UNL A   1      41.167  23.876  27.899  1.00  0.00     0.010 A 
ATOM     34  C   UNL A   1      40.837  25.110  27.411  1.00  0.00    -0.014 A 
BRANCH  34  35
ATOM     35  C   UNL A   1      41.530  26.374  27.892  1.00  0.00     0.031 A 
ATOM     36  C   UNL A   1      42.854  26.512  27.469  1.00  0.00     0.074 A 
ATOM     37  C   UNL A   1      40.822  27.361  28.555  1.00  0.00     0.049 A 
ATOM     38  N   UNL A   1      43.638  27.585  27.588  1.00  0.00    -0.248 NA
ATOM     39  C   UNL A   1      43.619  25.453  26.795  1.00  0.00     0.031 C 
ATOM     40  C   UNL A   1      39.485  27.232  28.976  1.00  0.00     0.029 A 
ATOM     41  N   UNL A   1      41.261  28.614  28.921  1.00  0.00    -0.354 N 
ATOM     42  C   UNL A   1      44.834  27.344  27.047  1.00  0.00     0.074 A 
ATOM     43  C   UNL A   1      44.840  25.967  26.535  1.00  0.00     0.031 C 
ATOM     44  C   UNL A   1      39.125  28.386  29.598  1.00  0.00     0.029 A 
ATOM     45  C   UNL A   1      40.232  29.255  29.576  1.00  0.00     0.049 A 
ATOM     46  H   UNL A   1      42.154  28.987  28.746  1.00  0.00     0.167 HD
ATOM     47  C   UNL A   1      45.917  28.219  26.959  1.00  0.00     0.037 A 
ATOM     48  C   UNL A   1      40.240  30.525  30.129  1.00  0.00     0.037 A 
ATOM     49  C   UNL A   1      45.910  29.505  27.475  1.00  0.00     0.049 A 
ATOM     50  C   UNL A   1      41.344  31.381  30.093  1.00  0.00     0.074 A 
ATOM     51  C   UNL A   1      46.992  30.403  27.388  1.00  0.00     0.029 A 
ATOM     52  N   UNL A   1      44.890  30.138  28.150  1.00  0.00    -0.354 N 
ATOM     53  N   UNL A   1      42.526  31.154  29.517  1.00  0.00    -0.248 NA
ATOM     54  C   UNL A   1      41.375  32.716  30.703  1.00  0.00     0.031 C 
ATOM     55  C   UNL A   1      46.632  31.557  28.010  1.00  0.00     0.029 A 
ATOM     56  C   UNL A   1      45.321  31.399  28.497  1.00  0.00     0.049 A 
ATOM     57  H   UNL A   1      44.006  29.754  28.351  1.00  0.00     0.167 HD
ATOM     58  C   UNL A   1      43.324  32.213  29.673  1.00  0.00     0.074 A 
ATOM     59  C   UNL A   1      42.597  33.230  30.445  1.00  0.00     0.031 C 
ATOM     60  C   UNL A   1      44.627  32.372  29.199  1.00  0.00     0.037 A 
BRANCH  47  61
ATOM     61  C   UNL A   1      47.176  27.734  26.258  1.00  0.00     0.064 A 
ATOM     62  C   UNL A   1      47.306  27.832  24.883  1.00  0.00     0.173 A 
ATOM     63  C   UNL A   1      48.136  27.201  27.005  1.00  0.00     0.173 A 
ATOM     64  F   UNL A   1      46.500  28.574  24.129  1.00  0.00    -0.203 F 
ATOM     65  C   UNL A   1      48.374  27.071  24.352  1.00  0.00     0.198 A 
ATOM     66  C   UNL A   1      49.220  26.593  26.420  1.00  0.00     0.198 A 
ATOM     67  F   UNL A   1      48.048  27.258  28.331  1.00  0.00    -0.203 F 
ATOM     68  F   UNL A   1      48.362  26.812  23.048  1.00  0.00    -0.200 F 
ATOM     69  C   UNL A   1      49.383  26.599  25.062  1.00  0.00     0.200 A 
ATOM     70  F   UNL A   1      50.124  25.987  27.185  1.00  0.00    -0.200 F 
ATOM     71  F   UNL A   1      50.498  26.155  24.488  1.00  0.00    -0.200 F 
ENDBRANCH  47  61
BRANCH  48  72
ATOM     72  C   UNL A   1      38.975  31.017  30.815  1.00  0.00     0.064 A 
ATOM     73  C   UNL A   1      38.883  30.887  32.191  1.00  0.00     0.173 A 
ATOM     74  C   UNL A   1      37.992  31.560  30.107  1.00  0.00     0.173 A 
ATOM     75  F   UNL A   1      39.924  30.589  32.962  1.00  0.00    -0.203 F 
ATOM     76  C   UNL A   1      37.580  31.099  32.700  1.00  0.00     0.198 A 
ATOM     77  C   UNL A   1      36.791  31.868  30.698  1.00  0.00     0.198 A 
ATOM     78  F   UNL A   1      38.171  31.808  28.811  1.00  0.00    -0.203 F 
ATOM     79  F   UNL A   1      37.314  30.654  33.925  1.00  0.00    -0.200 F 
ATOM     80  C   UNL A   1      36.610  31.710  32.044  1.00  0.00     0.200 A 
ATOM     81  F   UNL A   1      35.790  32.328  29.952  1.00  0.00    -0.200 F 
ATOM     82  F   UNL A   1      35.515  32.146  32.661  1.00  0.00    -0.200 F 
ENDBRANCH  48  72
BRANCH  60  83
ATOM     83  C   UNL A   1      45.327  33.694  29.470  1.00  0.00     0.064 A 
ATOM     84  C   UNL A   1      46.060  33.903  30.626  1.00  0.00     0.173 A 
ATOM     85  C   UNL A   1      45.102  34.681  28.610  1.00  0.00     0.173 A 
ATOM     86  F   UNL A   1      46.523  32.909  31.380  1.00  0.00    -0.203 F 
ATOM     87  C   UNL A   1      46.271  35.268  30.933  1.00  0.00     0.198 A 
ATOM     88  C   UNL A   1      45.458  35.972  28.918  1.00  0.00     0.198 A 
ATOM     89  F   UNL A   1      44.527  34.417  27.439  1.00  0.00    -0.203 F 
ATOM     90  F   UNL A   1      46.635  35.573  32.176  1.00  0.00    -0.200 F 
ATOM     91  C   UNL A   1      46.131  36.259  30.072  1.00  0.00     0.200 A 
ATOM     92  F   UNL A   1      45.141  36.956  28.081  1.00  0.00    -0.200 F 
ATOM     93  F   UNL A   1      46.621  37.472  30.315  1.00  0.00    -0.200 F 
ENDBRANCH  60  83
ENDBRANCH  34  35
ENDBRANCH  27  29
ENDBRANCH  26  27
ENDBRANCH   1  26
TORSDOF 13
ENDMDL
