MODEL 1
REMARK VINA RESULT:     -11.6      0.000      0.000
REMARK SMILES NS(=O)(=O)c1ccc(-n2nc(C(=O)OCCOC(=O)c3ccc(-c4c5nc(c(-c6c(F)c(F)c(F)c(F)c6F)c6ccc([nH]6)c(-c6c(F)c(F)c(F)c(F)c6F)c6nc(c(-c7c(F)c(F)c(F)c(F)c7F)c7ccc4[nH]7)C=C6)C=C5)cc3)cc2-c2ccc(Cl)s2)cc1
REMARK SMILES IDX 15 1 14 2 12 3 13 4 11 5 9 6 10 7 84 8 83 9 8 10 5 11 6 12
REMARK SMILES IDX 92 13 7 14 91 15 2 16 3 17 4 18 1 19 85 22 86 23 90 24 87 25
REMARK SMILES IDX 88 26 89 27 16 28 17 29 18 30 19 31 20 32 21 33 82 34 22 35
REMARK SMILES IDX 81 36 23 37 24 38 25 39 75 40 26 41 80 42 74 43 76 44 27 45
REMARK SMILES IDX 79 46 73 47 72 48 28 50 60 51 40 52 59 53 41 54 44 55 58 56
REMARK SMILES IDX 77 57 42 58 43 59 57 61 78 62 45 63 29 64 30 65 38 66 31 67
REMARK SMILES IDX 32 68 36 69 39 70 33 71 34 72 37 73 35 74 61 75 62 76 70 77
REMARK SMILES IDX 63 78 64 79 68 80 71 81 65 82 66 83 69 84 67 85 46 86 47 87
REMARK SMILES IDX 55 88 48 89 49 90 53 91 56 92 50 93 51 94 54 95 52 96
REMARK H PARENT 1 20 1 21 76 49 44 60
REMARK Flexibility Score: inf
ROOT
ATOM      1  C   UNL A   1      39.340  19.948  25.568  1.00  0.00     0.275 C 
ENDROOT
BRANCH   1   2
ATOM      2  O   UNL A   1      40.407  19.931  26.530  1.00  0.00    -0.457 OA
BRANCH   2   3
ATOM      3  C   UNL A   1      41.680  20.060  26.026  1.00  0.00     0.358 C 
ATOM      4  O   UNL A   1      42.212  19.233  25.292  1.00  0.00    -0.244 OA
BRANCH   3   5
ATOM      5  C   UNL A   1      42.301  21.325  26.445  1.00  0.00     0.171 A 
ATOM      6  N   UNL A   1      43.445  23.133  26.368  1.00  0.00    -0.231 N 
ATOM      7  N   UNL A   1      42.893  22.177  25.582  1.00  0.00    -0.160 NA
ATOM      8  C   UNL A   1      43.111  22.973  27.703  1.00  0.00     0.085 A 
ATOM      9  C   UNL A   1      42.347  21.832  27.767  1.00  0.00     0.068 A 
BRANCH   6  10
ATOM     10  C   UNL A   1      44.382  24.045  25.826  1.00  0.00     0.065 A 
ATOM     11  C   UNL A   1      46.273  25.858  24.910  1.00  0.00     0.082 A 
ATOM     12  C   UNL A   1      46.667  24.555  25.226  1.00  0.00     0.024 A 
ATOM     13  C   UNL A   1      44.935  26.255  25.029  1.00  0.00     0.024 A 
ATOM     14  C   UNL A   1      45.721  23.651  25.700  1.00  0.00     0.030 A 
ATOM     15  C   UNL A   1      43.974  25.333  25.460  1.00  0.00     0.030 A 
BRANCH  11  16
ATOM     16  S   UNL A   1      47.495  27.020  24.379  1.00  0.00     0.238 S 
ATOM     17  O   UNL A   1      48.315  26.418  23.359  1.00  0.00    -0.207 OA
ATOM     18  O   UNL A   1      48.044  27.671  25.547  1.00  0.00    -0.207 OA
BRANCH  16  19
ATOM     19  N   UNL A   1      46.586  28.190  23.579  1.00  0.00    -0.225 NA
ATOM     20  H   UNL A   1      47.048  29.095  23.663  1.00  0.00     0.137 HD
ATOM     21  H   UNL A   1      45.656  28.243  23.996  1.00  0.00     0.137 HD
ENDBRANCH  16  19
ENDBRANCH  11  16
ENDBRANCH   6  10
BRANCH   8  22
ATOM     22  C   UNL A   1      43.506  23.835  28.773  1.00  0.00     0.054 A 
ATOM     23  C   UNL A   1      43.332  25.204  28.819  1.00  0.00     0.024 A 
ATOM     24  S   UNL A   1      44.271  23.246  30.191  1.00  0.00    -0.122 S 
ATOM     25  C   UNL A   1      43.758  25.758  30.062  1.00  0.00     0.033 A 
ATOM     26  C   UNL A   1      44.276  24.789  30.882  1.00  0.00     0.094 A 
ATOM     27  Cl  UNL A   1      44.890  25.013  32.468  1.00  0.00    -0.072 Cl
ENDBRANCH   8  22
ENDBRANCH   3   5
ENDBRANCH   2   3
ENDBRANCH   1   2
BRANCH   1  28
ATOM     28  C   UNL A   1      38.507  21.216  25.689  1.00  0.00     0.275 C 
BRANCH  28  29
ATOM     29  O   UNL A   1      39.331  22.342  25.980  1.00  0.00    -0.458 OA
BRANCH  29  30
ATOM     30  C   UNL A   1      38.695  23.534  26.018  1.00  0.00     0.338 C 
ATOM     31  O   UNL A   1      37.700  23.859  25.391  1.00  0.00    -0.246 OA
BRANCH  30  32
ATOM     32  C   UNL A   1      39.533  24.483  26.753  1.00  0.00     0.060 A 
ATOM     33  C   UNL A   1      39.333  24.595  28.132  1.00  0.00     0.016 A 
ATOM     34  C   UNL A   1      40.251  25.442  26.025  1.00  0.00     0.016 A 
ATOM     35  C   UNL A   1      39.697  25.772  28.750  1.00  0.00     0.010 A 
ATOM     36  C   UNL A   1      40.585  26.622  26.633  1.00  0.00     0.010 A 
ATOM     37  C   UNL A   1      40.237  26.801  27.968  1.00  0.00    -0.014 A 
BRANCH  37  38
ATOM     38  C   UNL A   1      40.590  28.052  28.602  1.00  0.00     0.031 A 
ATOM     39  C   UNL A   1      41.844  28.604  28.045  1.00  0.00     0.074 A 
ATOM     40  C   UNL A   1      39.764  28.673  29.466  1.00  0.00     0.049 A 
ATOM     41  N   UNL A   1      42.982  28.714  28.643  1.00  0.00    -0.248 NA
ATOM     42  C   UNL A   1      41.904  28.868  26.596  1.00  0.00     0.031 C 
ATOM     43  C   UNL A   1      38.390  28.294  29.815  1.00  0.00     0.029 A 
ATOM     44  N   UNL A   1      39.939  29.842  30.144  1.00  0.00    -0.354 N 
ATOM     45  C   UNL A   1      43.839  29.284  27.705  1.00  0.00     0.074 A 
ATOM     46  C   UNL A   1      43.200  29.132  26.429  1.00  0.00     0.031 C 
ATOM     47  C   UNL A   1      37.787  29.326  30.449  1.00  0.00     0.029 A 
ATOM     48  C   UNL A   1      38.766  30.375  30.670  1.00  0.00     0.049 A 
ATOM     49  H   UNL A   1      40.818  30.273  30.251  1.00  0.00     0.167 HD
ATOM     50  C   UNL A   1      44.813  30.139  28.118  1.00  0.00     0.037 A 
ATOM     51  C   UNL A   1      38.619  31.619  31.191  1.00  0.00     0.037 A 
ATOM     52  C   UNL A   1      45.024  29.991  29.539  1.00  0.00     0.049 A 
ATOM     53  C   UNL A   1      39.972  32.105  31.549  1.00  0.00     0.074 A 
ATOM     54  C   UNL A   1      45.583  29.052  30.376  1.00  0.00     0.029 A 
ATOM     55  N   UNL A   1      44.200  30.779  30.298  1.00  0.00    -0.354 N 
ATOM     56  N   UNL A   1      40.690  31.586  32.508  1.00  0.00    -0.248 NA
ATOM     57  C   UNL A   1      40.709  32.916  30.588  1.00  0.00     0.031 C 
ATOM     58  C   UNL A   1      44.907  29.190  31.626  1.00  0.00     0.029 A 
ATOM     59  C   UNL A   1      43.994  30.239  31.534  1.00  0.00     0.049 A 
ATOM     60  H   UNL A   1      43.806  31.628  29.990  1.00  0.00     0.167 HD
ATOM     61  C   UNL A   1      41.987  31.634  32.031  1.00  0.00     0.074 A 
ATOM     62  C   UNL A   1      41.959  32.606  30.944  1.00  0.00     0.031 C 
ATOM     63  C   UNL A   1      42.872  30.645  32.351  1.00  0.00     0.037 A 
BRANCH  50  64
ATOM     64  C   UNL A   1      45.141  31.458  27.429  1.00  0.00     0.064 A 
ATOM     65  C   UNL A   1      46.446  31.629  26.918  1.00  0.00     0.173 A 
ATOM     66  C   UNL A   1      44.390  32.649  27.557  1.00  0.00     0.173 A 
ATOM     67  F   UNL A   1      47.255  30.573  26.741  1.00  0.00    -0.203 F 
ATOM     68  C   UNL A   1      46.990  32.893  26.673  1.00  0.00     0.198 A 
ATOM     69  C   UNL A   1      44.924  33.905  27.272  1.00  0.00     0.198 A 
ATOM     70  F   UNL A   1      43.152  32.678  28.056  1.00  0.00    -0.203 F 
ATOM     71  F   UNL A   1      48.279  33.007  26.323  1.00  0.00    -0.200 F 
ATOM     72  C   UNL A   1      46.233  34.032  26.867  1.00  0.00     0.200 A 
ATOM     73  F   UNL A   1      44.175  34.998  27.482  1.00  0.00    -0.200 F 
ATOM     74  F   UNL A   1      46.773  35.248  26.709  1.00  0.00    -0.200 F 
ENDBRANCH  50  64
BRANCH  51  75
ATOM     75  C   UNL A   1      37.444  32.520  31.137  1.00  0.00     0.064 A 
ATOM     76  C   UNL A   1      37.122  33.238  29.971  1.00  0.00     0.173 A 
ATOM     77  C   UNL A   1      36.449  32.468  32.133  1.00  0.00     0.173 A 
ATOM     78  F   UNL A   1      37.995  33.297  28.954  1.00  0.00    -0.203 F 
ATOM     79  C   UNL A   1      35.873  33.846  29.804  1.00  0.00     0.198 A 
ATOM     80  C   UNL A   1      35.205  33.077  31.966  1.00  0.00     0.198 A 
ATOM     81  F   UNL A   1      36.631  31.742  33.244  1.00  0.00    -0.203 F 
ATOM     82  F   UNL A   1      35.580  34.471  28.655  1.00  0.00    -0.200 F 
ATOM     83  C   UNL A   1      34.911  33.755  30.797  1.00  0.00     0.200 A 
ATOM     84  F   UNL A   1      34.268  32.945  32.916  1.00  0.00    -0.200 F 
ATOM     85  F   UNL A   1      33.691  34.281  30.612  1.00  0.00    -0.200 F 
ENDBRANCH  51  75
BRANCH  63  86
ATOM     86  C   UNL A   1      42.565  29.820  33.562  1.00  0.00     0.064 A 
ATOM     87  C   UNL A   1      41.950  28.558  33.534  1.00  0.00     0.173 A 
ATOM     88  C   UNL A   1      43.003  30.303  34.801  1.00  0.00     0.173 A 
ATOM     89  F   UNL A   1      41.577  27.997  32.375  1.00  0.00    -0.203 F 
ATOM     90  C   UNL A   1      41.748  27.832  34.706  1.00  0.00     0.198 A 
ATOM     91  C   UNL A   1      42.837  29.559  35.964  1.00  0.00     0.198 A 
ATOM     92  F   UNL A   1      43.636  31.484  34.875  1.00  0.00    -0.203 F 
ATOM     93  F   UNL A   1      41.142  26.637  34.663  1.00  0.00    -0.200 F 
ATOM     94  C   UNL A   1      42.200  28.330  35.918  1.00  0.00     0.200 A 
ATOM     95  F   UNL A   1      43.315  30.028  37.125  1.00  0.00    -0.200 F 
ATOM     96  F   UNL A   1      42.039  27.618  37.042  1.00  0.00    -0.200 F 
ENDBRANCH  63  86
ENDBRANCH  37  38
ENDBRANCH  30  32
ENDBRANCH  29  30
ENDBRANCH  28  29
ENDBRANCH   1  28
TORSDOF 15
ENDMDL
MODEL 2
REMARK VINA RESULT:     -11.5      5.125      7.335
REMARK SMILES NS(=O)(=O)c1ccc(-n2nc(C(=O)OCCOC(=O)c3ccc(-c4c5nc(c(-c6c(F)c(F)c(F)c(F)c6F)c6ccc([nH]6)c(-c6c(F)c(F)c(F)c(F)c6F)c6nc(c(-c7c(F)c(F)c(F)c(F)c7F)c7ccc4[nH]7)C=C6)C=C5)cc3)cc2-c2ccc(Cl)s2)cc1
REMARK SMILES IDX 15 1 14 2 12 3 13 4 11 5 9 6 10 7 84 8 83 9 8 10 5 11 6 12
REMARK SMILES IDX 92 13 7 14 91 15 2 16 3 17 4 18 1 19 85 22 86 23 90 24 87 25
REMARK SMILES IDX 88 26 89 27 16 28 17 29 18 30 19 31 20 32 21 33 82 34 22 35
REMARK SMILES IDX 81 36 23 37 24 38 25 39 75 40 26 41 80 42 74 43 76 44 27 45
REMARK SMILES IDX 79 46 73 47 72 48 28 50 60 51 40 52 59 53 41 54 44 55 58 56
REMARK SMILES IDX 77 57 42 58 43 59 57 61 78 62 45 63 29 64 30 65 38 66 31 67
REMARK SMILES IDX 32 68 36 69 39 70 33 71 34 72 37 73 35 74 61 75 62 76 70 77
REMARK SMILES IDX 63 78 64 79 68 80 71 81 65 82 66 83 69 84 67 85 46 86 47 87
REMARK SMILES IDX 55 88 48 89 49 90 53 91 56 92 50 93 51 94 54 95 52 96
REMARK H PARENT 1 20 1 21 76 49 44 60
REMARK Flexibility Score: inf
ROOT
ATOM      1  C   UNL A   1      35.967  22.447  24.605  1.00  0.00     0.275 C 
ENDROOT
BRANCH   1   2
ATOM      2  O   UNL A   1      35.698  23.672  23.905  1.00  0.00    -0.457 OA
BRANCH   2   3
ATOM      3  C   UNL A   1      34.467  23.769  23.302  1.00  0.00     0.358 C 
ATOM      4  O   UNL A   1      34.043  22.965  22.478  1.00  0.00    -0.244 OA
BRANCH   3   5
ATOM      5  C   UNL A   1      33.712  24.930  23.797  1.00  0.00     0.171 A 
ATOM      6  N   UNL A   1      32.286  26.525  23.877  1.00  0.00    -0.231 N 
ATOM      7  N   UNL A   1      32.588  25.386  23.207  1.00  0.00    -0.160 NA
ATOM      8  C   UNL A   1      33.124  26.734  24.960  1.00  0.00     0.085 A 
ATOM      9  C   UNL A   1      34.028  25.700  24.944  1.00  0.00     0.068 A 
BRANCH   6  10
ATOM     10  C   UNL A   1      31.323  27.421  23.355  1.00  0.00     0.065 A 
ATOM     11  C   UNL A   1      29.467  29.278  22.454  1.00  0.00     0.082 A 
ATOM     12  C   UNL A   1      30.827  29.497  22.221  1.00  0.00     0.024 A 
ATOM     13  C   UNL A   1      29.027  28.124  23.117  1.00  0.00     0.024 A 
ATOM     14  C   UNL A   1      31.758  28.574  22.686  1.00  0.00     0.030 A 
ATOM     15  C   UNL A   1      29.959  27.172  23.543  1.00  0.00     0.030 A 
BRANCH  11  16
ATOM     16  S   UNL A   1      28.297  30.492  21.923  1.00  0.00     0.238 S 
ATOM     17  O   UNL A   1      27.278  30.646  22.930  1.00  0.00    -0.207 OA
ATOM     18  O   UNL A   1      27.996  30.257  20.528  1.00  0.00    -0.207 OA
BRANCH  16  19
ATOM     19  N   UNL A   1      29.183  31.923  21.972  1.00  0.00    -0.225 NA
ATOM     20  H   UNL A   1      29.800  31.913  22.784  1.00  0.00     0.137 HD
ATOM     21  H   UNL A   1      28.545  32.716  22.039  1.00  0.00     0.137 HD
ENDBRANCH  16  19
ENDBRANCH  11  16
ENDBRANCH   6  10
BRANCH   8  22
ATOM     22  C   UNL A   1      33.041  27.824  25.882  1.00  0.00     0.054 A 
ATOM     23  C   UNL A   1      32.049  28.016  26.824  1.00  0.00     0.024 A 
ATOM     24  S   UNL A   1      34.216  29.072  25.935  1.00  0.00    -0.122 S 
ATOM     25  C   UNL A   1      32.303  29.154  27.646  1.00  0.00     0.033 A 
ATOM     26  C   UNL A   1      33.451  29.796  27.258  1.00  0.00     0.094 A 
ATOM     27  Cl  UNL A   1      34.133  31.195  27.979  1.00  0.00    -0.072 Cl
ENDBRANCH   8  22
ENDBRANCH   3   5
ENDBRANCH   2   3
ENDBRANCH   1   2
BRANCH   1  28
ATOM     28  C   UNL A   1      37.463  22.199  24.733  1.00  0.00     0.275 C 
BRANCH  28  29
ATOM     29  O   UNL A   1      37.900  22.399  26.075  1.00  0.00    -0.458 OA
BRANCH  29  30
ATOM     30  C   UNL A   1      39.229  22.596  26.230  1.00  0.00     0.338 C 
ATOM     31  O   UNL A   1      40.133  21.908  25.787  1.00  0.00    -0.246 OA
BRANCH  30  32
ATOM     32  C   UNL A   1      39.426  23.643  27.235  1.00  0.00     0.060 A 
ATOM     33  C   UNL A   1      38.498  24.686  27.279  1.00  0.00     0.016 A 
ATOM     34  C   UNL A   1      40.672  23.727  27.874  1.00  0.00     0.016 A 
ATOM     35  C   UNL A   1      38.899  25.894  27.811  1.00  0.00     0.010 A 
ATOM     36  C   UNL A   1      41.079  24.934  28.375  1.00  0.00     0.010 A 
ATOM     37  C   UNL A   1      40.216  26.020  28.270  1.00  0.00    -0.014 A 
BRANCH  37  38
ATOM     38  C   UNL A   1      40.655  27.292  28.797  1.00  0.00     0.031 A 
ATOM     39  C   UNL A   1      41.884  27.762  28.121  1.00  0.00     0.074 A 
ATOM     40  C   UNL A   1      39.913  27.996  29.676  1.00  0.00     0.049 A 
ATOM     41  N   UNL A   1      43.065  27.865  28.631  1.00  0.00    -0.248 NA
ATOM     42  C   UNL A   1      41.850  27.936  26.659  1.00  0.00     0.031 C 
ATOM     43  C   UNL A   1      38.556  27.692  30.141  1.00  0.00     0.029 A 
ATOM     44  N   UNL A   1      40.175  29.197  30.264  1.00  0.00    -0.354 N 
ATOM     45  C   UNL A   1      43.871  28.344  27.603  1.00  0.00     0.074 A 
ATOM     46  C   UNL A   1      43.139  28.139  26.386  1.00  0.00     0.031 C 
ATOM     47  C   UNL A   1      38.034  28.782  30.749  1.00  0.00     0.029 A 
ATOM     48  C   UNL A   1      39.061  29.805  30.835  1.00  0.00     0.049 A 
ATOM     49  H   UNL A   1      41.074  29.599  30.283  1.00  0.00     0.167 HD
ATOM     50  C   UNL A   1      44.901  29.185  27.893  1.00  0.00     0.037 A 
ATOM     51  C   UNL A   1      38.994  31.082  31.286  1.00  0.00     0.037 A 
ATOM     52  C   UNL A   1      45.207  29.116  29.303  1.00  0.00     0.049 A 
ATOM     53  C   UNL A   1      40.385  31.537  31.519  1.00  0.00     0.074 A 
ATOM     54  C   UNL A   1      45.792  28.208  30.156  1.00  0.00     0.029 A 
ATOM     55  N   UNL A   1      44.466  29.978  30.065  1.00  0.00    -0.354 N 
ATOM     56  N   UNL A   1      41.151  31.051  32.456  1.00  0.00    -0.248 NA
ATOM     57  C   UNL A   1      41.078  32.260  30.460  1.00  0.00     0.031 C 
ATOM     58  C   UNL A   1      45.211  28.447  31.439  1.00  0.00     0.029 A 
ATOM     59  C   UNL A   1      44.330  29.523  31.344  1.00  0.00     0.049 A 
ATOM     60  H   UNL A   1      44.079  30.821  29.733  1.00  0.00     0.167 HD
ATOM     61  C   UNL A   1      42.411  31.020  31.889  1.00  0.00     0.074 A 
ATOM     62  C   UNL A   1      42.339  31.925  30.747  1.00  0.00     0.031 C 
ATOM     63  C   UNL A   1      43.283  30.020  32.209  1.00  0.00     0.037 A 
BRANCH  50  64
ATOM     64  C   UNL A   1      45.223  30.446  27.101  1.00  0.00     0.064 A 
ATOM     65  C   UNL A   1      46.583  30.753  26.874  1.00  0.00     0.173 A 
ATOM     66  C   UNL A   1      44.325  31.513  26.874  1.00  0.00     0.173 A 
ATOM     67  F   UNL A   1      47.533  29.821  27.047  1.00  0.00    -0.203 F 
ATOM     68  C   UNL A   1      47.011  32.048  26.567  1.00  0.00     0.198 A 
ATOM     69  C   UNL A   1      44.755  32.793  26.527  1.00  0.00     0.198 A 
ATOM     70  F   UNL A   1      43.008  31.411  27.074  1.00  0.00    -0.203 F 
ATOM     71  F   UNL A   1      48.323  32.316  26.500  1.00  0.00    -0.200 F 
ATOM     72  C   UNL A   1      46.097  33.071  26.411  1.00  0.00     0.200 A 
ATOM     73  F   UNL A   1      43.849  33.775  26.395  1.00  0.00    -0.200 F 
ATOM     74  F   UNL A   1      46.507  34.328  26.192  1.00  0.00    -0.200 F 
ENDBRANCH  50  64
BRANCH  51  75
ATOM     75  C   UNL A   1      37.849  32.022  31.255  1.00  0.00     0.064 A 
ATOM     76  C   UNL A   1      37.462  32.671  30.070  1.00  0.00     0.173 A 
ATOM     77  C   UNL A   1      36.934  32.078  32.324  1.00  0.00     0.173 A 
ATOM     78  F   UNL A   1      38.254  32.626  28.988  1.00  0.00    -0.203 F 
ATOM     79  C   UNL A   1      36.224  33.314  29.954  1.00  0.00     0.198 A 
ATOM     80  C   UNL A   1      35.701  32.722  32.209  1.00  0.00     0.198 A 
ATOM     81  F   UNL A   1      37.177  31.423  33.469  1.00  0.00    -0.203 F 
ATOM     82  F   UNL A   1      35.864  33.870  28.788  1.00  0.00    -0.200 F 
ATOM     83  C   UNL A   1      35.340  33.329  31.020  1.00  0.00     0.200 A 
ATOM     84  F   UNL A   1      34.837  32.692  33.234  1.00  0.00    -0.200 F 
ATOM     85  F   UNL A   1      34.128  33.888  30.889  1.00  0.00    -0.200 F 
ENDBRANCH  51  75
BRANCH  63  86
ATOM     86  C   UNL A   1      43.035  29.282  33.488  1.00  0.00     0.064 A 
ATOM     87  C   UNL A   1      43.431  29.729  34.758  1.00  0.00     0.173 A 
ATOM     88  C   UNL A   1      42.275  28.107  33.419  1.00  0.00     0.173 A 
ATOM     89  F   UNL A   1      44.090  30.886  34.907  1.00  0.00    -0.203 F 
ATOM     90  C   UNL A   1      43.113  29.005  35.905  1.00  0.00     0.198 A 
ATOM     91  C   UNL A   1      41.925  27.408  34.569  1.00  0.00     0.198 A 
ATOM     92  F   UNL A   1      41.835  27.661  32.233  1.00  0.00    -0.203 F 
ATOM     93  F   UNL A   1      43.516  29.438  37.109  1.00  0.00    -0.200 F 
ATOM     94  C   UNL A   1      42.353  27.850  35.809  1.00  0.00     0.200 A 
ATOM     95  F   UNL A   1      41.153  26.317  34.471  1.00  0.00    -0.200 F 
ATOM     96  F   UNL A   1      42.015  27.172  36.915  1.00  0.00    -0.200 F 
ENDBRANCH  63  86
ENDBRANCH  37  38
ENDBRANCH  30  32
ENDBRANCH  29  30
ENDBRANCH  28  29
ENDBRANCH   1  28
TORSDOF 15
ENDMDL
MODEL 3
REMARK VINA RESULT:     -11.4      4.103      6.835
REMARK SMILES NS(=O)(=O)c1ccc(-n2nc(C(=O)OCCOC(=O)c3ccc(-c4c5nc(c(-c6c(F)c(F)c(F)c(F)c6F)c6ccc([nH]6)c(-c6c(F)c(F)c(F)c(F)c6F)c6nc(c(-c7c(F)c(F)c(F)c(F)c7F)c7ccc4[nH]7)C=C6)C=C5)cc3)cc2-c2ccc(Cl)s2)cc1
REMARK SMILES IDX 15 1 14 2 12 3 13 4 11 5 9 6 10 7 84 8 83 9 8 10 5 11 6 12
REMARK SMILES IDX 92 13 7 14 91 15 2 16 3 17 4 18 1 19 85 22 86 23 90 24 87 25
REMARK SMILES IDX 88 26 89 27 16 28 17 29 18 30 19 31 20 32 21 33 82 34 22 35
REMARK SMILES IDX 81 36 23 37 24 38 25 39 75 40 26 41 80 42 74 43 76 44 27 45
REMARK SMILES IDX 79 46 73 47 72 48 28 50 60 51 40 52 59 53 41 54 44 55 58 56
REMARK SMILES IDX 77 57 42 58 43 59 57 61 78 62 45 63 29 64 30 65 38 66 31 67
REMARK SMILES IDX 32 68 36 69 39 70 33 71 34 72 37 73 35 74 61 75 62 76 70 77
REMARK SMILES IDX 63 78 64 79 68 80 71 81 65 82 66 83 69 84 67 85 46 86 47 87
REMARK SMILES IDX 55 88 48 89 49 90 53 91 56 92 50 93 51 94 54 95 52 96
REMARK H PARENT 1 20 1 21 76 49 44 60
REMARK Flexibility Score: inf
ROOT
ATOM      1  C   UNL A   1      41.000  20.379  27.116  1.00  0.00     0.275 C 
ENDROOT
BRANCH   1   2
ATOM      2  O   UNL A   1      40.164  20.752  26.009  1.00  0.00    -0.457 OA
BRANCH   2   3
ATOM      3  C   UNL A   1      39.481  21.938  26.137  1.00  0.00     0.358 C 
ATOM      4  O   UNL A   1      39.996  22.987  26.510  1.00  0.00    -0.244 OA
BRANCH   3   5
ATOM      5  C   UNL A   1      38.073  21.797  25.735  1.00  0.00     0.171 A 
ATOM      6  N   UNL A   1      36.014  22.276  25.396  1.00  0.00    -0.231 N 
ATOM      7  N   UNL A   1      37.217  22.838  25.670  1.00  0.00    -0.160 NA
ATOM      8  C   UNL A   1      36.112  20.914  25.163  1.00  0.00     0.085 A 
ATOM      9  C   UNL A   1      37.436  20.593  25.344  1.00  0.00     0.068 A 
BRANCH   6  10
ATOM     10  C   UNL A   1      34.829  23.037  25.528  1.00  0.00     0.065 A 
ATOM     11  C   UNL A   1      32.420  24.398  25.753  1.00  0.00     0.082 A 
ATOM     12  C   UNL A   1      32.850  23.585  26.804  1.00  0.00     0.024 A 
ATOM     13  C   UNL A   1      33.197  24.552  24.597  1.00  0.00     0.024 A 
ATOM     14  C   UNL A   1      34.050  22.891  26.685  1.00  0.00     0.030 A 
ATOM     15  C   UNL A   1      34.426  23.892  24.495  1.00  0.00     0.030 A 
BRANCH  11  16
ATOM     16  S   UNL A   1      30.860  25.218  25.883  1.00  0.00     0.238 S 
ATOM     17  O   UNL A   1      30.256  25.307  24.578  1.00  0.00    -0.207 OA
ATOM     18  O   UNL A   1      31.015  26.359  26.758  1.00  0.00    -0.207 OA
BRANCH  16  19
ATOM     19  N   UNL A   1      29.916  24.110  26.729  1.00  0.00    -0.225 NA
ATOM     20  H   UNL A   1      30.370  23.197  26.718  1.00  0.00     0.137 HD
ATOM     21  H   UNL A   1      28.998  24.039  26.289  1.00  0.00     0.137 HD
ENDBRANCH  16  19
ENDBRANCH  11  16
ENDBRANCH   6  10
BRANCH   8  22
ATOM     22  C   UNL A   1      35.030  20.046  24.815  1.00  0.00     0.054 A 
ATOM     23  C   UNL A   1      33.725  20.430  24.577  1.00  0.00     0.024 A 
ATOM     24  S   UNL A   1      35.235  18.352  24.638  1.00  0.00    -0.122 S 
ATOM     25  C   UNL A   1      32.909  19.334  24.169  1.00  0.00     0.033 A 
ATOM     26  C   UNL A   1      33.623  18.164  24.161  1.00  0.00     0.094 A 
ATOM     27  Cl  UNL A   1      33.038  16.612  23.721  1.00  0.00    -0.072 Cl
ENDBRANCH   8  22
ENDBRANCH   3   5
ENDBRANCH   2   3
ENDBRANCH   1   2
BRANCH   1  28
ATOM     28  C   UNL A   1      42.375  19.928  26.643  1.00  0.00     0.275 C 
BRANCH  28  29
ATOM     29  O   UNL A   1      42.701  20.518  25.387  1.00  0.00    -0.458 OA
BRANCH  29  30
ATOM     30  C   UNL A   1      44.005  20.833  25.213  1.00  0.00     0.338 C 
ATOM     31  O   UNL A   1      44.934  20.059  25.054  1.00  0.00    -0.246 OA
BRANCH  30  32
ATOM     32  C   UNL A   1      44.178  22.259  25.494  1.00  0.00     0.060 A 
ATOM     33  C   UNL A   1      45.075  22.620  26.503  1.00  0.00     0.016 A 
ATOM     34  C   UNL A   1      43.231  23.159  24.984  1.00  0.00     0.016 A 
ATOM     35  C   UNL A   1      44.895  23.833  27.132  1.00  0.00     0.010 A 
ATOM     36  C   UNL A   1      43.034  24.351  25.627  1.00  0.00     0.010 A 
ATOM     37  C   UNL A   1      43.819  24.639  26.739  1.00  0.00    -0.014 A 
BRANCH  37  38
ATOM     38  C   UNL A   1      43.603  25.898  27.416  1.00  0.00     0.031 A 
ATOM     39  C   UNL A   1      44.616  26.903  27.025  1.00  0.00     0.074 A 
ATOM     40  C   UNL A   1      42.509  26.126  28.170  1.00  0.00     0.049 A 
ATOM     41  N   UNL A   1      45.552  27.396  27.764  1.00  0.00    -0.248 NA
ATOM     42  C   UNL A   1      44.742  27.243  25.597  1.00  0.00     0.031 C 
ATOM     43  C   UNL A   1      41.345  25.249  28.339  1.00  0.00     0.029 A 
ATOM     44  N   UNL A   1      42.154  27.241  28.868  1.00  0.00    -0.354 N 
ATOM     45  C   UNL A   1      46.237  28.289  26.945  1.00  0.00     0.074 A 
ATOM     46  C   UNL A   1      45.856  27.976  25.598  1.00  0.00     0.031 C 
ATOM     47  C   UNL A   1      40.330  25.951  28.895  1.00  0.00     0.029 A 
ATOM     48  C   UNL A   1      40.814  27.275  29.242  1.00  0.00     0.049 A 
ATOM     49  H   UNL A   1      42.790  27.960  29.087  1.00  0.00     0.167 HD
ATOM     50  C   UNL A   1      46.766  29.422  27.482  1.00  0.00     0.037 A 
ATOM     51  C   UNL A   1      40.153  28.348  29.744  1.00  0.00     0.037 A 
ATOM     52  C   UNL A   1      46.849  29.291  28.917  1.00  0.00     0.049 A 
ATOM     53  C   UNL A   1      41.175  29.281  30.273  1.00  0.00     0.074 A 
ATOM     54  C   UNL A   1      47.615  28.584  29.815  1.00  0.00     0.029 A 
ATOM     55  N   UNL A   1      45.707  29.678  29.567  1.00  0.00    -0.354 N 
ATOM     56  N   UNL A   1      41.917  29.018  31.314  1.00  0.00    -0.248 NA
ATOM     57  C   UNL A   1      41.663  30.355  29.416  1.00  0.00     0.031 C 
ATOM     58  C   UNL A   1      46.796  28.399  30.970  1.00  0.00     0.029 A 
ATOM     59  C   UNL A   1      45.574  29.040  30.765  1.00  0.00     0.049 A 
ATOM     60  H   UNL A   1      45.064  30.335  29.214  1.00  0.00     0.167 HD
ATOM     61  C   UNL A   1      43.148  29.565  31.006  1.00  0.00     0.074 A 
ATOM     62  C   UNL A   1      42.887  30.512  29.927  1.00  0.00     0.031 C 
ATOM     63  C   UNL A   1      44.295  28.959  31.433  1.00  0.00     0.037 A 
BRANCH  50  64
ATOM     64  C   UNL A   1      46.656  30.801  26.844  1.00  0.00     0.064 A 
ATOM     65  C   UNL A   1      47.803  31.626  26.853  1.00  0.00     0.173 A 
ATOM     66  C   UNL A   1      45.444  31.469  26.559  1.00  0.00     0.173 A 
ATOM     67  F   UNL A   1      49.016  31.108  27.101  1.00  0.00    -0.203 F 
ATOM     68  C   UNL A   1      47.722  33.014  26.712  1.00  0.00     0.198 A 
ATOM     69  C   UNL A   1      45.374  32.850  26.378  1.00  0.00     0.198 A 
ATOM     70  F   UNL A   1      44.259  30.852  26.545  1.00  0.00    -0.203 F 
ATOM     71  F   UNL A   1      48.821  33.764  26.868  1.00  0.00    -0.200 F 
ATOM     72  C   UNL A   1      46.504  33.627  26.492  1.00  0.00     0.200 A 
ATOM     73  F   UNL A   1      44.178  33.425  26.180  1.00  0.00    -0.200 F 
ATOM     74  F   UNL A   1      46.410  34.962  26.432  1.00  0.00    -0.200 F 
ENDBRANCH  50  64
BRANCH  51  75
ATOM     75  C   UNL A   1      38.742  28.752  29.542  1.00  0.00     0.064 A 
ATOM     76  C   UNL A   1      37.901  29.050  30.628  1.00  0.00     0.173 A 
ATOM     77  C   UNL A   1      38.277  29.134  28.269  1.00  0.00     0.173 A 
ATOM     78  F   UNL A   1      38.288  28.762  31.880  1.00  0.00    -0.203 F 
ATOM     79  C   UNL A   1      36.680  29.712  30.453  1.00  0.00     0.198 A 
ATOM     80  C   UNL A   1      37.058  29.793  28.095  1.00  0.00     0.198 A 
ATOM     81  F   UNL A   1      39.042  28.965  27.181  1.00  0.00    -0.203 F 
ATOM     82  F   UNL A   1      35.933  30.034  31.518  1.00  0.00    -0.200 F 
ATOM     83  C   UNL A   1      36.266  30.093  29.187  1.00  0.00     0.200 A 
ATOM     84  F   UNL A   1      36.690  30.194  26.870  1.00  0.00    -0.200 F 
ATOM     85  F   UNL A   1      35.129  30.786  29.024  1.00  0.00    -0.200 F 
ENDBRANCH  51  75
BRANCH  63  86
ATOM     86  C   UNL A   1      44.178  28.020  32.593  1.00  0.00     0.064 A 
ATOM     87  C   UNL A   1      43.993  26.633  32.481  1.00  0.00     0.173 A 
ATOM     88  C   UNL A   1      44.356  28.551  33.876  1.00  0.00     0.173 A 
ATOM     89  F   UNL A   1      43.896  26.043  31.282  1.00  0.00    -0.203 F 
ATOM     90  C   UNL A   1      43.948  25.821  33.613  1.00  0.00     0.198 A 
ATOM     91  C   UNL A   1      44.350  27.735  35.001  1.00  0.00     0.198 A 
ATOM     92  F   UNL A   1      44.580  29.865  34.033  1.00  0.00    -0.203 F 
ATOM     93  F   UNL A   1      43.751  24.501  33.489  1.00  0.00    -0.200 F 
ATOM     94  C   UNL A   1      44.135  26.373  34.871  1.00  0.00     0.200 A 
ATOM     95  F   UNL A   1      44.576  28.269  36.209  1.00  0.00    -0.200 F 
ATOM     96  F   UNL A   1      44.128  25.589  35.958  1.00  0.00    -0.200 F 
ENDBRANCH  63  86
ENDBRANCH  37  38
ENDBRANCH  30  32
ENDBRANCH  29  30
ENDBRANCH  28  29
ENDBRANCH   1  28
TORSDOF 15
ENDMDL
