MODEL 1
REMARK VINA RESULT:     -12.2      0.000      0.000
REMARK SMILES O=C(Cc1c[nH]c(=O)n(Cc2ccccc2)c1=O)OCCOC(=O)c1ccc(-c2c3nc(c(-c4c(F)c(F)c(F)c(F)c4F)c4ccc([nH]4)c(-c4c(F)c(F)c(F)c(F)c4F)c4nc(c(-c5c(F)c(F)c(F)c(F)c5F)c5ccc2[nH]5)C=C4)C=C3)cc1
REMARK SMILES IDX 20 1 19 2 2 3 1 4 3 5 4 6 5 7 17 8 6 9 9 10 18 11 7 12 8 14
REMARK SMILES IDX 10 15 11 16 12 17 16 18 13 19 15 20 14 21 21 22 22 23 23 24
REMARK SMILES IDX 24 25 25 26 26 27 87 28 27 29 86 30 28 31 29 32 30 33 80 34
REMARK SMILES IDX 31 35 85 36 79 37 81 38 32 39 84 40 78 41 77 42 33 44 65 45
REMARK SMILES IDX 45 46 64 47 46 48 49 49 63 50 82 51 47 52 48 53 62 55 83 56
REMARK SMILES IDX 50 57 34 58 35 59 43 60 36 61 37 62 41 63 44 64 38 65 39 66
REMARK SMILES IDX 42 67 40 68 66 69 67 70 75 71 68 72 69 73 73 74 76 75 70 76
REMARK SMILES IDX 71 77 74 78 72 79 51 80 52 81 60 82 53 83 54 84 58 85 61 86
REMARK SMILES IDX 55 87 56 88 59 89 57 90
REMARK H PARENT 6 13 81 43 49 54
REMARK Flexibility Score: inf
ROOT
ATOM      1  C   UNL A   1      31.781  29.313  24.572  1.00  0.00     0.274 C 
ENDROOT
BRANCH   1   2
ATOM      2  O   UNL A   1      30.544  29.029  23.880  1.00  0.00    -0.462 OA
BRANCH   2   3
ATOM      3  C   UNL A   1      30.277  27.899  23.184  1.00  0.00     0.310 C 
ATOM      4  O   UNL A   1      30.538  27.821  21.984  1.00  0.00    -0.252 OA
BRANCH   3   5
ATOM      5  C   UNL A   1      29.547  26.768  23.884  1.00  0.00     0.165 C 
BRANCH   5   6
ATOM      6  C   UNL A   1      30.279  25.803  24.757  1.00  0.00     0.045 A 
ATOM      7  C   UNL A   1      30.647  26.175  25.989  1.00  0.00     0.097 A 
ATOM      8  C   UNL A   1      30.666  24.444  24.294  1.00  0.00     0.260 A 
ATOM      9  N   UNL A   1      31.263  25.313  26.835  1.00  0.00    -0.314 N 
ATOM     10  N   UNL A   1      31.295  23.631  25.224  1.00  0.00    -0.256 N 
ATOM     11  O   UNL A   1      30.452  24.113  23.132  1.00  0.00    -0.269 OA
ATOM     12  C   UNL A   1      31.551  24.013  26.529  1.00  0.00     0.328 A 
ATOM     13  H   UNL A   1      31.518  25.645  27.726  1.00  0.00     0.171 HD
ATOM     14  O   UNL A   1      32.005  23.282  27.407  1.00  0.00    -0.248 OA
BRANCH  10  15
ATOM     15  C   UNL A   1      31.740  22.312  24.800  1.00  0.00     0.166 C 
BRANCH  15  16
ATOM     16  C   UNL A   1      33.236  22.286  24.545  1.00  0.00    -0.028 A 
ATOM     17  C   UNL A   1      34.048  21.341  25.192  1.00  0.00     0.005 A 
ATOM     18  C   UNL A   1      33.840  23.225  23.698  1.00  0.00     0.005 A 
ATOM     19  C   UNL A   1      35.430  21.338  25.008  1.00  0.00     0.000 A 
ATOM     20  C   UNL A   1      35.224  23.210  23.500  1.00  0.00     0.000 A 
ATOM     21  C   UNL A   1      36.018  22.272  24.160  1.00  0.00     0.000 A 
ENDBRANCH  15  16
ENDBRANCH  10  15
ENDBRANCH   5   6
ENDBRANCH   3   5
ENDBRANCH   2   3
ENDBRANCH   1   2
BRANCH   1  22
ATOM     22  C   UNL A   1      31.550  30.326  25.695  1.00  0.00     0.275 C 
BRANCH  22  23
ATOM     23  O   UNL A   1      32.608  30.222  26.668  1.00  0.00    -0.458 OA
BRANCH  23  24
ATOM     24  C   UNL A   1      33.164  31.385  27.086  1.00  0.00     0.338 C 
ATOM     25  O   UNL A   1      32.642  32.486  27.098  1.00  0.00    -0.246 OA
BRANCH  24  26
ATOM     26  C   UNL A   1      34.451  31.072  27.757  1.00  0.00     0.060 A 
ATOM     27  C   UNL A   1      35.411  32.061  28.002  1.00  0.00     0.016 A 
ATOM     28  C   UNL A   1      34.731  29.734  28.066  1.00  0.00     0.016 A 
ATOM     29  C   UNL A   1      36.640  31.710  28.567  1.00  0.00     0.010 A 
ATOM     30  C   UNL A   1      35.960  29.385  28.636  1.00  0.00     0.010 A 
ATOM     31  C   UNL A   1      36.917  30.374  28.903  1.00  0.00    -0.014 A 
BRANCH  31  32
ATOM     32  C   UNL A   1      38.121  30.065  29.713  1.00  0.00     0.031 A 
ATOM     33  C   UNL A   1      38.326  30.608  31.094  1.00  0.00     0.074 A 
ATOM     34  C   UNL A   1      39.040  29.247  29.167  1.00  0.00     0.049 A 
ATOM     35  N   UNL A   1      39.254  30.295  31.964  1.00  0.00    -0.248 NA
ATOM     36  C   UNL A   1      37.380  31.629  31.563  1.00  0.00     0.031 C 
ATOM     37  C   UNL A   1      38.965  28.691  27.815  1.00  0.00     0.029 A 
ATOM     38  N   UNL A   1      40.205  28.732  29.678  1.00  0.00    -0.354 N 
ATOM     39  C   UNL A   1      38.993  31.057  33.094  1.00  0.00     0.074 A 
ATOM     40  C   UNL A   1      37.840  31.881  32.785  1.00  0.00     0.031 C 
ATOM     41  C   UNL A   1      40.021  27.891  27.612  1.00  0.00     0.029 A 
ATOM     42  C   UNL A   1      40.854  27.889  28.811  1.00  0.00     0.049 A 
ATOM     43  H   UNL A   1      40.541  28.945  30.578  1.00  0.00     0.167 HD
ATOM     44  C   UNL A   1      39.649  31.049  34.278  1.00  0.00     0.037 A 
ATOM     45  C   UNL A   1      41.987  27.179  28.966  1.00  0.00     0.037 A 
ATOM     46  C   UNL A   1      40.806  30.239  34.570  1.00  0.00     0.049 A 
ATOM     47  C   UNL A   1      42.713  27.223  30.279  1.00  0.00     0.074 A 
ATOM     48  C   UNL A   1      41.490  30.117  35.768  1.00  0.00     0.029 A 
ATOM     49  N   UNL A   1      41.464  29.433  33.654  1.00  0.00    -0.354 N 
ATOM     50  N   UNL A   1      42.388  27.857  31.377  1.00  0.00    -0.248 NA
ATOM     51  C   UNL A   1      43.958  26.447  30.376  1.00  0.00     0.031 C 
ATOM     52  C   UNL A   1      42.591  29.280  35.564  1.00  0.00     0.029 A 
ATOM     53  C   UNL A   1      42.566  28.841  34.250  1.00  0.00     0.049 A 
ATOM     54  H   UNL A   1      41.189  29.301  32.718  1.00  0.00     0.167 HD
ATOM     55  C   UNL A   1      43.371  27.540  32.303  1.00  0.00     0.074 A 
ATOM     56  C   UNL A   1      44.301  26.648  31.641  1.00  0.00     0.031 C 
ATOM     57  C   UNL A   1      43.488  27.955  33.587  1.00  0.00     0.037 A 
BRANCH  44  58
ATOM     58  C   UNL A   1      39.133  31.919  35.386  1.00  0.00     0.064 A 
ATOM     59  C   UNL A   1      38.316  31.389  36.397  1.00  0.00     0.173 A 
ATOM     60  C   UNL A   1      39.580  33.241  35.527  1.00  0.00     0.173 A 
ATOM     61  F   UNL A   1      37.863  30.129  36.308  1.00  0.00    -0.203 F 
ATOM     62  C   UNL A   1      37.973  32.151  37.511  1.00  0.00     0.198 A 
ATOM     63  C   UNL A   1      39.248  33.994  36.651  1.00  0.00     0.198 A 
ATOM     64  F   UNL A   1      40.373  33.788  34.595  1.00  0.00    -0.203 F 
ATOM     65  F   UNL A   1      37.192  31.623  38.464  1.00  0.00    -0.200 F 
ATOM     66  C   UNL A   1      38.449  33.447  37.644  1.00  0.00     0.200 A 
ATOM     67  F   UNL A   1      39.724  35.240  36.787  1.00  0.00    -0.200 F 
ATOM     68  F   UNL A   1      38.143  34.166  38.733  1.00  0.00    -0.200 F 
ENDBRANCH  44  58
BRANCH  45  69
ATOM     69  C   UNL A   1      42.468  26.328  27.850  1.00  0.00     0.064 A 
ATOM     70  C   UNL A   1      41.955  25.039  27.660  1.00  0.00     0.173 A 
ATOM     71  C   UNL A   1      43.418  26.800  26.932  1.00  0.00     0.173 A 
ATOM     72  F   UNL A   1      41.055  24.543  28.522  1.00  0.00    -0.203 F 
ATOM     73  C   UNL A   1      42.380  24.248  26.596  1.00  0.00     0.198 A 
ATOM     74  C   UNL A   1      43.823  26.018  25.855  1.00  0.00     0.198 A 
ATOM     75  F   UNL A   1      43.929  28.032  27.069  1.00  0.00    -0.203 F 
ATOM     76  F   UNL A   1      41.895  23.008  26.450  1.00  0.00    -0.200 F 
ATOM     77  C   UNL A   1      43.308  24.741  25.690  1.00  0.00     0.200 A 
ATOM     78  F   UNL A   1      44.707  26.504  24.973  1.00  0.00    -0.200 F 
ATOM     79  F   UNL A   1      43.707  23.984  24.659  1.00  0.00    -0.200 F 
ENDBRANCH  45  69
BRANCH  57  80
ATOM     80  C   UNL A   1      44.656  27.448  34.379  1.00  0.00     0.064 A 
ATOM     81  C   UNL A   1      44.614  26.205  35.026  1.00  0.00     0.173 A 
ATOM     82  C   UNL A   1      45.856  28.173  34.425  1.00  0.00     0.173 A 
ATOM     83  F   UNL A   1      43.484  25.481  35.023  1.00  0.00    -0.203 F 
ATOM     84  C   UNL A   1      45.729  25.709  35.695  1.00  0.00     0.198 A 
ATOM     85  C   UNL A   1      46.977  27.664  35.074  1.00  0.00     0.198 A 
ATOM     86  F   UNL A   1      45.948  29.366  33.817  1.00  0.00    -0.203 F 
ATOM     87  F   UNL A   1      45.661  24.529  36.327  1.00  0.00    -0.200 F 
ATOM     88  C   UNL A   1      46.913  26.433  35.709  1.00  0.00     0.200 A 
ATOM     89  F   UNL A   1      48.123  28.359  35.075  1.00  0.00    -0.200 F 
ATOM     90  F   UNL A   1      47.992  25.945  36.336  1.00  0.00    -0.200 F 
ENDBRANCH  57  80
ENDBRANCH  31  32
ENDBRANCH  24  26
ENDBRANCH  23  24
ENDBRANCH  22  23
ENDBRANCH   1  22
TORSDOF 14
ENDMDL
MODEL 2
REMARK VINA RESULT:     -12.2      3.437      8.183
REMARK SMILES O=C(Cc1c[nH]c(=O)n(Cc2ccccc2)c1=O)OCCOC(=O)c1ccc(-c2c3nc(c(-c4c(F)c(F)c(F)c(F)c4F)c4ccc([nH]4)c(-c4c(F)c(F)c(F)c(F)c4F)c4nc(c(-c5c(F)c(F)c(F)c(F)c5F)c5ccc2[nH]5)C=C4)C=C3)cc1
REMARK SMILES IDX 20 1 19 2 2 3 1 4 3 5 4 6 5 7 17 8 6 9 9 10 18 11 7 12 8 14
REMARK SMILES IDX 10 15 11 16 12 17 16 18 13 19 15 20 14 21 21 22 22 23 23 24
REMARK SMILES IDX 24 25 25 26 26 27 87 28 27 29 86 30 28 31 29 32 30 33 80 34
REMARK SMILES IDX 31 35 85 36 79 37 81 38 32 39 84 40 78 41 77 42 33 44 65 45
REMARK SMILES IDX 45 46 64 47 46 48 49 49 63 50 82 51 47 52 48 53 62 55 83 56
REMARK SMILES IDX 50 57 34 58 35 59 43 60 36 61 37 62 41 63 44 64 38 65 39 66
REMARK SMILES IDX 42 67 40 68 66 69 67 70 75 71 68 72 69 73 73 74 76 75 70 76
REMARK SMILES IDX 71 77 74 78 72 79 51 80 52 81 60 82 53 83 54 84 58 85 61 86
REMARK SMILES IDX 55 87 56 88 59 89 57 90
REMARK H PARENT 6 13 81 43 49 54
REMARK Flexibility Score: inf
ROOT
ATOM      1  C   UNL A   1      41.351  20.960  26.245  1.00  0.00     0.274 C 
ENDROOT
BRANCH   1   2
ATOM      2  O   UNL A   1      40.225  21.847  26.431  1.00  0.00    -0.462 OA
BRANCH   2   3
ATOM      3  C   UNL A   1      38.980  21.645  25.939  1.00  0.00     0.310 C 
ATOM      4  O   UNL A   1      38.690  20.595  25.367  1.00  0.00    -0.252 OA
BRANCH   3   5
ATOM      5  C   UNL A   1      37.977  22.782  26.006  1.00  0.00     0.165 C 
BRANCH   5   6
ATOM      6  C   UNL A   1      36.758  22.786  25.145  1.00  0.00     0.045 A 
ATOM      7  C   UNL A   1      36.721  23.563  24.056  1.00  0.00     0.097 A 
ATOM      8  C   UNL A   1      35.546  21.992  25.476  1.00  0.00     0.260 A 
ATOM      9  N   UNL A   1      35.657  23.556  23.215  1.00  0.00    -0.314 N 
ATOM     10  N   UNL A   1      34.504  22.045  24.563  1.00  0.00    -0.256 N 
ATOM     11  O   UNL A   1      35.499  21.363  26.529  1.00  0.00    -0.269 OA
ATOM     12  C   UNL A   1      34.553  22.769  23.385  1.00  0.00     0.328 A 
ATOM     13  H   UNL A   1      35.683  24.155  22.434  1.00  0.00     0.171 HD
ATOM     14  O   UNL A   1      33.696  22.752  22.504  1.00  0.00    -0.248 OA
BRANCH  10  15
ATOM     15  C   UNL A   1      33.277  21.327  24.871  1.00  0.00     0.166 C 
BRANCH  15  16
ATOM     16  C   UNL A   1      33.259  19.954  24.225  1.00  0.00    -0.028 A 
ATOM     17  C   UNL A   1      32.296  19.641  23.252  1.00  0.00     0.005 A 
ATOM     18  C   UNL A   1      34.170  18.962  24.613  1.00  0.00     0.005 A 
ATOM     19  C   UNL A   1      32.236  18.368  22.688  1.00  0.00     0.000 A 
ATOM     20  C   UNL A   1      34.119  17.690  24.034  1.00  0.00     0.000 A 
ATOM     21  C   UNL A   1      33.149  17.393  23.078  1.00  0.00     0.000 A 
ENDBRANCH  15  16
ENDBRANCH  10  15
ENDBRANCH   5   6
ENDBRANCH   3   5
ENDBRANCH   2   3
ENDBRANCH   1   2
BRANCH   1  22
ATOM     22  C   UNL A   1      42.576  21.739  25.759  1.00  0.00     0.275 C 
BRANCH  22  23
ATOM     23  O   UNL A   1      42.169  23.037  25.284  1.00  0.00    -0.458 OA
BRANCH  23  24
ATOM     24  C   UNL A   1      43.081  24.035  25.389  1.00  0.00     0.338 C 
ATOM     25  O   UNL A   1      44.044  24.228  24.668  1.00  0.00    -0.246 OA
BRANCH  24  26
ATOM     26  C   UNL A   1      42.591  25.009  26.397  1.00  0.00     0.060 A 
ATOM     27  C   UNL A   1      41.542  24.699  27.269  1.00  0.00     0.016 A 
ATOM     28  C   UNL A   1      43.146  26.297  26.400  1.00  0.00     0.016 A 
ATOM     29  C   UNL A   1      41.062  25.671  28.150  1.00  0.00     0.010 A 
ATOM     30  C   UNL A   1      42.666  27.268  27.285  1.00  0.00     0.010 A 
ATOM     31  C   UNL A   1      41.630  26.956  28.177  1.00  0.00    -0.014 A 
BRANCH  31  32
ATOM     32  C   UNL A   1      41.268  27.887  29.274  1.00  0.00     0.031 A 
ATOM     33  C   UNL A   1      40.122  28.845  29.173  1.00  0.00     0.074 A 
ATOM     34  C   UNL A   1      42.004  27.832  30.400  1.00  0.00     0.049 A 
ATOM     35  N   UNL A   1      39.606  29.601  30.111  1.00  0.00    -0.248 NA
ATOM     36  C   UNL A   1      39.470  28.980  27.864  1.00  0.00     0.031 C 
ATOM     37  C   UNL A   1      43.168  26.966  30.595  1.00  0.00     0.029 A 
ATOM     38  N   UNL A   1      41.882  28.504  31.590  1.00  0.00    -0.354 N 
ATOM     39  C   UNL A   1      38.553  30.283  29.517  1.00  0.00     0.074 A 
ATOM     40  C   UNL A   1      38.528  29.882  28.123  1.00  0.00     0.031 C 
ATOM     41  C   UNL A   1      43.637  27.138  31.838  1.00  0.00     0.029 A 
ATOM     42  C   UNL A   1      42.818  28.134  32.522  1.00  0.00     0.049 A 
ATOM     43  H   UNL A   1      41.190  29.183  31.757  1.00  0.00     0.167 HD
ATOM     44  C   UNL A   1      37.684  31.147  30.094  1.00  0.00     0.037 A 
ATOM     45  C   UNL A   1      42.992  28.539  33.794  1.00  0.00     0.037 A 
ATOM     46  C   UNL A   1      37.728  31.553  31.477  1.00  0.00     0.049 A 
ATOM     47  C   UNL A   1      42.035  29.529  34.392  1.00  0.00     0.074 A 
ATOM     48  C   UNL A   1      36.843  32.371  32.161  1.00  0.00     0.029 A 
ATOM     49  N   UNL A   1      38.718  31.196  32.380  1.00  0.00    -0.354 N 
ATOM     50  N   UNL A   1      40.975  30.075  33.854  1.00  0.00    -0.248 NA
ATOM     51  C   UNL A   1      42.294  29.951  35.776  1.00  0.00     0.031 C 
ATOM     52  C   UNL A   1      37.325  32.550  33.461  1.00  0.00     0.029 A 
ATOM     53  C   UNL A   1      38.484  31.805  33.603  1.00  0.00     0.049 A 
ATOM     54  H   UNL A   1      39.474  30.598  32.182  1.00  0.00     0.167 HD
ATOM     55  C   UNL A   1      40.426  30.887  34.836  1.00  0.00     0.074 A 
ATOM     56  C   UNL A   1      41.265  30.754  36.009  1.00  0.00     0.031 C 
ATOM     57  C   UNL A   1      39.323  31.670  34.766  1.00  0.00     0.037 A 
BRANCH  44  58
ATOM     58  C   UNL A   1      36.574  31.710  29.256  1.00  0.00     0.064 A 
ATOM     59  C   UNL A   1      35.486  30.912  28.870  1.00  0.00     0.173 A 
ATOM     60  C   UNL A   1      36.517  33.082  28.971  1.00  0.00     0.173 A 
ATOM     61  F   UNL A   1      35.495  29.593  29.120  1.00  0.00    -0.203 F 
ATOM     62  C   UNL A   1      34.379  31.469  28.237  1.00  0.00     0.198 A 
ATOM     63  C   UNL A   1      35.400  33.639  28.353  1.00  0.00     0.198 A 
ATOM     64  F   UNL A   1      37.525  33.889  29.332  1.00  0.00    -0.203 F 
ATOM     65  F   UNL A   1      33.352  30.687  27.878  1.00  0.00    -0.200 F 
ATOM     66  C   UNL A   1      34.331  32.833  27.989  1.00  0.00     0.200 A 
ATOM     67  F   UNL A   1      35.347  34.961  28.132  1.00  0.00    -0.200 F 
ATOM     68  F   UNL A   1      33.250  33.372  27.408  1.00  0.00    -0.200 F 
ENDBRANCH  44  58
BRANCH  45  69
ATOM     69  C   UNL A   1      44.099  27.962  34.594  1.00  0.00     0.064 A 
ATOM     70  C   UNL A   1      43.913  26.782  35.327  1.00  0.00     0.173 A 
ATOM     71  C   UNL A   1      45.371  28.552  34.611  1.00  0.00     0.173 A 
ATOM     72  F   UNL A   1      42.709  26.192  35.350  1.00  0.00    -0.203 F 
ATOM     73  C   UNL A   1      44.957  26.218  36.055  1.00  0.00     0.198 A 
ATOM     74  C   UNL A   1      46.420  27.973  35.319  1.00  0.00     0.198 A 
ATOM     75  F   UNL A   1      45.598  29.676  33.916  1.00  0.00    -0.203 F 
ATOM     76  F   UNL A   1      44.748  25.104  36.770  1.00  0.00    -0.200 F 
ATOM     77  C   UNL A   1      46.212  26.810  36.044  1.00  0.00     0.200 A 
ATOM     78  F   UNL A   1      47.635  28.539  35.292  1.00  0.00    -0.200 F 
ATOM     79  F   UNL A   1      47.220  26.259  36.734  1.00  0.00    -0.200 F 
ENDBRANCH  45  69
BRANCH  57  80
ATOM     80  C   UNL A   1      38.941  32.446  35.991  1.00  0.00     0.064 A 
ATOM     81  C   UNL A   1      38.214  31.853  37.033  1.00  0.00     0.173 A 
ATOM     82  C   UNL A   1      39.376  33.769  36.162  1.00  0.00     0.173 A 
ATOM     83  F   UNL A   1      37.763  30.596  36.909  1.00  0.00    -0.203 F 
ATOM     84  C   UNL A   1      37.931  32.559  38.199  1.00  0.00     0.198 A 
ATOM     85  C   UNL A   1      39.112  34.464  37.339  1.00  0.00     0.198 A 
ATOM     86  F   UNL A   1      40.080  34.379  35.196  1.00  0.00    -0.203 F 
ATOM     87  F   UNL A   1      37.213  31.982  39.172  1.00  0.00    -0.200 F 
ATOM     88  C   UNL A   1      38.389  33.859  38.356  1.00  0.00     0.200 A 
ATOM     89  F   UNL A   1      39.568  35.715  37.493  1.00  0.00    -0.200 F 
ATOM     90  F   UNL A   1      38.132  34.530  39.487  1.00  0.00    -0.200 F 
ENDBRANCH  57  80
ENDBRANCH  31  32
ENDBRANCH  24  26
ENDBRANCH  23  24
ENDBRANCH  22  23
ENDBRANCH   1  22
TORSDOF 14
ENDMDL
MODEL 3
REMARK VINA RESULT:     -12.2      2.057      3.082
REMARK SMILES O=C(Cc1c[nH]c(=O)n(Cc2ccccc2)c1=O)OCCOC(=O)c1ccc(-c2c3nc(c(-c4c(F)c(F)c(F)c(F)c4F)c4ccc([nH]4)c(-c4c(F)c(F)c(F)c(F)c4F)c4nc(c(-c5c(F)c(F)c(F)c(F)c5F)c5ccc2[nH]5)C=C4)C=C3)cc1
REMARK SMILES IDX 20 1 19 2 2 3 1 4 3 5 4 6 5 7 17 8 6 9 9 10 18 11 7 12 8 14
REMARK SMILES IDX 10 15 11 16 12 17 16 18 13 19 15 20 14 21 21 22 22 23 23 24
REMARK SMILES IDX 24 25 25 26 26 27 87 28 27 29 86 30 28 31 29 32 30 33 80 34
REMARK SMILES IDX 31 35 85 36 79 37 81 38 32 39 84 40 78 41 77 42 33 44 65 45
REMARK SMILES IDX 45 46 64 47 46 48 49 49 63 50 82 51 47 52 48 53 62 55 83 56
REMARK SMILES IDX 50 57 34 58 35 59 43 60 36 61 37 62 41 63 44 64 38 65 39 66
REMARK SMILES IDX 42 67 40 68 66 69 67 70 75 71 68 72 69 73 73 74 76 75 70 76
REMARK SMILES IDX 71 77 74 78 72 79 51 80 52 81 60 82 53 83 54 84 58 85 61 86
REMARK SMILES IDX 55 87 56 88 59 89 57 90
REMARK H PARENT 6 13 81 43 49 54
REMARK Flexibility Score: inf
ROOT
ATOM      1  C   UNL A   1      31.676  32.268  26.861  1.00  0.00     0.274 C 
ENDROOT
BRANCH   1   2
ATOM      2  O   UNL A   1      32.239  30.938  26.814  1.00  0.00    -0.462 OA
BRANCH   2   3
ATOM      3  C   UNL A   1      32.184  30.102  25.751  1.00  0.00     0.310 C 
ATOM      4  O   UNL A   1      31.107  29.810  25.233  1.00  0.00    -0.252 OA
BRANCH   3   5
ATOM      5  C   UNL A   1      33.465  29.440  25.278  1.00  0.00     0.165 C 
BRANCH   5   6
ATOM      6  C   UNL A   1      33.438  28.346  24.262  1.00  0.00     0.045 A 
ATOM      7  C   UNL A   1      33.396  28.655  22.960  1.00  0.00     0.097 A 
ATOM      8  C   UNL A   1      33.403  26.909  24.638  1.00  0.00     0.260 A 
ATOM      9  N   UNL A   1      33.426  27.696  22.002  1.00  0.00    -0.314 N 
ATOM     10  N   UNL A   1      33.433  25.996  23.596  1.00  0.00    -0.256 N 
ATOM     11  O   UNL A   1      33.318  26.591  25.821  1.00  0.00    -0.269 OA
ATOM     12  C   UNL A   1      33.511  26.357  22.262  1.00  0.00     0.328 A 
ATOM     13  H   UNL A   1      33.384  27.982  21.061  1.00  0.00     0.171 HD
ATOM     14  O   UNL A   1      33.650  25.577  21.322  1.00  0.00    -0.248 OA
BRANCH  10  15
ATOM     15  C   UNL A   1      33.346  24.579  23.914  1.00  0.00     0.166 C 
BRANCH  15  16
ATOM     16  C   UNL A   1      34.714  23.990  24.204  1.00  0.00    -0.028 A 
ATOM     17  C   UNL A   1      35.410  23.290  23.205  1.00  0.00     0.005 A 
ATOM     18  C   UNL A   1      35.290  24.094  25.478  1.00  0.00     0.005 A 
ATOM     19  C   UNL A   1      36.643  22.698  23.472  1.00  0.00     0.000 A 
ATOM     20  C   UNL A   1      36.536  23.516  25.739  1.00  0.00     0.000 A 
ATOM     21  C   UNL A   1      37.208  22.813  24.739  1.00  0.00     0.000 A 
ENDBRANCH  15  16
ENDBRANCH  10  15
ENDBRANCH   5   6
ENDBRANCH   3   5
ENDBRANCH   2   3
ENDBRANCH   1   2
BRANCH   1  22
ATOM     22  C   UNL A   1      32.744  33.292  27.255  1.00  0.00     0.275 C 
BRANCH  22  23
ATOM     23  O   UNL A   1      32.153  34.318  28.077  1.00  0.00    -0.458 OA
BRANCH  23  24
ATOM     24  C   UNL A   1      33.002  35.225  28.618  1.00  0.00     0.338 C 
ATOM     25  O   UNL A   1      32.789  36.410  28.806  1.00  0.00    -0.246 OA
BRANCH  24  26
ATOM     26  C   UNL A   1      34.172  34.497  29.171  1.00  0.00     0.060 A 
ATOM     27  C   UNL A   1      35.455  34.655  28.637  1.00  0.00     0.016 A 
ATOM     28  C   UNL A   1      33.951  33.566  30.196  1.00  0.00     0.016 A 
ATOM     29  C   UNL A   1      36.514  33.893  29.137  1.00  0.00     0.010 A 
ATOM     30  C   UNL A   1      35.013  32.808  30.699  1.00  0.00     0.010 A 
ATOM     31  C   UNL A   1      36.305  32.977  30.183  1.00  0.00    -0.014 A 
BRANCH  31  32
ATOM     32  C   UNL A   1      37.476  32.361  30.852  1.00  0.00     0.031 A 
ATOM     33  C   UNL A   1      37.924  32.761  32.225  1.00  0.00     0.074 A 
ATOM     34  C   UNL A   1      38.133  31.394  30.184  1.00  0.00     0.049 A 
ATOM     35  N   UNL A   1      38.832  32.198  32.982  1.00  0.00    -0.248 NA
ATOM     36  C   UNL A   1      37.280  33.936  32.827  1.00  0.00     0.031 C 
ATOM     37  C   UNL A   1      37.811  30.951  28.827  1.00  0.00     0.029 A 
ATOM     38  N   UNL A   1      39.192  30.604  30.553  1.00  0.00    -0.354 N 
ATOM     39  C   UNL A   1      38.855  32.930  34.161  1.00  0.00     0.074 A 
ATOM     40  C   UNL A   1      37.895  34.006  34.004  1.00  0.00     0.031 C 
ATOM     41  C   UNL A   1      38.636  29.951  28.486  1.00  0.00     0.029 A 
ATOM     42  C   UNL A   1      39.552  29.692  29.593  1.00  0.00     0.049 A 
ATOM     43  H   UNL A   1      39.649  30.684  31.422  1.00  0.00     0.167 HD
ATOM     44  C   UNL A   1      39.597  32.706  35.272  1.00  0.00     0.037 A 
ATOM     45  C   UNL A   1      40.504  28.741  29.603  1.00  0.00     0.037 A 
ATOM     46  C   UNL A   1      40.562  31.644  35.412  1.00  0.00     0.049 A 
ATOM     47  C   UNL A   1      41.338  28.545  30.836  1.00  0.00     0.074 A 
ATOM     48  C   UNL A   1      41.308  31.301  36.528  1.00  0.00     0.029 A 
ATOM     49  N   UNL A   1      40.935  30.768  34.403  1.00  0.00    -0.354 N 
ATOM     50  N   UNL A   1      41.267  29.167  31.985  1.00  0.00    -0.248 NA
ATOM     51  C   UNL A   1      42.379  27.507  30.776  1.00  0.00     0.031 C 
ATOM     52  C   UNL A   1      42.168  30.255  36.181  1.00  0.00     0.029 A 
ATOM     53  C   UNL A   1      41.924  29.912  34.861  1.00  0.00     0.049 A 
ATOM     54  H   UNL A   1      40.553  30.757  33.496  1.00  0.00     0.167 HD
ATOM     55  C   UNL A   1      42.233  28.586  32.792  1.00  0.00     0.074 A 
ATOM     56  C   UNL A   1      42.873  27.551  32.005  1.00  0.00     0.031 C 
ATOM     57  C   UNL A   1      42.557  28.886  34.073  1.00  0.00     0.037 A 
BRANCH  44  58
ATOM     58  C   UNL A   1      39.395  33.599  36.459  1.00  0.00     0.064 A 
ATOM     59  C   UNL A   1      38.585  33.199  37.532  1.00  0.00     0.173 A 
ATOM     60  C   UNL A   1      40.132  34.785  36.598  1.00  0.00     0.173 A 
ATOM     61  F   UNL A   1      37.860  32.073  37.447  1.00  0.00    -0.203 F 
ATOM     62  C   UNL A   1      38.526  33.950  38.703  1.00  0.00     0.198 A 
ATOM     63  C   UNL A   1      40.085  35.525  37.777  1.00  0.00     0.198 A 
ATOM     64  F   UNL A   1      40.931  35.203  35.605  1.00  0.00    -0.203 F 
ATOM     65  F   UNL A   1      37.745  33.548  39.716  1.00  0.00    -0.200 F 
ATOM     66  C   UNL A   1      39.285  35.105  38.830  1.00  0.00     0.200 A 
ATOM     67  F   UNL A   1      40.833  36.630  37.905  1.00  0.00    -0.200 F 
ATOM     68  F   UNL A   1      39.251  35.808  39.970  1.00  0.00    -0.200 F 
ENDBRANCH  44  58
BRANCH  45  69
ATOM     69  C   UNL A   1      40.677  27.874  28.413  1.00  0.00     0.064 A 
ATOM     70  C   UNL A   1      40.019  26.640  28.324  1.00  0.00     0.173 A 
ATOM     71  C   UNL A   1      41.468  28.277  27.327  1.00  0.00     0.173 A 
ATOM     72  F   UNL A   1      39.263  26.210  29.345  1.00  0.00    -0.203 F 
ATOM     73  C   UNL A   1      40.152  25.836  27.195  1.00  0.00     0.198 A 
ATOM     74  C   UNL A   1      41.580  27.484  26.189  1.00  0.00     0.198 A 
ATOM     75  F   UNL A   1      42.108  29.454  27.364  1.00  0.00    -0.203 F 
ATOM     76  F   UNL A   1      39.535  24.648  27.144  1.00  0.00    -0.200 F 
ATOM     77  C   UNL A   1      40.927  26.262  26.126  1.00  0.00     0.200 A 
ATOM     78  F   UNL A   1      42.316  27.905  25.151  1.00  0.00    -0.200 F 
ATOM     79  F   UNL A   1      41.044  25.494  25.034  1.00  0.00    -0.200 F 
ENDBRANCH  45  69
BRANCH  57  80
ATOM     80  C   UNL A   1      43.648  28.086  34.721  1.00  0.00     0.064 A 
ATOM     81  C   UNL A   1      44.972  28.544  34.743  1.00  0.00     0.173 A 
ATOM     82  C   UNL A   1      43.352  26.893  35.397  1.00  0.00     0.173 A 
ATOM     83  F   UNL A   1      45.307  29.671  34.098  1.00  0.00    -0.203 F 
ATOM     84  C   UNL A   1      45.963  27.832  35.413  1.00  0.00     0.198 A 
ATOM     85  C   UNL A   1      44.340  26.196  36.086  1.00  0.00     0.198 A 
ATOM     86  F   UNL A   1      42.097  26.416  35.410  1.00  0.00    -0.203 F 
ATOM     87  F   UNL A   1      47.229  28.274  35.402  1.00  0.00    -0.200 F 
ATOM     88  C   UNL A   1      45.645  26.665  36.093  1.00  0.00     0.200 A 
ATOM     89  F   UNL A   1      44.027  25.076  36.754  1.00  0.00    -0.200 F 
ATOM     90  F   UNL A   1      46.596  25.991  36.755  1.00  0.00    -0.200 F 
ENDBRANCH  57  80
ENDBRANCH  31  32
ENDBRANCH  24  26
ENDBRANCH  23  24
ENDBRANCH  22  23
ENDBRANCH   1  22
TORSDOF 14
ENDMDL
