MODEL 1
REMARK VINA RESULT:     -14.6      0.000      0.000
REMARK SMILES O=C(OCCOC(=O)[C@@H](Cc1c[nH]c2ccccc12)NC(=O)c1ccc(F)cc1F)c1ccc(-c2c3nc(c(-c4c(F)c(F)c(F)c(F)c4F)c4ccc([nH]4)c(-c4c(F)c(F)c(F)c(F)c4F)c4nc(c(-c5c(F)c(F)c(F)c(F)c5F)c5ccc2[nH]5)C=C4)C=C3)cc1
REMARK SMILES IDX 4 1 3 2 2 3 1 4 31 5 32 6 93 7 33 8 92 9 34 10 35 11 36 12
REMARK SMILES IDX 86 13 37 14 91 15 85 16 87 17 38 18 90 19 84 20 83 21 39 23
REMARK SMILES IDX 71 24 51 25 70 26 52 27 55 28 69 29 88 30 53 31 54 32 68 34
REMARK SMILES IDX 89 35 56 36 40 37 41 38 49 39 42 40 43 41 47 42 50 43 44 44
REMARK SMILES IDX 45 45 48 46 46 47 72 48 73 49 81 50 74 51 75 52 79 53 82 54
REMARK SMILES IDX 76 55 77 56 80 57 78 58 57 59 58 60 66 61 59 62 60 63 64 64
REMARK SMILES IDX 67 65 61 66 62 67 65 68 63 69 5 70 6 71 7 72 8 73 9 74 10 75
REMARK SMILES IDX 11 76 12 77 19 78 13 79 14 80 18 81 15 83 17 84 16 85 20 86
REMARK SMILES IDX 21 87 22 89 23 90 24 91 29 92 25 93 28 94 30 95 26 96 27 97
REMARK H PARENT 87 22 55 33 13 82 20 88
REMARK Flexibility Score: inf
ROOT
ATOM      1  C   UNL A   1      33.872  29.377  26.396  1.00  0.00     0.275 C 
ENDROOT
BRANCH   1   2
ATOM      2  O   UNL A   1      33.572  30.029  27.635  1.00  0.00    -0.458 OA
BRANCH   2   3
ATOM      3  C   UNL A   1      34.361  30.915  28.278  1.00  0.00     0.338 C 
ATOM      4  O   UNL A   1      34.031  32.095  28.347  1.00  0.00    -0.246 OA
BRANCH   3   5
ATOM      5  C   UNL A   1      35.703  30.557  28.818  1.00  0.00     0.060 A 
ATOM      6  C   UNL A   1      35.928  29.956  30.381  1.00  0.00     0.016 A 
ATOM      7  C   UNL A   1      36.952  30.576  27.594  1.00  0.00     0.016 A 
ATOM      8  C   UNL A   1      37.408  29.229  30.763  1.00  0.00     0.010 A 
ATOM      9  C   UNL A   1      38.484  29.894  27.753  1.00  0.00     0.010 A 
ATOM     10  C   UNL A   1      38.909  29.171  29.305  1.00  0.00    -0.014 A 
BRANCH  10  11
ATOM     11  C   UNL A   1      40.453  28.698  29.134  1.00  0.00     0.031 A 
ATOM     12  C   UNL A   1      40.655  27.298  28.623  1.00  0.00     0.074 A 
ATOM     13  C   UNL A   1      41.534  29.505  29.309  1.00  0.00     0.049 A 
ATOM     14  N   UNL A   1      41.690  26.800  28.008  1.00  0.00    -0.248 NA
ATOM     15  C   UNL A   1      39.583  26.314  28.859  1.00  0.00     0.031 C 
ATOM     16  C   UNL A   1      41.562  30.760  30.050  1.00  0.00     0.029 A 
ATOM     17  N   UNL A   1      42.735  29.535  28.626  1.00  0.00    -0.354 N 
ATOM     18  C   UNL A   1      41.369  25.473  27.769  1.00  0.00     0.074 A 
ATOM     19  C   UNL A   1      40.089  25.205  28.358  1.00  0.00     0.031 C 
ATOM     20  C   UNL A   1      42.468  31.580  29.502  1.00  0.00     0.029 A 
ATOM     21  C   UNL A   1      43.299  30.806  28.595  1.00  0.00     0.049 A 
ATOM     22  H   UNL A   1      43.147  28.744  28.209  1.00  0.00     0.167 HD
ATOM     23  C   UNL A   1      42.080  24.566  27.076  1.00  0.00     0.037 A 
ATOM     24  C   UNL A   1      44.377  31.286  27.935  1.00  0.00     0.037 A 
ATOM     25  C   UNL A   1      43.362  24.868  26.523  1.00  0.00     0.049 A 
ATOM     26  C   UNL A   1      45.169  30.258  27.179  1.00  0.00     0.074 A 
ATOM     27  C   UNL A   1      44.228  24.032  25.857  1.00  0.00     0.029 A 
ATOM     28  N   UNL A   1      43.964  26.119  26.604  1.00  0.00    -0.354 N 
ATOM     29  N   UNL A   1      44.833  29.021  26.899  1.00  0.00    -0.248 NA
ATOM     30  C   UNL A   1      46.514  30.637  26.736  1.00  0.00     0.031 C 
ATOM     31  C   UNL A   1      45.389  24.758  25.598  1.00  0.00     0.029 A 
ATOM     32  C   UNL A   1      45.211  26.069  26.021  1.00  0.00     0.049 A 
ATOM     33  H   UNL A   1      43.560  26.918  27.014  1.00  0.00     0.167 HD
ATOM     34  C   UNL A   1      45.936  28.455  26.291  1.00  0.00     0.074 A 
ATOM     35  C   UNL A   1      46.929  29.509  26.173  1.00  0.00     0.031 C 
ATOM     36  C   UNL A   1      46.133  27.172  25.906  1.00  0.00     0.037 A 
BRANCH  23  37
ATOM     37  C   UNL A   1      41.505  23.193  26.944  1.00  0.00     0.064 A 
ATOM     38  C   UNL A   1      42.141  22.107  27.559  1.00  0.00     0.173 A 
ATOM     39  C   UNL A   1      40.325  22.949  26.225  1.00  0.00     0.173 A 
ATOM     40  F   UNL A   1      43.247  22.298  28.293  1.00  0.00    -0.203 F 
ATOM     41  C   UNL A   1      41.637  20.818  27.429  1.00  0.00     0.198 A 
ATOM     42  C   UNL A   1      39.804  21.662  26.126  1.00  0.00     0.198 A 
ATOM     43  F   UNL A   1      39.648  23.964  25.666  1.00  0.00    -0.203 F 
ATOM     44  F   UNL A   1      42.279  19.790  28.001  1.00  0.00    -0.200 F 
ATOM     45  C   UNL A   1      40.471  20.596  26.713  1.00  0.00     0.200 A 
ATOM     46  F   UNL A   1      38.649  21.455  25.478  1.00  0.00    -0.200 F 
ATOM     47  F   UNL A   1      39.982  19.354  26.596  1.00  0.00    -0.200 F 
ENDBRANCH  23  37
BRANCH  24  48
ATOM     48  C   UNL A   1      44.833  32.713  28.063  1.00  0.00     0.064 A 
ATOM     49  C   UNL A   1      45.636  33.127  29.141  1.00  0.00     0.173 A 
ATOM     50  C   UNL A   1      44.503  33.702  27.120  1.00  0.00     0.173 A 
ATOM     51  F   UNL A   1      46.051  32.233  30.052  1.00  0.00    -0.203 F 
ATOM     52  C   UNL A   1      46.021  34.457  29.315  1.00  0.00     0.198 A 
ATOM     53  C   UNL A   1      44.938  35.026  27.262  1.00  0.00     0.198 A 
ATOM     54  F   UNL A   1      43.780  33.383  26.036  1.00  0.00    -0.203 F 
ATOM     55  F   UNL A   1      46.724  34.811  30.399  1.00  0.00    -0.200 F 
ATOM     56  C   UNL A   1      45.679  35.406  28.370  1.00  0.00     0.200 A 
ATOM     57  F   UNL A   1      44.650  35.932  26.317  1.00  0.00    -0.200 F 
ATOM     58  F   UNL A   1      46.077  36.677  28.518  1.00  0.00    -0.200 F 
ENDBRANCH  24  48
BRANCH  36  59
ATOM     59  C   UNL A   1      47.452  26.849  25.287  1.00  0.00     0.064 A 
ATOM     60  C   UNL A   1      48.452  26.253  26.067  1.00  0.00     0.173 A 
ATOM     61  C   UNL A   1      47.764  27.259  23.986  1.00  0.00     0.173 A 
ATOM     62  F   UNL A   1      48.191  25.868  27.325  1.00  0.00    -0.203 F 
ATOM     63  C   UNL A   1      49.741  26.117  25.575  1.00  0.00     0.198 A 
ATOM     64  C   UNL A   1      49.043  27.075  23.480  1.00  0.00     0.198 A 
ATOM     65  F   UNL A   1      46.827  27.827  23.211  1.00  0.00    -0.203 F 
ATOM     66  F   UNL A   1      50.705  25.621  26.361  1.00  0.00    -0.200 F 
ATOM     67  C   UNL A   1      50.034  26.523  24.281  1.00  0.00     0.200 A 
ATOM     68  F   UNL A   1      49.320  27.442  22.222  1.00  0.00    -0.200 F 
ATOM     69  F   UNL A   1      51.278  26.387  23.805  1.00  0.00    -0.200 F 
ENDBRANCH  36  59
ENDBRANCH  10  11
ENDBRANCH   3   5
ENDBRANCH   2   3
ENDBRANCH   1   2
BRANCH   1  70
ATOM     70  C   UNL A   1      33.748  27.819  26.457  1.00  0.00     0.274 C 
BRANCH  70  71
ATOM     71  O   UNL A   1      32.575  27.210  25.823  1.00  0.00    -0.461 OA
BRANCH  71  72
ATOM     72  C   UNL A   1      31.467  27.025  26.582  1.00  0.00     0.329 C 
ATOM     73  O   UNL A   1      31.376  27.452  27.728  1.00  0.00    -0.250 OA
BRANCH  72  74
ATOM     74  C   UNL A   1      30.278  26.315  25.874  1.00  0.00     0.197 C 
BRANCH  74  75
ATOM     75  C   UNL A   1      30.218  26.339  24.336  1.00  0.00     0.074 C 
BRANCH  75  76
ATOM     76  C   UNL A   1      30.079  27.707  23.549  1.00  0.00    -0.020 A 
ATOM     77  C   UNL A   1      31.562  28.210  22.622  1.00  0.00     0.087 A 
ATOM     78  C   UNL A   1      28.624  29.229  23.052  1.00  0.00     0.003 A 
ATOM     79  N   UNL A   1      31.169  29.703  21.626  1.00  0.00    -0.361 N 
ATOM     80  C   UNL A   1      29.491  30.359  21.916  1.00  0.00     0.046 A 
ATOM     81  C   UNL A   1      27.361  29.835  23.501  1.00  0.00     0.010 A 
ATOM     82  H   UNL A   1      31.804  30.111  20.995  1.00  0.00     0.166 HD
ATOM     83  C   UNL A   1      29.153  31.720  21.960  1.00  0.00     0.026 A 
ATOM     84  C   UNL A   1      27.256  31.243  23.502  1.00  0.00     0.001 A 
ATOM     85  C   UNL A   1      28.128  32.121  22.831  1.00  0.00     0.002 A 
ENDBRANCH  75  76
ENDBRANCH  74  75
BRANCH  74  86
ATOM     86  N   UNL A   1      29.812  25.005  26.334  1.00  0.00    -0.338 N 
ATOM     87  C   UNL A   1      30.551  23.834  26.221  1.00  0.00     0.254 C 
ATOM     88  H   UNL A   1      28.922  24.951  26.750  1.00  0.00     0.164 HD
ATOM     89  O   UNL A   1      30.335  22.872  26.946  1.00  0.00    -0.269 OA
BRANCH  87  90
ATOM     90  C   UNL A   1      31.609  23.768  25.184  1.00  0.00     0.075 A 
ATOM     91  C   UNL A   1      31.334  23.435  23.847  1.00  0.00     0.020 A 
ATOM     92  C   UNL A   1      32.931  23.901  25.606  1.00  0.00     0.138 A 
ATOM     93  C   UNL A   1      32.390  23.142  22.978  1.00  0.00     0.040 A 
ATOM     94  C   UNL A   1      33.983  23.654  24.731  1.00  0.00     0.079 A 
ATOM     95  F   UNL A   1      33.209  24.226  26.876  1.00  0.00    -0.206 F 
ATOM     96  C   UNL A   1      33.703  23.251  23.431  1.00  0.00     0.126 A 
ATOM     97  F   UNL A   1      34.711  22.953  22.601  1.00  0.00    -0.207 F 
ENDBRANCH  87  90
ENDBRANCH  74  86
ENDBRANCH  72  74
ENDBRANCH  71  72
ENDBRANCH  70  71
ENDBRANCH   1  70
TORSDOF 15
ENDMDL
MODEL 2
REMARK VINA RESULT:     -14.4      4.849      9.319
REMARK SMILES O=C(OCCOC(=O)[C@@H](Cc1c[nH]c2ccccc12)NC(=O)c1ccc(F)cc1F)c1ccc(-c2c3nc(c(-c4c(F)c(F)c(F)c(F)c4F)c4ccc([nH]4)c(-c4c(F)c(F)c(F)c(F)c4F)c4nc(c(-c5c(F)c(F)c(F)c(F)c5F)c5ccc2[nH]5)C=C4)C=C3)cc1
REMARK SMILES IDX 4 1 3 2 2 3 1 4 31 5 32 6 93 7 33 8 92 9 34 10 35 11 36 12
REMARK SMILES IDX 86 13 37 14 91 15 85 16 87 17 38 18 90 19 84 20 83 21 39 23
REMARK SMILES IDX 71 24 51 25 70 26 52 27 55 28 69 29 88 30 53 31 54 32 68 34
REMARK SMILES IDX 89 35 56 36 40 37 41 38 49 39 42 40 43 41 47 42 50 43 44 44
REMARK SMILES IDX 45 45 48 46 46 47 72 48 73 49 81 50 74 51 75 52 79 53 82 54
REMARK SMILES IDX 76 55 77 56 80 57 78 58 57 59 58 60 66 61 59 62 60 63 64 64
REMARK SMILES IDX 67 65 61 66 62 67 65 68 63 69 5 70 6 71 7 72 8 73 9 74 10 75
REMARK SMILES IDX 11 76 12 77 19 78 13 79 14 80 18 81 15 83 17 84 16 85 20 86
REMARK SMILES IDX 21 87 22 89 23 90 24 91 29 92 25 93 28 94 30 95 26 96 27 97
REMARK H PARENT 87 22 55 33 13 82 20 88
REMARK Flexibility Score: inf
ROOT
ATOM      1  C   UNL A   1      31.660  28.053  27.358  1.00  0.00     0.275 C 
ENDROOT
BRANCH   1   2
ATOM      2  O   UNL A   1      32.575  28.906  26.663  1.00  0.00    -0.458 OA
BRANCH   2   3
ATOM      3  C   UNL A   1      32.883  30.178  26.995  1.00  0.00     0.338 C 
ATOM      4  O   UNL A   1      32.040  31.064  26.885  1.00  0.00    -0.246 OA
BRANCH   3   5
ATOM      5  C   UNL A   1      34.259  30.600  27.380  1.00  0.00     0.060 A 
ATOM      6  C   UNL A   1      34.663  32.208  27.707  1.00  0.00     0.016 A 
ATOM      7  C   UNL A   1      35.316  29.247  27.707  1.00  0.00     0.016 A 
ATOM      8  C   UNL A   1      36.125  32.531  28.496  1.00  0.00     0.010 A 
ATOM      9  C   UNL A   1      36.801  29.337  28.498  1.00  0.00     0.010 A 
ATOM     10  C   UNL A   1      37.391  30.932  28.966  1.00  0.00    -0.014 A 
BRANCH  10  11
ATOM     11  C   UNL A   1      38.855  30.659  29.613  1.00  0.00     0.031 A 
ATOM     12  C   UNL A   1      39.024  31.078  31.047  1.00  0.00     0.074 A 
ATOM     13  C   UNL A   1      39.865  29.993  28.991  1.00  0.00     0.049 A 
ATOM     14  N   UNL A   1      39.878  30.635  31.927  1.00  0.00    -0.248 NA
ATOM     15  C   UNL A   1      38.158  32.154  31.561  1.00  0.00     0.031 C 
ATOM     16  C   UNL A   1      39.994  29.769  27.557  1.00  0.00     0.029 A 
ATOM     17  N   UNL A   1      40.810  29.131  29.514  1.00  0.00    -0.354 N 
ATOM     18  C   UNL A   1      39.620  31.357  33.081  1.00  0.00     0.074 A 
ATOM     19  C   UNL A   1      38.595  32.318  32.794  1.00  0.00     0.031 C 
ATOM     20  C   UNL A   1      40.628  28.608  27.343  1.00  0.00     0.029 A 
ATOM     21  C   UNL A   1      41.226  28.174  28.594  1.00  0.00     0.049 A 
ATOM     22  H   UNL A   1      41.152  29.188  30.435  1.00  0.00     0.167 HD
ATOM     23  C   UNL A   1      40.178  31.197  34.294  1.00  0.00     0.037 A 
ATOM     24  C   UNL A   1      42.020  27.089  28.735  1.00  0.00     0.037 A 
ATOM     25  C   UNL A   1      41.214  30.243  34.533  1.00  0.00     0.049 A 
ATOM     26  C   UNL A   1      42.648  26.933  30.090  1.00  0.00     0.074 A 
ATOM     27  C   UNL A   1      41.920  30.015  35.692  1.00  0.00     0.029 A 
ATOM     28  N   UNL A   1      41.700  29.370  33.566  1.00  0.00    -0.354 N 
ATOM     29  N   UNL A   1      42.357  27.575  31.198  1.00  0.00    -0.248 NA
ATOM     30  C   UNL A   1      43.769  25.996  30.210  1.00  0.00     0.031 C 
ATOM     31  C   UNL A   1      42.889  29.054  35.405  1.00  0.00     0.029 A 
ATOM     32  C   UNL A   1      42.725  28.618  34.096  1.00  0.00     0.049 A 
ATOM     33  H   UNL A   1      41.363  29.301  32.643  1.00  0.00     0.167 HD
ATOM     34  C   UNL A   1      43.282  27.159  32.134  1.00  0.00     0.074 A 
ATOM     35  C   UNL A   1      44.101  26.150  31.485  1.00  0.00     0.031 C 
ATOM     36  C   UNL A   1      43.473  27.601  33.399  1.00  0.00     0.037 A 
BRANCH  23  37
ATOM     37  C   UNL A   1      39.714  32.098  35.392  1.00  0.00     0.064 A 
ATOM     38  C   UNL A   1      38.720  31.665  36.278  1.00  0.00     0.173 A 
ATOM     39  C   UNL A   1      40.254  33.380  35.579  1.00  0.00     0.173 A 
ATOM     40  F   UNL A   1      38.203  30.432  36.165  1.00  0.00    -0.203 F 
ATOM     41  C   UNL A   1      38.255  32.496  37.292  1.00  0.00     0.198 A 
ATOM     42  C   UNL A   1      39.812  34.196  36.617  1.00  0.00     0.198 A 
ATOM     43  F   UNL A   1      41.249  33.818  34.792  1.00  0.00    -0.203 F 
ATOM     44  F   UNL A   1      37.281  32.071  38.108  1.00  0.00    -0.200 F 
ATOM     45  C   UNL A   1      38.800  33.760  37.460  1.00  0.00     0.200 A 
ATOM     46  F   UNL A   1      40.376  35.397  36.811  1.00  0.00    -0.200 F 
ATOM     47  F   UNL A   1      38.358  34.556  38.443  1.00  0.00    -0.200 F 
ENDBRANCH  23  37
BRANCH  24  48
ATOM     48  C   UNL A   1      42.365  26.186  27.584  1.00  0.00     0.064 A 
ATOM     49  C   UNL A   1      41.624  25.019  27.325  1.00  0.00     0.173 A 
ATOM     50  C   UNL A   1      43.424  26.458  26.699  1.00  0.00     0.173 A 
ATOM     51  F   UNL A   1      40.558  24.719  28.082  1.00  0.00    -0.203 F 
ATOM     52  C   UNL A   1      41.963  24.134  26.300  1.00  0.00     0.198 A 
ATOM     53  C   UNL A   1      43.728  25.601  25.633  1.00  0.00     0.198 A 
ATOM     54  F   UNL A   1      44.152  27.575  26.844  1.00  0.00    -0.203 F 
ATOM     55  F   UNL A   1      41.269  22.999  26.144  1.00  0.00    -0.200 F 
ATOM     56  C   UNL A   1      43.010  24.430  25.448  1.00  0.00     0.200 A 
ATOM     57  F   UNL A   1      44.709  25.917  24.777  1.00  0.00    -0.200 F 
ATOM     58  F   UNL A   1      43.315  23.598  24.442  1.00  0.00    -0.200 F 
ENDBRANCH  24  48
BRANCH  36  59
ATOM     59  C   UNL A   1      44.579  26.968  34.174  1.00  0.00     0.064 A 
ATOM     60  C   UNL A   1      44.315  25.834  34.955  1.00  0.00     0.173 A 
ATOM     61  C   UNL A   1      45.844  27.563  34.255  1.00  0.00     0.173 A 
ATOM     62  F   UNL A   1      43.106  25.253  34.916  1.00  0.00    -0.203 F 
ATOM     63  C   UNL A   1      45.271  25.342  35.828  1.00  0.00     0.198 A 
ATOM     64  C   UNL A   1      46.815  27.036  35.094  1.00  0.00     0.198 A 
ATOM     65  F   UNL A   1      46.132  28.645  33.516  1.00  0.00    -0.203 F 
ATOM     66  F   UNL A   1      44.974  24.308  36.627  1.00  0.00    -0.200 F 
ATOM     67  C   UNL A   1      46.521  25.939  35.894  1.00  0.00     0.200 A 
ATOM     68  F   UNL A   1      48.032  27.595  35.138  1.00  0.00    -0.200 F 
ATOM     69  F   UNL A   1      47.447  25.459  36.734  1.00  0.00    -0.200 F 
ENDBRANCH  36  59
ENDBRANCH  10  11
ENDBRANCH   3   5
ENDBRANCH   2   3
ENDBRANCH   1   2
BRANCH   1  70
ATOM     70  C   UNL A   1      31.139  26.854  26.498  1.00  0.00     0.274 C 
BRANCH  70  71
ATOM     71  O   UNL A   1      31.776  25.550  26.701  1.00  0.00    -0.461 OA
BRANCH  71  72
ATOM     72  C   UNL A   1      31.260  24.482  26.044  1.00  0.00     0.329 C 
ATOM     73  O   UNL A   1      30.190  23.970  26.358  1.00  0.00    -0.250 OA
BRANCH  72  74
ATOM     74  C   UNL A   1      32.067  24.001  24.805  1.00  0.00     0.197 C 
BRANCH  74  75
ATOM     75  C   UNL A   1      31.607  22.725  24.077  1.00  0.00     0.074 C 
BRANCH  75  76
ATOM     76  C   UNL A   1      32.136  21.300  24.521  1.00  0.00    -0.020 A 
ATOM     77  C   UNL A   1      32.761  21.213  26.227  1.00  0.00     0.087 A 
ATOM     78  C   UNL A   1      32.280  19.258  23.819  1.00  0.00     0.003 A 
ATOM     79  N   UNL A   1      33.153  19.465  26.635  1.00  0.00    -0.361 N 
ATOM     80  C   UNL A   1      32.954  18.320  25.228  1.00  0.00     0.046 A 
ATOM     81  C   UNL A   1      32.325  18.438  22.599  1.00  0.00     0.010 A 
ATOM     82  H   UNL A   1      33.445  19.173  27.528  1.00  0.00     0.166 HD
ATOM     83  C   UNL A   1      33.792  17.230  24.950  1.00  0.00     0.026 A 
ATOM     84  C   UNL A   1      33.289  17.410  22.517  1.00  0.00     0.001 A 
ATOM     85  C   UNL A   1      34.014  16.890  23.606  1.00  0.00     0.002 A 
ENDBRANCH  75  76
ENDBRANCH  74  75
BRANCH  74  86
ATOM     86  N   UNL A   1      32.537  24.961  23.803  1.00  0.00    -0.338 N 
ATOM     87  C   UNL A   1      33.765  24.874  23.160  1.00  0.00     0.254 C 
ATOM     88  H   UNL A   1      31.945  25.712  23.571  1.00  0.00     0.164 HD
ATOM     89  O   UNL A   1      33.958  25.419  22.081  1.00  0.00    -0.269 OA
BRANCH  87  90
ATOM     90  C   UNL A   1      34.851  24.111  23.820  1.00  0.00     0.075 A 
ATOM     91  C   UNL A   1      35.363  22.916  23.288  1.00  0.00     0.020 A 
ATOM     92  C   UNL A   1      35.259  24.536  25.083  1.00  0.00     0.138 A 
ATOM     93  C   UNL A   1      36.199  22.114  24.071  1.00  0.00     0.040 A 
ATOM     94  C   UNL A   1      36.126  23.762  25.847  1.00  0.00     0.079 A 
ATOM     95  F   UNL A   1      34.785  25.677  25.602  1.00  0.00    -0.206 F 
ATOM     96  C   UNL A   1      36.568  22.544  25.344  1.00  0.00     0.126 A 
ATOM     97  F   UNL A   1      37.354  21.766  26.098  1.00  0.00    -0.207 F 
ENDBRANCH  87  90
ENDBRANCH  74  86
ENDBRANCH  72  74
ENDBRANCH  71  72
ENDBRANCH  70  71
ENDBRANCH   1  70
TORSDOF 15
ENDMDL
MODEL 3
REMARK VINA RESULT:     -14.4      5.263     10.135
REMARK SMILES O=C(OCCOC(=O)[C@@H](Cc1c[nH]c2ccccc12)NC(=O)c1ccc(F)cc1F)c1ccc(-c2c3nc(c(-c4c(F)c(F)c(F)c(F)c4F)c4ccc([nH]4)c(-c4c(F)c(F)c(F)c(F)c4F)c4nc(c(-c5c(F)c(F)c(F)c(F)c5F)c5ccc2[nH]5)C=C4)C=C3)cc1
REMARK SMILES IDX 4 1 3 2 2 3 1 4 31 5 32 6 93 7 33 8 92 9 34 10 35 11 36 12
REMARK SMILES IDX 86 13 37 14 91 15 85 16 87 17 38 18 90 19 84 20 83 21 39 23
REMARK SMILES IDX 71 24 51 25 70 26 52 27 55 28 69 29 88 30 53 31 54 32 68 34
REMARK SMILES IDX 89 35 56 36 40 37 41 38 49 39 42 40 43 41 47 42 50 43 44 44
REMARK SMILES IDX 45 45 48 46 46 47 72 48 73 49 81 50 74 51 75 52 79 53 82 54
REMARK SMILES IDX 76 55 77 56 80 57 78 58 57 59 58 60 66 61 59 62 60 63 64 64
REMARK SMILES IDX 67 65 61 66 62 67 65 68 63 69 5 70 6 71 7 72 8 73 9 74 10 75
REMARK SMILES IDX 11 76 12 77 19 78 13 79 14 80 18 81 15 83 17 84 16 85 20 86
REMARK SMILES IDX 21 87 22 89 23 90 24 91 29 92 25 93 28 94 30 95 26 96 27 97
REMARK H PARENT 87 22 55 33 13 82 20 88
REMARK Flexibility Score: inf
ROOT
ATOM      1  C   UNL A   1      36.960  22.847  23.944  1.00  0.00     0.275 C 
ENDROOT
BRANCH   1   2
ATOM      2  O   UNL A   1      37.349  23.328  25.234  1.00  0.00    -0.458 OA
BRANCH   2   3
ATOM      3  C   UNL A   1      38.551  23.147  25.820  1.00  0.00     0.338 C 
ATOM      4  O   UNL A   1      39.017  22.016  25.930  1.00  0.00    -0.246 OA
BRANCH   3   5
ATOM      5  C   UNL A   1      39.309  24.255  26.468  1.00  0.00     0.060 A 
ATOM      6  C   UNL A   1      40.530  25.111  25.676  1.00  0.00     0.016 A 
ATOM      7  C   UNL A   1      38.627  24.732  28.006  1.00  0.00     0.016 A 
ATOM      8  C   UNL A   1      41.057  26.575  26.343  1.00  0.00     0.010 A 
ATOM      9  C   UNL A   1      38.990  26.153  28.835  1.00  0.00     0.010 A 
ATOM     10  C   UNL A   1      40.219  27.216  28.151  1.00  0.00    -0.014 A 
BRANCH  10  11
ATOM     11  C   UNL A   1      40.373  28.421  29.229  1.00  0.00     0.031 A 
ATOM     12  C   UNL A   1      39.273  29.446  29.225  1.00  0.00     0.074 A 
ATOM     13  C   UNL A   1      41.343  28.491  30.180  1.00  0.00     0.049 A 
ATOM     14  N   UNL A   1      38.901  30.242  30.188  1.00  0.00    -0.248 NA
ATOM     15  C   UNL A   1      38.511  29.639  27.978  1.00  0.00     0.031 C 
ATOM     16  C   UNL A   1      42.614  27.778  30.167  1.00  0.00     0.029 A 
ATOM     17  N   UNL A   1      41.279  28.963  31.477  1.00  0.00    -0.354 N 
ATOM     18  C   UNL A   1      37.858  30.989  29.662  1.00  0.00     0.074 A 
ATOM     19  C   UNL A   1      37.690  30.624  28.286  1.00  0.00     0.031 C 
ATOM     20  C   UNL A   1      42.993  27.520  31.426  1.00  0.00     0.029 A 
ATOM     21  C   UNL A   1      42.176  28.319  32.324  1.00  0.00     0.049 A 
ATOM     22  H   UNL A   1      40.668  29.677  31.769  1.00  0.00     0.167 HD
ATOM     23  C   UNL A   1      37.082  31.882  30.301  1.00  0.00     0.037 A 
ATOM     24  C   UNL A   1      42.339  28.385  33.664  1.00  0.00     0.037 A 
ATOM     25  C   UNL A   1      37.297  32.234  31.668  1.00  0.00     0.049 A 
ATOM     26  C   UNL A   1      41.477  29.399  34.360  1.00  0.00     0.074 A 
ATOM     27  C   UNL A   1      36.635  33.171  32.428  1.00  0.00     0.029 A 
ATOM     28  N   UNL A   1      38.278  31.660  32.470  1.00  0.00    -0.354 N 
ATOM     29  N   UNL A   1      40.448  30.056  33.877  1.00  0.00    -0.248 NA
ATOM     30  C   UNL A   1      41.838  29.762  35.733  1.00  0.00     0.031 C 
ATOM     31  C   UNL A   1      37.266  33.219  33.670  1.00  0.00     0.029 A 
ATOM     32  C   UNL A   1      38.260  32.249  33.715  1.00  0.00     0.049 A 
ATOM     33  H   UNL A   1      38.892  30.943  32.190  1.00  0.00     0.167 HD
ATOM     34  C   UNL A   1      40.067  30.945  34.863  1.00  0.00     0.074 A 
ATOM     35  C   UNL A   1      40.929  30.688  36.005  1.00  0.00     0.031 C 
ATOM     36  C   UNL A   1      39.125  31.916  34.819  1.00  0.00     0.037 A 
BRANCH  23  37
ATOM     37  C   UNL A   1      36.003  32.548  29.511  1.00  0.00     0.064 A 
ATOM     38  C   UNL A   1      34.879  31.816  29.107  1.00  0.00     0.173 A 
ATOM     39  C   UNL A   1      36.068  33.906  29.162  1.00  0.00     0.173 A 
ATOM     40  F   UNL A   1      34.752  30.526  29.453  1.00  0.00    -0.203 F 
ATOM     41  C   UNL A   1      33.875  32.409  28.350  1.00  0.00     0.198 A 
ATOM     42  C   UNL A   1      35.044  34.506  28.435  1.00  0.00     0.198 A 
ATOM     43  F   UNL A   1      37.096  34.664  29.575  1.00  0.00    -0.203 F 
ATOM     44  F   UNL A   1      32.824  31.681  27.949  1.00  0.00    -0.200 F 
ATOM     45  C   UNL A   1      33.958  33.752  28.014  1.00  0.00     0.200 A 
ATOM     46  F   UNL A   1      35.099  35.815  28.155  1.00  0.00    -0.200 F 
ATOM     47  F   UNL A   1      32.985  34.324  27.293  1.00  0.00    -0.200 F 
ENDBRANCH  23  37
BRANCH  24  48
ATOM     48  C   UNL A   1      43.404  27.608  34.387  1.00  0.00     0.064 A 
ATOM     49  C   UNL A   1      43.108  26.396  35.035  1.00  0.00     0.173 A 
ATOM     50  C   UNL A   1      44.743  28.031  34.443  1.00  0.00     0.173 A 
ATOM     51  F   UNL A   1      41.868  25.887  34.976  1.00  0.00    -0.203 F 
ATOM     52  C   UNL A   1      44.066  25.689  35.764  1.00  0.00     0.198 A 
ATOM     53  C   UNL A   1      45.719  27.291  35.123  1.00  0.00     0.198 A 
ATOM     54  F   UNL A   1      45.122  29.152  33.811  1.00  0.00    -0.203 F 
ATOM     55  F   UNL A   1      43.713  24.578  36.425  1.00  0.00    -0.200 F 
ATOM     56  C   UNL A   1      45.374  26.132  35.800  1.00  0.00     0.200 A 
ATOM     57  F   UNL A   1      46.997  27.695  35.113  1.00  0.00    -0.200 F 
ATOM     58  F   UNL A   1      46.302  25.435  36.471  1.00  0.00    -0.200 F 
ENDBRANCH  24  48
BRANCH  36  59
ATOM     59  C   UNL A   1      38.951  32.742  36.049  1.00  0.00     0.064 A 
ATOM     60  C   UNL A   1      39.596  33.983  36.144  1.00  0.00     0.173 A 
ATOM     61  C   UNL A   1      38.275  32.245  37.169  1.00  0.00     0.173 A 
ATOM     62  F   UNL A   1      40.270  34.478  35.095  1.00  0.00    -0.203 F 
ATOM     63  C   UNL A   1      39.607  34.680  37.341  1.00  0.00     0.198 A 
ATOM     64  C   UNL A   1      38.247  32.971  38.351  1.00  0.00     0.198 A 
ATOM     65  F   UNL A   1      37.642  31.063  37.109  1.00  0.00    -0.203 F 
ATOM     66  F   UNL A   1      40.297  35.824  37.439  1.00  0.00    -0.200 F 
ATOM     67  C   UNL A   1      38.929  34.177  38.442  1.00  0.00     0.200 A 
ATOM     68  F   UNL A   1      37.569  32.499  39.406  1.00  0.00    -0.200 F 
ATOM     69  F   UNL A   1      38.935  34.854  39.597  1.00  0.00    -0.200 F 
ENDBRANCH  36  59
ENDBRANCH  10  11
ENDBRANCH   3   5
ENDBRANCH   2   3
ENDBRANCH   1   2
BRANCH   1  70
ATOM     70  C   UNL A   1      35.421  22.933  23.676  1.00  0.00     0.274 C 
BRANCH  70  71
ATOM     71  O   UNL A   1      34.870  24.243  23.314  1.00  0.00    -0.461 OA
BRANCH  71  72
ATOM     72  C   UNL A   1      33.608  24.286  22.820  1.00  0.00     0.329 C 
ATOM     73  O   UNL A   1      33.318  23.836  21.716  1.00  0.00    -0.250 OA
BRANCH  72  74
ATOM     74  C   UNL A   1      32.529  24.861  23.782  1.00  0.00     0.197 C 
BRANCH  74  75
ATOM     75  C   UNL A   1      31.166  25.271  23.196  1.00  0.00     0.074 C 
BRANCH  75  76
ATOM     76  C   UNL A   1      30.828  26.792  22.911  1.00  0.00    -0.020 A 
ATOM     77  C   UNL A   1      32.266  27.833  22.515  1.00  0.00     0.087 A 
ATOM     78  C   UNL A   1      29.146  28.135  22.690  1.00  0.00     0.003 A 
ATOM     79  N   UNL A   1      31.680  29.506  22.029  1.00  0.00    -0.361 N 
ATOM     80  C   UNL A   1      29.877  29.729  22.195  1.00  0.00     0.046 A 
ATOM     81  C   UNL A   1      27.736  28.321  23.065  1.00  0.00     0.010 A 
ATOM     82  H   UNL A   1      32.283  30.215  21.711  1.00  0.00     0.166 HD
ATOM     83  C   UNL A   1      29.246  30.904  22.633  1.00  0.00     0.026 A 
ATOM     84  C   UNL A   1      27.326  29.591  23.524  1.00  0.00     0.001 A 
ATOM     85  C   UNL A   1      28.060  30.783  23.373  1.00  0.00     0.002 A 
ENDBRANCH  75  76
ENDBRANCH  74  75
BRANCH  74  86
ATOM     86  N   UNL A   1      32.305  24.256  25.097  1.00  0.00    -0.338 N 
ATOM     87  C   UNL A   1      31.958  24.976  26.233  1.00  0.00     0.254 C 
ATOM     88  H   UNL A   1      32.406  23.281  25.180  1.00  0.00     0.164 HD
ATOM     89  O   UNL A   1      31.397  24.439  27.179  1.00  0.00    -0.269 OA
BRANCH  87  90
ATOM     90  C   UNL A   1      32.296  26.419  26.282  1.00  0.00     0.075 A 
ATOM     91  C   UNL A   1      31.314  27.421  26.329  1.00  0.00     0.020 A 
ATOM     92  C   UNL A   1      33.636  26.770  26.127  1.00  0.00     0.138 A 
ATOM     93  C   UNL A   1      31.679  28.755  26.119  1.00  0.00     0.040 A 
ATOM     94  C   UNL A   1      34.007  28.100  25.963  1.00  0.00     0.079 A 
ATOM     95  F   UNL A   1      34.586  25.825  26.088  1.00  0.00    -0.206 F 
ATOM     96  C   UNL A   1      33.021  29.079  25.934  1.00  0.00     0.126 A 
ATOM     97  F   UNL A   1      33.365  30.354  25.717  1.00  0.00    -0.207 F 
ENDBRANCH  87  90
ENDBRANCH  74  86
ENDBRANCH  72  74
ENDBRANCH  71  72
ENDBRANCH  70  71
ENDBRANCH   1  70
TORSDOF 15
ENDMDL
