MODEL 1
REMARK VINA RESULT:     -12.4      0.000      0.000
REMARK SMILES Cc1noc(-c2ccc(CCl)cc2)c1C(=O)OCCOC(=O)c1ccc(-c2c3nc(c(-c4c(F)c(F)c(F)c(F)c4F)c4ccc([nH]4)c(-c4c(F)c(F)c(F)c(F)c4F)c4nc(c(-c5c(F)c(F)c(F)c(F)c5F)c5ccc2[nH]5)C=C4)C=C3)cc1
REMARK SMILES IDX 18 1 17 2 15 3 16 4 14 5 1 6 2 7 3 8 4 9 5 10 6 11 7 12
REMARK SMILES IDX 13 13 8 14 12 15 9 16 10 17 11 18 19 19 20 20 21 21 22 22
REMARK SMILES IDX 23 23 24 24 85 25 25 26 84 27 26 28 27 29 28 30 78 31 29 32
REMARK SMILES IDX 83 33 77 34 79 35 30 36 82 37 76 38 75 39 31 41 63 42 43 43
REMARK SMILES IDX 62 44 44 45 47 46 61 47 80 48 45 49 46 50 60 52 81 53 48 54
REMARK SMILES IDX 32 55 33 56 41 57 34 58 35 59 39 60 42 61 36 62 37 63 40 64
REMARK SMILES IDX 38 65 64 66 65 67 73 68 66 69 67 70 71 71 74 72 68 73 69 74
REMARK SMILES IDX 72 75 70 76 49 77 50 78 58 79 51 80 52 81 56 82 59 83 53 84
REMARK SMILES IDX 54 85 57 86 55 87
REMARK H PARENT 79 40 47 51
REMARK Flexibility Score: inf
ROOT
ATOM      1  C   UNL A   1      33.178  27.601  24.062  1.00  0.00     0.275 C 
ENDROOT
BRANCH   1   2
ATOM      2  O   UNL A   1      32.522  26.731  23.096  1.00  0.00    -0.458 OA
BRANCH   2   3
ATOM      3  C   UNL A   1      32.216  25.452  23.480  1.00  0.00     0.344 C 
ATOM      4  O   UNL A   1      32.411  24.472  22.770  1.00  0.00    -0.246 OA
BRANCH   3   5
ATOM      5  C   UNL A   1      31.604  25.364  24.810  1.00  0.00     0.130 A 
ATOM      6  C   UNL A   1      29.294  26.355  24.162  1.00  0.00     0.071 C 
ATOM      7  C   UNL A   1      30.263  25.713  25.086  1.00  0.00     0.096 A 
ATOM      8  N   UNL A   1      29.906  25.352  26.325  1.00  0.00    -0.084 NA
ATOM      9  O   UNL A   1      31.046  24.821  26.918  1.00  0.00    -0.355 OA
ATOM     10  C   UNL A   1      32.081  24.867  26.038  1.00  0.00     0.181 A 
BRANCH  10  11
ATOM     11  C   UNL A   1      33.392  24.246  26.502  1.00  0.00     0.021 A 
ATOM     12  C   UNL A   1      33.024  22.573  26.836  1.00  0.00     0.012 A 
ATOM     13  C   UNL A   1      34.856  24.752  25.641  1.00  0.00     0.012 A 
ATOM     14  C   UNL A   1      33.895  21.260  26.160  1.00  0.00     0.006 A 
ATOM     15  C   UNL A   1      35.940  23.484  24.905  1.00  0.00     0.006 A 
ATOM     16  C   UNL A   1      35.405  21.537  25.161  1.00  0.00    -0.033 A 
BRANCH  16  17
ATOM     17  C   UNL A   1      35.852  20.080  24.974  1.00  0.00     0.145 C 
ATOM     18  Cl  UNL A   1      37.709  20.013  24.756  1.00  0.00    -0.122 Cl
ENDBRANCH  16  17
ENDBRANCH  10  11
ENDBRANCH   3   5
ENDBRANCH   2   3
ENDBRANCH   1   2
BRANCH   1  19
ATOM     19  C   UNL A   1      32.352  28.868  24.324  1.00  0.00     0.275 C 
BRANCH  19  20
ATOM     20  O   UNL A   1      33.193  29.856  24.949  1.00  0.00    -0.458 OA
BRANCH  20  21
ATOM     21  C   UNL A   1      32.603  30.461  25.992  1.00  0.00     0.338 C 
ATOM     22  O   UNL A   1      31.438  30.817  26.084  1.00  0.00    -0.246 OA
BRANCH  21  23
ATOM     23  C   UNL A   1      33.492  30.414  27.157  1.00  0.00     0.060 A 
ATOM     24  C   UNL A   1      34.190  31.998  27.535  1.00  0.00     0.016 A 
ATOM     25  C   UNL A   1      34.401  29.009  27.530  1.00  0.00     0.016 A 
ATOM     26  C   UNL A   1      36.044  32.141  28.349  1.00  0.00     0.010 A 
ATOM     27  C   UNL A   1      35.998  29.050  28.269  1.00  0.00     0.010 A 
ATOM     28  C   UNL A   1      36.870  30.529  28.723  1.00  0.00    -0.014 A 
BRANCH  28  29
ATOM     29  C   UNL A   1      38.167  30.169  29.450  1.00  0.00     0.031 A 
ATOM     30  C   UNL A   1      38.554  30.913  30.704  1.00  0.00     0.074 A 
ATOM     31  C   UNL A   1      39.257  29.608  28.847  1.00  0.00     0.049 A 
ATOM     32  N   UNL A   1      39.589  30.724  31.483  1.00  0.00    -0.248 NA
ATOM     33  C   UNL A   1      37.757  32.099  31.059  1.00  0.00     0.031 C 
ATOM     34  C   UNL A   1      39.492  29.426  27.436  1.00  0.00     0.029 A 
ATOM     35  N   UNL A   1      40.315  28.880  29.360  1.00  0.00    -0.354 N 
ATOM     36  C   UNL A   1      39.568  31.749  32.416  1.00  0.00     0.074 A 
ATOM     37  C   UNL A   1      38.436  32.588  32.091  1.00  0.00     0.031 C 
ATOM     38  C   UNL A   1      40.170  28.297  27.218  1.00  0.00     0.029 A 
ATOM     39  C   UNL A   1      40.788  27.928  28.457  1.00  0.00     0.049 A 
ATOM     40  H   UNL A   1      40.691  29.018  30.260  1.00  0.00     0.167 HD
ATOM     41  C   UNL A   1      40.444  31.958  33.430  1.00  0.00     0.037 A 
ATOM     42  C   UNL A   1      41.680  26.921  28.555  1.00  0.00     0.037 A 
ATOM     43  C   UNL A   1      41.613  31.131  33.632  1.00  0.00     0.049 A 
ATOM     44  C   UNL A   1      42.522  27.012  29.778  1.00  0.00     0.074 A 
ATOM     45  C   UNL A   1      42.564  31.196  34.634  1.00  0.00     0.029 A 
ATOM     46  N   UNL A   1      42.007  30.099  32.779  1.00  0.00    -0.354 N 
ATOM     47  N   UNL A   1      42.403  27.872  30.758  1.00  0.00    -0.248 NA
ATOM     48  C   UNL A   1      43.677  26.121  29.871  1.00  0.00     0.031 C 
ATOM     49  C   UNL A   1      43.560  30.255  34.351  1.00  0.00     0.029 A 
ATOM     50  C   UNL A   1      43.193  29.535  33.224  1.00  0.00     0.049 A 
ATOM     51  H   UNL A   1      41.512  29.811  31.978  1.00  0.00     0.167 HD
ATOM     52  C   UNL A   1      43.495  27.679  31.563  1.00  0.00     0.074 A 
ATOM     53  C   UNL A   1      44.219  26.545  31.005  1.00  0.00     0.031 C 
ATOM     54  C   UNL A   1      43.884  28.412  32.632  1.00  0.00     0.037 A 
BRANCH  41  55
ATOM     55  C   UNL A   1      40.187  33.119  34.359  1.00  0.00     0.064 A 
ATOM     56  C   UNL A   1      40.768  34.382  34.142  1.00  0.00     0.173 A 
ATOM     57  C   UNL A   1      39.338  32.988  35.470  1.00  0.00     0.173 A 
ATOM     58  F   UNL A   1      41.590  34.578  33.100  1.00  0.00    -0.203 F 
ATOM     59  C   UNL A   1      40.541  35.445  35.016  1.00  0.00     0.198 A 
ATOM     60  C   UNL A   1      39.086  34.062  36.323  1.00  0.00     0.198 A 
ATOM     61  F   UNL A   1      38.746  31.813  35.734  1.00  0.00    -0.203 F 
ATOM     62  F   UNL A   1      41.156  36.620  34.816  1.00  0.00    -0.200 F 
ATOM     63  C   UNL A   1      39.696  35.286  36.103  1.00  0.00     0.200 A 
ATOM     64  F   UNL A   1      38.258  33.909  37.367  1.00  0.00    -0.200 F 
ATOM     65  F   UNL A   1      39.480  36.308  36.943  1.00  0.00    -0.200 F 
ENDBRANCH  41  55
BRANCH  42  66
ATOM     66  C   UNL A   1      41.868  25.871  27.493  1.00  0.00     0.064 A 
ATOM     67  C   UNL A   1      42.864  26.026  26.512  1.00  0.00     0.173 A 
ATOM     68  C   UNL A   1      41.152  24.661  27.456  1.00  0.00     0.173 A 
ATOM     69  F   UNL A   1      43.555  27.173  26.435  1.00  0.00    -0.203 F 
ATOM     70  C   UNL A   1      43.157  25.015  25.588  1.00  0.00     0.198 A 
ATOM     71  C   UNL A   1      41.494  23.622  26.586  1.00  0.00     0.198 A 
ATOM     72  F   UNL A   1      40.124  24.455  28.294  1.00  0.00    -0.203 F 
ATOM     73  F   UNL A   1      44.088  25.217  24.646  1.00  0.00    -0.200 F 
ATOM     74  C   UNL A   1      42.495  23.800  25.649  1.00  0.00     0.200 A 
ATOM     75  F   UNL A   1      40.864  22.442  26.676  1.00  0.00    -0.200 F 
ATOM     76  F   UNL A   1      42.811  22.810  24.801  1.00  0.00    -0.200 F 
ENDBRANCH  42  66
BRANCH  54  77
ATOM     77  C   UNL A   1      45.139  27.940  33.279  1.00  0.00     0.064 A 
ATOM     78  C   UNL A   1      46.397  28.421  32.889  1.00  0.00     0.173 A 
ATOM     79  C   UNL A   1      45.071  26.945  34.262  1.00  0.00     0.173 A 
ATOM     80  F   UNL A   1      46.499  29.348  31.924  1.00  0.00    -0.203 F 
ATOM     81  C   UNL A   1      47.553  27.876  33.427  1.00  0.00     0.198 A 
ATOM     82  C   UNL A   1      46.228  26.438  34.832  1.00  0.00     0.198 A 
ATOM     83  F   UNL A   1      43.883  26.459  34.651  1.00  0.00    -0.203 F 
ATOM     84  F   UNL A   1      48.751  28.271  32.974  1.00  0.00    -0.200 F 
ATOM     85  C   UNL A   1      47.468  26.890  34.402  1.00  0.00     0.200 A 
ATOM     86  F   UNL A   1      46.144  25.496  35.780  1.00  0.00    -0.200 F 
ATOM     87  F   UNL A   1      48.584  26.359  34.915  1.00  0.00    -0.200 F 
ENDBRANCH  54  77
ENDBRANCH  28  29
ENDBRANCH  21  23
ENDBRANCH  20  21
ENDBRANCH  19  20
ENDBRANCH   1  19
TORSDOF 13
ENDMDL
MODEL 2
REMARK VINA RESULT:     -12.4      1.231      1.599
REMARK SMILES Cc1noc(-c2ccc(CCl)cc2)c1C(=O)OCCOC(=O)c1ccc(-c2c3nc(c(-c4c(F)c(F)c(F)c(F)c4F)c4ccc([nH]4)c(-c4c(F)c(F)c(F)c(F)c4F)c4nc(c(-c5c(F)c(F)c(F)c(F)c5F)c5ccc2[nH]5)C=C4)C=C3)cc1
REMARK SMILES IDX 18 1 17 2 15 3 16 4 14 5 1 6 2 7 3 8 4 9 5 10 6 11 7 12
REMARK SMILES IDX 13 13 8 14 12 15 9 16 10 17 11 18 19 19 20 20 21 21 22 22
REMARK SMILES IDX 23 23 24 24 85 25 25 26 84 27 26 28 27 29 28 30 78 31 29 32
REMARK SMILES IDX 83 33 77 34 79 35 30 36 82 37 76 38 75 39 31 41 63 42 43 43
REMARK SMILES IDX 62 44 44 45 47 46 61 47 80 48 45 49 46 50 60 52 81 53 48 54
REMARK SMILES IDX 32 55 33 56 41 57 34 58 35 59 39 60 42 61 36 62 37 63 40 64
REMARK SMILES IDX 38 65 64 66 65 67 73 68 66 69 67 70 71 71 74 72 68 73 69 74
REMARK SMILES IDX 72 75 70 76 49 77 50 78 58 79 51 80 52 81 56 82 59 83 53 84
REMARK SMILES IDX 54 85 57 86 55 87
REMARK H PARENT 79 40 47 51
REMARK Flexibility Score: inf
ROOT
ATOM      1  C   UNL A   1      31.539  28.003  25.507  1.00  0.00     0.275 C 
ENDROOT
BRANCH   1   2
ATOM      2  O   UNL A   1      31.666  26.706  24.858  1.00  0.00    -0.458 OA
BRANCH   2   3
ATOM      3  C   UNL A   1      32.874  26.064  24.926  1.00  0.00     0.344 C 
ATOM      4  O   UNL A   1      33.694  26.264  25.816  1.00  0.00    -0.246 OA
BRANCH   3   5
ATOM      5  C   UNL A   1      33.113  25.135  23.817  1.00  0.00     0.130 A 
ATOM      6  C   UNL A   1      32.795  26.849  21.893  1.00  0.00     0.071 C 
ATOM      7  C   UNL A   1      33.140  25.519  22.457  1.00  0.00     0.096 A 
ATOM      8  N   UNL A   1      33.572  24.523  21.674  1.00  0.00    -0.084 NA
ATOM      9  O   UNL A   1      33.766  23.429  22.508  1.00  0.00    -0.355 OA
ATOM     10  C   UNL A   1      33.449  23.768  23.786  1.00  0.00     0.181 A 
BRANCH  10  11
ATOM     11  C   UNL A   1      33.684  22.701  24.848  1.00  0.00     0.021 A 
ATOM     12  C   UNL A   1      32.335  21.603  24.713  1.00  0.00     0.012 A 
ATOM     13  C   UNL A   1      35.354  22.148  25.057  1.00  0.00     0.012 A 
ATOM     14  C   UNL A   1      32.512  19.908  24.520  1.00  0.00     0.006 A 
ATOM     15  C   UNL A   1      35.723  20.366  24.945  1.00  0.00     0.006 A 
ATOM     16  C   UNL A   1      34.156  19.108  24.619  1.00  0.00    -0.033 A 
BRANCH  16  17
ATOM     17  C   UNL A   1      33.723  17.636  24.560  1.00  0.00     0.145 C 
ATOM     18  Cl  UNL A   1      34.107  16.933  22.870  1.00  0.00    -0.122 Cl
ENDBRANCH  16  17
ENDBRANCH  10  11
ENDBRANCH   3   5
ENDBRANCH   2   3
ENDBRANCH   1   2
BRANCH   1  19
ATOM     19  C   UNL A   1      32.004  29.138  24.584  1.00  0.00     0.275 C 
BRANCH  19  20
ATOM     20  O   UNL A   1      33.050  29.878  25.242  1.00  0.00    -0.458 OA
BRANCH  20  21
ATOM     21  C   UNL A   1      32.585  30.709  26.190  1.00  0.00     0.338 C 
ATOM     22  O   UNL A   1      31.487  31.240  26.240  1.00  0.00    -0.246 OA
BRANCH  21  23
ATOM     23  C   UNL A   1      33.494  30.702  27.340  1.00  0.00     0.060 A 
ATOM     24  C   UNL A   1      34.315  32.256  27.559  1.00  0.00     0.016 A 
ATOM     25  C   UNL A   1      34.307  29.272  27.827  1.00  0.00     0.016 A 
ATOM     26  C   UNL A   1      36.192  32.334  28.327  1.00  0.00     0.010 A 
ATOM     27  C   UNL A   1      35.918  29.260  28.535  1.00  0.00     0.010 A 
ATOM     28  C   UNL A   1      36.906  30.705  28.836  1.00  0.00    -0.014 A 
BRANCH  28  29
ATOM     29  C   UNL A   1      38.189  30.317  29.572  1.00  0.00     0.031 A 
ATOM     30  C   UNL A   1      38.569  31.034  30.844  1.00  0.00     0.074 A 
ATOM     31  C   UNL A   1      39.281  29.753  28.974  1.00  0.00     0.049 A 
ATOM     32  N   UNL A   1      39.592  30.819  31.633  1.00  0.00    -0.248 NA
ATOM     33  C   UNL A   1      37.782  32.223  31.209  1.00  0.00     0.031 C 
ATOM     34  C   UNL A   1      39.531  29.593  27.562  1.00  0.00     0.029 A 
ATOM     35  N   UNL A   1      40.323  29.003  29.488  1.00  0.00    -0.354 N 
ATOM     36  C   UNL A   1      39.571  31.828  32.584  1.00  0.00     0.074 A 
ATOM     37  C   UNL A   1      38.453  32.686  32.259  1.00  0.00     0.031 C 
ATOM     38  C   UNL A   1      40.199  28.460  27.333  1.00  0.00     0.029 A 
ATOM     39  C   UNL A   1      40.796  28.061  28.574  1.00  0.00     0.049 A 
ATOM     40  H   UNL A   1      40.689  29.122  30.394  1.00  0.00     0.167 HD
ATOM     41  C   UNL A   1      40.436  32.008  33.612  1.00  0.00     0.037 A 
ATOM     42  C   UNL A   1      41.675  27.042  28.666  1.00  0.00     0.037 A 
ATOM     43  C   UNL A   1      41.593  31.163  33.815  1.00  0.00     0.049 A 
ATOM     44  C   UNL A   1      42.501  27.101  29.900  1.00  0.00     0.074 A 
ATOM     45  C   UNL A   1      42.531  31.200  34.829  1.00  0.00     0.029 A 
ATOM     46  N   UNL A   1      41.985  30.142  32.948  1.00  0.00    -0.354 N 
ATOM     47  N   UNL A   1      42.380  27.946  30.894  1.00  0.00    -0.248 NA
ATOM     48  C   UNL A   1      43.644  26.195  29.992  1.00  0.00     0.031 C 
ATOM     49  C   UNL A   1      43.520  30.252  34.542  1.00  0.00     0.029 A 
ATOM     50  C   UNL A   1      43.159  29.556  33.399  1.00  0.00     0.049 A 
ATOM     51  H   UNL A   1      41.497  29.874  32.136  1.00  0.00     0.167 HD
ATOM     52  C   UNL A   1      43.460  27.726  31.709  1.00  0.00     0.074 A 
ATOM     53  C   UNL A   1      44.177  26.592  31.141  1.00  0.00     0.031 C 
ATOM     54  C   UNL A   1      43.844  28.435  32.795  1.00  0.00     0.037 A 
BRANCH  41  55
ATOM     55  C   UNL A   1      40.182  33.156  34.558  1.00  0.00     0.064 A 
ATOM     56  C   UNL A   1      40.699  34.442  34.316  1.00  0.00     0.173 A 
ATOM     57  C   UNL A   1      39.397  32.989  35.710  1.00  0.00     0.173 A 
ATOM     58  F   UNL A   1      41.458  34.673  33.234  1.00  0.00    -0.203 F 
ATOM     59  C   UNL A   1      40.475  35.493  35.206  1.00  0.00     0.198 A 
ATOM     60  C   UNL A   1      39.147  34.050  36.580  1.00  0.00     0.198 A 
ATOM     61  F   UNL A   1      38.868  31.790  36.000  1.00  0.00    -0.203 F 
ATOM     62  F   UNL A   1      41.032  36.692  34.979  1.00  0.00    -0.200 F 
ATOM     63  C   UNL A   1      39.695  35.298  36.334  1.00  0.00     0.200 A 
ATOM     64  F   UNL A   1      38.381  33.861  37.665  1.00  0.00    -0.200 F 
ATOM     65  F   UNL A   1      39.482  36.308  37.189  1.00  0.00    -0.200 F 
ENDBRANCH  41  55
BRANCH  42  66
ATOM     66  C   UNL A   1      41.863  26.009  27.587  1.00  0.00     0.064 A 
ATOM     67  C   UNL A   1      42.868  26.173  26.616  1.00  0.00     0.173 A 
ATOM     68  C   UNL A   1      41.140  24.804  27.526  1.00  0.00     0.173 A 
ATOM     69  F   UNL A   1      43.567  27.317  26.564  1.00  0.00    -0.203 F 
ATOM     70  C   UNL A   1      43.161  25.175  25.678  1.00  0.00     0.198 A 
ATOM     71  C   UNL A   1      41.482  23.777  26.641  1.00  0.00     0.198 A 
ATOM     72  F   UNL A   1      40.105  24.592  28.352  1.00  0.00    -0.203 F 
ATOM     73  F   UNL A   1      44.100  25.386  24.746  1.00  0.00    -0.200 F 
ATOM     74  C   UNL A   1      42.490  23.964  25.714  1.00  0.00     0.200 A 
ATOM     75  F   UNL A   1      40.844  22.600  26.706  1.00  0.00    -0.200 F 
ATOM     76  F   UNL A   1      42.807  22.986  24.853  1.00  0.00    -0.200 F 
ENDBRANCH  42  66
BRANCH  54  77
ATOM     77  C   UNL A   1      45.084  27.936  33.450  1.00  0.00     0.064 A 
ATOM     78  C   UNL A   1      46.356  28.374  33.052  1.00  0.00     0.173 A 
ATOM     79  C   UNL A   1      44.987  26.960  34.448  1.00  0.00     0.173 A 
ATOM     80  F   UNL A   1      46.485  29.283  32.073  1.00  0.00    -0.203 F 
ATOM     81  C   UNL A   1      47.496  27.804  33.599  1.00  0.00     0.198 A 
ATOM     82  C   UNL A   1      46.130  26.428  35.026  1.00  0.00     0.198 A 
ATOM     83  F   UNL A   1      43.786  26.515  34.845  1.00  0.00    -0.203 F 
ATOM     84  F   UNL A   1      48.705  28.157  33.140  1.00  0.00    -0.200 F 
ATOM     85  C   UNL A   1      47.382  26.836  34.589  1.00  0.00     0.200 A 
ATOM     86  F   UNL A   1      46.018  25.504  35.988  1.00  0.00    -0.200 F 
ATOM     87  F   UNL A   1      48.482  26.281  35.110  1.00  0.00    -0.200 F 
ENDBRANCH  54  77
ENDBRANCH  28  29
ENDBRANCH  21  23
ENDBRANCH  20  21
ENDBRANCH  19  20
ENDBRANCH   1  19
TORSDOF 13
ENDMDL
MODEL 3
REMARK VINA RESULT:     -12.4      4.061      9.000
REMARK SMILES Cc1noc(-c2ccc(CCl)cc2)c1C(=O)OCCOC(=O)c1ccc(-c2c3nc(c(-c4c(F)c(F)c(F)c(F)c4F)c4ccc([nH]4)c(-c4c(F)c(F)c(F)c(F)c4F)c4nc(c(-c5c(F)c(F)c(F)c(F)c5F)c5ccc2[nH]5)C=C4)C=C3)cc1
REMARK SMILES IDX 18 1 17 2 15 3 16 4 14 5 1 6 2 7 3 8 4 9 5 10 6 11 7 12
REMARK SMILES IDX 13 13 8 14 12 15 9 16 10 17 11 18 19 19 20 20 21 21 22 22
REMARK SMILES IDX 23 23 24 24 85 25 25 26 84 27 26 28 27 29 28 30 78 31 29 32
REMARK SMILES IDX 83 33 77 34 79 35 30 36 82 37 76 38 75 39 31 41 63 42 43 43
REMARK SMILES IDX 62 44 44 45 47 46 61 47 80 48 45 49 46 50 60 52 81 53 48 54
REMARK SMILES IDX 32 55 33 56 41 57 34 58 35 59 39 60 42 61 36 62 37 63 40 64
REMARK SMILES IDX 38 65 64 66 65 67 73 68 66 69 67 70 71 71 74 72 68 73 69 74
REMARK SMILES IDX 72 75 70 76 49 77 50 78 58 79 51 80 52 81 56 82 59 83 53 84
REMARK SMILES IDX 54 85 57 86 55 87
REMARK H PARENT 79 40 47 51
REMARK Flexibility Score: inf
ROOT
ATOM      1  C   UNL A   1      34.289  23.238  25.656  1.00  0.00     0.275 C 
ENDROOT
BRANCH   1   2
ATOM      2  O   UNL A   1      33.718  23.957  24.526  1.00  0.00    -0.458 OA
BRANCH   2   3
ATOM      3  C   UNL A   1      32.417  23.695  24.183  1.00  0.00     0.344 C 
ATOM      4  O   UNL A   1      32.102  22.958  23.255  1.00  0.00    -0.246 OA
BRANCH   3   5
ATOM      5  C   UNL A   1      31.434  24.405  25.007  1.00  0.00     0.130 A 
ATOM      6  C   UNL A   1      30.613  22.348  26.362  1.00  0.00     0.071 C 
ATOM      7  C   UNL A   1      30.676  23.794  26.032  1.00  0.00     0.096 A 
ATOM      8  N   UNL A   1      30.007  24.701  26.754  1.00  0.00    -0.084 NA
ATOM      9  O   UNL A   1      30.257  25.932  26.160  1.00  0.00    -0.355 OA
ATOM     10  C   UNL A   1      31.071  25.763  25.085  1.00  0.00     0.181 A 
BRANCH  10  11
ATOM     11  C   UNL A   1      31.512  27.030  24.363  1.00  0.00     0.021 A 
ATOM     12  C   UNL A   1      30.446  27.180  22.990  1.00  0.00     0.012 A 
ATOM     13  C   UNL A   1      31.961  28.406  25.384  1.00  0.00     0.012 A 
ATOM     14  C   UNL A   1      29.543  28.596  22.645  1.00  0.00     0.006 A 
ATOM     15  C   UNL A   1      31.145  30.015  25.120  1.00  0.00     0.006 A 
ATOM     16  C   UNL A   1      29.777  30.130  23.617  1.00  0.00    -0.033 A 
BRANCH  16  17
ATOM     17  C   UNL A   1      28.892  31.083  22.799  1.00  0.00     0.145 C 
ATOM     18  Cl  UNL A   1      27.421  31.615  23.826  1.00  0.00    -0.122 Cl
ENDBRANCH  16  17
ENDBRANCH  10  11
ENDBRANCH   3   5
ENDBRANCH   2   3
ENDBRANCH   1   2
BRANCH   1  19
ATOM     19  C   UNL A   1      34.967  21.936  25.205  1.00  0.00     0.275 C 
BRANCH  19  20
ATOM     20  O   UNL A   1      36.020  21.611  26.132  1.00  0.00    -0.458 OA
BRANCH  20  21
ATOM     21  C   UNL A   1      37.096  21.075  25.532  1.00  0.00     0.338 C 
ATOM     22  O   UNL A   1      37.142  20.060  24.855  1.00  0.00    -0.246 OA
BRANCH  21  23
ATOM     23  C   UNL A   1      38.209  22.029  25.573  1.00  0.00     0.060 A 
ATOM     24  C   UNL A   1      39.573  21.432  26.533  1.00  0.00     0.016 A 
ATOM     25  C   UNL A   1      37.937  23.721  25.502  1.00  0.00     0.016 A 
ATOM     26  C   UNL A   1      40.756  22.722  27.560  1.00  0.00     0.010 A 
ATOM     27  C   UNL A   1      38.941  24.905  26.333  1.00  0.00     0.010 A 
ATOM     28  C   UNL A   1      40.349  24.513  27.343  1.00  0.00    -0.014 A 
BRANCH  28  29
ATOM     29  C   UNL A   1      41.041  25.799  27.795  1.00  0.00     0.031 A 
ATOM     30  C   UNL A   1      42.537  25.936  27.649  1.00  0.00     0.074 A 
ATOM     31  C   UNL A   1      40.557  26.637  28.760  1.00  0.00     0.049 A 
ATOM     32  N   UNL A   1      43.298  26.962  27.933  1.00  0.00    -0.248 NA
ATOM     33  C   UNL A   1      43.290  24.732  27.260  1.00  0.00     0.031 C 
ATOM     34  C   UNL A   1      39.453  26.406  29.659  1.00  0.00     0.029 A 
ATOM     35  N   UNL A   1      40.803  27.972  29.022  1.00  0.00    -0.354 N 
ATOM     36  C   UNL A   1      44.607  26.540  27.754  1.00  0.00     0.074 A 
ATOM     37  C   UNL A   1      44.548  25.147  27.369  1.00  0.00     0.031 C 
ATOM     38  C   UNL A   1      38.803  27.546  29.901  1.00  0.00     0.029 A 
ATOM     39  C   UNL A   1      39.687  28.620  29.552  1.00  0.00     0.049 A 
ATOM     40  H   UNL A   1      41.667  28.414  28.855  1.00  0.00     0.167 HD
ATOM     41  C   UNL A   1      45.738  27.268  27.925  1.00  0.00     0.037 A 
ATOM     42  C   UNL A   1      39.408  29.911  29.824  1.00  0.00     0.037 A 
ATOM     43  C   UNL A   1      45.722  28.630  28.410  1.00  0.00     0.049 A 
ATOM     44  C   UNL A   1      40.616  30.778  29.813  1.00  0.00     0.074 A 
ATOM     45  C   UNL A   1      46.779  29.501  28.596  1.00  0.00     0.029 A 
ATOM     46  N   UNL A   1      44.573  29.307  28.825  1.00  0.00    -0.354 N 
ATOM     47  N   UNL A   1      41.834  30.434  29.476  1.00  0.00    -0.248 NA
ATOM     48  C   UNL A   1      40.475  32.139  30.326  1.00  0.00     0.031 C 
ATOM     49  C   UNL A   1      46.281  30.672  29.181  1.00  0.00     0.029 A 
ATOM     50  C   UNL A   1      44.902  30.575  29.279  1.00  0.00     0.049 A 
ATOM     51  H   UNL A   1      43.661  28.937  28.796  1.00  0.00     0.167 HD
ATOM     52  C   UNL A   1      42.628  31.506  29.788  1.00  0.00     0.074 A 
ATOM     53  C   UNL A   1      41.733  32.557  30.252  1.00  0.00     0.031 C 
ATOM     54  C   UNL A   1      43.978  31.586  29.742  1.00  0.00     0.037 A 
BRANCH  41  55
ATOM     55  C   UNL A   1      47.059  26.606  27.617  1.00  0.00     0.064 A 
ATOM     56  C   UNL A   1      47.601  26.606  26.319  1.00  0.00     0.173 A 
ATOM     57  C   UNL A   1      47.810  25.979  28.625  1.00  0.00     0.173 A 
ATOM     58  F   UNL A   1      46.936  27.186  25.309  1.00  0.00    -0.203 F 
ATOM     59  C   UNL A   1      48.813  25.975  26.039  1.00  0.00     0.198 A 
ATOM     60  C   UNL A   1      49.038  25.378  28.348  1.00  0.00     0.198 A 
ATOM     61  F   UNL A   1      47.355  25.946  29.887  1.00  0.00    -0.203 F 
ATOM     62  F   UNL A   1      49.275  25.940  24.781  1.00  0.00    -0.200 F 
ATOM     63  C   UNL A   1      49.534  25.366  27.055  1.00  0.00     0.200 A 
ATOM     64  F   UNL A   1      49.739  24.801  29.335  1.00  0.00    -0.200 F 
ATOM     65  F   UNL A   1      50.697  24.758  26.785  1.00  0.00    -0.200 F 
ENDBRANCH  41  55
BRANCH  42  66
ATOM     66  C   UNL A   1      38.034  30.404  30.193  1.00  0.00     0.064 A 
ATOM     67  C   UNL A   1      37.694  30.613  31.542  1.00  0.00     0.173 A 
ATOM     68  C   UNL A   1      37.055  30.767  29.249  1.00  0.00     0.173 A 
ATOM     69  F   UNL A   1      38.544  30.240  32.511  1.00  0.00    -0.203 F 
ATOM     70  C   UNL A   1      36.476  31.193  31.917  1.00  0.00     0.198 A 
ATOM     71  C   UNL A   1      35.874  31.415  29.617  1.00  0.00     0.198 A 
ATOM     72  F   UNL A   1      37.250  30.525  27.944  1.00  0.00    -0.203 F 
ATOM     73  F   UNL A   1      36.175  31.340  33.214  1.00  0.00    -0.200 F 
ATOM     74  C   UNL A   1      35.582  31.626  30.952  1.00  0.00     0.200 A 
ATOM     75  F   UNL A   1      35.031  31.854  28.672  1.00  0.00    -0.200 F 
ATOM     76  F   UNL A   1      34.439  32.231  31.307  1.00  0.00    -0.200 F 
ENDBRANCH  42  66
BRANCH  54  77
ATOM     77  C   UNL A   1      44.532  32.900  30.168  1.00  0.00     0.064 A 
ATOM     78  C   UNL A   1      44.701  33.958  29.263  1.00  0.00     0.173 A 
ATOM     79  C   UNL A   1      44.954  33.070  31.492  1.00  0.00     0.173 A 
ATOM     80  F   UNL A   1      44.341  33.816  27.978  1.00  0.00    -0.203 F 
ATOM     81  C   UNL A   1      45.329  35.129  29.663  1.00  0.00     0.198 A 
ATOM     82  C   UNL A   1      45.536  34.260  31.899  1.00  0.00     0.198 A 
ATOM     83  F   UNL A   1      44.813  32.074  32.380  1.00  0.00    -0.203 F 
ATOM     84  F   UNL A   1      45.576  36.094  28.766  1.00  0.00    -0.200 F 
ATOM     85  C   UNL A   1      45.740  35.281  30.981  1.00  0.00     0.200 A 
ATOM     86  F   UNL A   1      45.922  34.409  33.172  1.00  0.00    -0.200 F 
ATOM     87  F   UNL A   1      46.354  36.407  31.364  1.00  0.00    -0.200 F 
ENDBRANCH  54  77
ENDBRANCH  28  29
ENDBRANCH  21  23
ENDBRANCH  20  21
ENDBRANCH  19  20
ENDBRANCH   1  19
TORSDOF 13
ENDMDL
