MODEL 1
REMARK VINA RESULT:     -11.4      0.000      0.000
REMARK SMILES O=C(Cc1csc(Sc2ncnc3c2CCCC3)n1)OCCOC(=O)c1ccc(-c2c3nc(c(-c4c(F)c(F)c(F)c(F)c4F)c4ccc([nH]4)c(-c4c(F)c(F)c(F)c(F)c4F)c4nc(c(-c5c(F)c(F)c(F)c(F)c5F)c5ccc2[nH]5)C=C4)C=C3)cc1
REMARK SMILES IDX 21 1 20 2 2 3 1 4 3 5 4 6 5 7 19 8 6 9 7 10 8 11 9 12 10 13
REMARK SMILES IDX 14 14 11 15 13 16 15 17 12 18 18 19 16 20 17 21 22 22 23 23
REMARK SMILES IDX 24 24 25 25 26 26 27 27 88 28 28 29 87 30 29 31 30 32 31 33
REMARK SMILES IDX 81 34 32 35 86 36 80 37 82 38 33 39 85 40 79 41 78 42 34 44
REMARK SMILES IDX 66 45 46 46 65 47 47 48 50 49 64 50 83 51 48 52 49 53 63 55
REMARK SMILES IDX 84 56 51 57 35 58 36 59 44 60 37 61 38 62 42 63 45 64 39 65
REMARK SMILES IDX 40 66 43 67 41 68 67 69 68 70 76 71 69 72 70 73 74 74 77 75
REMARK SMILES IDX 71 76 72 77 75 78 73 79 52 80 53 81 61 82 54 83 55 84 59 85
REMARK SMILES IDX 62 86 56 87 57 88 60 89 58 90
REMARK H PARENT 82 43 50 54
REMARK Flexibility Score: inf
ROOT
ATOM      1  C   UNL A   1      31.395  31.616  26.230  1.00  0.00     0.274 C 
ENDROOT
BRANCH   1   2
ATOM      2  O   UNL A   1      31.748  30.533  27.121  1.00  0.00    -0.462 OA
BRANCH   2   3
ATOM      3  C   UNL A   1      32.710  29.608  26.886  1.00  0.00     0.312 C 
ATOM      4  O   UNL A   1      33.694  29.899  26.205  1.00  0.00    -0.252 OA
BRANCH   3   5
ATOM      5  C   UNL A   1      32.505  28.198  27.371  1.00  0.00     0.179 C 
BRANCH   5   6
ATOM      6  C   UNL A   1      31.876  27.268  26.397  1.00  0.00     0.064 A 
ATOM      7  C   UNL A   1      30.947  27.636  25.441  1.00  0.00     0.092 A 
ATOM      8  N   UNL A   1      32.124  25.909  26.463  1.00  0.00    -0.234 NA
ATOM      9  S   UNL A   1      30.364  26.253  24.623  1.00  0.00    -0.116 S 
ATOM     10  C   UNL A   1      31.367  25.262  25.605  1.00  0.00     0.156 A 
BRANCH  10  11
ATOM     11  S   UNL A   1      31.339  23.523  25.447  1.00  0.00    -0.039 SA
BRANCH  11  12
ATOM     12  C   UNL A   1      32.623  23.293  24.226  1.00  0.00     0.110 A 
ATOM     13  N   UNL A   1      32.209  23.371  22.941  1.00  0.00    -0.229 NA
ATOM     14  C   UNL A   1      33.965  23.209  24.591  1.00  0.00     0.006 A 
ATOM     15  C   UNL A   1      33.174  23.367  22.017  1.00  0.00     0.223 A 
ATOM     16  C   UNL A   1      34.872  23.278  23.541  1.00  0.00     0.048 A 
ATOM     17  C   UNL A   1      34.421  23.138  26.025  1.00  0.00     0.040 C 
ATOM     18  N   UNL A   1      34.490  23.338  22.248  1.00  0.00    -0.241 NA
ATOM     19  C   UNL A   1      36.361  23.295  23.781  1.00  0.00     0.056 C 
ATOM     20  C   UNL A   1      35.913  22.852  26.189  1.00  0.00     0.005 C 
ATOM     21  C   UNL A   1      36.725  23.687  25.210  1.00  0.00     0.007 C 
ENDBRANCH  11  12
ENDBRANCH  10  11
ENDBRANCH   5   6
ENDBRANCH   3   5
ENDBRANCH   2   3
ENDBRANCH   1   2
BRANCH   1  22
ATOM     22  C   UNL A   1      31.660  32.972  26.884  1.00  0.00     0.275 C 
BRANCH  22  23
ATOM     23  O   UNL A   1      33.077  33.220  26.925  1.00  0.00    -0.458 OA
BRANCH  23  24
ATOM     24  C   UNL A   1      33.530  33.876  28.021  1.00  0.00     0.338 C 
ATOM     25  O   UNL A   1      32.975  34.778  28.622  1.00  0.00    -0.246 OA
BRANCH  24  26
ATOM     26  C   UNL A   1      34.738  33.181  28.520  1.00  0.00     0.060 A 
ATOM     27  C   UNL A   1      34.578  31.890  29.039  1.00  0.00     0.016 A 
ATOM     28  C   UNL A   1      36.011  33.756  28.441  1.00  0.00     0.016 A 
ATOM     29  C   UNL A   1      35.687  31.182  29.502  1.00  0.00     0.010 A 
ATOM     30  C   UNL A   1      37.120  33.049  28.911  1.00  0.00     0.010 A 
ATOM     31  C   UNL A   1      36.960  31.767  29.464  1.00  0.00    -0.014 A 
BRANCH  31  32
ATOM     32  C   UNL A   1      38.095  31.098  30.141  1.00  0.00     0.031 A 
ATOM     33  C   UNL A   1      38.375  31.434  31.578  1.00  0.00     0.074 A 
ATOM     34  C   UNL A   1      38.846  30.187  29.499  1.00  0.00     0.049 A 
ATOM     35  N   UNL A   1      39.290  30.949  32.378  1.00  0.00    -0.248 NA
ATOM     36  C   UNL A   1      37.505  32.446  32.196  1.00  0.00     0.031 C 
ATOM     37  C   UNL A   1      38.658  29.755  28.116  1.00  0.00     0.029 A 
ATOM     38  N   UNL A   1      39.924  29.456  29.936  1.00  0.00    -0.354 N 
ATOM     39  C   UNL A   1      39.087  31.578  33.599  1.00  0.00     0.074 A 
ATOM     40  C   UNL A   1      37.996  32.511  33.424  1.00  0.00     0.031 C 
ATOM     41  C   UNL A   1      39.590  28.833  27.817  1.00  0.00     0.029 A 
ATOM     42  C   UNL A   1      40.449  28.622  28.981  1.00  0.00     0.049 A 
ATOM     43  H   UNL A   1      40.285  29.524  30.850  1.00  0.00     0.167 HD
ATOM     44  C   UNL A   1      39.739  31.378  34.768  1.00  0.00     0.037 A 
ATOM     45  C   UNL A   1      41.506  27.787  29.044  1.00  0.00     0.037 A 
ATOM     46  C   UNL A   1      40.836  30.468  34.943  1.00  0.00     0.049 A 
ATOM     47  C   UNL A   1      42.280  27.662  30.331  1.00  0.00     0.074 A 
ATOM     48  C   UNL A   1      41.557  30.198  36.092  1.00  0.00     0.029 A 
ATOM     49  N   UNL A   1      41.379  29.685  33.935  1.00  0.00    -0.354 N 
ATOM     50  N   UNL A   1      42.058  28.229  31.491  1.00  0.00    -0.248 NA
ATOM     51  C   UNL A   1      43.455  26.776  30.315  1.00  0.00     0.031 C 
ATOM     52  C   UNL A   1      42.565  29.284  35.770  1.00  0.00     0.029 A 
ATOM     53  C   UNL A   1      42.444  28.952  34.430  1.00  0.00     0.049 A 
ATOM     54  H   UNL A   1      41.055  29.656  33.006  1.00  0.00     0.167 HD
ATOM     55  C   UNL A   1      43.042  27.752  32.347  1.00  0.00     0.074 A 
ATOM     56  C   UNL A   1      43.862  26.842  31.577  1.00  0.00     0.031 C 
ATOM     57  C   UNL A   1      43.246  28.043  33.654  1.00  0.00     0.037 A 
BRANCH  44  58
ATOM     58  C   UNL A   1      39.279  32.164  35.957  1.00  0.00     0.064 A 
ATOM     59  C   UNL A   1      38.348  31.631  36.862  1.00  0.00     0.173 A 
ATOM     60  C   UNL A   1      39.808  33.433  36.223  1.00  0.00     0.173 A 
ATOM     61  F   UNL A   1      37.803  30.425  36.638  1.00  0.00    -0.203 F 
ATOM     62  C   UNL A   1      37.957  32.348  37.988  1.00  0.00     0.198 A 
ATOM     63  C   UNL A   1      39.431  34.139  37.362  1.00  0.00     0.198 A 
ATOM     64  F   UNL A   1      40.701  33.983  35.387  1.00  0.00    -0.203 F 
ATOM     65  F   UNL A   1      37.046  31.833  38.825  1.00  0.00    -0.200 F 
ATOM     66  C   UNL A   1      38.504  33.597  38.241  1.00  0.00     0.200 A 
ATOM     67  F   UNL A   1      39.964  35.343  37.611  1.00  0.00    -0.200 F 
ATOM     68  F   UNL A   1      38.135  34.282  39.333  1.00  0.00    -0.200 F 
ENDBRANCH  44  58
BRANCH  45  69
ATOM     69  C   UNL A   1      41.895  26.990  27.852  1.00  0.00     0.064 A 
ATOM     70  C   UNL A   1      41.349  25.719  27.627  1.00  0.00     0.173 A 
ATOM     71  C   UNL A   1      42.833  27.471  26.929  1.00  0.00     0.173 A 
ATOM     72  F   UNL A   1      40.467  25.206  28.498  1.00  0.00    -0.203 F 
ATOM     73  C   UNL A   1      41.737  24.953  26.530  1.00  0.00     0.198 A 
ATOM     74  C   UNL A   1      43.205  26.714  25.820  1.00  0.00     0.198 A 
ATOM     75  F   UNL A   1      43.388  28.680  27.103  1.00  0.00    -0.203 F 
ATOM     76  F   UNL A   1      41.231  23.725  26.360  1.00  0.00    -0.200 F 
ATOM     77  C   UNL A   1      42.662  25.453  25.625  1.00  0.00     0.200 A 
ATOM     78  F   UNL A   1      44.093  27.203  24.944  1.00  0.00    -0.200 F 
ATOM     79  F   UNL A   1      43.036  24.716  24.570  1.00  0.00    -0.200 F 
ENDBRANCH  45  69
BRANCH  57  80
ATOM     80  C   UNL A   1      44.386  27.363  34.353  1.00  0.00     0.064 A 
ATOM     81  C   UNL A   1      44.241  26.087  34.915  1.00  0.00     0.173 A 
ATOM     82  C   UNL A   1      45.658  27.957  34.386  1.00  0.00     0.173 A 
ATOM     83  F   UNL A   1      43.043  25.483  34.918  1.00  0.00    -0.203 F 
ATOM     84  C   UNL A   1      45.326  25.432  35.492  1.00  0.00     0.198 A 
ATOM     85  C   UNL A   1      46.746  27.290  34.942  1.00  0.00     0.198 A 
ATOM     86  F   UNL A   1      45.849  29.174  33.855  1.00  0.00    -0.203 F 
ATOM     87  F   UNL A   1      45.160  24.224  36.046  1.00  0.00    -0.200 F 
ATOM     88  C   UNL A   1      46.579  26.029  35.495  1.00  0.00     0.200 A 
ATOM     89  F   UNL A   1      47.957  27.861  34.932  1.00  0.00    -0.200 F 
ATOM     90  F   UNL A   1      47.626  25.390  36.034  1.00  0.00    -0.200 F 
ENDBRANCH  57  80
ENDBRANCH  31  32
ENDBRANCH  24  26
ENDBRANCH  23  24
ENDBRANCH  22  23
ENDBRANCH   1  22
TORSDOF 14
ENDMDL
MODEL 2
REMARK VINA RESULT:     -11.4      1.548      2.526
REMARK SMILES O=C(Cc1csc(Sc2ncnc3c2CCCC3)n1)OCCOC(=O)c1ccc(-c2c3nc(c(-c4c(F)c(F)c(F)c(F)c4F)c4ccc([nH]4)c(-c4c(F)c(F)c(F)c(F)c4F)c4nc(c(-c5c(F)c(F)c(F)c(F)c5F)c5ccc2[nH]5)C=C4)C=C3)cc1
REMARK SMILES IDX 21 1 20 2 2 3 1 4 3 5 4 6 5 7 19 8 6 9 7 10 8 11 9 12 10 13
REMARK SMILES IDX 14 14 11 15 13 16 15 17 12 18 18 19 16 20 17 21 22 22 23 23
REMARK SMILES IDX 24 24 25 25 26 26 27 27 88 28 28 29 87 30 29 31 30 32 31 33
REMARK SMILES IDX 81 34 32 35 86 36 80 37 82 38 33 39 85 40 79 41 78 42 34 44
REMARK SMILES IDX 66 45 46 46 65 47 47 48 50 49 64 50 83 51 48 52 49 53 63 55
REMARK SMILES IDX 84 56 51 57 35 58 36 59 44 60 37 61 38 62 42 63 45 64 39 65
REMARK SMILES IDX 40 66 43 67 41 68 67 69 68 70 76 71 69 72 70 73 74 74 77 75
REMARK SMILES IDX 71 76 72 77 75 78 73 79 52 80 53 81 61 82 54 83 55 84 59 85
REMARK SMILES IDX 62 86 56 87 57 88 60 89 58 90
REMARK H PARENT 82 43 50 54
REMARK Flexibility Score: inf
ROOT
ATOM      1  C   UNL A   1      31.416  29.702  25.084  1.00  0.00     0.274 C 
ENDROOT
BRANCH   1   2
ATOM      2  O   UNL A   1      30.348  29.958  24.143  1.00  0.00    -0.462 OA
BRANCH   2   3
ATOM      3  C   UNL A   1      29.961  29.121  23.151  1.00  0.00     0.312 C 
ATOM      4  O   UNL A   1      29.747  29.560  22.020  1.00  0.00    -0.252 OA
BRANCH   3   5
ATOM      5  C   UNL A   1      29.687  27.677  23.475  1.00  0.00     0.179 C 
BRANCH   5   6
ATOM      6  C   UNL A   1      30.773  26.723  23.129  1.00  0.00     0.064 A 
ATOM      7  C   UNL A   1      31.865  27.024  22.336  1.00  0.00     0.092 A 
ATOM      8  N   UNL A   1      30.693  25.398  23.518  1.00  0.00    -0.234 NA
ATOM      9  S   UNL A   1      32.799  25.618  22.061  1.00  0.00    -0.116 S 
ATOM     10  C   UNL A   1      31.681  24.706  22.994  1.00  0.00     0.156 A 
BRANCH  10  11
ATOM     11  S   UNL A   1      31.877  22.982  23.195  1.00  0.00    -0.039 SA
BRANCH  11  12
ATOM     12  C   UNL A   1      32.925  22.946  24.641  1.00  0.00     0.110 A 
ATOM     13  N   UNL A   1      32.269  22.872  25.821  1.00  0.00    -0.229 NA
ATOM     14  C   UNL A   1      34.310  22.833  24.530  1.00  0.00     0.006 A 
ATOM     15  C   UNL A   1      33.031  22.677  26.900  1.00  0.00     0.223 A 
ATOM     16  C   UNL A   1      34.981  22.569  25.718  1.00  0.00     0.048 A 
ATOM     17  C   UNL A   1      35.034  22.901  23.211  1.00  0.00     0.040 C 
ATOM     18  N   UNL A   1      34.357  22.508  26.912  1.00  0.00    -0.241 NA
ATOM     19  C   UNL A   1      36.470  22.328  25.749  1.00  0.00     0.056 C 
ATOM     20  C   UNL A   1      36.557  22.955  23.341  1.00  0.00     0.005 C 
ATOM     21  C   UNL A   1      37.037  21.954  24.381  1.00  0.00     0.007 C 
ENDBRANCH  11  12
ENDBRANCH  10  11
ENDBRANCH   5   6
ENDBRANCH   3   5
ENDBRANCH   2   3
ENDBRANCH   1   2
BRANCH   1  22
ATOM     22  C   UNL A   1      31.582  30.869  26.057  1.00  0.00     0.275 C 
BRANCH  22  23
ATOM     23  O   UNL A   1      32.707  30.623  26.920  1.00  0.00    -0.458 OA
BRANCH  23  24
ATOM     24  C   UNL A   1      33.356  31.723  27.371  1.00  0.00     0.338 C 
ATOM     25  O   UNL A   1      32.909  32.851  27.479  1.00  0.00    -0.246 OA
BRANCH  24  26
ATOM     26  C   UNL A   1      34.663  31.304  27.925  1.00  0.00     0.060 A 
ATOM     27  C   UNL A   1      34.835  29.949  28.235  1.00  0.00     0.016 A 
ATOM     28  C   UNL A   1      35.721  32.205  28.094  1.00  0.00     0.016 A 
ATOM     29  C   UNL A   1      36.055  29.497  28.737  1.00  0.00     0.010 A 
ATOM     30  C   UNL A   1      36.940  31.753  28.605  1.00  0.00     0.010 A 
ATOM     31  C   UNL A   1      37.106  30.401  28.949  1.00  0.00    -0.014 A 
BRANCH  31  32
ATOM     32  C   UNL A   1      38.321  29.957  29.671  1.00  0.00     0.031 A 
ATOM     33  C   UNL A   1      38.578  30.498  31.048  1.00  0.00     0.074 A 
ATOM     34  C   UNL A   1      39.167  29.067  29.124  1.00  0.00     0.049 A 
ATOM     35  N   UNL A   1      39.553  30.226  31.876  1.00  0.00    -0.248 NA
ATOM     36  C   UNL A   1      37.601  31.471  31.562  1.00  0.00     0.031 C 
ATOM     37  C   UNL A   1      39.013  28.449  27.809  1.00  0.00     0.029 A 
ATOM     38  N   UNL A   1      40.329  28.526  29.617  1.00  0.00    -0.354 N 
ATOM     39  C   UNL A   1      39.294  30.973  33.016  1.00  0.00     0.074 A 
ATOM     40  C   UNL A   1      38.098  31.744  32.760  1.00  0.00     0.031 C 
ATOM     41  C   UNL A   1      40.044  27.611  27.599  1.00  0.00     0.029 A 
ATOM     42  C   UNL A   1      40.937  27.646  28.755  1.00  0.00     0.049 A 
ATOM     43  H   UNL A   1      40.691  28.747  30.505  1.00  0.00     0.167 HD
ATOM     44  C   UNL A   1      39.979  30.997  34.183  1.00  0.00     0.037 A 
ATOM     45  C   UNL A   1      42.086  26.955  28.890  1.00  0.00     0.037 A 
ATOM     46  C   UNL A   1      41.180  30.248  34.436  1.00  0.00     0.049 A 
ATOM     47  C   UNL A   1      42.886  27.080  30.160  1.00  0.00     0.074 A 
ATOM     48  C   UNL A   1      41.942  30.208  35.589  1.00  0.00     0.029 A 
ATOM     49  N   UNL A   1      41.798  29.415  33.516  1.00  0.00    -0.354 N 
ATOM     50  N   UNL A   1      42.613  27.757  31.249  1.00  0.00    -0.248 NA
ATOM     51  C   UNL A   1      44.158  26.342  30.221  1.00  0.00     0.031 C 
ATOM     52  C   UNL A   1      43.047  29.385  35.354  1.00  0.00     0.029 A 
ATOM     53  C   UNL A   1      42.949  28.878  34.067  1.00  0.00     0.049 A 
ATOM     54  H   UNL A   1      41.468  29.234  32.607  1.00  0.00     0.167 HD
ATOM     55  C   UNL A   1      43.658  27.507  32.129  1.00  0.00     0.074 A 
ATOM     56  C   UNL A   1      44.570  26.610  31.453  1.00  0.00     0.031 C 
ATOM     57  C   UNL A   1      43.843  27.979  33.385  1.00  0.00     0.037 A 
BRANCH  44  58
ATOM     58  C   UNL A   1      39.445  31.864  35.280  1.00  0.00     0.064 A 
ATOM     59  C   UNL A   1      38.576  31.349  36.253  1.00  0.00     0.173 A 
ATOM     60  C   UNL A   1      39.843  33.203  35.391  1.00  0.00     0.173 A 
ATOM     61  F   UNL A   1      38.156  30.077  36.177  1.00  0.00    -0.203 F 
ATOM     62  C   UNL A   1      38.117  32.149  37.294  1.00  0.00     0.198 A 
ATOM     63  C   UNL A   1      39.399  33.994  36.446  1.00  0.00     0.198 A 
ATOM     64  F   UNL A   1      40.673  33.739  34.484  1.00  0.00    -0.203 F 
ATOM     65  F   UNL A   1      37.264  31.645  38.198  1.00  0.00    -0.200 F 
ATOM     66  C   UNL A   1      38.534  33.468  37.394  1.00  0.00     0.200 A 
ATOM     67  F   UNL A   1      39.808  35.266  36.547  1.00  0.00    -0.200 F 
ATOM     68  F   UNL A   1      38.100  34.234  38.405  1.00  0.00    -0.200 F 
ENDBRANCH  44  58
BRANCH  45  69
ATOM     69  C   UNL A   1      42.551  26.067  27.794  1.00  0.00     0.064 A 
ATOM     70  C   UNL A   1      43.488  26.516  26.853  1.00  0.00     0.173 A 
ATOM     71  C   UNL A   1      42.054  24.764  27.650  1.00  0.00     0.173 A 
ATOM     72  F   UNL A   1      43.972  27.764  26.934  1.00  0.00    -0.203 F 
ATOM     73  C   UNL A   1      43.901  25.698  25.803  1.00  0.00     0.198 A 
ATOM     74  C   UNL A   1      42.484  23.940  26.613  1.00  0.00     0.198 A 
ATOM     75  F   UNL A   1      41.151  24.290  28.522  1.00  0.00    -0.203 F 
ATOM     76  F   UNL A   1      44.768  26.165  24.894  1.00  0.00    -0.200 F 
ATOM     77  C   UNL A   1      43.401  24.410  25.686  1.00  0.00     0.200 A 
ATOM     78  F   UNL A   1      42.004  22.693  26.507  1.00  0.00    -0.200 F 
ATOM     79  F   UNL A   1      43.798  23.624  24.675  1.00  0.00    -0.200 F 
ENDBRANCH  45  69
BRANCH  57  80
ATOM     80  C   UNL A   1      45.065  27.528  34.130  1.00  0.00     0.064 A 
ATOM     81  C   UNL A   1      46.250  28.276  34.111  1.00  0.00     0.173 A 
ATOM     82  C   UNL A   1      45.022  26.381  34.939  1.00  0.00     0.173 A 
ATOM     83  F   UNL A   1      46.343  29.372  33.344  1.00  0.00    -0.203 F 
ATOM     84  C   UNL A   1      47.352  27.888  34.870  1.00  0.00     0.198 A 
ATOM     85  C   UNL A   1      46.117  26.010  35.715  1.00  0.00     0.198 A 
ATOM     86  F   UNL A   1      43.908  25.637  34.997  1.00  0.00    -0.203 F 
ATOM     87  F   UNL A   1      48.483  28.604  34.817  1.00  0.00    -0.200 F 
ATOM     88  C   UNL A   1      47.281  26.763  35.678  1.00  0.00     0.200 A 
ATOM     89  F   UNL A   1      46.041  24.932  36.506  1.00  0.00    -0.200 F 
ATOM     90  F   UNL A   1      48.335  26.403  36.422  1.00  0.00    -0.200 F 
ENDBRANCH  57  80
ENDBRANCH  31  32
ENDBRANCH  24  26
ENDBRANCH  23  24
ENDBRANCH  22  23
ENDBRANCH   1  22
TORSDOF 14
ENDMDL
MODEL 3
REMARK VINA RESULT:     -11.3      5.829     11.109
REMARK SMILES O=C(Cc1csc(Sc2ncnc3c2CCCC3)n1)OCCOC(=O)c1ccc(-c2c3nc(c(-c4c(F)c(F)c(F)c(F)c4F)c4ccc([nH]4)c(-c4c(F)c(F)c(F)c(F)c4F)c4nc(c(-c5c(F)c(F)c(F)c(F)c5F)c5ccc2[nH]5)C=C4)C=C3)cc1
REMARK SMILES IDX 21 1 20 2 2 3 1 4 3 5 4 6 5 7 19 8 6 9 7 10 8 11 9 12 10 13
REMARK SMILES IDX 14 14 11 15 13 16 15 17 12 18 18 19 16 20 17 21 22 22 23 23
REMARK SMILES IDX 24 24 25 25 26 26 27 27 88 28 28 29 87 30 29 31 30 32 31 33
REMARK SMILES IDX 81 34 32 35 86 36 80 37 82 38 33 39 85 40 79 41 78 42 34 44
REMARK SMILES IDX 66 45 46 46 65 47 47 48 50 49 64 50 83 51 48 52 49 53 63 55
REMARK SMILES IDX 84 56 51 57 35 58 36 59 44 60 37 61 38 62 42 63 45 64 39 65
REMARK SMILES IDX 40 66 43 67 41 68 67 69 68 70 76 71 69 72 70 73 74 74 77 75
REMARK SMILES IDX 71 76 72 77 75 78 73 79 52 80 53 81 61 82 54 83 55 84 59 85
REMARK SMILES IDX 62 86 56 87 57 88 60 89 58 90
REMARK H PARENT 82 43 50 54
REMARK Flexibility Score: inf
ROOT
ATOM      1  C   UNL A   1      40.557  19.577  26.396  1.00  0.00     0.274 C 
ENDROOT
BRANCH   1   2
ATOM      2  O   UNL A   1      41.726  19.338  27.213  1.00  0.00    -0.462 OA
BRANCH   2   3
ATOM      3  C   UNL A   1      42.636  18.354  27.010  1.00  0.00     0.312 C 
ATOM      4  O   UNL A   1      43.069  17.706  27.962  1.00  0.00    -0.252 OA
BRANCH   3   5
ATOM      5  C   UNL A   1      43.190  18.144  25.626  1.00  0.00     0.179 C 
BRANCH   5   6
ATOM      6  C   UNL A   1      44.207  19.133  25.184  1.00  0.00     0.064 A 
ATOM      7  C   UNL A   1      45.548  18.855  24.991  1.00  0.00     0.092 A 
ATOM      8  N   UNL A   1      43.869  20.465  25.028  1.00  0.00    -0.234 NA
ATOM      9  S   UNL A   1      46.401  20.291  24.626  1.00  0.00    -0.116 S 
ATOM     10  C   UNL A   1      44.939  21.183  24.767  1.00  0.00     0.156 A 
BRANCH  10  11
ATOM     11  S   UNL A   1      44.927  22.919  24.580  1.00  0.00    -0.039 SA
BRANCH  11  12
ATOM     12  C   UNL A   1      45.557  23.417  26.177  1.00  0.00     0.110 A 
ATOM     13  N   UNL A   1      46.796  23.958  26.158  1.00  0.00    -0.229 NA
ATOM     14  C   UNL A   1      44.752  23.395  27.313  1.00  0.00     0.006 A 
ATOM     15  C   UNL A   1      47.219  24.487  27.309  1.00  0.00     0.223 A 
ATOM     16  C   UNL A   1      45.281  24.033  28.428  1.00  0.00     0.048 A 
ATOM     17  C   UNL A   1      43.366  22.806  27.324  1.00  0.00     0.040 C 
ATOM     18  N   UNL A   1      46.521  24.566  28.446  1.00  0.00    -0.241 NA
ATOM     19  C   UNL A   1      44.493  24.176  29.707  1.00  0.00     0.056 C 
ATOM     20  C   UNL A   1      42.743  22.709  28.716  1.00  0.00     0.005 C 
ATOM     21  C   UNL A   1      42.992  23.989  29.500  1.00  0.00     0.007 C 
ENDBRANCH  11  12
ENDBRANCH  10  11
ENDBRANCH   5   6
ENDBRANCH   3   5
ENDBRANCH   2   3
ENDBRANCH   1   2
BRANCH   1  22
ATOM     22  C   UNL A   1      40.551  21.007  25.854  1.00  0.00     0.275 C 
BRANCH  22  23
ATOM     23  O   UNL A   1      39.988  21.894  26.837  1.00  0.00    -0.458 OA
BRANCH  23  24
ATOM     24  C   UNL A   1      39.082  22.789  26.374  1.00  0.00     0.338 C 
ATOM     25  O   UNL A   1      38.068  22.552  25.743  1.00  0.00    -0.246 OA
BRANCH  24  26
ATOM     26  C   UNL A   1      39.402  24.119  26.939  1.00  0.00     0.060 A 
ATOM     27  C   UNL A   1      39.942  25.080  26.076  1.00  0.00     0.016 A 
ATOM     28  C   UNL A   1      39.138  24.441  28.275  1.00  0.00     0.016 A 
ATOM     29  C   UNL A   1      40.241  26.357  26.552  1.00  0.00     0.010 A 
ATOM     30  C   UNL A   1      39.444  25.717  28.753  1.00  0.00     0.010 A 
ATOM     31  C   UNL A   1      40.018  26.674  27.899  1.00  0.00    -0.014 A 
BRANCH  31  32
ATOM     32  C   UNL A   1      40.524  27.955  28.444  1.00  0.00     0.031 A 
ATOM     33  C   UNL A   1      42.008  28.171  28.512  1.00  0.00     0.074 A 
ATOM     34  C   UNL A   1      39.679  28.922  28.845  1.00  0.00     0.049 A 
ATOM     35  N   UNL A   1      42.675  29.222  28.918  1.00  0.00    -0.248 NA
ATOM     36  C   UNL A   1      42.854  27.057  28.056  1.00  0.00     0.031 C 
ATOM     37  C   UNL A   1      38.221  28.843  28.803  1.00  0.00     0.029 A 
ATOM     38  N   UNL A   1      39.935  30.166  29.367  1.00  0.00    -0.354 N 
ATOM     39  C   UNL A   1      44.014  28.905  28.741  1.00  0.00     0.074 A 
ATOM     40  C   UNL A   1      44.070  27.550  28.237  1.00  0.00     0.031 C 
ATOM     41  C   UNL A   1      37.710  29.993  29.279  1.00  0.00     0.029 A 
ATOM     42  C   UNL A   1      38.803  30.879  29.675  1.00  0.00     0.049 A 
ATOM     43  H   UNL A   1      40.846  30.514  29.506  1.00  0.00     0.167 HD
ATOM     44  C   UNL A   1      45.100  29.681  28.960  1.00  0.00     0.037 A 
ATOM     45  C   UNL A   1      38.671  32.105  30.217  1.00  0.00     0.037 A 
ATOM     46  C   UNL A   1      45.052  31.020  29.480  1.00  0.00     0.049 A 
ATOM     47  C   UNL A   1      39.902  32.909  30.548  1.00  0.00     0.074 A 
ATOM     48  C   UNL A   1      46.102  31.885  29.732  1.00  0.00     0.029 A 
ATOM     49  N   UNL A   1      43.889  31.684  29.837  1.00  0.00    -0.354 N 
ATOM     50  N   UNL A   1      41.163  32.618  30.342  1.00  0.00    -0.248 NA
ATOM     51  C   UNL A   1      39.689  34.217  31.189  1.00  0.00     0.031 C 
ATOM     52  C   UNL A   1      45.578  33.058  30.283  1.00  0.00     0.029 A 
ATOM     53  C   UNL A   1      44.198  32.939  30.334  1.00  0.00     0.049 A 
ATOM     54  H   UNL A   1      42.979  31.319  29.751  1.00  0.00     0.167 HD
ATOM     55  C   UNL A   1      41.890  33.710  30.799  1.00  0.00     0.074 A 
ATOM     56  C   UNL A   1      40.930  34.676  31.289  1.00  0.00     0.031 C 
ATOM     57  C   UNL A   1      43.231  33.894  30.811  1.00  0.00     0.037 A 
BRANCH  44  58
ATOM     58  C   UNL A   1      46.441  29.100  28.635  1.00  0.00     0.064 A 
ATOM     59  C   UNL A   1      47.209  28.457  29.617  1.00  0.00     0.173 A 
ATOM     60  C   UNL A   1      46.940  29.140  27.326  1.00  0.00     0.173 A 
ATOM     61  F   UNL A   1      46.778  28.408  30.887  1.00  0.00    -0.203 F 
ATOM     62  C   UNL A   1      48.435  27.881  29.300  1.00  0.00     0.198 A 
ATOM     63  C   UNL A   1      48.157  28.544  27.008  1.00  0.00     0.198 A 
ATOM     64  F   UNL A   1      46.241  29.744  26.354  1.00  0.00    -0.203 F 
ATOM     65  F   UNL A   1      49.167  27.295  30.259  1.00  0.00    -0.200 F 
ATOM     66  C   UNL A   1      48.904  27.919  27.995  1.00  0.00     0.200 A 
ATOM     67  F   UNL A   1      48.607  28.574  25.746  1.00  0.00    -0.200 F 
ATOM     68  F   UNL A   1      50.081  27.353  27.689  1.00  0.00    -0.200 F 
ENDBRANCH  44  58
BRANCH  45  69
ATOM     69  C   UNL A   1      37.319  32.661  30.476  1.00  0.00     0.064 A 
ATOM     70  C   UNL A   1      36.675  33.462  29.522  1.00  0.00     0.173 A 
ATOM     71  C   UNL A   1      36.653  32.424  31.686  1.00  0.00     0.173 A 
ATOM     72  F   UNL A   1      37.285  33.739  28.360  1.00  0.00    -0.203 F 
ATOM     73  C   UNL A   1      35.421  34.015  29.774  1.00  0.00     0.198 A 
ATOM     74  C   UNL A   1      35.389  32.959  31.929  1.00  0.00     0.198 A 
ATOM     75  F   UNL A   1      37.229  31.668  32.633  1.00  0.00    -0.203 F 
ATOM     76  F   UNL A   1      34.846  34.809  28.862  1.00  0.00    -0.200 F 
ATOM     77  C   UNL A   1      34.778  33.760  30.976  1.00  0.00     0.200 A 
ATOM     78  F   UNL A   1      34.768  32.705  33.088  1.00  0.00    -0.200 F 
ATOM     79  F   UNL A   1      33.572  34.292  31.219  1.00  0.00    -0.200 F 
ENDBRANCH  45  69
BRANCH  57  80
ATOM     80  C   UNL A   1      43.756  35.193  31.350  1.00  0.00     0.064 A 
ATOM     81  C   UNL A   1      43.886  36.324  30.532  1.00  0.00     0.173 A 
ATOM     82  C   UNL A   1      44.049  35.329  32.716  1.00  0.00     0.173 A 
ATOM     83  F   UNL A   1      43.628  36.240  29.219  1.00  0.00    -0.203 F 
ATOM     84  C   UNL A   1      44.299  37.544  31.061  1.00  0.00     0.198 A 
ATOM     85  C   UNL A   1      44.438  36.557  33.245  1.00  0.00     0.198 A 
ATOM     86  F   UNL A   1      43.933  34.278  33.540  1.00  0.00    -0.203 F 
ATOM     87  F   UNL A   1      44.441  38.606  30.257  1.00  0.00    -0.200 F 
ATOM     88  C   UNL A   1      44.564  37.662  32.418  1.00  0.00     0.200 A 
ATOM     89  F   UNL A   1      44.680  36.672  34.558  1.00  0.00    -0.200 F 
ATOM     90  F   UNL A   1      44.943  38.842  32.928  1.00  0.00    -0.200 F 
ENDBRANCH  57  80
ENDBRANCH  31  32
ENDBRANCH  24  26
ENDBRANCH  23  24
ENDBRANCH  22  23
ENDBRANCH   1  22
TORSDOF 14
ENDMDL
