MODEL 1
REMARK VINA RESULT:     -10.3      0.000      0.000
REMARK SMILES COC[C@@H](C)CC(=O)N1CCCC[C@@H]1CC(=O)OCCOC(=O)c1ccc(-c2c3nc(c(-c4c(F)c(F)c(F)c(F)c4F)c4ccc([nH]4)c(-c4c(F)c(F)c(F)c(F)c4F)c4nc(c(-c5c(F)c(F)c(F)c(F)c5F)c5ccc2[nH]5)C=C4)C=C3)cc1
REMARK SMILES IDX 16 1 17 2 15 3 14 4 9 5 10 6 11 7 13 8 12 9 7 10 8 11 6 12
REMARK SMILES IDX 4 13 5 14 3 15 2 16 1 17 18 18 19 19 20 20 21 21 22 22 23 23
REMARK SMILES IDX 24 24 25 25 86 26 26 27 85 28 27 29 28 30 29 31 79 32 30 33
REMARK SMILES IDX 84 34 78 35 80 36 31 37 83 38 77 39 76 40 32 42 64 43 44 44
REMARK SMILES IDX 63 45 45 46 48 47 62 48 81 49 46 50 47 51 61 53 82 54 49 55
REMARK SMILES IDX 33 56 34 57 42 58 35 59 36 60 40 61 43 62 37 63 38 64 41 65
REMARK SMILES IDX 39 66 65 67 66 68 74 69 67 70 68 71 72 72 75 73 69 74 70 75
REMARK SMILES IDX 73 76 71 77 50 78 51 79 59 80 52 81 53 82 57 83 60 84 54 85
REMARK SMILES IDX 55 86 58 87 56 88
REMARK H PARENT 80 41 48 52
REMARK Flexibility Score: inf
ROOT
ATOM      1  C   UNL A   1      32.450  28.769  26.907  1.00  0.00     0.307 C 
ATOM      2  O   UNL A   1      33.561  28.284  27.082  1.00  0.00    -0.252 OA
ENDROOT
BRANCH   1   3
ATOM      3  C   UNL A   1      31.369  28.052  26.125  1.00  0.00     0.147 C 
BRANCH   3   4
ATOM      4  C   UNL A   1      31.819  26.753  25.425  1.00  0.00     0.096 C 
ATOM      5  N   UNL A   1      31.866  26.825  23.943  1.00  0.00    -0.339 N 
ATOM      6  C   UNL A   1      32.022  25.582  23.200  1.00  0.00     0.120 C 
ATOM      7  C   UNL A   1      30.978  24.554  23.612  1.00  0.00     0.022 C 
ATOM      8  C   UNL A   1      30.861  25.619  25.870  1.00  0.00     0.026 C 
ATOM      9  C   UNL A   1      31.058  24.311  25.113  1.00  0.00     0.004 C 
BRANCH   5  10
ATOM     10  C   UNL A   1      31.845  28.001  23.219  1.00  0.00     0.223 C 
ATOM     11  O   UNL A   1      32.719  28.854  23.346  1.00  0.00    -0.275 OA
BRANCH  10  12
ATOM     12  C   UNL A   1      30.621  28.218  22.337  1.00  0.00     0.106 C 
BRANCH  12  13
ATOM     13  C   UNL A   1      29.384  28.630  23.158  1.00  0.00     0.021 C 
ATOM     14  C   UNL A   1      28.485  27.423  23.453  1.00  0.00     0.010 C 
BRANCH  13  15
ATOM     15  C   UNL A   1      28.555  29.682  22.410  1.00  0.00     0.163 C 
BRANCH  15  16
ATOM     16  O   UNL A   1      28.820  30.973  22.943  1.00  0.00    -0.384 OA
ATOM     17  C   UNL A   1      28.514  32.017  22.026  1.00  0.00     0.194 C 
ENDBRANCH  15  16
ENDBRANCH  13  15
ENDBRANCH  12  13
ENDBRANCH  10  12
ENDBRANCH   5  10
ENDBRANCH   3   4
ENDBRANCH   1   3
BRANCH   1  18
ATOM     18  O   UNL A   1      32.084  30.008  27.320  1.00  0.00    -0.462 OA
BRANCH  18  19
ATOM     19  C   UNL A   1      31.779  30.964  26.285  1.00  0.00     0.274 C 
BRANCH  19  20
ATOM     20  C   UNL A   1      31.659  32.375  26.863  1.00  0.00     0.275 C 
BRANCH  20  21
ATOM     21  O   UNL A   1      32.902  33.098  26.753  1.00  0.00    -0.458 OA
BRANCH  21  22
ATOM     22  C   UNL A   1      33.310  33.721  27.881  1.00  0.00     0.338 C 
ATOM     23  O   UNL A   1      32.713  34.594  28.499  1.00  0.00    -0.246 OA
BRANCH  22  24
ATOM     24  C   UNL A   1      34.555  33.109  28.386  1.00  0.00     0.060 A 
ATOM     25  C   UNL A   1      34.450  31.836  28.952  1.00  0.00     0.016 A 
ATOM     26  C   UNL A   1      35.790  33.766  28.367  1.00  0.00     0.016 A 
ATOM     27  C   UNL A   1      35.578  31.198  29.465  1.00  0.00     0.010 A 
ATOM     28  C   UNL A   1      36.920  33.134  28.910  1.00  0.00     0.010 A 
ATOM     29  C   UNL A   1      36.821  31.843  29.457  1.00  0.00    -0.014 A 
BRANCH  29  30
ATOM     30  C   UNL A   1      37.968  31.177  30.122  1.00  0.00     0.031 A 
ATOM     31  C   UNL A   1      38.242  31.461  31.571  1.00  0.00     0.074 A 
ATOM     32  C   UNL A   1      38.694  30.245  29.476  1.00  0.00     0.049 A 
ATOM     33  N   UNL A   1      39.175  30.979  32.351  1.00  0.00    -0.248 NA
ATOM     34  C   UNL A   1      37.323  32.396  32.235  1.00  0.00     0.031 C 
ATOM     35  C   UNL A   1      38.463  29.799  28.104  1.00  0.00     0.029 A 
ATOM     36  N   UNL A   1      39.763  29.493  29.899  1.00  0.00    -0.354 N 
ATOM     37  C   UNL A   1      38.955  31.547  33.597  1.00  0.00     0.074 A 
ATOM     38  C   UNL A   1      37.805  32.418  33.469  1.00  0.00     0.031 C 
ATOM     39  C   UNL A   1      39.365  28.851  27.796  1.00  0.00     0.029 A 
ATOM     40  C   UNL A   1      40.261  28.651  28.934  1.00  0.00     0.049 A 
ATOM     41  H   UNL A   1      40.136  29.551  30.808  1.00  0.00     0.167 HD
ATOM     42  C   UNL A   1      39.650  31.364  34.745  1.00  0.00     0.037 A 
ATOM     43  C   UNL A   1      41.335  27.835  28.961  1.00  0.00     0.037 A 
ATOM     44  C   UNL A   1      40.808  30.520  34.873  1.00  0.00     0.049 A 
ATOM     45  C   UNL A   1      42.165  27.744  30.218  1.00  0.00     0.074 A 
ATOM     46  C   UNL A   1      41.609  30.314  35.982  1.00  0.00     0.029 A 
ATOM     47  N   UNL A   1      41.335  29.745  33.851  1.00  0.00    -0.354 N 
ATOM     48  N   UNL A   1      41.969  28.308  31.385  1.00  0.00    -0.248 NA
ATOM     49  C   UNL A   1      43.373  26.906  30.158  1.00  0.00     0.031 C 
ATOM     50  C   UNL A   1      42.650  29.452  35.618  1.00  0.00     0.029 A 
ATOM     51  C   UNL A   1      42.466  29.078  34.296  1.00  0.00     0.049 A 
ATOM     52  H   UNL A   1      40.962  29.678  32.942  1.00  0.00     0.167 HD
ATOM     53  C   UNL A   1      43.007  27.872  32.201  1.00  0.00     0.074 A 
ATOM     54  C   UNL A   1      43.823  26.984  31.401  1.00  0.00     0.031 C 
ATOM     55  C   UNL A   1      43.262  28.183  33.495  1.00  0.00     0.037 A 
BRANCH  42  56
ATOM     56  C   UNL A   1      39.207  32.145  35.945  1.00  0.00     0.064 A 
ATOM     57  C   UNL A   1      39.664  33.449  36.187  1.00  0.00     0.173 A 
ATOM     58  C   UNL A   1      38.303  31.583  36.859  1.00  0.00     0.173 A 
ATOM     59  F   UNL A   1      40.546  34.022  35.354  1.00  0.00    -0.203 F 
ATOM     60  C   UNL A   1      39.246  34.154  37.314  1.00  0.00     0.198 A 
ATOM     61  C   UNL A   1      37.869  32.299  37.970  1.00  0.00     0.198 A 
ATOM     62  F   UNL A   1      37.839  30.339  36.670  1.00  0.00    -0.203 F 
ATOM     63  F   UNL A   1      39.730  35.381  37.552  1.00  0.00    -0.200 F 
ATOM     64  C   UNL A   1      38.346  33.581  38.201  1.00  0.00     0.200 A 
ATOM     65  F   UNL A   1      36.994  31.746  38.821  1.00  0.00    -0.200 F 
ATOM     66  F   UNL A   1      37.946  34.260  39.285  1.00  0.00    -0.200 F 
ENDBRANCH  42  56
BRANCH  43  67
ATOM     67  C   UNL A   1      41.727  27.068  27.747  1.00  0.00     0.064 A 
ATOM     68  C   UNL A   1      41.291  25.751  27.543  1.00  0.00     0.173 A 
ATOM     69  C   UNL A   1      42.601  27.618  26.796  1.00  0.00     0.173 A 
ATOM     70  F   UNL A   1      40.485  25.166  28.440  1.00  0.00    -0.203 F 
ATOM     71  C   UNL A   1      41.734  25.006  26.449  1.00  0.00     0.198 A 
ATOM     72  C   UNL A   1      43.016  26.885  25.687  1.00  0.00     0.198 A 
ATOM     73  F   UNL A   1      43.059  28.869  26.948  1.00  0.00    -0.203 F 
ATOM     74  F   UNL A   1      41.353  23.729  26.314  1.00  0.00    -0.200 F 
ATOM     75  C   UNL A   1      42.591  25.575  25.520  1.00  0.00     0.200 A 
ATOM     76  F   UNL A   1      43.841  27.441  24.790  1.00  0.00    -0.200 F 
ATOM     77  F   UNL A   1      43.024  24.857  24.475  1.00  0.00    -0.200 F 
ENDBRANCH  43  67
BRANCH  55  78
ATOM     78  C   UNL A   1      44.448  27.531  34.146  1.00  0.00     0.064 A 
ATOM     79  C   UNL A   1      45.699  28.162  34.203  1.00  0.00     0.173 A 
ATOM     80  C   UNL A   1      44.318  26.276  34.762  1.00  0.00     0.173 A 
ATOM     81  F   UNL A   1      45.881  29.355  33.618  1.00  0.00    -0.203 F 
ATOM     82  C   UNL A   1      46.782  27.550  34.831  1.00  0.00     0.198 A 
ATOM     83  C   UNL A   1      45.394  25.681  35.415  1.00  0.00     0.198 A 
ATOM     84  F   UNL A   1      43.141  25.633  34.745  1.00  0.00    -0.203 F 
ATOM     85  F   UNL A   1      47.979  28.152  34.834  1.00  0.00    -0.200 F 
ATOM     86  C   UNL A   1      46.627  26.315  35.443  1.00  0.00     0.200 A 
ATOM     87  F   UNL A   1      45.239  24.494  36.018  1.00  0.00    -0.200 F 
ATOM     88  F   UNL A   1      47.668  25.733  36.055  1.00  0.00    -0.200 F 
ENDBRANCH  55  78
ENDBRANCH  29  30
ENDBRANCH  22  24
ENDBRANCH  21  22
ENDBRANCH  20  21
ENDBRANCH  19  20
ENDBRANCH  18  19
ENDBRANCH   1  18
TORSDOF 17
ENDMDL
MODEL 2
REMARK VINA RESULT:     -10.2      0.987      7.399
REMARK SMILES COC[C@@H](C)CC(=O)N1CCCC[C@@H]1CC(=O)OCCOC(=O)c1ccc(-c2c3nc(c(-c4c(F)c(F)c(F)c(F)c4F)c4ccc([nH]4)c(-c4c(F)c(F)c(F)c(F)c4F)c4nc(c(-c5c(F)c(F)c(F)c(F)c5F)c5ccc2[nH]5)C=C4)C=C3)cc1
REMARK SMILES IDX 16 1 17 2 15 3 14 4 9 5 10 6 11 7 13 8 12 9 7 10 8 11 6 12
REMARK SMILES IDX 4 13 5 14 3 15 2 16 1 17 18 18 19 19 20 20 21 21 22 22 23 23
REMARK SMILES IDX 24 24 25 25 86 26 26 27 85 28 27 29 28 30 29 31 79 32 30 33
REMARK SMILES IDX 84 34 78 35 80 36 31 37 83 38 77 39 76 40 32 42 64 43 44 44
REMARK SMILES IDX 63 45 45 46 48 47 62 48 81 49 46 50 47 51 61 53 82 54 49 55
REMARK SMILES IDX 33 56 34 57 42 58 35 59 36 60 40 61 43 62 37 63 38 64 41 65
REMARK SMILES IDX 39 66 65 67 66 68 74 69 67 70 68 71 72 72 75 73 69 74 70 75
REMARK SMILES IDX 73 76 71 77 50 78 51 79 59 80 52 81 53 82 57 83 60 84 54 85
REMARK SMILES IDX 55 86 58 87 56 88
REMARK H PARENT 80 41 48 52
REMARK Flexibility Score: inf
ROOT
ATOM      1  C   UNL A   1      33.435  29.471  26.592  1.00  0.00     0.307 C 
ATOM      2  O   UNL A   1      34.645  29.379  26.753  1.00  0.00    -0.252 OA
ENDROOT
BRANCH   1   3
ATOM      3  C   UNL A   1      32.689  28.638  25.571  1.00  0.00     0.147 C 
BRANCH   3   4
ATOM      4  C   UNL A   1      33.547  27.595  24.824  1.00  0.00     0.096 C 
ATOM      5  N   UNL A   1      33.106  27.300  23.438  1.00  0.00    -0.339 N 
ATOM      6  C   UNL A   1      33.691  26.150  22.762  1.00  0.00     0.120 C 
ATOM      7  C   UNL A   1      33.560  24.887  23.601  1.00  0.00     0.022 C 
ATOM      8  C   UNL A   1      33.551  26.294  25.667  1.00  0.00     0.026 C 
ATOM      9  C   UNL A   1      34.200  25.107  24.965  1.00  0.00     0.004 C 
BRANCH   5  10
ATOM     10  C   UNL A   1      32.230  28.086  22.714  1.00  0.00     0.223 C 
ATOM     11  O   UNL A   1      32.495  29.250  22.424  1.00  0.00    -0.275 OA
BRANCH  10  12
ATOM     12  C   UNL A   1      30.881  27.455  22.392  1.00  0.00     0.106 C 
BRANCH  12  13
ATOM     13  C   UNL A   1      29.805  27.834  23.427  1.00  0.00     0.021 C 
ATOM     14  C   UNL A   1      29.155  26.585  24.035  1.00  0.00     0.010 C 
BRANCH  13  15
ATOM     15  C   UNL A   1      28.706  28.691  22.788  1.00  0.00     0.163 C 
BRANCH  15  16
ATOM     16  O   UNL A   1      29.214  29.343  21.631  1.00  0.00    -0.384 OA
ATOM     17  C   UNL A   1      28.856  30.718  21.576  1.00  0.00     0.194 C 
ENDBRANCH  15  16
ENDBRANCH  13  15
ENDBRANCH  12  13
ENDBRANCH  10  12
ENDBRANCH   5  10
ENDBRANCH   3   4
ENDBRANCH   1   3
BRANCH   1  18
ATOM     18  O   UNL A   1      32.644  30.363  27.240  1.00  0.00    -0.462 OA
BRANCH  18  19
ATOM     19  C   UNL A   1      31.772  31.164  26.417  1.00  0.00     0.274 C 
BRANCH  19  20
ATOM     20  C   UNL A   1      31.728  32.609  26.913  1.00  0.00     0.275 C 
BRANCH  20  21
ATOM     21  O   UNL A   1      33.033  33.221  26.878  1.00  0.00    -0.458 OA
BRANCH  21  22
ATOM     22  C   UNL A   1      33.387  33.893  27.996  1.00  0.00     0.338 C 
ATOM     23  O   UNL A   1      32.771  34.805  28.534  1.00  0.00    -0.246 OA
BRANCH  22  24
ATOM     24  C   UNL A   1      34.590  33.289  28.603  1.00  0.00     0.060 A 
ATOM     25  C   UNL A   1      34.397  32.163  29.406  1.00  0.00     0.016 A 
ATOM     26  C   UNL A   1      35.873  33.826  28.447  1.00  0.00     0.016 A 
ATOM     27  C   UNL A   1      35.482  31.545  30.025  1.00  0.00     0.010 A 
ATOM     28  C   UNL A   1      36.961  33.219  29.095  1.00  0.00     0.010 A 
ATOM     29  C   UNL A   1      36.772  32.071  29.884  1.00  0.00    -0.014 A 
BRANCH  29  30
ATOM     30  C   UNL A   1      37.877  31.454  30.658  1.00  0.00     0.031 A 
ATOM     31  C   UNL A   1      38.768  30.447  29.989  1.00  0.00     0.074 A 
ATOM     32  C   UNL A   1      38.156  31.864  31.909  1.00  0.00     0.049 A 
ATOM     33  N   UNL A   1      39.799  29.800  30.468  1.00  0.00    -0.248 NA
ATOM     34  C   UNL A   1      38.470  30.150  28.580  1.00  0.00     0.031 C 
ATOM     35  C   UNL A   1      37.436  32.910  32.632  1.00  0.00     0.029 A 
ATOM     36  N   UNL A   1      39.134  31.461  32.785  1.00  0.00    -0.354 N 
ATOM     37  C   UNL A   1      40.276  29.023  29.423  1.00  0.00     0.074 A 
ATOM     38  C   UNL A   1      39.417  29.271  28.284  1.00  0.00     0.031 C 
ATOM     39  C   UNL A   1      37.997  33.066  33.845  1.00  0.00     0.029 A 
ATOM     40  C   UNL A   1      39.087  32.104  33.998  1.00  0.00     0.049 A 
ATOM     41  H   UNL A   1      39.806  30.776  32.564  1.00  0.00     0.167 HD
ATOM     42  C   UNL A   1      41.333  28.175  29.413  1.00  0.00     0.037 A 
ATOM     43  C   UNL A   1      39.825  31.917  35.111  1.00  0.00     0.037 A 
ATOM     44  C   UNL A   1      42.174  27.906  30.548  1.00  0.00     0.049 A 
ATOM     45  C   UNL A   1      40.918  30.876  35.111  1.00  0.00     0.074 A 
ATOM     46  C   UNL A   1      43.234  27.022  30.647  1.00  0.00     0.029 A 
ATOM     47  N   UNL A   1      42.046  28.515  31.787  1.00  0.00    -0.354 N 
ATOM     48  N   UNL A   1      41.345  30.122  34.126  1.00  0.00    -0.248 NA
ATOM     49  C   UNL A   1      41.628  30.656  36.380  1.00  0.00     0.031 C 
ATOM     50  C   UNL A   1      43.717  27.061  31.961  1.00  0.00     0.029 A 
ATOM     51  C   UNL A   1      42.991  28.009  32.665  1.00  0.00     0.049 A 
ATOM     52  H   UNL A   1      41.380  29.205  32.012  1.00  0.00     0.167 HD
ATOM     53  C   UNL A   1      42.386  29.363  34.648  1.00  0.00     0.074 A 
ATOM     54  C   UNL A   1      42.538  29.758  36.032  1.00  0.00     0.031 C 
ATOM     55  C   UNL A   1      43.144  28.421  34.037  1.00  0.00     0.037 A 
BRANCH  42  56
ATOM     56  C   UNL A   1      41.598  27.428  28.141  1.00  0.00     0.064 A 
ATOM     57  C   UNL A   1      42.505  27.901  27.182  1.00  0.00     0.173 A 
ATOM     58  C   UNL A   1      40.941  26.215  27.885  1.00  0.00     0.173 A 
ATOM     59  F   UNL A   1      43.142  29.067  27.371  1.00  0.00    -0.203 F 
ATOM     60  C   UNL A   1      42.729  27.196  26.002  1.00  0.00     0.198 A 
ATOM     61  C   UNL A   1      41.186  25.500  26.717  1.00  0.00     0.198 A 
ATOM     62  F   UNL A   1      40.064  25.722  28.773  1.00  0.00    -0.203 F 
ATOM     63  F   UNL A   1      43.565  27.688  25.077  1.00  0.00    -0.200 F 
ATOM     64  C   UNL A   1      42.074  25.995  25.773  1.00  0.00     0.200 A 
ATOM     65  F   UNL A   1      40.558  24.337  26.501  1.00  0.00    -0.200 F 
ATOM     66  F   UNL A   1      42.290  25.317  24.637  1.00  0.00    -0.200 F 
ENDBRANCH  42  56
BRANCH  43  67
ATOM     67  C   UNL A   1      39.532  32.694  36.348  1.00  0.00     0.064 A 
ATOM     68  C   UNL A   1      38.527  32.296  37.240  1.00  0.00     0.173 A 
ATOM     69  C   UNL A   1      40.214  33.889  36.627  1.00  0.00     0.173 A 
ATOM     70  F   UNL A   1      37.822  31.181  37.000  1.00  0.00    -0.203 F 
ATOM     71  C   UNL A   1      38.197  33.076  38.349  1.00  0.00     0.198 A 
ATOM     72  C   UNL A   1      39.906  34.650  37.752  1.00  0.00     0.198 A 
ATOM     73  F   UNL A   1      41.176  34.323  35.800  1.00  0.00    -0.203 F 
ATOM     74  F   UNL A   1      37.189  32.705  39.149  1.00  0.00    -0.200 F 
ATOM     75  C   UNL A   1      38.890  34.249  38.607  1.00  0.00     0.200 A 
ATOM     76  F   UNL A   1      40.582  35.780  37.998  1.00  0.00    -0.200 F 
ATOM     77  F   UNL A   1      38.567  35.003  39.666  1.00  0.00    -0.200 F 
ENDBRANCH  43  67
BRANCH  55  78
ATOM     78  C   UNL A   1      44.237  27.778  34.842  1.00  0.00     0.064 A 
ATOM     79  C   UNL A   1      45.516  28.347  34.940  1.00  0.00     0.173 A 
ATOM     80  C   UNL A   1      43.987  26.600  35.563  1.00  0.00     0.173 A 
ATOM     81  F   UNL A   1      45.811  29.465  34.259  1.00  0.00    -0.203 F 
ATOM     82  C   UNL A   1      46.510  27.747  35.709  1.00  0.00     0.198 A 
ATOM     83  C   UNL A   1      44.974  26.020  36.355  1.00  0.00     0.198 A 
ATOM     84  F   UNL A   1      42.780  26.019  35.512  1.00  0.00    -0.203 F 
ATOM     85  F   UNL A   1      47.736  28.285  35.751  1.00  0.00    -0.200 F 
ATOM     86  C   UNL A   1      46.237  26.590  36.422  1.00  0.00     0.200 A 
ATOM     87  F   UNL A   1      44.704  24.909  37.055  1.00  0.00    -0.200 F 
ATOM     88  F   UNL A   1      47.192  26.019  37.170  1.00  0.00    -0.200 F 
ENDBRANCH  55  78
ENDBRANCH  29  30
ENDBRANCH  22  24
ENDBRANCH  21  22
ENDBRANCH  20  21
ENDBRANCH  19  20
ENDBRANCH  18  19
ENDBRANCH   1  18
TORSDOF 17
ENDMDL
MODEL 3
REMARK VINA RESULT:     -10.0      1.180      2.610
REMARK SMILES COC[C@@H](C)CC(=O)N1CCCC[C@@H]1CC(=O)OCCOC(=O)c1ccc(-c2c3nc(c(-c4c(F)c(F)c(F)c(F)c4F)c4ccc([nH]4)c(-c4c(F)c(F)c(F)c(F)c4F)c4nc(c(-c5c(F)c(F)c(F)c(F)c5F)c5ccc2[nH]5)C=C4)C=C3)cc1
REMARK SMILES IDX 16 1 17 2 15 3 14 4 9 5 10 6 11 7 13 8 12 9 7 10 8 11 6 12
REMARK SMILES IDX 4 13 5 14 3 15 2 16 1 17 18 18 19 19 20 20 21 21 22 22 23 23
REMARK SMILES IDX 24 24 25 25 86 26 26 27 85 28 27 29 28 30 29 31 79 32 30 33
REMARK SMILES IDX 84 34 78 35 80 36 31 37 83 38 77 39 76 40 32 42 64 43 44 44
REMARK SMILES IDX 63 45 45 46 48 47 62 48 81 49 46 50 47 51 61 53 82 54 49 55
REMARK SMILES IDX 33 56 34 57 42 58 35 59 36 60 40 61 43 62 37 63 38 64 41 65
REMARK SMILES IDX 39 66 65 67 66 68 74 69 67 70 68 71 72 72 75 73 69 74 70 75
REMARK SMILES IDX 73 76 71 77 50 78 51 79 59 80 52 81 53 82 57 83 60 84 54 85
REMARK SMILES IDX 55 86 58 87 56 88
REMARK H PARENT 80 41 48 52
REMARK Flexibility Score: inf
ROOT
ATOM      1  C   UNL A   1      32.735  29.005  27.072  1.00  0.00     0.307 C 
ATOM      2  O   UNL A   1      33.937  29.129  27.268  1.00  0.00    -0.252 OA
ENDROOT
BRANCH   1   3
ATOM      3  C   UNL A   1      32.134  27.734  26.509  1.00  0.00     0.147 C 
BRANCH   3   4
ATOM      4  C   UNL A   1      31.179  27.934  25.314  1.00  0.00     0.096 C 
ATOM      5  N   UNL A   1      30.505  26.700  24.839  1.00  0.00    -0.339 N 
ATOM      6  C   UNL A   1      29.800  26.751  23.564  1.00  0.00     0.120 C 
ATOM      7  C   UNL A   1      30.696  27.283  22.456  1.00  0.00     0.022 C 
ATOM      8  C   UNL A   1      31.994  28.572  24.159  1.00  0.00     0.026 C 
ATOM      9  C   UNL A   1      31.233  28.655  22.840  1.00  0.00     0.004 C 
BRANCH   5  10
ATOM     10  C   UNL A   1      30.437  25.523  25.557  1.00  0.00     0.223 C 
ATOM     11  O   UNL A   1      29.681  25.394  26.516  1.00  0.00    -0.275 OA
BRANCH  10  12
ATOM     12  C   UNL A   1      31.429  24.438  25.153  1.00  0.00     0.106 C 
BRANCH  12  13
ATOM     13  C   UNL A   1      32.206  23.887  26.363  1.00  0.00     0.021 C 
ATOM     14  C   UNL A   1      33.706  24.184  26.242  1.00  0.00     0.010 C 
BRANCH  13  15
ATOM     15  C   UNL A   1      32.020  22.370  26.490  1.00  0.00     0.163 C 
BRANCH  15  16
ATOM     16  O   UNL A   1      33.289  21.728  26.502  1.00  0.00    -0.384 OA
ATOM     17  C   UNL A   1      33.299  20.522  25.748  1.00  0.00     0.194 C 
ENDBRANCH  15  16
ENDBRANCH  13  15
ENDBRANCH  12  13
ENDBRANCH  10  12
ENDBRANCH   5  10
ENDBRANCH   3   4
ENDBRANCH   1   3
BRANCH   1  18
ATOM     18  O   UNL A   1      31.825  29.993  27.262  1.00  0.00    -0.462 OA
BRANCH  18  19
ATOM     19  C   UNL A   1      31.962  31.160  26.425  1.00  0.00     0.274 C 
BRANCH  19  20
ATOM     20  C   UNL A   1      31.741  32.440  27.232  1.00  0.00     0.275 C 
BRANCH  20  21
ATOM     21  O   UNL A   1      32.808  33.387  27.024  1.00  0.00    -0.458 OA
BRANCH  21  22
ATOM     22  C   UNL A   1      33.253  34.010  28.138  1.00  0.00     0.338 C 
ATOM     23  O   UNL A   1      32.689  34.903  28.759  1.00  0.00    -0.246 OA
BRANCH  22  24
ATOM     24  C   UNL A   1      34.493  33.373  28.625  1.00  0.00     0.060 A 
ATOM     25  C   UNL A   1      34.380  32.081  29.141  1.00  0.00     0.016 A 
ATOM     26  C   UNL A   1      35.731  34.025  28.635  1.00  0.00     0.016 A 
ATOM     27  C   UNL A   1      35.503  31.418  29.634  1.00  0.00     0.010 A 
ATOM     28  C   UNL A   1      36.856  33.367  29.158  1.00  0.00     0.010 A 
ATOM     29  C   UNL A   1      36.749  32.057  29.655  1.00  0.00    -0.014 A 
BRANCH  29  30
ATOM     30  C   UNL A   1      37.891  31.361  30.299  1.00  0.00     0.031 A 
ATOM     31  C   UNL A   1      38.186  31.622  31.748  1.00  0.00     0.074 A 
ATOM     32  C   UNL A   1      38.591  30.424  29.634  1.00  0.00     0.049 A 
ATOM     33  N   UNL A   1      39.118  31.113  32.512  1.00  0.00    -0.248 NA
ATOM     34  C   UNL A   1      37.292  32.566  32.434  1.00  0.00     0.031 C 
ATOM     35  C   UNL A   1      38.336  29.999  28.259  1.00  0.00     0.029 A 
ATOM     36  N   UNL A   1      39.650  29.646  30.035  1.00  0.00    -0.354 N 
ATOM     37  C   UNL A   1      38.922  31.669  33.768  1.00  0.00     0.074 A 
ATOM     38  C   UNL A   1      37.788  32.563  33.663  1.00  0.00     0.031 C 
ATOM     39  C   UNL A   1      39.217  29.038  27.930  1.00  0.00     0.029 A 
ATOM     40  C   UNL A   1      40.121  28.807  29.055  1.00  0.00     0.049 A 
ATOM     41  H   UNL A   1      40.034  29.685  30.941  1.00  0.00     0.167 HD
ATOM     42  C   UNL A   1      39.627  31.458  34.905  1.00  0.00     0.037 A 
ATOM     43  C   UNL A   1      41.179  27.971  29.060  1.00  0.00     0.037 A 
ATOM     44  C   UNL A   1      40.770  30.590  35.009  1.00  0.00     0.049 A 
ATOM     45  C   UNL A   1      42.022  27.847  30.305  1.00  0.00     0.074 A 
ATOM     46  C   UNL A   1      41.579  30.355  36.107  1.00  0.00     0.029 A 
ATOM     47  N   UNL A   1      41.270  29.818  33.972  1.00  0.00    -0.354 N 
ATOM     48  N   UNL A   1      41.849  28.400  31.482  1.00  0.00    -0.248 NA
ATOM     49  C   UNL A   1      43.212  26.987  30.221  1.00  0.00     0.031 C 
ATOM     50  C   UNL A   1      42.599  29.478  35.720  1.00  0.00     0.029 A 
ATOM     51  C   UNL A   1      42.393  29.124  34.396  1.00  0.00     0.049 A 
ATOM     52  H   UNL A   1      40.886  29.770  33.066  1.00  0.00     0.167 HD
ATOM     53  C   UNL A   1      42.887  27.935  32.280  1.00  0.00     0.074 A 
ATOM     54  C   UNL A   1      43.677  27.041  31.461  1.00  0.00     0.031 C 
ATOM     55  C   UNL A   1      43.162  28.225  33.575  1.00  0.00     0.037 A 
BRANCH  42  56
ATOM     56  C   UNL A   1      39.212  32.232  36.120  1.00  0.00     0.064 A 
ATOM     57  C   UNL A   1      39.733  33.505  36.397  1.00  0.00     0.173 A 
ATOM     58  C   UNL A   1      38.271  31.696  37.011  1.00  0.00     0.173 A 
ATOM     59  F   UNL A   1      40.652  34.051  35.587  1.00  0.00    -0.203 F 
ATOM     60  C   UNL A   1      39.341  34.204  37.537  1.00  0.00     0.198 A 
ATOM     61  C   UNL A   1      37.863  32.408  38.135  1.00  0.00     0.198 A 
ATOM     62  F   UNL A   1      37.745  30.482  36.788  1.00  0.00    -0.203 F 
ATOM     63  F   UNL A   1      39.884  35.397  37.809  1.00  0.00    -0.200 F 
ATOM     64  C   UNL A   1      38.403  33.657  38.401  1.00  0.00     0.200 A 
ATOM     65  F   UNL A   1      36.952  31.881  38.965  1.00  0.00    -0.200 F 
ATOM     66  F   UNL A   1      38.027  34.330  39.498  1.00  0.00    -0.200 F 
ENDBRANCH  42  56
BRANCH  43  67
ATOM     67  C   UNL A   1      41.543  27.211  27.831  1.00  0.00     0.064 A 
ATOM     68  C   UNL A   1      41.065  25.912  27.608  1.00  0.00     0.173 A 
ATOM     69  C   UNL A   1      42.431  27.748  26.887  1.00  0.00     0.173 A 
ATOM     70  F   UNL A   1      40.243  25.338  28.498  1.00  0.00    -0.203 F 
ATOM     71  C   UNL A   1      41.480  25.172  26.500  1.00  0.00     0.198 A 
ATOM     72  C   UNL A   1      42.819  27.021  25.764  1.00  0.00     0.198 A 
ATOM     73  F   UNL A   1      42.929  28.981  27.058  1.00  0.00    -0.203 F 
ATOM     74  F   UNL A   1      41.058  23.910  26.345  1.00  0.00    -0.200 F 
ATOM     75  C   UNL A   1      42.353  25.728  25.578  1.00  0.00     0.200 A 
ATOM     76  F   UNL A   1      43.659  27.565  24.874  1.00  0.00    -0.200 F 
ATOM     77  F   UNL A   1      42.759  25.014  24.519  1.00  0.00    -0.200 F 
ENDBRANCH  43  67
BRANCH  55  78
ATOM     78  C   UNL A   1      44.342  27.542  34.205  1.00  0.00     0.064 A 
ATOM     79  C   UNL A   1      45.604  28.153  34.267  1.00  0.00     0.173 A 
ATOM     80  C   UNL A   1      44.198  26.276  34.796  1.00  0.00     0.173 A 
ATOM     81  F   UNL A   1      45.799  29.356  33.705  1.00  0.00    -0.203 F 
ATOM     82  C   UNL A   1      46.681  27.512  34.875  1.00  0.00     0.198 A 
ATOM     83  C   UNL A   1      45.269  25.652  35.428  1.00  0.00     0.198 A 
ATOM     84  F   UNL A   1      43.012  25.651  34.772  1.00  0.00    -0.203 F 
ATOM     85  F   UNL A   1      47.887  28.097  34.882  1.00  0.00    -0.200 F 
ATOM     86  C   UNL A   1      46.512  26.268  35.462  1.00  0.00     0.200 A 
ATOM     87  F   UNL A   1      45.100  24.455  36.007  1.00  0.00    -0.200 F 
ATOM     88  F   UNL A   1      47.548  25.657  36.055  1.00  0.00    -0.200 F 
ENDBRANCH  55  78
ENDBRANCH  29  30
ENDBRANCH  22  24
ENDBRANCH  21  22
ENDBRANCH  20  21
ENDBRANCH  19  20
ENDBRANCH  18  19
ENDBRANCH   1  18
TORSDOF 17
ENDMDL
