MODEL 1
REMARK VINA RESULT:     -12.4      0.000      0.000
REMARK SMILES O=C(OCCOC(=O)[C@]1([NH2+]C2CC2)CCC[C@@H](n2cc(Br)cn2)C1)c1ccc(-c2c3nc(c(-c4c(F)c(F)c(F)c(F)c4F)c4ccc([nH]4)c(-c4c(F)c(F)c(F)c(F)c4F)c4nc(c(-c5c(F)c(F)c(F)c(F)c5F)c5ccc2[nH]5)C=C4)C=C3)cc1
REMARK SMILES IDX 4 1 3 2 2 3 1 4 25 5 26 6 87 7 27 8 86 9 28 10 29 11 30 12
REMARK SMILES IDX 80 13 31 14 85 15 79 16 81 17 32 18 84 19 78 20 77 21 33 23
REMARK SMILES IDX 65 24 45 25 64 26 46 27 49 28 63 29 82 30 47 31 48 32 62 34
REMARK SMILES IDX 83 35 50 36 34 37 35 38 43 39 36 40 37 41 41 42 44 43 38 44
REMARK SMILES IDX 39 45 42 46 40 47 66 48 67 49 75 50 68 51 69 52 73 53 76 54
REMARK SMILES IDX 70 55 71 56 74 57 72 58 51 59 52 60 60 61 53 62 54 63 58 64
REMARK SMILES IDX 61 65 55 66 56 67 59 68 57 69 5 70 6 71 7 72 8 73 9 74 14 75
REMARK SMILES IDX 24 76 15 77 17 78 16 79 10 80 11 83 12 84 13 85 18 86 19 87
REMARK SMILES IDX 23 88 20 89 22 90 21 91
REMARK H PARENT 81 22 49 33 10 81 10 82
REMARK Flexibility Score: inf
ROOT
ATOM      1  C   UNL A   1      32.952  30.525  26.861  1.00  0.00     0.275 C 
ENDROOT
BRANCH   1   2
ATOM      2  O   UNL A   1      33.739  31.208  27.860  1.00  0.00    -0.458 OA
BRANCH   2   3
ATOM      3  C   UNL A   1      34.980  31.735  27.847  1.00  0.00     0.338 C 
ATOM      4  O   UNL A   1      35.102  32.900  27.465  1.00  0.00    -0.246 OA
BRANCH   3   5
ATOM      5  C   UNL A   1      36.216  31.069  28.361  1.00  0.00     0.060 A 
ATOM      6  C   UNL A   1      37.343  31.719  28.866  1.00  0.00     0.016 A 
ATOM      7  C   UNL A   1      36.299  29.674  28.146  1.00  0.00     0.016 A 
ATOM      8  C   UNL A   1      38.520  31.003  29.114  1.00  0.00     0.010 A 
ATOM      9  C   UNL A   1      37.482  28.964  28.352  1.00  0.00     0.010 A 
ATOM     10  C   UNL A   1      38.606  29.638  28.812  1.00  0.00    -0.014 A 
BRANCH  10  11
ATOM     11  C   UNL A   1      39.864  28.939  29.086  1.00  0.00     0.031 A 
ATOM     12  C   UNL A   1      40.178  28.788  30.535  1.00  0.00     0.074 A 
ATOM     13  C   UNL A   1      40.661  28.395  28.136  1.00  0.00     0.049 A 
ATOM     14  N   UNL A   1      41.168  29.309  31.183  1.00  0.00    -0.248 NA
ATOM     15  C   UNL A   1      39.241  28.045  31.389  1.00  0.00     0.031 C 
ATOM     16  C   UNL A   1      40.342  28.190  26.720  1.00  0.00     0.029 A 
ATOM     17  N   UNL A   1      41.906  27.831  28.250  1.00  0.00    -0.354 N 
ATOM     18  C   UNL A   1      41.084  28.827  32.491  1.00  0.00     0.074 A 
ATOM     19  C   UNL A   1      39.818  28.152  32.590  1.00  0.00     0.031 C 
ATOM     20  C   UNL A   1      41.262  27.368  26.164  1.00  0.00     0.029 A 
ATOM     21  C   UNL A   1      42.312  27.102  27.135  1.00  0.00     0.049 A 
ATOM     22  H   UNL A   1      42.466  27.933  29.054  1.00  0.00     0.167 HD
ATOM     23  C   UNL A   1      42.181  28.836  33.302  1.00  0.00     0.037 A 
ATOM     24  C   UNL A   1      43.413  26.315  27.024  1.00  0.00     0.037 A 
ATOM     25  C   UNL A   1      43.220  29.658  32.747  1.00  0.00     0.049 A 
ATOM     26  C   UNL A   1      44.400  26.758  28.034  1.00  0.00     0.074 A 
ATOM     27  C   UNL A   1      43.629  30.967  32.793  1.00  0.00     0.029 A 
ATOM     28  N   UNL A   1      43.887  29.057  31.719  1.00  0.00    -0.354 N 
ATOM     29  N   UNL A   1      45.025  27.899  27.979  1.00  0.00    -0.248 NA
ATOM     30  C   UNL A   1      44.484  26.055  29.309  1.00  0.00     0.031 C 
ATOM     31  C   UNL A   1      44.461  31.167  31.650  1.00  0.00     0.029 A 
ATOM     32  C   UNL A   1      44.605  29.954  30.985  1.00  0.00     0.049 A 
ATOM     33  H   UNL A   1      43.853  28.092  31.531  1.00  0.00     0.167 HD
ATOM     34  C   UNL A   1      45.188  28.254  29.300  1.00  0.00     0.074 A 
ATOM     35  C   UNL A   1      45.019  27.022  30.060  1.00  0.00     0.031 C 
ATOM     36  C   UNL A   1      45.097  29.558  29.688  1.00  0.00     0.037 A 
BRANCH  23  37
ATOM     37  C   UNL A   1      42.564  27.757  34.301  1.00  0.00     0.064 A 
ATOM     38  C   UNL A   1      43.093  26.539  33.809  1.00  0.00     0.173 A 
ATOM     39  C   UNL A   1      42.087  27.715  35.626  1.00  0.00     0.173 A 
ATOM     40  F   UNL A   1      43.592  26.460  32.566  1.00  0.00    -0.203 F 
ATOM     41  C   UNL A   1      43.034  25.352  34.545  1.00  0.00     0.198 A 
ATOM     42  C   UNL A   1      42.073  26.535  36.374  1.00  0.00     0.198 A 
ATOM     43  F   UNL A   1      41.514  28.774  36.207  1.00  0.00    -0.203 F 
ATOM     44  F   UNL A   1      43.421  24.198  33.983  1.00  0.00    -0.200 F 
ATOM     45  C   UNL A   1      42.509  25.347  35.821  1.00  0.00     0.200 A 
ATOM     46  F   UNL A   1      41.548  26.545  37.607  1.00  0.00    -0.200 F 
ATOM     47  F   UNL A   1      42.383  24.201  36.502  1.00  0.00    -0.200 F 
ENDBRANCH  23  37
BRANCH  24  48
ATOM     48  C   UNL A   1      43.612  25.058  26.258  1.00  0.00     0.064 A 
ATOM     49  C   UNL A   1      44.632  24.940  25.294  1.00  0.00     0.173 A 
ATOM     50  C   UNL A   1      43.015  23.858  26.681  1.00  0.00     0.173 A 
ATOM     51  F   UNL A   1      45.283  26.029  24.860  1.00  0.00    -0.203 F 
ATOM     52  C   UNL A   1      45.057  23.693  24.821  1.00  0.00     0.198 A 
ATOM     53  C   UNL A   1      43.437  22.614  26.205  1.00  0.00     0.198 A 
ATOM     54  F   UNL A   1      42.082  23.859  27.644  1.00  0.00    -0.203 F 
ATOM     55  F   UNL A   1      46.083  23.616  23.961  1.00  0.00    -0.200 F 
ATOM     56  C   UNL A   1      44.469  22.530  25.289  1.00  0.00     0.200 A 
ATOM     57  F   UNL A   1      42.885  21.494  26.695  1.00  0.00    -0.200 F 
ATOM     58  F   UNL A   1      44.925  21.332  24.895  1.00  0.00    -0.200 F 
ENDBRANCH  24  48
BRANCH  36  59
ATOM     59  C   UNL A   1      45.371  30.613  28.667  1.00  0.00     0.064 A 
ATOM     60  C   UNL A   1      44.415  31.137  27.782  1.00  0.00     0.173 A 
ATOM     61  C   UNL A   1      46.663  31.154  28.619  1.00  0.00     0.173 A 
ATOM     62  F   UNL A   1      43.136  30.739  27.828  1.00  0.00    -0.203 F 
ATOM     63  C   UNL A   1      44.759  32.119  26.854  1.00  0.00     0.198 A 
ATOM     64  C   UNL A   1      46.991  32.166  27.725  1.00  0.00     0.198 A 
ATOM     65  F   UNL A   1      47.609  30.719  29.468  1.00  0.00    -0.203 F 
ATOM     66  F   UNL A   1      43.839  32.581  25.995  1.00  0.00    -0.200 F 
ATOM     67  C   UNL A   1      46.044  32.636  26.831  1.00  0.00     0.200 A 
ATOM     68  F   UNL A   1      48.222  32.695  27.742  1.00  0.00    -0.200 F 
ATOM     69  F   UNL A   1      46.367  33.602  25.960  1.00  0.00    -0.200 F 
ENDBRANCH  36  59
ENDBRANCH  10  11
ENDBRANCH   3   5
ENDBRANCH   2   3
ENDBRANCH   1   2
BRANCH   1  70
ATOM     70  C   UNL A   1      32.712  29.074  27.235  1.00  0.00     0.274 C 
BRANCH  70  71
ATOM     71  O   UNL A   1      32.055  28.439  26.131  1.00  0.00    -0.457 OA
BRANCH  71  72
ATOM     72  C   UNL A   1      32.443  27.176  25.823  1.00  0.00     0.368 C 
ATOM     73  O   UNL A   1      33.585  26.748  26.013  1.00  0.00    -0.245 OA
BRANCH  72  74
ATOM     74  C   UNL A   1      31.311  26.374  25.114  1.00  0.00     0.196 C 
ATOM     75  C   UNL A   1      31.945  25.588  23.943  1.00  0.00     0.081 C 
ATOM     76  C   UNL A   1      30.170  27.277  24.555  1.00  0.00     0.108 C 
ATOM     77  C   UNL A   1      32.396  26.497  22.796  1.00  0.00     0.009 C 
ATOM     78  C   UNL A   1      30.616  28.168  23.383  1.00  0.00     0.114 C 
ATOM     79  C   UNL A   1      31.242  27.335  22.259  1.00  0.00     0.028 C 
BRANCH  74  80
ATOM     80  N   UNL A   1      30.655  25.464  26.103  1.00  0.00    -0.330 N 
ATOM     81  H   UNL A   1      29.647  25.605  26.036  1.00  0.00     0.347 HD
ATOM     82  H   UNL A   1      31.055  25.710  27.008  1.00  0.00     0.347 HD
BRANCH  80  83
ATOM     83  C   UNL A   1      30.919  24.025  25.935  1.00  0.00     0.183 C 
ATOM     84  C   UNL A   1      31.778  23.295  26.927  1.00  0.00     0.071 C 
ATOM     85  C   UNL A   1      30.297  23.070  26.921  1.00  0.00     0.071 C 
ENDBRANCH  80  83
ENDBRANCH  74  80
BRANCH  78  86
ATOM     86  N   UNL A   1      29.550  29.058  22.933  1.00  0.00    -0.268 N 
ATOM     87  C   UNL A   1      29.740  30.172  22.159  1.00  0.00     0.124 A 
ATOM     88  N   UNL A   1      28.247  28.754  23.119  1.00  0.00    -0.180 NA
ATOM     89  C   UNL A   1      28.493  30.529  21.727  1.00  0.00     0.055 A 
ATOM     90  C   UNL A   1      27.605  29.643  22.347  1.00  0.00     0.150 A 
ATOM     91  Br  UNL A   1      28.059  31.871  20.509  1.00  0.00    -0.047 Br
ENDBRANCH  78  86
ENDBRANCH  72  74
ENDBRANCH  71  72
ENDBRANCH  70  71
ENDBRANCH   1  70
TORSDOF 14
ENDMDL
MODEL 2
REMARK VINA RESULT:     -12.3      6.256     11.703
REMARK SMILES O=C(OCCOC(=O)[C@]1([NH2+]C2CC2)CCC[C@@H](n2cc(Br)cn2)C1)c1ccc(-c2c3nc(c(-c4c(F)c(F)c(F)c(F)c4F)c4ccc([nH]4)c(-c4c(F)c(F)c(F)c(F)c4F)c4nc(c(-c5c(F)c(F)c(F)c(F)c5F)c5ccc2[nH]5)C=C4)C=C3)cc1
REMARK SMILES IDX 4 1 3 2 2 3 1 4 25 5 26 6 87 7 27 8 86 9 28 10 29 11 30 12
REMARK SMILES IDX 80 13 31 14 85 15 79 16 81 17 32 18 84 19 78 20 77 21 33 23
REMARK SMILES IDX 65 24 45 25 64 26 46 27 49 28 63 29 82 30 47 31 48 32 62 34
REMARK SMILES IDX 83 35 50 36 34 37 35 38 43 39 36 40 37 41 41 42 44 43 38 44
REMARK SMILES IDX 39 45 42 46 40 47 66 48 67 49 75 50 68 51 69 52 73 53 76 54
REMARK SMILES IDX 70 55 71 56 74 57 72 58 51 59 52 60 60 61 53 62 54 63 58 64
REMARK SMILES IDX 61 65 55 66 56 67 59 68 57 69 5 70 6 71 7 72 8 73 9 74 14 75
REMARK SMILES IDX 24 76 15 77 17 78 16 79 10 80 11 83 12 84 13 85 18 86 19 87
REMARK SMILES IDX 23 88 20 89 22 90 21 91
REMARK H PARENT 81 22 49 33 10 81 10 82
REMARK Flexibility Score: inf
ROOT
ATOM      1  C   UNL A   1      42.988  22.550  25.169  1.00  0.00     0.275 C 
ENDROOT
BRANCH   1   2
ATOM      2  O   UNL A   1      41.624  22.135  25.395  1.00  0.00    -0.458 OA
BRANCH   2   3
ATOM      3  C   UNL A   1      40.708  22.462  26.329  1.00  0.00     0.338 C 
ATOM      4  O   UNL A   1      39.960  21.570  26.733  1.00  0.00    -0.246 OA
BRANCH   3   5
ATOM      5  C   UNL A   1      40.585  23.791  27.003  1.00  0.00     0.060 A 
ATOM      6  C   UNL A   1      39.906  24.902  26.500  1.00  0.00     0.016 A 
ATOM      7  C   UNL A   1      41.377  23.970  28.161  1.00  0.00     0.016 A 
ATOM      8  C   UNL A   1      40.043  26.152  27.115  1.00  0.00     0.010 A 
ATOM      9  C   UNL A   1      41.550  25.222  28.751  1.00  0.00     0.010 A 
ATOM     10  C   UNL A   1      40.901  26.323  28.209  1.00  0.00    -0.014 A 
BRANCH  10  11
ATOM     11  C   UNL A   1      41.010  27.655  28.809  1.00  0.00     0.031 A 
ATOM     12  C   UNL A   1      42.180  28.447  28.334  1.00  0.00     0.074 A 
ATOM     13  C   UNL A   1      40.106  28.185  29.666  1.00  0.00     0.049 A 
ATOM     14  N   UNL A   1      43.194  28.846  29.028  1.00  0.00    -0.248 NA
ATOM     15  C   UNL A   1      42.285  28.764  26.902  1.00  0.00     0.031 C 
ATOM     16  C   UNL A   1      38.772  27.667  29.984  1.00  0.00     0.029 A 
ATOM     17  N   UNL A   1      40.155  29.354  30.383  1.00  0.00    -0.354 N 
ATOM     18  C   UNL A   1      43.988  29.609  28.170  1.00  0.00     0.074 A 
ATOM     19  C   UNL A   1      43.443  29.428  26.851  1.00  0.00     0.031 C 
ATOM     20  C   UNL A   1      38.067  28.612  30.648  1.00  0.00     0.029 A 
ATOM     21  C   UNL A   1      38.936  29.742  30.932  1.00  0.00     0.049 A 
ATOM     22  H   UNL A   1      40.983  29.874  30.499  1.00  0.00     0.167 HD
ATOM     23  C   UNL A   1      44.883  30.507  28.673  1.00  0.00     0.037 A 
ATOM     24  C   UNL A   1      38.650  30.918  31.551  1.00  0.00     0.037 A 
ATOM     25  C   UNL A   1      45.085  30.293  30.079  1.00  0.00     0.049 A 
ATOM     26  C   UNL A   1      39.919  31.498  32.045  1.00  0.00     0.074 A 
ATOM     27  C   UNL A   1      45.911  29.565  30.899  1.00  0.00     0.029 A 
ATOM     28  N   UNL A   1      44.061  30.765  30.846  1.00  0.00    -0.354 N 
ATOM     29  N   UNL A   1      40.617  30.983  33.017  1.00  0.00    -0.248 NA
ATOM     30  C   UNL A   1      40.602  32.512  31.249  1.00  0.00     0.031 C 
ATOM     31  C   UNL A   1      45.256  29.493  32.165  1.00  0.00     0.029 A 
ATOM     32  C   UNL A   1      44.090  30.251  32.109  1.00  0.00     0.049 A 
ATOM     33  H   UNL A   1      43.381  31.401  30.526  1.00  0.00     0.167 HD
ATOM     34  C   UNL A   1      41.921  31.268  32.678  1.00  0.00     0.074 A 
ATOM     35  C   UNL A   1      41.846  32.354  31.709  1.00  0.00     0.031 C 
ATOM     36  C   UNL A   1      42.920  30.377  32.941  1.00  0.00     0.037 A 
BRANCH  23  37
ATOM     37  C   UNL A   1      45.200  31.876  28.094  1.00  0.00     0.064 A 
ATOM     38  C   UNL A   1      44.135  32.788  27.895  1.00  0.00     0.173 A 
ATOM     39  C   UNL A   1      46.384  32.170  27.391  1.00  0.00     0.173 A 
ATOM     40  F   UNL A   1      42.962  32.621  28.525  1.00  0.00    -0.203 F 
ATOM     41  C   UNL A   1      44.216  33.836  26.974  1.00  0.00     0.198 A 
ATOM     42  C   UNL A   1      46.474  33.247  26.504  1.00  0.00     0.198 A 
ATOM     43  F   UNL A   1      47.456  31.372  27.440  1.00  0.00    -0.203 F 
ATOM     44  F   UNL A   1      43.135  34.586  26.720  1.00  0.00    -0.200 F 
ATOM     45  C   UNL A   1      45.380  34.055  26.267  1.00  0.00     0.200 A 
ATOM     46  F   UNL A   1      47.609  33.439  25.816  1.00  0.00    -0.200 F 
ATOM     47  F   UNL A   1      45.440  35.010  25.330  1.00  0.00    -0.200 F 
ENDBRANCH  23  37
BRANCH  24  48
ATOM     48  C   UNL A   1      37.390  31.705  31.567  1.00  0.00     0.064 A 
ATOM     49  C   UNL A   1      36.716  31.986  32.771  1.00  0.00     0.173 A 
ATOM     50  C   UNL A   1      37.001  32.458  30.445  1.00  0.00     0.173 A 
ATOM     51  F   UNL A   1      37.049  31.342  33.898  1.00  0.00    -0.203 F 
ATOM     52  C   UNL A   1      35.747  32.992  32.854  1.00  0.00     0.198 A 
ATOM     53  C   UNL A   1      36.029  33.459  30.529  1.00  0.00     0.198 A 
ATOM     54  F   UNL A   1      37.629  32.312  29.270  1.00  0.00    -0.203 F 
ATOM     55  F   UNL A   1      35.182  33.282  34.035  1.00  0.00    -0.200 F 
ATOM     56  C   UNL A   1      35.415  33.738  31.736  1.00  0.00     0.200 A 
ATOM     57  F   UNL A   1      35.746  34.199  29.448  1.00  0.00    -0.200 F 
ATOM     58  F   UNL A   1      34.543  34.751  31.830  1.00  0.00    -0.200 F 
ENDBRANCH  24  48
BRANCH  36  59
ATOM     59  C   UNL A   1      42.707  29.393  34.044  1.00  0.00     0.064 A 
ATOM     60  C   UNL A   1      42.010  28.182  33.912  1.00  0.00     0.173 A 
ATOM     61  C   UNL A   1      43.288  29.673  35.289  1.00  0.00     0.173 A 
ATOM     62  F   UNL A   1      41.505  27.798  32.731  1.00  0.00    -0.203 F 
ATOM     63  C   UNL A   1      41.854  27.322  34.997  1.00  0.00     0.198 A 
ATOM     64  C   UNL A   1      43.171  28.792  36.356  1.00  0.00     0.198 A 
ATOM     65  F   UNL A   1      44.000  30.799  35.463  1.00  0.00    -0.203 F 
ATOM     66  F   UNL A   1      41.153  26.186  34.859  1.00  0.00    -0.200 F 
ATOM     67  C   UNL A   1      42.439  27.625  36.216  1.00  0.00     0.200 A 
ATOM     68  F   UNL A   1      43.781  29.068  37.517  1.00  0.00    -0.200 F 
ATOM     69  F   UNL A   1      42.316  26.783  37.252  1.00  0.00    -0.200 F 
ENDBRANCH  36  59
ENDBRANCH  10  11
ENDBRANCH   3   5
ENDBRANCH   2   3
ENDBRANCH   1   2
BRANCH   1  70
ATOM     70  C   UNL A   1      43.932  21.938  26.187  1.00  0.00     0.274 C 
BRANCH  70  71
ATOM     71  O   UNL A   1      44.459  23.001  26.992  1.00  0.00    -0.457 OA
BRANCH  71  72
ATOM     72  C   UNL A   1      45.680  23.485  26.654  1.00  0.00     0.368 C 
ATOM     73  O   UNL A   1      46.521  22.838  26.025  1.00  0.00    -0.245 OA
BRANCH  72  74
ATOM     74  C   UNL A   1      45.927  24.907  27.242  1.00  0.00     0.196 C 
ATOM     75  C   UNL A   1      44.626  25.727  27.068  1.00  0.00     0.081 C 
ATOM     76  C   UNL A   1      47.098  25.669  26.550  1.00  0.00     0.108 C 
ATOM     77  C   UNL A   1      44.342  26.082  25.605  1.00  0.00     0.009 C 
ATOM     78  C   UNL A   1      46.801  26.051  25.091  1.00  0.00     0.114 C 
ATOM     79  C   UNL A   1      45.499  26.853  24.981  1.00  0.00     0.028 C 
BRANCH  74  80
ATOM     80  N   UNL A   1      46.318  24.787  28.680  1.00  0.00    -0.330 N 
ATOM     81  H   UNL A   1      47.328  24.640  28.717  1.00  0.00     0.347 HD
ATOM     82  H   UNL A   1      45.767  24.013  29.050  1.00  0.00     0.347 HD
BRANCH  80  83
ATOM     83  C   UNL A   1      46.002  25.941  29.538  1.00  0.00     0.183 C 
ATOM     84  C   UNL A   1      44.998  25.804  30.646  1.00  0.00     0.071 C 
ATOM     85  C   UNL A   1      46.457  25.903  30.974  1.00  0.00     0.071 C 
ENDBRANCH  80  83
ENDBRANCH  74  80
BRANCH  78  86
ATOM     86  N   UNL A   1      47.943  26.690  24.446  1.00  0.00    -0.268 N 
ATOM     87  C   UNL A   1      49.225  26.664  24.927  1.00  0.00     0.124 A 
ATOM     88  N   UNL A   1      47.848  27.235  23.213  1.00  0.00    -0.180 NA
ATOM     89  C   UNL A   1      50.008  27.106  23.897  1.00  0.00     0.055 A 
ATOM     90  C   UNL A   1      49.125  27.457  22.870  1.00  0.00     0.150 A 
ATOM     91  Br  UNL A   1      51.869  27.165  23.836  1.00  0.00    -0.047 Br
ENDBRANCH  78  86
ENDBRANCH  72  74
ENDBRANCH  71  72
ENDBRANCH  70  71
ENDBRANCH   1  70
TORSDOF 14
ENDMDL
MODEL 3
REMARK VINA RESULT:     -12.3      5.824     11.153
REMARK SMILES O=C(OCCOC(=O)[C@]1([NH2+]C2CC2)CCC[C@@H](n2cc(Br)cn2)C1)c1ccc(-c2c3nc(c(-c4c(F)c(F)c(F)c(F)c4F)c4ccc([nH]4)c(-c4c(F)c(F)c(F)c(F)c4F)c4nc(c(-c5c(F)c(F)c(F)c(F)c5F)c5ccc2[nH]5)C=C4)C=C3)cc1
REMARK SMILES IDX 4 1 3 2 2 3 1 4 25 5 26 6 87 7 27 8 86 9 28 10 29 11 30 12
REMARK SMILES IDX 80 13 31 14 85 15 79 16 81 17 32 18 84 19 78 20 77 21 33 23
REMARK SMILES IDX 65 24 45 25 64 26 46 27 49 28 63 29 82 30 47 31 48 32 62 34
REMARK SMILES IDX 83 35 50 36 34 37 35 38 43 39 36 40 37 41 41 42 44 43 38 44
REMARK SMILES IDX 39 45 42 46 40 47 66 48 67 49 75 50 68 51 69 52 73 53 76 54
REMARK SMILES IDX 70 55 71 56 74 57 72 58 51 59 52 60 60 61 53 62 54 63 58 64
REMARK SMILES IDX 61 65 55 66 56 67 59 68 57 69 5 70 6 71 7 72 8 73 9 74 14 75
REMARK SMILES IDX 24 76 15 77 17 78 16 79 10 80 11 83 12 84 13 85 18 86 19 87
REMARK SMILES IDX 23 88 20 89 22 90 21 91
REMARK H PARENT 81 22 49 33 10 81 10 82
REMARK Flexibility Score: inf
ROOT
ATOM      1  C   UNL A   1      41.016  20.318  26.038  1.00  0.00     0.275 C 
ENDROOT
BRANCH   1   2
ATOM      2  O   UNL A   1      40.266  21.234  26.863  1.00  0.00    -0.458 OA
BRANCH   2   3
ATOM      3  C   UNL A   1      39.479  22.291  26.579  1.00  0.00     0.338 C 
ATOM      4  O   UNL A   1      38.527  22.107  25.819  1.00  0.00    -0.246 OA
BRANCH   3   5
ATOM      5  C   UNL A   1      39.590  23.651  27.191  1.00  0.00     0.060 A 
ATOM      6  C   UNL A   1      38.905  24.793  26.772  1.00  0.00     0.016 A 
ATOM      7  C   UNL A   1      40.610  23.810  28.158  1.00  0.00     0.016 A 
ATOM      8  C   UNL A   1      39.252  26.050  27.279  1.00  0.00     0.010 A 
ATOM      9  C   UNL A   1      40.987  25.066  28.634  1.00  0.00     0.010 A 
ATOM     10  C   UNL A   1      40.323  26.194  28.171  1.00  0.00    -0.014 A 
BRANCH  10  11
ATOM     11  C   UNL A   1      40.646  27.535  28.665  1.00  0.00     0.031 A 
ATOM     12  C   UNL A   1      41.879  28.125  28.071  1.00  0.00     0.074 A 
ATOM     13  C   UNL A   1      39.876  28.240  29.527  1.00  0.00     0.049 A 
ATOM     14  N   UNL A   1      42.978  28.426  28.680  1.00  0.00    -0.248 NA
ATOM     15  C   UNL A   1      41.936  28.330  26.616  1.00  0.00     0.031 C 
ATOM     16  C   UNL A   1      38.507  27.932  29.952  1.00  0.00     0.029 A 
ATOM     17  N   UNL A   1      40.125  29.436  30.152  1.00  0.00    -0.354 N 
ATOM     18  C   UNL A   1      43.812  29.014  27.726  1.00  0.00     0.074 A 
ATOM     19  C   UNL A   1      43.168  28.823  26.455  1.00  0.00     0.031 C 
ATOM     20  C   UNL A   1      37.977  29.007  30.580  1.00  0.00     0.029 A 
ATOM     21  C   UNL A   1      39.005  30.024  30.734  1.00  0.00     0.049 A 
ATOM     22  H   UNL A   1      41.021  29.844  30.184  1.00  0.00     0.167 HD
ATOM     23  C   UNL A   1      44.848  29.812  28.114  1.00  0.00     0.037 A 
ATOM     24  C   UNL A   1      38.918  31.266  31.278  1.00  0.00     0.037 A 
ATOM     25  C   UNL A   1      45.108  29.666  29.519  1.00  0.00     0.049 A 
ATOM     26  C   UNL A   1      40.281  31.697  31.660  1.00  0.00     0.074 A 
ATOM     27  C   UNL A   1      45.879  28.887  30.346  1.00  0.00     0.029 A 
ATOM     28  N   UNL A   1      44.205  30.324  30.302  1.00  0.00    -0.354 N 
ATOM     29  N   UNL A   1      40.963  31.157  32.630  1.00  0.00    -0.248 NA
ATOM     30  C   UNL A   1      41.042  32.553  30.756  1.00  0.00     0.031 C 
ATOM     31  C   UNL A   1      45.300  28.990  31.647  1.00  0.00     0.029 A 
ATOM     32  C   UNL A   1      44.244  29.895  31.596  1.00  0.00     0.049 A 
ATOM     33  H   UNL A   1      43.598  31.025  29.972  1.00  0.00     0.167 HD
ATOM     34  C   UNL A   1      42.270  31.237  32.202  1.00  0.00     0.074 A 
ATOM     35  C   UNL A   1      42.280  32.256  31.161  1.00  0.00     0.031 C 
ATOM     36  C   UNL A   1      43.156  30.236  32.477  1.00  0.00     0.037 A 
BRANCH  23  37
ATOM     37  C   UNL A   1      45.309  31.083  27.419  1.00  0.00     0.064 A 
ATOM     38  C   UNL A   1      46.647  31.156  26.963  1.00  0.00     0.173 A 
ATOM     39  C   UNL A   1      44.643  32.319  27.532  1.00  0.00     0.173 A 
ATOM     40  F   UNL A   1      47.378  30.042  26.799  1.00  0.00    -0.203 F 
ATOM     41  C   UNL A   1      47.297  32.376  26.755  1.00  0.00     0.198 A 
ATOM     42  C   UNL A   1      45.284  33.535  27.280  1.00  0.00     0.198 A 
ATOM     43  F   UNL A   1      43.393  32.412  27.998  1.00  0.00    -0.203 F 
ATOM     44  F   UNL A   1      48.604  32.395  26.458  1.00  0.00    -0.200 F 
ATOM     45  C   UNL A   1      46.619  33.566  26.930  1.00  0.00     0.200 A 
ATOM     46  F   UNL A   1      44.616  34.682  27.466  1.00  0.00    -0.200 F 
ATOM     47  F   UNL A   1      47.256  34.738  26.805  1.00  0.00    -0.200 F 
ENDBRANCH  23  37
BRANCH  24  48
ATOM     48  C   UNL A   1      37.778  32.218  31.302  1.00  0.00     0.064 A 
ATOM     49  C   UNL A   1      37.419  32.961  30.161  1.00  0.00     0.173 A 
ATOM     50  C   UNL A   1      36.832  32.178  32.342  1.00  0.00     0.173 A 
ATOM     51  F   UNL A   1      38.244  33.022  29.106  1.00  0.00    -0.203 F 
ATOM     52  C   UNL A   1      36.170  33.584  30.052  1.00  0.00     0.198 A 
ATOM     53  C   UNL A   1      35.588  32.805  32.233  1.00  0.00     0.198 A 
ATOM     54  F   UNL A   1      37.053  31.442  33.440  1.00  0.00    -0.203 F 
ATOM     55  F   UNL A   1      35.834  34.218  28.918  1.00  0.00    -0.200 F 
ATOM     56  C   UNL A   1      35.250  33.493  31.082  1.00  0.00     0.200 A 
ATOM     57  F   UNL A   1      34.693  32.676  33.222  1.00  0.00    -0.200 F 
ATOM     58  F   UNL A   1      34.027  34.024  30.950  1.00  0.00    -0.200 F 
ENDBRANCH  24  48
BRANCH  36  59
ATOM     59  C   UNL A   1      42.883  29.366  33.660  1.00  0.00     0.064 A 
ATOM     60  C   UNL A   1      42.127  28.183  33.625  1.00  0.00     0.173 A 
ATOM     61  C   UNL A   1      43.463  29.727  34.883  1.00  0.00     0.173 A 
ATOM     62  F   UNL A   1      41.617  27.720  32.475  1.00  0.00    -0.203 F 
ATOM     63  C   UNL A   1      41.917  27.432  34.780  1.00  0.00     0.198 A 
ATOM     64  C   UNL A   1      43.291  28.951  36.023  1.00  0.00     0.198 A 
ATOM     65  F   UNL A   1      44.228  30.828  34.968  1.00  0.00    -0.203 F 
ATOM     66  F   UNL A   1      41.163  26.324  34.733  1.00  0.00    -0.200 F 
ATOM     67  C   UNL A   1      42.504  27.814  35.976  1.00  0.00     0.200 A 
ATOM     68  F   UNL A   1      43.903  29.300  37.163  1.00  0.00    -0.200 F 
ATOM     69  F   UNL A   1      42.329  27.075  37.080  1.00  0.00    -0.200 F 
ENDBRANCH  36  59
ENDBRANCH  10  11
ENDBRANCH   3   5
ENDBRANCH   2   3
ENDBRANCH   1   2
BRANCH   1  70
ATOM     70  C   UNL A   1      42.502  20.629  26.068  1.00  0.00     0.274 C 
BRANCH  70  71
ATOM     71  O   UNL A   1      42.650  22.054  26.127  1.00  0.00    -0.457 OA
BRANCH  71  72
ATOM     72  C   UNL A   1      43.626  22.606  25.363  1.00  0.00     0.368 C 
ATOM     73  O   UNL A   1      43.476  22.905  24.175  1.00  0.00    -0.245 OA
BRANCH  72  74
ATOM     74  C   UNL A   1      44.976  22.718  26.133  1.00  0.00     0.196 C 
ATOM     75  C   UNL A   1      44.659  23.114  27.595  1.00  0.00     0.081 C 
ATOM     76  C   UNL A   1      45.949  23.772  25.526  1.00  0.00     0.108 C 
ATOM     77  C   UNL A   1      44.152  24.554  27.721  1.00  0.00     0.009 C 
ATOM     78  C   UNL A   1      45.454  25.220  25.679  1.00  0.00     0.114 C 
ATOM     79  C   UNL A   1      45.150  25.551  27.144  1.00  0.00     0.028 C 
BRANCH  74  80
ATOM     80  N   UNL A   1      45.699  21.411  26.057  1.00  0.00    -0.330 N 
ATOM     81  H   UNL A   1      45.115  20.705  26.507  1.00  0.00     0.347 HD
ATOM     82  H   UNL A   1      46.597  21.568  26.513  1.00  0.00     0.347 HD
BRANCH  80  83
ATOM     83  C   UNL A   1      46.024  20.927  24.705  1.00  0.00     0.183 C 
ATOM     84  C   UNL A   1      46.983  19.785  24.523  1.00  0.00     0.071 C 
ATOM     85  C   UNL A   1      45.518  19.567  24.298  1.00  0.00     0.071 C 
ENDBRANCH  80  83
ENDBRANCH  74  80
BRANCH  78  86
ATOM     86  N   UNL A   1      46.346  26.178  25.031  1.00  0.00    -0.268 N 
ATOM     87  C   UNL A   1      47.636  25.912  24.658  1.00  0.00     0.124 A 
ATOM     88  N   UNL A   1      45.902  27.378  24.597  1.00  0.00    -0.180 NA
ATOM     89  C   UNL A   1      47.996  26.946  23.839  1.00  0.00     0.055 A 
ATOM     90  C   UNL A   1      46.911  27.828  23.838  1.00  0.00     0.150 A 
ATOM     91  Br  UNL A   1      49.575  27.120  22.865  1.00  0.00    -0.047 Br
ENDBRANCH  78  86
ENDBRANCH  72  74
ENDBRANCH  71  72
ENDBRANCH  70  71
ENDBRANCH   1  70
TORSDOF 14
ENDMDL
