MODEL 1
REMARK VINA RESULT:     -13.1      0.000      0.000
REMARK SMILES Cc1cc(C)n(-c2nc(C)c(C)c(Oc3cccc(C(=O)OCCOC(=O)c4ccc(-c5c6nc(c(-c7c(F)c(F)c(F)c(F)c7F)c7ccc([nH]7)c(-c7c(F)c(F)c(F)c(F)c7F)c7nc(c(-c8c(F)c(F)c(F)c(F)c8F)c8ccc5[nH]8)C=C7)C=C6)cc4)c3)n2)n1
REMARK SMILES IDX 23 1 22 2 20 3 21 4 19 5 15 6 16 7 91 8 17 9 18 10 14 11
REMARK SMILES IDX 13 12 7 13 8 14 92 15 9 16 10 17 11 18 12 19 6 20 1 21 2 22
REMARK SMILES IDX 3 23 93 24 4 25 5 26 24 27 25 28 26 29 27 30 28 31 29 32
REMARK SMILES IDX 90 33 30 34 89 35 31 36 32 37 33 38 83 39 34 40 88 41 82 42
REMARK SMILES IDX 84 43 35 44 87 45 81 46 80 47 36 49 68 50 48 51 67 52 49 53
REMARK SMILES IDX 52 54 66 55 85 56 50 57 51 58 65 60 86 61 53 62 37 63 38 64
REMARK SMILES IDX 46 65 39 66 40 67 44 68 47 69 41 70 42 71 45 72 43 73 69 74
REMARK SMILES IDX 70 75 78 76 71 77 72 78 76 79 79 80 73 81 74 82 77 83 75 84
REMARK SMILES IDX 54 85 55 86 63 87 56 88 57 89 61 90 64 91 58 92 59 93 62 94
REMARK SMILES IDX 60 95
REMARK H PARENT 84 48 52 59
REMARK Flexibility Score: inf
ROOT
ATOM      1  C   UNL A   1      37.102  21.523  25.000  1.00  0.00     0.275 C 
ENDROOT
BRANCH   1   2
ATOM      2  O   UNL A   1      36.051  21.951  25.882  1.00  0.00    -0.458 OA
BRANCH   2   3
ATOM      3  C   UNL A   1      35.499  23.161  25.604  1.00  0.00     0.338 C 
ATOM      4  O   UNL A   1      36.092  24.137  25.165  1.00  0.00    -0.246 OA
BRANCH   3   5
ATOM      5  C   UNL A   1      34.024  23.123  25.783  1.00  0.00     0.063 A 
ATOM      6  C   UNL A   1      31.903  24.187  26.253  1.00  0.00     0.130 A 
ATOM      7  C   UNL A   1      31.244  22.975  26.038  1.00  0.00     0.047 A 
ATOM      8  C   UNL A   1      33.299  24.246  26.191  1.00  0.00     0.062 A 
ATOM      9  C   UNL A   1      31.968  21.838  25.684  1.00  0.00     0.005 A 
ATOM     10  C   UNL A   1      33.354  21.917  25.535  1.00  0.00     0.016 A 
BRANCH   6  11
ATOM     11  O   UNL A   1      31.106  25.265  26.566  1.00  0.00    -0.439 OA
BRANCH  11  12
ATOM     12  C   UNL A   1      31.405  26.502  25.997  1.00  0.00     0.227 A 
ATOM     13  C   UNL A   1      32.546  28.481  26.061  1.00  0.00     0.254 A 
ATOM     14  N   UNL A   1      31.804  28.998  25.060  1.00  0.00    -0.216 NA
ATOM     15  N   UNL A   1      32.416  27.226  26.511  1.00  0.00    -0.175 NA
ATOM     16  C   UNL A   1      30.915  28.182  24.449  1.00  0.00     0.050 A 
ATOM     17  C   UNL A   1      30.326  28.743  23.187  1.00  0.00     0.067 C 
ATOM     18  C   UNL A   1      30.631  26.908  24.921  1.00  0.00     0.033 A 
ATOM     19  C   UNL A   1      29.592  26.031  24.300  1.00  0.00     0.052 C 
BRANCH  13  20
ATOM     20  N   UNL A   1      33.506  29.336  26.705  1.00  0.00    -0.203 N 
ATOM     21  C   UNL A   1      36.874  29.937  27.679  1.00  0.00     0.069 C 
ATOM     22  C   UNL A   1      35.420  29.997  27.397  1.00  0.00     0.060 A 
ATOM     23  C   UNL A   1      34.569  31.117  27.478  1.00  0.00     0.049 A 
ATOM     24  N   UNL A   1      34.756  28.896  27.030  1.00  0.00    -0.170 NA
ATOM     25  C   UNL A   1      33.332  30.665  27.074  1.00  0.00     0.045 A 
ATOM     26  C   UNL A   1      32.014  31.348  27.078  1.00  0.00     0.067 C 
ENDBRANCH  13  20
ENDBRANCH  11  12
ENDBRANCH   6  11
ENDBRANCH   3   5
ENDBRANCH   2   3
ENDBRANCH   1   2
BRANCH   1  27
ATOM     27  C   UNL A   1      38.442  21.467  25.723  1.00  0.00     0.275 C 
BRANCH  27  28
ATOM     28  O   UNL A   1      38.721  22.679  26.427  1.00  0.00    -0.458 OA
BRANCH  28  29
ATOM     29  C   UNL A   1      39.922  22.717  27.044  1.00  0.00     0.338 C 
ATOM     30  O   UNL A   1      40.511  21.793  27.579  1.00  0.00    -0.246 OA
BRANCH  29  31
ATOM     31  C   UNL A   1      40.359  24.112  27.177  1.00  0.00     0.060 A 
ATOM     32  C   UNL A   1      41.481  24.363  27.972  1.00  0.00     0.016 A 
ATOM     33  C   UNL A   1      39.514  25.146  26.748  1.00  0.00     0.016 A 
ATOM     34  C   UNL A   1      41.671  25.638  28.467  1.00  0.00     0.010 A 
ATOM     35  C   UNL A   1      39.701  26.416  27.247  1.00  0.00     0.010 A 
ATOM     36  C   UNL A   1      40.735  26.631  28.158  1.00  0.00    -0.014 A 
BRANCH  36  37
ATOM     37  C   UNL A   1      40.881  27.925  28.796  1.00  0.00     0.031 A 
ATOM     38  C   UNL A   1      41.986  28.767  28.274  1.00  0.00     0.074 A 
ATOM     39  C   UNL A   1      39.993  28.377  29.700  1.00  0.00     0.049 A 
ATOM     40  N   UNL A   1      42.954  29.319  28.929  1.00  0.00    -0.248 NA
ATOM     41  C   UNL A   1      42.055  28.957  26.817  1.00  0.00     0.031 C 
ATOM     42  C   UNL A   1      38.708  27.786  30.085  1.00  0.00     0.029 A 
ATOM     43  N   UNL A   1      40.018  29.547  30.394  1.00  0.00    -0.354 N 
ATOM     44  C   UNL A   1      43.681  30.047  27.990  1.00  0.00     0.074 A 
ATOM     45  C   UNL A   1      43.153  29.699  26.697  1.00  0.00     0.031 C 
ATOM     46  C   UNL A   1      37.990  28.701  30.773  1.00  0.00     0.029 A 
ATOM     47  C   UNL A   1      38.809  29.884  30.979  1.00  0.00     0.049 A 
ATOM     48  H   UNL A   1      40.825  30.104  30.474  1.00  0.00     0.167 HD
ATOM     49  C   UNL A   1      44.543  31.031  28.359  1.00  0.00     0.037 A 
ATOM     50  C   UNL A   1      38.491  31.089  31.509  1.00  0.00     0.037 A 
ATOM     51  C   UNL A   1      44.989  30.863  29.715  1.00  0.00     0.049 A 
ATOM     52  C   UNL A   1      39.764  31.796  31.805  1.00  0.00     0.074 A 
ATOM     53  C   UNL A   1      45.681  29.874  30.387  1.00  0.00     0.029 A 
ATOM     54  N   UNL A   1      44.453  31.661  30.694  1.00  0.00    -0.354 N 
ATOM     55  N   UNL A   1      40.609  31.435  32.730  1.00  0.00    -0.248 NA
ATOM     56  C   UNL A   1      40.299  32.688  30.786  1.00  0.00     0.031 C 
ATOM     57  C   UNL A   1      45.120  29.849  31.697  1.00  0.00     0.029 A 
ATOM     58  C   UNL A   1      44.141  30.841  31.747  1.00  0.00     0.049 A 
ATOM     59  H   UNL A   1      44.318  32.635  30.649  1.00  0.00     0.167 HD
ATOM     60  C   UNL A   1      41.859  31.712  32.197  1.00  0.00     0.074 A 
ATOM     61  C   UNL A   1      41.603  32.575  31.049  1.00  0.00     0.031 C 
ATOM     62  C   UNL A   1      42.961  30.994  32.565  1.00  0.00     0.037 A 
BRANCH  49  63
ATOM     63  C   UNL A   1      44.730  32.313  27.587  1.00  0.00     0.064 A 
ATOM     64  C   UNL A   1      45.903  32.499  26.829  1.00  0.00     0.173 A 
ATOM     65  C   UNL A   1      43.952  33.474  27.795  1.00  0.00     0.173 A 
ATOM     66  F   UNL A   1      46.730  31.470  26.584  1.00  0.00    -0.203 F 
ATOM     67  C   UNL A   1      46.303  33.761  26.384  1.00  0.00     0.198 A 
ATOM     68  C   UNL A   1      44.327  34.722  27.302  1.00  0.00     0.198 A 
ATOM     69  F   UNL A   1      42.863  33.474  28.573  1.00  0.00    -0.203 F 
ATOM     70  F   UNL A   1      47.489  33.907  25.779  1.00  0.00    -0.200 F 
ATOM     71  C   UNL A   1      45.517  34.872  26.627  1.00  0.00     0.200 A 
ATOM     72  F   UNL A   1      43.559  35.790  27.563  1.00  0.00    -0.200 F 
ATOM     73  F   UNL A   1      45.929  36.092  26.256  1.00  0.00    -0.200 F 
ENDBRANCH  49  63
BRANCH  50  74
ATOM     74  C   UNL A   1      37.179  31.779  31.478  1.00  0.00     0.064 A 
ATOM     75  C   UNL A   1      36.424  31.942  32.652  1.00  0.00     0.173 A 
ATOM     76  C   UNL A   1      36.759  32.525  30.359  1.00  0.00     0.173 A 
ATOM     77  F   UNL A   1      36.781  31.306  33.777  1.00  0.00    -0.203 F 
ATOM     78  C   UNL A   1      35.333  32.816  32.707  1.00  0.00     0.198 A 
ATOM     79  C   UNL A   1      35.662  33.385  30.411  1.00  0.00     0.198 A 
ATOM     80  F   UNL A   1      37.458  32.511  29.215  1.00  0.00    -0.203 F 
ATOM     81  F   UNL A   1      34.681  32.996  33.864  1.00  0.00    -0.200 F 
ATOM     82  C   UNL A   1      34.959  33.543  31.590  1.00  0.00     0.200 A 
ATOM     83  F   UNL A   1      35.332  34.106  29.330  1.00  0.00    -0.200 F 
ATOM     84  F   UNL A   1      33.951  34.423  31.658  1.00  0.00    -0.200 F 
ENDBRANCH  50  74
BRANCH  62  85
ATOM     85  C   UNL A   1      42.838  30.071  33.743  1.00  0.00     0.064 A 
ATOM     86  C   UNL A   1      43.034  30.484  35.073  1.00  0.00     0.173 A 
ATOM     87  C   UNL A   1      42.332  28.780  33.537  1.00  0.00     0.173 A 
ATOM     88  F   UNL A   1      43.414  31.736  35.355  1.00  0.00    -0.203 F 
ATOM     89  C   UNL A   1      42.771  29.631  36.142  1.00  0.00     0.198 A 
ATOM     90  C   UNL A   1      42.034  27.942  34.608  1.00  0.00     0.198 A 
ATOM     91  F   UNL A   1      42.067  28.354  32.292  1.00  0.00    -0.203 F 
ATOM     92  F   UNL A   1      42.968  30.049  37.400  1.00  0.00    -0.200 F 
ATOM     93  C   UNL A   1      42.262  28.364  35.909  1.00  0.00     0.200 A 
ATOM     94  F   UNL A   1      41.494  26.737  34.382  1.00  0.00    -0.200 F 
ATOM     95  F   UNL A   1      41.959  27.561  36.939  1.00  0.00    -0.200 F 
ENDBRANCH  62  85
ENDBRANCH  36  37
ENDBRANCH  29  31
ENDBRANCH  28  29
ENDBRANCH  27  28
ENDBRANCH   1  27
TORSDOF 14
ENDMDL
MODEL 2
REMARK VINA RESULT:     -13.0      1.573      3.407
REMARK SMILES Cc1cc(C)n(-c2nc(C)c(C)c(Oc3cccc(C(=O)OCCOC(=O)c4ccc(-c5c6nc(c(-c7c(F)c(F)c(F)c(F)c7F)c7ccc([nH]7)c(-c7c(F)c(F)c(F)c(F)c7F)c7nc(c(-c8c(F)c(F)c(F)c(F)c8F)c8ccc5[nH]8)C=C7)C=C6)cc4)c3)n2)n1
REMARK SMILES IDX 23 1 22 2 20 3 21 4 19 5 15 6 16 7 91 8 17 9 18 10 14 11
REMARK SMILES IDX 13 12 7 13 8 14 92 15 9 16 10 17 11 18 12 19 6 20 1 21 2 22
REMARK SMILES IDX 3 23 93 24 4 25 5 26 24 27 25 28 26 29 27 30 28 31 29 32
REMARK SMILES IDX 90 33 30 34 89 35 31 36 32 37 33 38 83 39 34 40 88 41 82 42
REMARK SMILES IDX 84 43 35 44 87 45 81 46 80 47 36 49 68 50 48 51 67 52 49 53
REMARK SMILES IDX 52 54 66 55 85 56 50 57 51 58 65 60 86 61 53 62 37 63 38 64
REMARK SMILES IDX 46 65 39 66 40 67 44 68 47 69 41 70 42 71 45 72 43 73 69 74
REMARK SMILES IDX 70 75 78 76 71 77 72 78 76 79 79 80 73 81 74 82 77 83 75 84
REMARK SMILES IDX 54 85 55 86 63 87 56 88 57 89 61 90 64 91 58 92 59 93 62 94
REMARK SMILES IDX 60 95
REMARK H PARENT 84 48 52 59
REMARK Flexibility Score: inf
ROOT
ATOM      1  C   UNL A   1      41.899  19.571  26.481  1.00  0.00     0.275 C 
ENDROOT
BRANCH   1   2
ATOM      2  O   UNL A   1      40.656  20.224  26.786  1.00  0.00    -0.458 OA
BRANCH   2   3
ATOM      3  C   UNL A   1      39.637  19.996  25.918  1.00  0.00     0.338 C 
ATOM      4  O   UNL A   1      39.332  18.913  25.436  1.00  0.00    -0.246 OA
BRANCH   3   5
ATOM      5  C   UNL A   1      38.831  21.228  25.713  1.00  0.00     0.063 A 
ATOM      6  C   UNL A   1      37.020  22.445  24.669  1.00  0.00     0.130 A 
ATOM      7  C   UNL A   1      37.329  23.569  25.436  1.00  0.00     0.047 A 
ATOM      8  C   UNL A   1      37.813  21.296  24.758  1.00  0.00     0.062 A 
ATOM      9  C   UNL A   1      38.379  23.525  26.352  1.00  0.00     0.005 A 
ATOM     10  C   UNL A   1      39.115  22.349  26.506  1.00  0.00     0.016 A 
BRANCH   6  11
ATOM     11  O   UNL A   1      35.947  22.568  23.814  1.00  0.00    -0.439 OA
BRANCH  11  12
ATOM     12  C   UNL A   1      34.787  23.180  24.285  1.00  0.00     0.227 A 
ATOM     13  C   UNL A   1      33.661  25.073  24.893  1.00  0.00     0.254 A 
ATOM     14  N   UNL A   1      32.654  24.358  25.438  1.00  0.00    -0.216 NA
ATOM     15  N   UNL A   1      34.705  24.522  24.260  1.00  0.00    -0.175 NA
ATOM     16  C   UNL A   1      32.684  23.014  25.291  1.00  0.00     0.050 A 
ATOM     17  C   UNL A   1      31.413  22.320  25.686  1.00  0.00     0.067 C 
ATOM     18  C   UNL A   1      33.779  22.351  24.755  1.00  0.00     0.033 A 
ATOM     19  C   UNL A   1      33.854  20.861  24.662  1.00  0.00     0.052 C 
BRANCH  13  20
ATOM     20  N   UNL A   1      33.628  26.503  25.029  1.00  0.00    -0.203 N 
ATOM     21  C   UNL A   1      34.192  29.383  27.041  1.00  0.00     0.069 C 
ATOM     22  C   UNL A   1      33.887  28.412  25.963  1.00  0.00     0.060 A 
ATOM     23  C   UNL A   1      33.701  28.672  24.591  1.00  0.00     0.049 A 
ATOM     24  N   UNL A   1      33.740  27.113  26.245  1.00  0.00    -0.170 NA
ATOM     25  C   UNL A   1      33.490  27.441  24.011  1.00  0.00     0.045 A 
ATOM     26  C   UNL A   1      33.104  27.089  22.622  1.00  0.00     0.067 C 
ENDBRANCH  13  20
ENDBRANCH  11  12
ENDBRANCH   6  11
ENDBRANCH   3   5
ENDBRANCH   2   3
ENDBRANCH   1   2
BRANCH   1  27
ATOM     27  C   UNL A   1      42.889  20.535  25.839  1.00  0.00     0.275 C 
BRANCH  27  28
ATOM     28  O   UNL A   1      42.949  21.781  26.535  1.00  0.00    -0.458 OA
BRANCH  28  29
ATOM     29  C   UNL A   1      42.754  22.875  25.765  1.00  0.00     0.338 C 
ATOM     30  O   UNL A   1      43.157  23.064  24.630  1.00  0.00    -0.246 OA
BRANCH  29  31
ATOM     31  C   UNL A   1      42.142  23.936  26.571  1.00  0.00     0.060 A 
ATOM     32  C   UNL A   1      41.552  25.005  25.889  1.00  0.00     0.016 A 
ATOM     33  C   UNL A   1      42.394  23.992  27.949  1.00  0.00     0.016 A 
ATOM     34  C   UNL A   1      41.356  26.195  26.563  1.00  0.00     0.010 A 
ATOM     35  C   UNL A   1      42.203  25.181  28.618  1.00  0.00     0.010 A 
ATOM     36  C   UNL A   1      41.754  26.289  27.901  1.00  0.00    -0.014 A 
BRANCH  36  37
ATOM     37  C   UNL A   1      41.662  27.583  28.548  1.00  0.00     0.031 A 
ATOM     38  C   UNL A   1      42.780  28.514  28.263  1.00  0.00     0.074 A 
ATOM     39  C   UNL A   1      40.571  27.953  29.245  1.00  0.00     0.049 A 
ATOM     40  N   UNL A   1      43.544  29.134  29.103  1.00  0.00    -0.248 NA
ATOM     41  C   UNL A   1      43.136  28.726  26.852  1.00  0.00     0.031 C 
ATOM     42  C   UNL A   1      39.286  27.259  29.357  1.00  0.00     0.029 A 
ATOM     43  N   UNL A   1      40.359  29.113  29.923  1.00  0.00    -0.354 N 
ATOM     44  C   UNL A   1      44.391  29.927  28.332  1.00  0.00     0.074 A 
ATOM     45  C   UNL A   1      44.172  29.554  26.959  1.00  0.00     0.031 C 
ATOM     46  C   UNL A   1      38.370  28.107  29.875  1.00  0.00     0.029 A 
ATOM     47  C   UNL A   1      39.032  29.348  30.241  1.00  0.00     0.049 A 
ATOM     48  H   UNL A   1      41.085  29.731  30.167  1.00  0.00     0.167 HD
ATOM     49  C   UNL A   1      45.077  30.971  28.867  1.00  0.00     0.037 A 
ATOM     50  C   UNL A   1      38.516  30.518  30.688  1.00  0.00     0.037 A 
ATOM     51  C   UNL A   1      45.242  30.824  30.288  1.00  0.00     0.049 A 
ATOM     52  C   UNL A   1      39.640  31.319  31.239  1.00  0.00     0.074 A 
ATOM     53  C   UNL A   1      45.856  29.884  31.094  1.00  0.00     0.029 A 
ATOM     54  N   UNL A   1      44.453  31.566  31.129  1.00  0.00    -0.354 N 
ATOM     55  N   UNL A   1      40.300  31.015  32.322  1.00  0.00    -0.248 NA
ATOM     56  C   UNL A   1      40.303  32.262  30.349  1.00  0.00     0.031 C 
ATOM     57  C   UNL A   1      45.038  29.800  32.258  1.00  0.00     0.029 A 
ATOM     58  C   UNL A   1      43.994  30.711  32.099  1.00  0.00     0.049 A 
ATOM     59  H   UNL A   1      44.253  32.527  31.052  1.00  0.00     0.167 HD
ATOM     60  C   UNL A   1      41.607  31.395  32.059  1.00  0.00     0.074 A 
ATOM     61  C   UNL A   1      41.528  32.249  30.878  1.00  0.00     0.031 C 
ATOM     62  C   UNL A   1      42.662  30.762  32.652  1.00  0.00     0.037 A 
BRANCH  49  63
ATOM     63  C   UNL A   1      45.318  32.273  28.145  1.00  0.00     0.064 A 
ATOM     64  C   UNL A   1      44.229  33.120  27.863  1.00  0.00     0.173 A 
ATOM     65  C   UNL A   1      46.518  32.580  27.464  1.00  0.00     0.173 A 
ATOM     66  F   UNL A   1      43.033  32.911  28.436  1.00  0.00    -0.203 F 
ATOM     67  C   UNL A   1      44.314  34.143  26.915  1.00  0.00     0.198 A 
ATOM     68  C   UNL A   1      46.614  33.637  26.560  1.00  0.00     0.198 A 
ATOM     69  F   UNL A   1      47.609  31.811  27.557  1.00  0.00    -0.203 F 
ATOM     70  F   UNL A   1      43.217  34.838  26.587  1.00  0.00    -0.200 F 
ATOM     71  C   UNL A   1      45.505  34.396  26.261  1.00  0.00     0.200 A 
ATOM     72  F   UNL A   1      47.774  33.855  25.924  1.00  0.00    -0.200 F 
ATOM     73  F   UNL A   1      45.573  35.334  25.307  1.00  0.00    -0.200 F 
ENDBRANCH  49  63
BRANCH  50  74
ATOM     74  C   UNL A   1      37.189  31.103  30.381  1.00  0.00     0.064 A 
ATOM     75  C   UNL A   1      36.300  31.451  31.412  1.00  0.00     0.173 A 
ATOM     76  C   UNL A   1      36.867  31.580  29.094  1.00  0.00     0.173 A 
ATOM     77  F   UNL A   1      36.553  31.080  32.674  1.00  0.00    -0.203 F 
ATOM     78  C   UNL A   1      35.175  32.248  31.172  1.00  0.00     0.198 A 
ATOM     79  C   UNL A   1      35.738  32.361  28.855  1.00  0.00     0.198 A 
ATOM     80  F   UNL A   1      37.691  31.380  28.055  1.00  0.00    -0.203 F 
ATOM     81  F   UNL A   1      34.389  32.615  32.194  1.00  0.00    -0.200 F 
ATOM     82  C   UNL A   1      34.900  32.709  29.896  1.00  0.00     0.200 A 
ATOM     83  F   UNL A   1      35.503  32.827  27.619  1.00  0.00    -0.200 F 
ATOM     84  F   UNL A   1      33.856  33.520  29.677  1.00  0.00    -0.200 F 
ENDBRANCH  50  74
BRANCH  62  85
ATOM     85  C   UNL A   1      42.370  29.818  33.783  1.00  0.00     0.064 A 
ATOM     86  C   UNL A   1      42.038  28.465  33.595  1.00  0.00     0.173 A 
ATOM     87  C   UNL A   1      42.609  30.247  35.095  1.00  0.00     0.173 A 
ATOM     88  F   UNL A   1      41.898  27.956  32.365  1.00  0.00    -0.203 F 
ATOM     89  C   UNL A   1      41.915  27.593  34.675  1.00  0.00     0.198 A 
ATOM     90  C   UNL A   1      42.521  29.366  36.170  1.00  0.00     0.198 A 
ATOM     91  F   UNL A   1      42.989  31.513  35.330  1.00  0.00    -0.203 F 
ATOM     92  F   UNL A   1      41.596  26.307  34.468  1.00  0.00    -0.200 F 
ATOM     93  C   UNL A   1      42.167  28.042  35.961  1.00  0.00     0.200 A 
ATOM     94  F   UNL A   1      42.815  29.790  37.407  1.00  0.00    -0.200 F 
ATOM     95  F   UNL A   1      42.100  27.192  36.994  1.00  0.00    -0.200 F 
ENDBRANCH  62  85
ENDBRANCH  36  37
ENDBRANCH  29  31
ENDBRANCH  28  29
ENDBRANCH  27  28
ENDBRANCH   1  27
TORSDOF 14
ENDMDL
MODEL 3
REMARK VINA RESULT:     -13.0      4.697     10.341
REMARK SMILES Cc1cc(C)n(-c2nc(C)c(C)c(Oc3cccc(C(=O)OCCOC(=O)c4ccc(-c5c6nc(c(-c7c(F)c(F)c(F)c(F)c7F)c7ccc([nH]7)c(-c7c(F)c(F)c(F)c(F)c7F)c7nc(c(-c8c(F)c(F)c(F)c(F)c8F)c8ccc5[nH]8)C=C7)C=C6)cc4)c3)n2)n1
REMARK SMILES IDX 23 1 22 2 20 3 21 4 19 5 15 6 16 7 91 8 17 9 18 10 14 11
REMARK SMILES IDX 13 12 7 13 8 14 92 15 9 16 10 17 11 18 12 19 6 20 1 21 2 22
REMARK SMILES IDX 3 23 93 24 4 25 5 26 24 27 25 28 26 29 27 30 28 31 29 32
REMARK SMILES IDX 90 33 30 34 89 35 31 36 32 37 33 38 83 39 34 40 88 41 82 42
REMARK SMILES IDX 84 43 35 44 87 45 81 46 80 47 36 49 68 50 48 51 67 52 49 53
REMARK SMILES IDX 52 54 66 55 85 56 50 57 51 58 65 60 86 61 53 62 37 63 38 64
REMARK SMILES IDX 46 65 39 66 40 67 44 68 47 69 41 70 42 71 45 72 43 73 69 74
REMARK SMILES IDX 70 75 78 76 71 77 72 78 76 79 79 80 73 81 74 82 77 83 75 84
REMARK SMILES IDX 54 85 55 86 63 87 56 88 57 89 61 90 64 91 58 92 59 93 62 94
REMARK SMILES IDX 60 95
REMARK H PARENT 84 48 52 59
REMARK Flexibility Score: inf
ROOT
ATOM      1  C   UNL A   1      33.609  34.903  28.650  1.00  0.00     0.275 C 
ENDROOT
BRANCH   1   2
ATOM      2  O   UNL A   1      33.348  34.458  29.991  1.00  0.00    -0.458 OA
BRANCH   2   3
ATOM      3  C   UNL A   1      33.556  35.376  30.971  1.00  0.00     0.338 C 
ATOM      4  O   UNL A   1      33.058  36.492  31.027  1.00  0.00    -0.246 OA
BRANCH   3   5
ATOM      5  C   UNL A   1      34.383  34.803  32.064  1.00  0.00     0.063 A 
ATOM      6  C   UNL A   1      36.012  33.225  32.907  1.00  0.00     0.130 A 
ATOM      7  C   UNL A   1      35.951  33.828  34.164  1.00  0.00     0.047 A 
ATOM      8  C   UNL A   1      35.179  33.669  31.875  1.00  0.00     0.062 A 
ATOM      9  C   UNL A   1      35.119  34.927  34.373  1.00  0.00     0.005 A 
ATOM     10  C   UNL A   1      34.352  35.427  33.320  1.00  0.00     0.016 A 
BRANCH   6  11
ATOM     11  O   UNL A   1      36.885  32.168  32.781  1.00  0.00    -0.439 OA
BRANCH  11  12
ATOM     12  C   UNL A   1      38.250  32.410  32.929  1.00  0.00     0.227 A 
ATOM     13  C   UNL A   1      40.203  33.265  32.108  1.00  0.00     0.254 A 
ATOM     14  N   UNL A   1      40.930  32.661  33.071  1.00  0.00    -0.216 NA
ATOM     15  N   UNL A   1      38.866  33.212  32.042  1.00  0.00    -0.175 NA
ATOM     16  C   UNL A   1      40.261  32.007  34.048  1.00  0.00     0.050 A 
ATOM     17  C   UNL A   1      41.114  31.593  35.212  1.00  0.00     0.067 C 
ATOM     18  C   UNL A   1      38.890  31.801  33.998  1.00  0.00     0.033 A 
ATOM     19  C   UNL A   1      38.154  31.010  35.032  1.00  0.00     0.052 C 
BRANCH  13  20
ATOM     20  N   UNL A   1      40.905  33.978  31.076  1.00  0.00    -0.203 N 
ATOM     21  C   UNL A   1      43.989  34.809  29.508  1.00  0.00     0.069 C 
ATOM     22  C   UNL A   1      42.571  34.641  29.907  1.00  0.00     0.060 A 
ATOM     23  C   UNL A   1      41.419  34.970  29.164  1.00  0.00     0.049 A 
ATOM     24  N   UNL A   1      42.261  34.138  31.106  1.00  0.00    -0.170 NA
ATOM     25  C   UNL A   1      40.356  34.580  29.949  1.00  0.00     0.045 A 
ATOM     26  C   UNL A   1      38.899  34.790  29.761  1.00  0.00     0.067 C 
ENDBRANCH  13  20
ENDBRANCH  11  12
ENDBRANCH   6  11
ENDBRANCH   3   5
ENDBRANCH   2   3
ENDBRANCH   1   2
BRANCH   1  27
ATOM     27  C   UNL A   1      34.043  33.747  27.757  1.00  0.00     0.275 C 
BRANCH  27  28
ATOM     28  O   UNL A   1      35.095  32.981  28.348  1.00  0.00    -0.458 OA
BRANCH  28  29
ATOM     29  C   UNL A   1      35.151  31.689  27.955  1.00  0.00     0.338 C 
ATOM     30  O   UNL A   1      34.350  31.091  27.257  1.00  0.00    -0.246 OA
BRANCH  29  31
ATOM     31  C   UNL A   1      36.236  31.008  28.670  1.00  0.00     0.060 A 
ATOM     32  C   UNL A   1      37.349  31.773  29.032  1.00  0.00     0.016 A 
ATOM     33  C   UNL A   1      36.256  29.607  28.727  1.00  0.00     0.016 A 
ATOM     34  C   UNL A   1      38.538  31.126  29.305  1.00  0.00     0.010 A 
ATOM     35  C   UNL A   1      37.443  28.963  28.994  1.00  0.00     0.010 A 
ATOM     36  C   UNL A   1      38.588  29.731  29.209  1.00  0.00    -0.014 A 
BRANCH  36  37
ATOM     37  C   UNL A   1      39.875  29.084  29.370  1.00  0.00     0.031 A 
ATOM     38  C   UNL A   1      40.317  28.893  30.773  1.00  0.00     0.074 A 
ATOM     39  C   UNL A   1      40.551  28.575  28.322  1.00  0.00     0.049 A 
ATOM     40  N   UNL A   1      41.426  29.266  31.324  1.00  0.00    -0.248 NA
ATOM     41  C   UNL A   1      39.363  28.263  31.698  1.00  0.00     0.031 C 
ATOM     42  C   UNL A   1      40.101  28.429  26.936  1.00  0.00     0.029 A 
ATOM     43  N   UNL A   1      41.770  27.972  28.319  1.00  0.00    -0.354 N 
ATOM     44  C   UNL A   1      41.375  28.796  32.634  1.00  0.00     0.074 A 
ATOM     45  C   UNL A   1      40.044  28.287  32.840  1.00  0.00     0.031 C 
ATOM     46  C   UNL A   1      40.941  27.594  26.285  1.00  0.00     0.029 A 
ATOM     47  C   UNL A   1      42.043  27.252  27.169  1.00  0.00     0.049 A 
ATOM     48  H   UNL A   1      42.404  28.043  29.069  1.00  0.00     0.167 HD
ATOM     49  C   UNL A   1      42.493  28.685  33.398  1.00  0.00     0.037 A 
ATOM     50  C   UNL A   1      43.058  26.370  27.004  1.00  0.00     0.037 A 
ATOM     51  C   UNL A   1      43.542  29.552  32.932  1.00  0.00     0.049 A 
ATOM     52  C   UNL A   1      44.082  26.671  28.039  1.00  0.00     0.074 A 
ATOM     53  C   UNL A   1      43.664  30.920  32.781  1.00  0.00     0.029 A 
ATOM     54  N   UNL A   1      44.584  29.012  32.223  1.00  0.00    -0.354 N 
ATOM     55  N   UNL A   1      44.813  27.750  28.060  1.00  0.00    -0.248 NA
ATOM     56  C   UNL A   1      44.011  25.941  29.297  1.00  0.00     0.031 C 
ATOM     57  C   UNL A   1      44.458  31.097  31.611  1.00  0.00     0.029 A 
ATOM     58  C   UNL A   1      44.790  29.827  31.139  1.00  0.00     0.049 A 
ATOM     59  H   UNL A   1      45.087  28.196  32.448  1.00  0.00     0.167 HD
ATOM     60  C   UNL A   1      44.955  28.056  29.405  1.00  0.00     0.074 A 
ATOM     61  C   UNL A   1      44.533  26.855  30.117  1.00  0.00     0.031 C 
ATOM     62  C   UNL A   1      45.136  29.344  29.823  1.00  0.00     0.037 A 
BRANCH  49  63
ATOM     63  C   UNL A   1      42.734  27.559  34.373  1.00  0.00     0.064 A 
ATOM     64  C   UNL A   1      43.261  26.340  33.904  1.00  0.00     0.173 A 
ATOM     65  C   UNL A   1      42.198  27.527  35.680  1.00  0.00     0.173 A 
ATOM     66  F   UNL A   1      43.778  26.247  32.669  1.00  0.00    -0.203 F 
ATOM     67  C   UNL A   1      43.183  25.164  34.656  1.00  0.00     0.198 A 
ATOM     68  C   UNL A   1      42.173  26.364  36.448  1.00  0.00     0.198 A 
ATOM     69  F   UNL A   1      41.578  28.580  36.224  1.00  0.00    -0.203 F 
ATOM     70  F   UNL A   1      43.582  24.005  34.117  1.00  0.00    -0.200 F 
ATOM     71  C   UNL A   1      42.635  25.177  35.924  1.00  0.00     0.200 A 
ATOM     72  F   UNL A   1      41.621  26.394  37.670  1.00  0.00    -0.200 F 
ATOM     73  F   UNL A   1      42.503  24.041  36.621  1.00  0.00    -0.200 F 
ENDBRANCH  49  63
BRANCH  50  74
ATOM     74  C   UNL A   1      43.049  25.108  26.228  1.00  0.00     0.064 A 
ATOM     75  C   UNL A   1      44.046  24.842  25.274  1.00  0.00     0.173 A 
ATOM     76  C   UNL A   1      42.225  24.022  26.586  1.00  0.00     0.173 A 
ATOM     77  F   UNL A   1      44.905  25.805  24.911  1.00  0.00    -0.203 F 
ATOM     78  C   UNL A   1      44.223  23.564  24.734  1.00  0.00     0.198 A 
ATOM     79  C   UNL A   1      42.393  22.752  26.035  1.00  0.00     0.198 A 
ATOM     80  F   UNL A   1      41.299  24.142  27.548  1.00  0.00    -0.203 F 
ATOM     81  F   UNL A   1      45.229  23.335  23.879  1.00  0.00    -0.200 F 
ATOM     82  C   UNL A   1      43.402  22.519  25.121  1.00  0.00     0.200 A 
ATOM     83  F   UNL A   1      41.610  21.743  26.444  1.00  0.00    -0.200 F 
ATOM     84  F   UNL A   1      43.607  21.282  24.648  1.00  0.00    -0.200 F 
ENDBRANCH  50  74
BRANCH  62  85
ATOM     85  C   UNL A   1      45.431  30.386  28.783  1.00  0.00     0.064 A 
ATOM     86  C   UNL A   1      44.431  31.104  28.102  1.00  0.00     0.173 A 
ATOM     87  C   UNL A   1      46.758  30.799  28.602  1.00  0.00     0.173 A 
ATOM     88  F   UNL A   1      43.135  30.838  28.305  1.00  0.00    -0.203 F 
ATOM     89  C   UNL A   1      44.751  32.159  27.251  1.00  0.00     0.198 A 
ATOM     90  C   UNL A   1      47.072  31.878  27.779  1.00  0.00     0.198 A 
ATOM     91  F   UNL A   1      47.748  30.191  29.273  1.00  0.00    -0.203 F 
ATOM     92  F   UNL A   1      43.778  32.826  26.613  1.00  0.00    -0.200 F 
ATOM     93  C   UNL A   1      46.070  32.552  27.098  1.00  0.00     0.200 A 
ATOM     94  F   UNL A   1      48.343  32.288  27.673  1.00  0.00    -0.200 F 
ATOM     95  F   UNL A   1      46.373  33.600  26.321  1.00  0.00    -0.200 F 
ENDBRANCH  62  85
ENDBRANCH  36  37
ENDBRANCH  29  31
ENDBRANCH  28  29
ENDBRANCH  27  28
ENDBRANCH   1  27
TORSDOF 14
ENDMDL
