MODEL 1
REMARK VINA RESULT:     -11.0      0.000      0.000
REMARK SMILES O=C(C[N@@H+](CC(F)(F)F)[C@H]1CCCC[C@H]1O)OCCOC(=O)c1ccc(-c2c3nc(c(-c4c(F)c(F)c(F)c(F)c4F)c4ccc([nH]4)c(-c4c(F)c(F)c(F)c(F)c4F)c4nc(c(-c5c(F)c(F)c(F)c(F)c5F)c5ccc2[nH]5)C=C4)C=C3)cc1
REMARK SMILES IDX 18 1 17 2 2 3 1 4 3 5 4 6 5 8 6 9 7 10 8 11 9 12 10 13 11 14
REMARK SMILES IDX 15 15 12 16 14 17 13 18 16 19 19 21 20 22 21 23 22 24 23 25
REMARK SMILES IDX 24 26 85 27 25 28 84 29 26 30 27 31 28 32 78 33 29 34 83 35
REMARK SMILES IDX 77 36 79 37 30 38 82 39 76 40 75 41 31 43 63 44 43 45 62 46
REMARK SMILES IDX 44 47 47 48 61 49 80 50 45 51 46 52 60 54 81 55 48 56 32 57
REMARK SMILES IDX 33 58 41 59 34 60 35 61 39 62 42 63 36 64 37 65 40 66 38 67
REMARK SMILES IDX 64 68 65 69 73 70 66 71 67 72 71 73 74 74 68 75 69 76 72 77
REMARK SMILES IDX 70 78 49 79 50 80 58 81 51 82 52 83 56 84 59 85 53 86 54 87
REMARK SMILES IDX 57 88 55 89
REMARK H PARENT 4 7 16 20 79 42 47 53
REMARK Flexibility Score: inf
ROOT
ATOM      1  C   UNL A   1      32.791  32.057  27.369  1.00  0.00     0.274 C 
ENDROOT
BRANCH   1   2
ATOM      2  O   UNL A   1      31.992  31.173  26.553  1.00  0.00    -0.458 OA
BRANCH   2   3
ATOM      3  C   UNL A   1      32.414  29.986  26.053  1.00  0.00     0.361 C 
ATOM      4  O   UNL A   1      33.592  29.647  26.169  1.00  0.00    -0.245 OA
BRANCH   3   5
ATOM      5  C   UNL A   1      31.403  29.071  25.360  1.00  0.00     0.387 C 
BRANCH   5   6
ATOM      6  N   UNL A   1      31.295  29.327  23.912  1.00  0.00    -0.314 N 
ATOM      7  H   UNL A   1      31.846  30.156  23.687  1.00  0.00     0.349 HD
BRANCH   6   8
ATOM      8  C   UNL A   1      31.933  28.243  23.109  1.00  0.00     0.380 C 
BRANCH   8   9
ATOM      9  C   UNL A   1      33.469  28.134  22.905  1.00  0.00     0.438 C 
ATOM     10  F   UNL A   1      34.096  29.328  22.884  1.00  0.00    -0.165 F 
ATOM     11  F   UNL A   1      34.029  27.399  23.893  1.00  0.00    -0.165 F 
ATOM     12  F   UNL A   1      33.765  27.510  21.741  1.00  0.00    -0.165 F 
ENDBRANCH   8   9
ENDBRANCH   6   8
BRANCH   6  13
ATOM     13  C   UNL A   1      29.914  29.703  23.514  1.00  0.00     0.213 C 
ATOM     14  C   UNL A   1      29.585  31.128  24.001  1.00  0.00     0.068 C 
ATOM     15  C   UNL A   1      29.516  29.537  22.021  1.00  0.00     0.172 C 
ATOM     16  C   UNL A   1      28.100  31.436  23.796  1.00  0.00     0.006 C 
ATOM     17  C   UNL A   1      28.026  29.828  21.833  1.00  0.00     0.038 C 
ATOM     18  C   UNL A   1      27.649  31.216  22.354  1.00  0.00     0.003 C 
BRANCH  15  19
ATOM     19  O   UNL A   1      30.241  30.453  21.198  1.00  0.00    -0.387 OA
ATOM     20  H   UNL A   1      30.591  31.172  21.745  1.00  0.00     0.211 HD
ENDBRANCH  15  19
ENDBRANCH   6  13
ENDBRANCH   5   6
ENDBRANCH   3   5
ENDBRANCH   2   3
ENDBRANCH   1   2
BRANCH   1  21
ATOM     21  C   UNL A   1      32.435  33.525  27.101  1.00  0.00     0.275 C 
BRANCH  21  22
ATOM     22  O   UNL A   1      32.154  34.204  28.341  1.00  0.00    -0.458 OA
BRANCH  22  23
ATOM     23  C   UNL A   1      33.047  35.150  28.729  1.00  0.00     0.338 C 
ATOM     24  O   UNL A   1      32.872  36.354  28.751  1.00  0.00    -0.246 OA
BRANCH  23  25
ATOM     25  C   UNL A   1      34.213  34.471  29.346  1.00  0.00     0.060 A 
ATOM     26  C   UNL A   1      33.993  33.654  30.464  1.00  0.00     0.016 A 
ATOM     27  C   UNL A   1      35.494  34.571  28.796  1.00  0.00     0.016 A 
ATOM     28  C   UNL A   1      35.054  32.941  31.035  1.00  0.00     0.010 A 
ATOM     29  C   UNL A   1      36.553  33.859  29.367  1.00  0.00     0.010 A 
ATOM     30  C   UNL A   1      36.344  33.054  30.501  1.00  0.00    -0.014 A 
BRANCH  30  31
ATOM     31  C   UNL A   1      37.517  32.474  31.203  1.00  0.00     0.031 A 
ATOM     32  C   UNL A   1      38.204  31.290  30.584  1.00  0.00     0.074 A 
ATOM     33  C   UNL A   1      37.940  32.943  32.391  1.00  0.00     0.049 A 
ATOM     34  N   UNL A   1      39.189  30.563  31.046  1.00  0.00    -0.248 NA
ATOM     35  C   UNL A   1      37.704  30.865  29.268  1.00  0.00     0.031 C 
ATOM     36  C   UNL A   1      37.378  34.088  33.096  1.00  0.00     0.029 A 
ATOM     37  N   UNL A   1      38.929  32.483  33.228  1.00  0.00    -0.354 N 
ATOM     38  C   UNL A   1      39.430  29.602  30.076  1.00  0.00     0.074 A 
ATOM     39  C   UNL A   1      38.459  29.806  29.022  1.00  0.00     0.031 C 
ATOM     40  C   UNL A   1      37.993  34.215  34.285  1.00  0.00     0.029 A 
ATOM     41  C   UNL A   1      38.989  33.153  34.426  1.00  0.00     0.049 A 
ATOM     42  H   UNL A   1      39.535  31.744  32.993  1.00  0.00     0.167 HD
ATOM     43  C   UNL A   1      40.387  28.646  30.052  1.00  0.00     0.037 A 
ATOM     44  C   UNL A   1      39.745  32.919  35.517  1.00  0.00     0.037 A 
ATOM     45  C   UNL A   1      41.352  28.431  31.095  1.00  0.00     0.049 A 
ATOM     46  C   UNL A   1      40.751  31.795  35.506  1.00  0.00     0.074 A 
ATOM     47  C   UNL A   1      42.391  27.520  31.135  1.00  0.00     0.029 A 
ATOM     48  N   UNL A   1      41.382  29.128  32.293  1.00  0.00    -0.354 N 
ATOM     49  N   UNL A   1      41.028  30.942  34.550  1.00  0.00    -0.248 NA
ATOM     50  C   UNL A   1      41.558  31.609  36.722  1.00  0.00     0.031 C 
ATOM     51  C   UNL A   1      43.022  27.632  32.379  1.00  0.00     0.029 A 
ATOM     52  C   UNL A   1      42.403  28.644  33.094  1.00  0.00     0.049 A 
ATOM     53  H   UNL A   1      40.770  29.859  32.538  1.00  0.00     0.167 HD
ATOM     54  C   UNL A   1      42.062  30.149  35.032  1.00  0.00     0.074 A 
ATOM     55  C   UNL A   1      42.363  30.617  36.368  1.00  0.00     0.031 C 
ATOM     56  C   UNL A   1      42.709  29.129  34.415  1.00  0.00     0.037 A 
BRANCH  43  57
ATOM     57  C   UNL A   1      40.420  27.750  28.852  1.00  0.00     0.064 A 
ATOM     58  C   UNL A   1      41.200  28.063  27.729  1.00  0.00     0.173 A 
ATOM     59  C   UNL A   1      39.664  26.571  28.824  1.00  0.00     0.173 A 
ATOM     60  F   UNL A   1      41.926  29.190  27.703  1.00  0.00    -0.203 F 
ATOM     61  C   UNL A   1      41.193  27.242  26.605  1.00  0.00     0.198 A 
ATOM     62  C   UNL A   1      39.680  25.739  27.708  1.00  0.00     0.198 A 
ATOM     63  F   UNL A   1      38.903  26.229  29.875  1.00  0.00    -0.203 F 
ATOM     64  F   UNL A   1      41.900  27.588  25.520  1.00  0.00    -0.200 F 
ATOM     65  C   UNL A   1      40.436  26.080  26.597  1.00  0.00     0.200 A 
ATOM     66  F   UNL A   1      38.953  24.613  27.704  1.00  0.00    -0.200 F 
ATOM     67  F   UNL A   1      40.426  25.294  25.512  1.00  0.00    -0.200 F 
ENDBRANCH  43  57
BRANCH  44  68
ATOM     68  C   UNL A   1      39.580  33.762  36.730  1.00  0.00     0.064 A 
ATOM     69  C   UNL A   1      40.290  34.961  36.881  1.00  0.00     0.173 A 
ATOM     70  C   UNL A   1      38.736  33.366  37.778  1.00  0.00     0.173 A 
ATOM     71  F   UNL A   1      41.130  35.366  35.917  1.00  0.00    -0.203 F 
ATOM     72  C   UNL A   1      40.177  35.723  38.042  1.00  0.00     0.198 A 
ATOM     73  C   UNL A   1      38.607  34.139  38.929  1.00  0.00     0.198 A 
ATOM     74  F   UNL A   1      38.041  32.223  37.684  1.00  0.00    -0.203 F 
ATOM     75  F   UNL A   1      40.901  36.842  38.180  1.00  0.00    -0.200 F 
ATOM     76  C   UNL A   1      39.333  35.314  39.063  1.00  0.00     0.200 A 
ATOM     77  F   UNL A   1      37.787  33.743  39.912  1.00  0.00    -0.200 F 
ATOM     78  F   UNL A   1      39.228  36.044  40.182  1.00  0.00    -0.200 F 
ENDBRANCH  44  68
BRANCH  56  79
ATOM     79  C   UNL A   1      43.840  28.472  35.150  1.00  0.00     0.064 A 
ATOM     80  C   UNL A   1      45.151  28.964  35.077  1.00  0.00     0.173 A 
ATOM     81  C   UNL A   1      43.593  27.381  35.997  1.00  0.00     0.173 A 
ATOM     82  F   UNL A   1      45.441  29.996  34.270  1.00  0.00    -0.203 F 
ATOM     83  C   UNL A   1      46.176  28.381  35.820  1.00  0.00     0.198 A 
ATOM     84  C   UNL A   1      44.614  26.817  36.758  1.00  0.00     0.198 A 
ATOM     85  F   UNL A   1      42.355  26.877  36.106  1.00  0.00    -0.203 F 
ATOM     86  F   UNL A   1      47.427  28.850  35.715  1.00  0.00    -0.200 F 
ATOM     87  C   UNL A   1      45.905  27.316  36.667  1.00  0.00     0.200 A 
ATOM     88  F   UNL A   1      44.347  25.796  37.584  1.00  0.00    -0.200 F 
ATOM     89  F   UNL A   1      46.888  26.768  37.393  1.00  0.00    -0.200 F 
ENDBRANCH  56  79
ENDBRANCH  30  31
ENDBRANCH  23  25
ENDBRANCH  22  23
ENDBRANCH  21  22
ENDBRANCH   1  21
TORSDOF 16
ENDMDL
MODEL 2
REMARK VINA RESULT:     -10.9      5.891     10.434
REMARK SMILES O=C(C[N@@H+](CC(F)(F)F)[C@H]1CCCC[C@H]1O)OCCOC(=O)c1ccc(-c2c3nc(c(-c4c(F)c(F)c(F)c(F)c4F)c4ccc([nH]4)c(-c4c(F)c(F)c(F)c(F)c4F)c4nc(c(-c5c(F)c(F)c(F)c(F)c5F)c5ccc2[nH]5)C=C4)C=C3)cc1
REMARK SMILES IDX 18 1 17 2 2 3 1 4 3 5 4 6 5 8 6 9 7 10 8 11 9 12 10 13 11 14
REMARK SMILES IDX 15 15 12 16 14 17 13 18 16 19 19 21 20 22 21 23 22 24 23 25
REMARK SMILES IDX 24 26 85 27 25 28 84 29 26 30 27 31 28 32 78 33 29 34 83 35
REMARK SMILES IDX 77 36 79 37 30 38 82 39 76 40 75 41 31 43 63 44 43 45 62 46
REMARK SMILES IDX 44 47 47 48 61 49 80 50 45 51 46 52 60 54 81 55 48 56 32 57
REMARK SMILES IDX 33 58 41 59 34 60 35 61 39 62 42 63 36 64 37 65 40 66 38 67
REMARK SMILES IDX 64 68 65 69 73 70 66 71 67 72 71 73 74 74 68 75 69 76 72 77
REMARK SMILES IDX 70 78 49 79 50 80 58 81 51 82 52 83 56 84 59 85 53 86 54 87
REMARK SMILES IDX 57 88 55 89
REMARK H PARENT 4 7 16 20 79 42 47 53
REMARK Flexibility Score: inf
ROOT
ATOM      1  C   UNL A   1      42.147  21.297  26.496  1.00  0.00     0.274 C 
ENDROOT
BRANCH   1   2
ATOM      2  O   UNL A   1      42.498  22.156  25.389  1.00  0.00    -0.458 OA
BRANCH   2   3
ATOM      3  C   UNL A   1      43.764  22.466  25.017  1.00  0.00     0.361 C 
ATOM      4  O   UNL A   1      44.025  22.689  23.835  1.00  0.00    -0.245 OA
BRANCH   3   5
ATOM      5  C   UNL A   1      44.853  22.549  26.087  1.00  0.00     0.387 C 
BRANCH   5   6
ATOM      6  N   UNL A   1      44.681  23.701  26.992  1.00  0.00    -0.314 N 
ATOM      7  H   UNL A   1      43.762  24.110  26.826  1.00  0.00     0.349 HD
BRANCH   6   8
ATOM      8  C   UNL A   1      44.634  23.279  28.423  1.00  0.00     0.380 C 
BRANCH   8   9
ATOM      9  C   UNL A   1      43.404  23.528  29.337  1.00  0.00     0.438 C 
ATOM     10  F   UNL A   1      42.303  23.919  28.664  1.00  0.00    -0.165 F 
ATOM     11  F   UNL A   1      43.085  22.406  30.021  1.00  0.00    -0.165 F 
ATOM     12  F   UNL A   1      43.665  24.484  30.259  1.00  0.00    -0.165 F 
ENDBRANCH   8   9
ENDBRANCH   6   8
BRANCH   6  13
ATOM     13  C   UNL A   1      45.621  24.806  26.672  1.00  0.00     0.213 C 
ATOM     14  C   UNL A   1      46.912  24.246  26.041  1.00  0.00     0.068 C 
ATOM     15  C   UNL A   1      45.083  25.998  25.833  1.00  0.00     0.172 C 
ATOM     16  C   UNL A   1      47.969  25.346  25.918  1.00  0.00     0.006 C 
ATOM     17  C   UNL A   1      46.142  27.099  25.733  1.00  0.00     0.038 C 
ATOM     18  C   UNL A   1      47.457  26.569  25.160  1.00  0.00     0.003 C 
BRANCH  15  19
ATOM     19  O   UNL A   1      44.768  25.583  24.503  1.00  0.00    -0.387 OA
ATOM     20  H   UNL A   1      45.034  26.274  23.877  1.00  0.00     0.211 HD
ENDBRANCH  15  19
ENDBRANCH   6  13
ENDBRANCH   5   6
ENDBRANCH   3   5
ENDBRANCH   2   3
ENDBRANCH   1   2
BRANCH   1  21
ATOM     21  C   UNL A   1      40.666  20.903  26.440  1.00  0.00     0.275 C 
BRANCH  21  22
ATOM     22  O   UNL A   1      39.872  21.843  27.192  1.00  0.00    -0.458 OA
BRANCH  22  23
ATOM     23  C   UNL A   1      39.184  22.765  26.472  1.00  0.00     0.338 C 
ATOM     24  O   UNL A   1      38.307  22.550  25.657  1.00  0.00    -0.246 OA
BRANCH  23  25
ATOM     25  C   UNL A   1      39.509  24.112  27.001  1.00  0.00     0.060 A 
ATOM     26  C   UNL A   1      40.175  25.016  26.160  1.00  0.00     0.016 A 
ATOM     27  C   UNL A   1      39.104  24.517  28.277  1.00  0.00     0.016 A 
ATOM     28  C   UNL A   1      40.440  26.320  26.594  1.00  0.00     0.010 A 
ATOM     29  C   UNL A   1      39.369  25.819  28.710  1.00  0.00     0.010 A 
ATOM     30  C   UNL A   1      40.054  26.724  27.879  1.00  0.00    -0.014 A 
BRANCH  30  31
ATOM     31  C   UNL A   1      40.498  28.026  28.438  1.00  0.00     0.031 A 
ATOM     32  C   UNL A   1      41.943  28.186  28.812  1.00  0.00     0.074 A 
ATOM     33  C   UNL A   1      39.636  29.034  28.665  1.00  0.00     0.049 A 
ATOM     34  N   UNL A   1      42.547  29.192  29.391  1.00  0.00    -0.248 NA
ATOM     35  C   UNL A   1      42.824  27.051  28.496  1.00  0.00     0.031 C 
ATOM     36  C   UNL A   1      38.215  29.021  28.340  1.00  0.00     0.029 A 
ATOM     37  N   UNL A   1      39.834  30.258  29.258  1.00  0.00    -0.354 N 
ATOM     38  C   UNL A   1      43.877  28.814  29.502  1.00  0.00     0.074 A 
ATOM     39  C   UNL A   1      43.985  27.471  28.975  1.00  0.00     0.031 C 
ATOM     40  C   UNL A   1      37.654  30.160  28.781  1.00  0.00     0.029 A 
ATOM     41  C   UNL A   1      38.679  30.980  29.428  1.00  0.00     0.049 A 
ATOM     42  H   UNL A   1      40.721  30.587  29.535  1.00  0.00     0.167 HD
ATOM     43  C   UNL A   1      44.922  29.529  29.981  1.00  0.00     0.037 A 
ATOM     44  C   UNL A   1      38.470  32.155  30.054  1.00  0.00     0.037 A 
ATOM     45  C   UNL A   1      44.825  30.860  30.511  1.00  0.00     0.049 A 
ATOM     46  C   UNL A   1      39.634  32.901  30.657  1.00  0.00     0.074 A 
ATOM     47  C   UNL A   1      45.838  31.681  30.972  1.00  0.00     0.029 A 
ATOM     48  N   UNL A   1      43.639  31.559  30.668  1.00  0.00    -0.354 N 
ATOM     49  N   UNL A   1      40.902  32.573  30.684  1.00  0.00    -0.248 NA
ATOM     50  C   UNL A   1      39.338  34.188  31.307  1.00  0.00     0.031 C 
ATOM     51  C   UNL A   1      45.258  32.860  31.454  1.00  0.00     0.029 A 
ATOM     52  C   UNL A   1      43.890  32.790  31.250  1.00  0.00     0.049 A 
ATOM     53  H   UNL A   1      42.749  31.229  30.405  1.00  0.00     0.167 HD
ATOM     54  C   UNL A   1      41.558  33.623  31.313  1.00  0.00     0.074 A 
ATOM     55  C   UNL A   1      40.548  34.601  31.658  1.00  0.00     0.031 C 
ATOM     56  C   UNL A   1      42.881  33.766  31.573  1.00  0.00     0.037 A 
BRANCH  43  57
ATOM     57  C   UNL A   1      46.264  28.864  29.960  1.00  0.00     0.064 A 
ATOM     58  C   UNL A   1      47.098  28.940  28.835  1.00  0.00     0.173 A 
ATOM     59  C   UNL A   1      46.717  28.141  31.071  1.00  0.00     0.173 A 
ATOM     60  F   UNL A   1      46.699  29.605  27.741  1.00  0.00    -0.203 F 
ATOM     61  C   UNL A   1      48.327  28.286  28.812  1.00  0.00     0.198 A 
ATOM     62  C   UNL A   1      47.958  27.510  31.055  1.00  0.00     0.198 A 
ATOM     63  F   UNL A   1      45.954  28.040  32.170  1.00  0.00    -0.203 F 
ATOM     64  F   UNL A   1      49.085  28.324  27.708  1.00  0.00    -0.200 F 
ATOM     65  C   UNL A   1      48.756  27.575  29.924  1.00  0.00     0.200 A 
ATOM     66  F   UNL A   1      48.374  26.829  32.131  1.00  0.00    -0.200 F 
ATOM     67  F   UNL A   1      49.937  26.942  29.898  1.00  0.00    -0.200 F 
ENDBRANCH  43  57
BRANCH  44  68
ATOM     68  C   UNL A   1      37.094  32.708  30.157  1.00  0.00     0.064 A 
ATOM     69  C   UNL A   1      36.587  33.576  29.181  1.00  0.00     0.173 A 
ATOM     70  C   UNL A   1      36.273  32.408  31.255  1.00  0.00     0.173 A 
ATOM     71  F   UNL A   1      37.346  33.914  28.128  1.00  0.00    -0.203 F 
ATOM     72  C   UNL A   1      35.318  34.138  29.306  1.00  0.00     0.198 A 
ATOM     73  C   UNL A   1      34.996  32.953  31.368  1.00  0.00     0.198 A 
ATOM     74  F   UNL A   1      36.715  31.588  32.219  1.00  0.00    -0.203 F 
ATOM     75  F   UNL A   1      34.875  35.000  28.381  1.00  0.00    -0.200 F 
ATOM     76  C   UNL A   1      34.522  33.823  30.397  1.00  0.00     0.200 A 
ATOM     77  F   UNL A   1      34.228  32.643  32.422  1.00  0.00    -0.200 F 
ATOM     78  F   UNL A   1      33.304  34.367  30.520  1.00  0.00    -0.200 F 
ENDBRANCH  44  68
BRANCH  56  79
ATOM     79  C   UNL A   1      43.333  35.042  32.221  1.00  0.00     0.064 A 
ATOM     80  C   UNL A   1      43.517  35.140  33.607  1.00  0.00     0.173 A 
ATOM     81  C   UNL A   1      43.660  36.157  31.433  1.00  0.00     0.173 A 
ATOM     82  F   UNL A   1      43.205  34.107  34.404  1.00  0.00    -0.203 F 
ATOM     83  C   UNL A   1      44.003  36.312  34.183  1.00  0.00     0.198 A 
ATOM     84  C   UNL A   1      44.170  37.318  32.009  1.00  0.00     0.198 A 
ATOM     85  F   UNL A   1      43.507  36.112  30.101  1.00  0.00    -0.203 F 
ATOM     86  F   UNL A   1      44.146  36.394  35.512  1.00  0.00    -0.200 F 
ATOM     87  C   UNL A   1      44.339  37.395  33.383  1.00  0.00     0.200 A 
ATOM     88  F   UNL A   1      44.505  38.358  31.233  1.00  0.00    -0.200 F 
ATOM     89  F   UNL A   1      44.823  38.515  33.937  1.00  0.00    -0.200 F 
ENDBRANCH  56  79
ENDBRANCH  30  31
ENDBRANCH  23  25
ENDBRANCH  22  23
ENDBRANCH  21  22
ENDBRANCH   1  21
TORSDOF 16
ENDMDL
MODEL 3
REMARK VINA RESULT:     -10.8      0.420      1.682
REMARK SMILES O=C(C[N@@H+](CC(F)(F)F)[C@H]1CCCC[C@H]1O)OCCOC(=O)c1ccc(-c2c3nc(c(-c4c(F)c(F)c(F)c(F)c4F)c4ccc([nH]4)c(-c4c(F)c(F)c(F)c(F)c4F)c4nc(c(-c5c(F)c(F)c(F)c(F)c5F)c5ccc2[nH]5)C=C4)C=C3)cc1
REMARK SMILES IDX 18 1 17 2 2 3 1 4 3 5 4 6 5 8 6 9 7 10 8 11 9 12 10 13 11 14
REMARK SMILES IDX 15 15 12 16 14 17 13 18 16 19 19 21 20 22 21 23 22 24 23 25
REMARK SMILES IDX 24 26 85 27 25 28 84 29 26 30 27 31 28 32 78 33 29 34 83 35
REMARK SMILES IDX 77 36 79 37 30 38 82 39 76 40 75 41 31 43 63 44 43 45 62 46
REMARK SMILES IDX 44 47 47 48 61 49 80 50 45 51 46 52 60 54 81 55 48 56 32 57
REMARK SMILES IDX 33 58 41 59 34 60 35 61 39 62 42 63 36 64 37 65 40 66 38 67
REMARK SMILES IDX 64 68 65 69 73 70 66 71 67 72 71 73 74 74 68 75 69 76 72 77
REMARK SMILES IDX 70 78 49 79 50 80 58 81 51 82 52 83 56 84 59 85 53 86 54 87
REMARK SMILES IDX 57 88 55 89
REMARK H PARENT 4 7 16 20 79 42 47 53
REMARK Flexibility Score: inf
ROOT
ATOM      1  C   UNL A   1      31.769  32.363  26.841  1.00  0.00     0.274 C 
ENDROOT
BRANCH   1   2
ATOM      2  O   UNL A   1      31.805  30.932  27.035  1.00  0.00    -0.458 OA
BRANCH   2   3
ATOM      3  C   UNL A   1      32.314  30.041  26.151  1.00  0.00     0.361 C 
ATOM      4  O   UNL A   1      33.512  30.060  25.870  1.00  0.00    -0.245 OA
BRANCH   3   5
ATOM      5  C   UNL A   1      31.381  29.004  25.522  1.00  0.00     0.387 C 
BRANCH   5   6
ATOM      6  N   UNL A   1      31.325  29.101  24.052  1.00  0.00    -0.314 N 
ATOM      7  H   UNL A   1      31.951  29.848  23.751  1.00  0.00     0.349 HD
BRANCH   6   8
ATOM      8  C   UNL A   1      31.878  27.880  23.395  1.00  0.00     0.380 C 
BRANCH   8   9
ATOM      9  C   UNL A   1      33.353  27.770  22.921  1.00  0.00     0.438 C 
ATOM     10  F   UNL A   1      33.823  28.902  22.357  1.00  0.00    -0.165 F 
ATOM     11  F   UNL A   1      34.165  27.466  23.959  1.00  0.00    -0.165 F 
ATOM     12  F   UNL A   1      33.501  26.781  22.009  1.00  0.00    -0.165 F 
ENDBRANCH   8   9
ENDBRANCH   6   8
BRANCH   6  13
ATOM     13  C   UNL A   1      29.991  29.547  23.574  1.00  0.00     0.213 C 
ATOM     14  C   UNL A   1      29.712  30.992  24.033  1.00  0.00     0.068 C 
ATOM     15  C   UNL A   1      29.669  29.390  22.062  1.00  0.00     0.172 C 
ATOM     16  C   UNL A   1      28.259  31.376  23.743  1.00  0.00     0.006 C 
ATOM     17  C   UNL A   1      28.210  29.759  21.787  1.00  0.00     0.038 C 
ATOM     18  C   UNL A   1      27.880  31.169  22.278  1.00  0.00     0.003 C 
BRANCH  15  19
ATOM     19  O   UNL A   1      30.488  30.259  21.276  1.00  0.00    -0.387 OA
ATOM     20  H   UNL A   1      30.956  30.876  21.858  1.00  0.00     0.211 HD
ENDBRANCH  15  19
ENDBRANCH   6  13
ENDBRANCH   5   6
ENDBRANCH   3   5
ENDBRANCH   2   3
ENDBRANCH   1   2
BRANCH   1  21
ATOM     21  C   UNL A   1      32.745  33.072  27.788  1.00  0.00     0.275 C 
BRANCH  21  22
ATOM     22  O   UNL A   1      32.588  34.501  27.687  1.00  0.00    -0.458 OA
BRANCH  22  23
ATOM     23  C   UNL A   1      32.993  35.232  28.756  1.00  0.00     0.338 C 
ATOM     24  O   UNL A   1      32.400  36.159  29.276  1.00  0.00    -0.246 OA
BRANCH  23  25
ATOM     25  C   UNL A   1      34.186  34.577  29.348  1.00  0.00     0.060 A 
ATOM     26  C   UNL A   1      34.015  33.803  30.506  1.00  0.00     0.016 A 
ATOM     27  C   UNL A   1      35.443  34.655  28.741  1.00  0.00     0.016 A 
ATOM     28  C   UNL A   1      35.100  33.112  31.058  1.00  0.00     0.010 A 
ATOM     29  C   UNL A   1      36.526  33.966  29.294  1.00  0.00     0.010 A 
ATOM     30  C   UNL A   1      36.366  33.204  30.466  1.00  0.00    -0.014 A 
BRANCH  30  31
ATOM     31  C   UNL A   1      37.569  32.651  31.138  1.00  0.00     0.031 A 
ATOM     32  C   UNL A   1      38.261  31.477  30.507  1.00  0.00     0.074 A 
ATOM     33  C   UNL A   1      38.014  33.135  32.312  1.00  0.00     0.049 A 
ATOM     34  N   UNL A   1      39.272  30.772  30.947  1.00  0.00    -0.248 NA
ATOM     35  C   UNL A   1      37.734  31.034  29.208  1.00  0.00     0.031 C 
ATOM     36  C   UNL A   1      37.449  34.273  33.026  1.00  0.00     0.029 A 
ATOM     37  N   UNL A   1      39.034  32.699  33.125  1.00  0.00    -0.354 N 
ATOM     38  C   UNL A   1      39.505  29.810  29.976  1.00  0.00     0.074 A 
ATOM     39  C   UNL A   1      38.503  29.989  28.947  1.00  0.00     0.031 C 
ATOM     40  C   UNL A   1      38.094  34.419  34.197  1.00  0.00     0.029 A 
ATOM     41  C   UNL A   1      39.114  33.377  34.316  1.00  0.00     0.049 A 
ATOM     42  H   UNL A   1      39.648  31.970  32.877  1.00  0.00     0.167 HD
ATOM     43  C   UNL A   1      40.480  28.872  29.931  1.00  0.00     0.037 A 
ATOM     44  C   UNL A   1      39.903  33.165  35.388  1.00  0.00     0.037 A 
ATOM     45  C   UNL A   1      41.476  28.682  30.949  1.00  0.00     0.049 A 
ATOM     46  C   UNL A   1      40.929  32.060  35.356  1.00  0.00     0.074 A 
ATOM     47  C   UNL A   1      42.534  27.791  30.966  1.00  0.00     0.029 A 
ATOM     48  N   UNL A   1      41.526  29.386  32.141  1.00  0.00    -0.354 N 
ATOM     49  N   UNL A   1      41.198  31.207  34.398  1.00  0.00    -0.248 NA
ATOM     50  C   UNL A   1      41.772  31.897  36.551  1.00  0.00     0.031 C 
ATOM     51  C   UNL A   1      43.196  27.922  32.191  1.00  0.00     0.029 A 
ATOM     52  C   UNL A   1      42.577  28.927  32.917  1.00  0.00     0.049 A 
ATOM     53  H   UNL A   1      40.906  30.107  32.399  1.00  0.00     0.167 HD
ATOM     54  C   UNL A   1      42.259  30.437  34.855  1.00  0.00     0.074 A 
ATOM     55  C   UNL A   1      42.587  30.919  36.180  1.00  0.00     0.031 C 
ATOM     56  C   UNL A   1      42.908  29.426  34.227  1.00  0.00     0.037 A 
BRANCH  43  57
ATOM     57  C   UNL A   1      40.498  27.970  28.736  1.00  0.00     0.064 A 
ATOM     58  C   UNL A   1      39.796  26.755  28.727  1.00  0.00     0.173 A 
ATOM     59  C   UNL A   1      41.227  28.320  27.591  1.00  0.00     0.173 A 
ATOM     60  F   UNL A   1      39.099  26.370  29.807  1.00  0.00    -0.203 F 
ATOM     61  C   UNL A   1      39.850  25.907  27.625  1.00  0.00     0.198 A 
ATOM     62  C   UNL A   1      41.258  27.481  26.481  1.00  0.00     0.198 A 
ATOM     63  F   UNL A   1      41.914  29.472  27.552  1.00  0.00    -0.203 F 
ATOM     64  F   UNL A   1      39.218  24.726  27.658  1.00  0.00    -0.200 F 
ATOM     65  C   UNL A   1      40.579  26.273  26.502  1.00  0.00     0.200 A 
ATOM     66  F   UNL A   1      41.956  27.838  25.394  1.00  0.00    -0.200 F 
ATOM     67  F   UNL A   1      40.635  25.453  25.444  1.00  0.00    -0.200 F 
ENDBRANCH  43  57
BRANCH  44  68
ATOM     68  C   UNL A   1      39.755  34.012  36.600  1.00  0.00     0.064 A 
ATOM     69  C   UNL A   1      40.469  35.209  36.739  1.00  0.00     0.173 A 
ATOM     70  C   UNL A   1      38.922  33.620  37.660  1.00  0.00     0.173 A 
ATOM     71  F   UNL A   1      41.298  35.610  35.764  1.00  0.00    -0.203 F 
ATOM     72  C   UNL A   1      40.371  35.975  37.899  1.00  0.00     0.198 A 
ATOM     73  C   UNL A   1      38.809  34.397  38.810  1.00  0.00     0.198 A 
ATOM     74  F   UNL A   1      38.223  32.479  37.577  1.00  0.00    -0.203 F 
ATOM     75  F   UNL A   1      41.100  37.093  38.025  1.00  0.00    -0.200 F 
ATOM     76  C   UNL A   1      39.538  35.571  38.932  1.00  0.00     0.200 A 
ATOM     77  F   UNL A   1      38.000  34.005  39.804  1.00  0.00    -0.200 F 
ATOM     78  F   UNL A   1      39.449  36.304  40.050  1.00  0.00    -0.200 F 
ENDBRANCH  44  68
BRANCH  56  79
ATOM     79  C   UNL A   1      44.072  28.795  34.934  1.00  0.00     0.064 A 
ATOM     80  C   UNL A   1      43.923  27.639  35.713  1.00  0.00     0.173 A 
ATOM     81  C   UNL A   1      45.366  29.312  34.766  1.00  0.00     0.173 A 
ATOM     82  F   UNL A   1      42.705  27.115  35.917  1.00  0.00    -0.203 F 
ATOM     83  C   UNL A   1      45.026  27.029  36.306  1.00  0.00     0.198 A 
ATOM     84  C   UNL A   1      46.470  28.686  35.338  1.00  0.00     0.198 A 
ATOM     85  F   UNL A   1      45.562  30.414  34.025  1.00  0.00    -0.203 F 
ATOM     86  F   UNL A   1      44.858  25.941  37.069  1.00  0.00    -0.200 F 
ATOM     87  C   UNL A   1      46.299  27.546  36.110  1.00  0.00     0.200 A 
ATOM     88  F   UNL A   1      47.699  29.180  35.137  1.00  0.00    -0.200 F 
ATOM     89  F   UNL A   1      47.361  26.948  36.667  1.00  0.00    -0.200 F 
ENDBRANCH  56  79
ENDBRANCH  30  31
ENDBRANCH  23  25
ENDBRANCH  22  23
ENDBRANCH  21  22
ENDBRANCH   1  21
TORSDOF 16
ENDMDL
