MODEL 1
REMARK VINA RESULT:     -11.2      0.000      0.000
REMARK SMILES O=C(C[C@@H]1CN(C(=O)NCc2cccs2)CCO1)OCCOC(=O)c1ccc(-c2c3nc(c(-c4c(F)c(F)c(F)c(F)c4F)c4ccc([nH]4)c(-c4c(F)c(F)c(F)c(F)c4F)c4nc(c(-c5c(F)c(F)c(F)c(F)c5F)c5ccc2[nH]5)C=C4)C=C3)cc1
REMARK SMILES IDX 20 1 19 2 2 3 1 4 3 5 4 6 5 7 18 8 6 9 17 10 16 11 7 12 8 13
REMARK SMILES IDX 9 14 10 16 11 17 12 18 15 19 13 20 14 21 21 22 22 23 23 24
REMARK SMILES IDX 24 25 25 26 26 27 87 28 27 29 86 30 28 31 29 32 30 33 80 34
REMARK SMILES IDX 31 35 85 36 79 37 81 38 32 39 84 40 78 41 77 42 33 44 65 45
REMARK SMILES IDX 45 46 64 47 46 48 49 49 63 50 82 51 47 52 48 53 62 55 83 56
REMARK SMILES IDX 50 57 34 58 35 59 43 60 36 61 37 62 41 63 44 64 38 65 39 66
REMARK SMILES IDX 42 67 40 68 66 69 67 70 75 71 68 72 69 73 73 74 76 75 70 76
REMARK SMILES IDX 71 77 74 78 72 79 51 80 52 81 60 82 53 83 54 84 58 85 61 86
REMARK SMILES IDX 55 87 56 88 59 89 57 90
REMARK H PARENT 9 15 81 43 49 54
REMARK Flexibility Score: inf
ROOT
ATOM      1  C   UNL A   1      31.384  31.652  26.492  1.00  0.00     0.274 C 
ENDROOT
BRANCH   1   2
ATOM      2  O   UNL A   1      32.090  30.614  27.204  1.00  0.00    -0.462 OA
BRANCH   2   3
ATOM      3  C   UNL A   1      32.804  29.615  26.645  1.00  0.00     0.308 C 
ATOM      4  O   UNL A   1      33.179  28.666  27.331  1.00  0.00    -0.252 OA
BRANCH   3   5
ATOM      5  C   UNL A   1      33.131  29.657  25.180  1.00  0.00     0.156 C 
BRANCH   5   6
ATOM      6  C   UNL A   1      32.672  28.451  24.380  1.00  0.00     0.149 C 
ATOM      7  C   UNL A   1      32.927  28.529  22.865  1.00  0.00     0.154 C 
ATOM      8  O   UNL A   1      31.242  28.318  24.616  1.00  0.00    -0.374 OA
ATOM      9  N   UNL A   1      32.465  27.266  22.292  1.00  0.00    -0.320 N 
ATOM     10  C   UNL A   1      30.685  27.162  23.956  1.00  0.00     0.182 C 
ATOM     11  C   UNL A   1      31.011  27.144  22.454  1.00  0.00     0.150 C 
BRANCH   9  12
ATOM     12  C   UNL A   1      33.152  26.136  21.969  1.00  0.00     0.317 C 
ATOM     13  O   UNL A   1      33.220  25.748  20.797  1.00  0.00    -0.249 OA
ATOM     14  N   UNL A   1      33.758  25.330  22.847  1.00  0.00    -0.333 N 
ATOM     15  H   UNL A   1      34.184  24.577  22.379  1.00  0.00     0.165 HD
BRANCH  14  16
ATOM     16  C   UNL A   1      33.981  25.223  24.272  1.00  0.00     0.164 C 
BRANCH  16  17
ATOM     17  C   UNL A   1      35.075  24.226  24.532  1.00  0.00     0.024 A 
ATOM     18  C   UNL A   1      35.954  24.154  25.598  1.00  0.00     0.017 A 
ATOM     19  S   UNL A   1      35.423  23.022  23.359  1.00  0.00    -0.147 S 
ATOM     20  C   UNL A   1      36.943  23.143  25.422  1.00  0.00     0.012 A 
ATOM     21  C   UNL A   1      36.769  22.452  24.244  1.00  0.00     0.065 A 
ENDBRANCH  16  17
ENDBRANCH  14  16
ENDBRANCH   9  12
ENDBRANCH   5   6
ENDBRANCH   3   5
ENDBRANCH   2   3
ENDBRANCH   1   2
BRANCH   1  22
ATOM     22  C   UNL A   1      31.777  33.050  26.960  1.00  0.00     0.275 C 
BRANCH  22  23
ATOM     23  O   UNL A   1      33.206  33.152  26.999  1.00  0.00    -0.458 OA
BRANCH  23  24
ATOM     24  C   UNL A   1      33.702  33.756  28.107  1.00  0.00     0.338 C 
ATOM     25  O   UNL A   1      33.167  34.625  28.771  1.00  0.00    -0.246 OA
BRANCH  24  26
ATOM     26  C   UNL A   1      34.920  33.035  28.527  1.00  0.00     0.060 A 
ATOM     27  C   UNL A   1      34.767  31.728  29.002  1.00  0.00     0.016 A 
ATOM     28  C   UNL A   1      36.193  33.606  28.414  1.00  0.00     0.016 A 
ATOM     29  C   UNL A   1      35.884  31.000  29.406  1.00  0.00     0.010 A 
ATOM     30  C   UNL A   1      37.312  32.878  28.821  1.00  0.00     0.010 A 
ATOM     31  C   UNL A   1      37.155  31.586  29.350  1.00  0.00    -0.014 A 
BRANCH  31  32
ATOM     32  C   UNL A   1      38.291  30.916  30.022  1.00  0.00     0.031 A 
ATOM     33  C   UNL A   1      38.570  31.261  31.457  1.00  0.00     0.074 A 
ATOM     34  C   UNL A   1      39.037  30.002  29.379  1.00  0.00     0.049 A 
ATOM     35  N   UNL A   1      39.480  30.783  32.266  1.00  0.00    -0.248 NA
ATOM     36  C   UNL A   1      37.703  32.286  32.064  1.00  0.00     0.031 C 
ATOM     37  C   UNL A   1      38.853  29.580  27.992  1.00  0.00     0.029 A 
ATOM     38  N   UNL A   1      40.107  29.263  29.819  1.00  0.00    -0.354 N 
ATOM     39  C   UNL A   1      39.282  31.432  33.477  1.00  0.00     0.074 A 
ATOM     40  C   UNL A   1      38.200  32.374  33.287  1.00  0.00     0.031 C 
ATOM     41  C   UNL A   1      39.787  28.660  27.691  1.00  0.00     0.029 A 
ATOM     42  C   UNL A   1      40.639  28.440  28.859  1.00  0.00     0.049 A 
ATOM     43  H   UNL A   1      40.459  29.320  30.736  1.00  0.00     0.167 HD
ATOM     44  C   UNL A   1      39.932  31.246  34.648  1.00  0.00     0.037 A 
ATOM     45  C   UNL A   1      41.698  27.610  28.923  1.00  0.00     0.037 A 
ATOM     46  C   UNL A   1      41.018  30.324  34.833  1.00  0.00     0.049 A 
ATOM     47  C   UNL A   1      42.448  27.472  30.225  1.00  0.00     0.074 A 
ATOM     48  C   UNL A   1      41.741  30.058  35.981  1.00  0.00     0.029 A 
ATOM     49  N   UNL A   1      41.545  29.522  33.831  1.00  0.00    -0.354 N 
ATOM     50  N   UNL A   1      42.221  28.050  31.380  1.00  0.00    -0.248 NA
ATOM     51  C   UNL A   1      43.600  26.558  30.231  1.00  0.00     0.031 C 
ATOM     52  C   UNL A   1      42.735  29.126  35.664  1.00  0.00     0.029 A 
ATOM     53  C   UNL A   1      42.601  28.777  34.331  1.00  0.00     0.049 A 
ATOM     54  H   UNL A   1      41.218  29.488  32.903  1.00  0.00     0.167 HD
ATOM     55  C   UNL A   1      43.177  27.547  32.255  1.00  0.00     0.074 A 
ATOM     56  C   UNL A   1      43.977  26.605  31.501  1.00  0.00     0.031 C 
ATOM     57  C   UNL A   1      43.377  27.837  33.564  1.00  0.00     0.037 A 
BRANCH  44  58
ATOM     58  C   UNL A   1      39.484  32.065  35.821  1.00  0.00     0.064 A 
ATOM     59  C   UNL A   1      40.049  33.319  36.094  1.00  0.00     0.173 A 
ATOM     60  C   UNL A   1      38.462  31.604  36.663  1.00  0.00     0.173 A 
ATOM     61  F   UNL A   1      41.043  33.793  35.327  1.00  0.00    -0.203 F 
ATOM     62  C   UNL A   1      39.618  34.078  37.179  1.00  0.00     0.198 A 
ATOM     63  C   UNL A   1      38.017  32.376  37.734  1.00  0.00     0.198 A 
ATOM     64  F   UNL A   1      37.893  30.410  36.446  1.00  0.00    -0.203 F 
ATOM     65  F   UNL A   1      40.198  35.255  37.445  1.00  0.00    -0.200 F 
ATOM     66  C   UNL A   1      38.598  33.609  37.994  1.00  0.00     0.200 A 
ATOM     67  F   UNL A   1      37.026  31.925  38.516  1.00  0.00    -0.200 F 
ATOM     68  F   UNL A   1      38.180  34.341  39.034  1.00  0.00    -0.200 F 
ENDBRANCH  44  58
BRANCH  45  69
ATOM     69  C   UNL A   1      42.120  26.837  27.726  1.00  0.00     0.064 A 
ATOM     70  C   UNL A   1      41.596  25.564  27.464  1.00  0.00     0.173 A 
ATOM     71  C   UNL A   1      43.095  27.335  26.849  1.00  0.00     0.173 A 
ATOM     72  F   UNL A   1      40.682  25.032  28.289  1.00  0.00    -0.203 F 
ATOM     73  C   UNL A   1      42.052  24.806  26.386  1.00  0.00     0.198 A 
ATOM     74  C   UNL A   1      43.529  26.588  25.756  1.00  0.00     0.198 A 
ATOM     75  F   UNL A   1      43.631  28.546  27.058  1.00  0.00    -0.203 F 
ATOM     76  F   UNL A   1      41.576  23.568  26.193  1.00  0.00    -0.200 F 
ATOM     77  C   UNL A   1      43.015  25.320  25.532  1.00  0.00     0.200 A 
ATOM     78  F   UNL A   1      44.456  27.091  24.929  1.00  0.00    -0.200 F 
ATOM     79  F   UNL A   1      43.460  24.587  24.502  1.00  0.00    -0.200 F 
ENDBRANCH  45  69
BRANCH  57  80
ATOM     80  C   UNL A   1      44.482  27.107  34.270  1.00  0.00     0.064 A 
ATOM     81  C   UNL A   1      44.276  25.848  34.854  1.00  0.00     0.173 A 
ATOM     82  C   UNL A   1      45.772  27.655  34.327  1.00  0.00     0.173 A 
ATOM     83  F   UNL A   1      43.057  25.288  34.837  1.00  0.00    -0.203 F 
ATOM     84  C   UNL A   1      45.315  25.179  35.495  1.00  0.00     0.198 A 
ATOM     85  C   UNL A   1      46.815  26.969  34.943  1.00  0.00     0.198 A 
ATOM     86  F   UNL A   1      46.024  28.852  33.774  1.00  0.00    -0.203 F 
ATOM     87  F   UNL A   1      45.084  24.001  36.090  1.00  0.00    -0.200 F 
ATOM     88  C   UNL A   1      46.584  25.736  35.533  1.00  0.00     0.200 A 
ATOM     89  F   UNL A   1      48.044  27.503  34.966  1.00  0.00    -0.200 F 
ATOM     90  F   UNL A   1      47.584  25.088  36.146  1.00  0.00    -0.200 F 
ENDBRANCH  57  80
ENDBRANCH  31  32
ENDBRANCH  24  26
ENDBRANCH  23  24
ENDBRANCH  22  23
ENDBRANCH   1  22
TORSDOF 15
ENDMDL
MODEL 2
REMARK VINA RESULT:     -11.1      4.513     10.095
REMARK SMILES O=C(C[C@@H]1CN(C(=O)NCc2cccs2)CCO1)OCCOC(=O)c1ccc(-c2c3nc(c(-c4c(F)c(F)c(F)c(F)c4F)c4ccc([nH]4)c(-c4c(F)c(F)c(F)c(F)c4F)c4nc(c(-c5c(F)c(F)c(F)c(F)c5F)c5ccc2[nH]5)C=C4)C=C3)cc1
REMARK SMILES IDX 20 1 19 2 2 3 1 4 3 5 4 6 5 7 18 8 6 9 17 10 16 11 7 12 8 13
REMARK SMILES IDX 9 14 10 16 11 17 12 18 15 19 13 20 14 21 21 22 22 23 23 24
REMARK SMILES IDX 24 25 25 26 26 27 87 28 27 29 86 30 28 31 29 32 30 33 80 34
REMARK SMILES IDX 31 35 85 36 79 37 81 38 32 39 84 40 78 41 77 42 33 44 65 45
REMARK SMILES IDX 45 46 64 47 46 48 49 49 63 50 82 51 47 52 48 53 62 55 83 56
REMARK SMILES IDX 50 57 34 58 35 59 43 60 36 61 37 62 41 63 44 64 38 65 39 66
REMARK SMILES IDX 42 67 40 68 66 69 67 70 75 71 68 72 69 73 73 74 76 75 70 76
REMARK SMILES IDX 71 77 74 78 72 79 51 80 52 81 60 82 53 83 54 84 58 85 61 86
REMARK SMILES IDX 55 87 56 88 59 89 57 90
REMARK H PARENT 9 15 81 43 49 54
REMARK Flexibility Score: inf
ROOT
ATOM      1  C   UNL A   1      36.404  20.242  24.964  1.00  0.00     0.274 C 
ENDROOT
BRANCH   1   2
ATOM      2  O   UNL A   1      35.951  21.288  25.849  1.00  0.00    -0.462 OA
BRANCH   2   3
ATOM      3  C   UNL A   1      35.624  22.547  25.485  1.00  0.00     0.308 C 
ATOM      4  O   UNL A   1      35.162  23.328  26.314  1.00  0.00    -0.252 OA
BRANCH   3   5
ATOM      5  C   UNL A   1      35.836  22.995  24.068  1.00  0.00     0.156 C 
BRANCH   5   6
ATOM      6  C   UNL A   1      34.571  23.355  23.309  1.00  0.00     0.149 C 
ATOM      7  C   UNL A   1      33.883  24.658  23.754  1.00  0.00     0.154 C 
ATOM      8  O   UNL A   1      33.650  22.244  23.488  1.00  0.00    -0.374 OA
ATOM      9  N   UNL A   1      32.730  24.848  22.877  1.00  0.00    -0.320 N 
ATOM     10  C   UNL A   1      32.419  22.432  22.760  1.00  0.00     0.182 C 
ATOM     11  C   UNL A   1      31.751  23.775  23.095  1.00  0.00     0.150 C 
BRANCH   9  12
ATOM     12  C   UNL A   1      32.588  25.601  21.753  1.00  0.00     0.317 C 
ATOM     13  O   UNL A   1      33.278  25.381  20.750  1.00  0.00    -0.249 OA
ATOM     14  N   UNL A   1      31.763  26.646  21.628  1.00  0.00    -0.333 N 
ATOM     15  H   UNL A   1      31.837  27.033  20.726  1.00  0.00     0.165 HD
BRANCH  14  16
ATOM     16  C   UNL A   1      30.794  27.383  22.410  1.00  0.00     0.164 C 
BRANCH  16  17
ATOM     17  C   UNL A   1      31.491  28.066  23.552  1.00  0.00     0.024 A 
ATOM     18  C   UNL A   1      31.039  28.290  24.841  1.00  0.00     0.017 A 
ATOM     19  S   UNL A   1      33.030  28.783  23.301  1.00  0.00    -0.147 S 
ATOM     20  C   UNL A   1      31.937  29.095  25.601  1.00  0.00     0.012 A 
ATOM     21  C   UNL A   1      33.061  29.433  24.881  1.00  0.00     0.065 A 
ENDBRANCH  16  17
ENDBRANCH  14  16
ENDBRANCH   9  12
ENDBRANCH   5   6
ENDBRANCH   3   5
ENDBRANCH   2   3
ENDBRANCH   1   2
BRANCH   1  22
ATOM     22  C   UNL A   1      37.901  19.977  25.094  1.00  0.00     0.275 C 
BRANCH  22  23
ATOM     23  O   UNL A   1      38.559  21.179  25.511  1.00  0.00    -0.458 OA
BRANCH  23  24
ATOM     24  C   UNL A   1      39.645  20.987  26.300  1.00  0.00     0.338 C 
ATOM     25  O   UNL A   1      40.279  19.956  26.438  1.00  0.00    -0.246 OA
BRANCH  24  26
ATOM     26  C   UNL A   1      40.089  22.298  26.814  1.00  0.00     0.060 A 
ATOM     27  C   UNL A   1      39.413  23.435  26.354  1.00  0.00     0.016 A 
ATOM     28  C   UNL A   1      41.112  22.415  27.762  1.00  0.00     0.016 A 
ATOM     29  C   UNL A   1      39.786  24.697  26.810  1.00  0.00     0.010 A 
ATOM     30  C   UNL A   1      41.487  23.680  28.216  1.00  0.00     0.010 A 
ATOM     31  C   UNL A   1      40.848  24.826  27.715  1.00  0.00    -0.014 A 
BRANCH  31  32
ATOM     32  C   UNL A   1      41.408  26.167  27.988  1.00  0.00     0.031 A 
ATOM     33  C   UNL A   1      42.806  26.460  27.521  1.00  0.00     0.074 A 
ATOM     34  C   UNL A   1      40.681  27.111  28.608  1.00  0.00     0.049 A 
ATOM     35  N   UNL A   1      43.498  27.567  27.609  1.00  0.00    -0.248 NA
ATOM     36  C   UNL A   1      43.522  25.353  26.865  1.00  0.00     0.031 C 
ATOM     37  C   UNL A   1      39.313  26.945  29.095  1.00  0.00     0.029 A 
ATOM     38  N   UNL A   1      41.003  28.405  28.936  1.00  0.00    -0.354 N 
ATOM     39  C   UNL A   1      44.717  27.294  27.004  1.00  0.00     0.074 A 
ATOM     40  C   UNL A   1      44.693  25.907  26.597  1.00  0.00     0.031 C 
ATOM     41  C   UNL A   1      38.914  28.095  29.668  1.00  0.00     0.029 A 
ATOM     42  C   UNL A   1      40.002  29.069  29.599  1.00  0.00     0.049 A 
ATOM     43  H   UNL A   1      41.869  28.816  28.716  1.00  0.00     0.167 HD
ATOM     44  C   UNL A   1      45.757  28.133  26.790  1.00  0.00     0.037 A 
ATOM     45  C   UNL A   1      39.978  30.321  30.095  1.00  0.00     0.037 A 
ATOM     46  C   UNL A   1      45.788  29.507  27.210  1.00  0.00     0.049 A 
ATOM     47  C   UNL A   1      41.179  31.214  29.903  1.00  0.00     0.074 A 
ATOM     48  C   UNL A   1      46.793  30.441  27.038  1.00  0.00     0.029 A 
ATOM     49  N   UNL A   1      44.764  30.139  27.900  1.00  0.00    -0.354 N 
ATOM     50  N   UNL A   1      42.307  30.966  29.282  1.00  0.00    -0.248 NA
ATOM     51  C   UNL A   1      41.097  32.566  30.474  1.00  0.00     0.031 C 
ATOM     52  C   UNL A   1      46.395  31.628  27.662  1.00  0.00     0.029 A 
ATOM     53  C   UNL A   1      45.124  31.446  28.181  1.00  0.00     0.049 A 
ATOM     54  H   UNL A   1      43.910  29.721  28.152  1.00  0.00     0.167 HD
ATOM     55  C   UNL A   1      43.053  32.136  29.360  1.00  0.00     0.074 A 
ATOM     56  C   UNL A   1      42.243  33.099  30.075  1.00  0.00     0.031 C 
ATOM     57  C   UNL A   1      44.296  32.392  28.885  1.00  0.00     0.037 A 
BRANCH  44  58
ATOM     58  C   UNL A   1      46.950  27.579  26.071  1.00  0.00     0.064 A 
ATOM     59  C   UNL A   1      47.066  27.663  24.676  1.00  0.00     0.173 A 
ATOM     60  C   UNL A   1      47.998  26.982  26.785  1.00  0.00     0.173 A 
ATOM     61  F   UNL A   1      46.079  28.208  23.948  1.00  0.00    -0.203 F 
ATOM     62  C   UNL A   1      48.183  27.155  24.018  1.00  0.00     0.198 A 
ATOM     63  C   UNL A   1      49.126  26.496  26.127  1.00  0.00     0.198 A 
ATOM     64  F   UNL A   1      47.932  26.874  28.120  1.00  0.00    -0.203 F 
ATOM     65  F   UNL A   1      48.256  27.211  22.682  1.00  0.00    -0.200 F 
ATOM     66  C   UNL A   1      49.215  26.579  24.745  1.00  0.00     0.200 A 
ATOM     67  F   UNL A   1      50.125  25.947  26.830  1.00  0.00    -0.200 F 
ATOM     68  F   UNL A   1      50.292  26.096  24.112  1.00  0.00    -0.200 F 
ENDBRANCH  44  58
BRANCH  45  69
ATOM     69  C   UNL A   1      38.781  30.817  30.823  1.00  0.00     0.064 A 
ATOM     70  C   UNL A   1      38.706  30.757  32.222  1.00  0.00     0.173 A 
ATOM     71  C   UNL A   1      37.666  31.314  30.131  1.00  0.00     0.173 A 
ATOM     72  F   UNL A   1      39.735  30.264  32.927  1.00  0.00    -0.203 F 
ATOM     73  C   UNL A   1      37.552  31.148  32.898  1.00  0.00     0.198 A 
ATOM     74  C   UNL A   1      36.523  31.730  30.811  1.00  0.00     0.198 A 
ATOM     75  F   UNL A   1      37.685  31.387  28.793  1.00  0.00    -0.203 F 
ATOM     76  F   UNL A   1      37.486  31.024  34.231  1.00  0.00    -0.200 F 
ATOM     77  C   UNL A   1      36.463  31.637  32.192  1.00  0.00     0.200 A 
ATOM     78  F   UNL A   1      35.476  32.208  30.125  1.00  0.00    -0.200 F 
ATOM     79  F   UNL A   1      35.350  32.003  32.843  1.00  0.00    -0.200 F 
ENDBRANCH  45  69
BRANCH  57  80
ATOM     80  C   UNL A   1      44.842  33.774  29.094  1.00  0.00     0.064 A 
ATOM     81  C   UNL A   1      44.605  34.806  28.175  1.00  0.00     0.173 A 
ATOM     82  C   UNL A   1      45.577  34.079  30.250  1.00  0.00     0.173 A 
ATOM     83  F   UNL A   1      43.919  34.561  27.048  1.00  0.00    -0.203 F 
ATOM     84  C   UNL A   1      45.109  36.086  28.390  1.00  0.00     0.198 A 
ATOM     85  C   UNL A   1      46.053  35.368  30.477  1.00  0.00     0.198 A 
ATOM     86  F   UNL A   1      45.822  33.130  31.167  1.00  0.00    -0.203 F 
ATOM     87  F   UNL A   1      44.913  37.044  27.474  1.00  0.00    -0.200 F 
ATOM     88  C   UNL A   1      45.826  36.367  29.543  1.00  0.00     0.200 A 
ATOM     89  F   UNL A   1      46.734  35.641  31.599  1.00  0.00    -0.200 F 
ATOM     90  F   UNL A   1      46.305  37.602  29.752  1.00  0.00    -0.200 F 
ENDBRANCH  57  80
ENDBRANCH  31  32
ENDBRANCH  24  26
ENDBRANCH  23  24
ENDBRANCH  22  23
ENDBRANCH   1  22
TORSDOF 15
ENDMDL
MODEL 3
REMARK VINA RESULT:     -11.1      0.483      2.031
REMARK SMILES O=C(C[C@@H]1CN(C(=O)NCc2cccs2)CCO1)OCCOC(=O)c1ccc(-c2c3nc(c(-c4c(F)c(F)c(F)c(F)c4F)c4ccc([nH]4)c(-c4c(F)c(F)c(F)c(F)c4F)c4nc(c(-c5c(F)c(F)c(F)c(F)c5F)c5ccc2[nH]5)C=C4)C=C3)cc1
REMARK SMILES IDX 20 1 19 2 2 3 1 4 3 5 4 6 5 7 18 8 6 9 17 10 16 11 7 12 8 13
REMARK SMILES IDX 9 14 10 16 11 17 12 18 15 19 13 20 14 21 21 22 22 23 23 24
REMARK SMILES IDX 24 25 25 26 26 27 87 28 27 29 86 30 28 31 29 32 30 33 80 34
REMARK SMILES IDX 31 35 85 36 79 37 81 38 32 39 84 40 78 41 77 42 33 44 65 45
REMARK SMILES IDX 45 46 64 47 46 48 49 49 63 50 82 51 47 52 48 53 62 55 83 56
REMARK SMILES IDX 50 57 34 58 35 59 43 60 36 61 37 62 41 63 44 64 38 65 39 66
REMARK SMILES IDX 42 67 40 68 66 69 67 70 75 71 68 72 69 73 73 74 76 75 70 76
REMARK SMILES IDX 71 77 74 78 72 79 51 80 52 81 60 82 53 83 54 84 58 85 61 86
REMARK SMILES IDX 55 87 56 88 59 89 57 90
REMARK H PARENT 9 15 81 43 49 54
REMARK Flexibility Score: inf
ROOT
ATOM      1  C   UNL A   1      31.072  31.602  26.220  1.00  0.00     0.274 C 
ENDROOT
BRANCH   1   2
ATOM      2  O   UNL A   1      31.996  30.603  25.741  1.00  0.00    -0.462 OA
BRANCH   2   3
ATOM      3  C   UNL A   1      32.294  29.439  26.357  1.00  0.00     0.308 C 
ATOM      4  O   UNL A   1      31.759  29.152  27.426  1.00  0.00    -0.252 OA
BRANCH   3   5
ATOM      5  C   UNL A   1      33.273  28.490  25.730  1.00  0.00     0.156 C 
BRANCH   5   6
ATOM      6  C   UNL A   1      32.697  27.585  24.655  1.00  0.00     0.149 C 
ATOM      7  C   UNL A   1      33.171  27.880  23.221  1.00  0.00     0.154 C 
ATOM      8  O   UNL A   1      31.251  27.736  24.718  1.00  0.00    -0.374 OA
ATOM      9  N   UNL A   1      32.549  26.880  22.355  1.00  0.00    -0.320 N 
ATOM     10  C   UNL A   1      30.571  26.875  23.781  1.00  0.00     0.182 C 
ATOM     11  C   UNL A   1      31.092  27.061  22.347  1.00  0.00     0.150 C 
BRANCH   9  12
ATOM     12  C   UNL A   1      33.034  25.704  21.871  1.00  0.00     0.317 C 
ATOM     13  O   UNL A   1      33.236  25.551  20.660  1.00  0.00    -0.249 OA
ATOM     14  N   UNL A   1      33.285  24.617  22.608  1.00  0.00    -0.333 N 
ATOM     15  H   UNL A   1      33.625  23.891  22.037  1.00  0.00     0.165 HD
BRANCH  14  16
ATOM     16  C   UNL A   1      33.213  24.179  23.984  1.00  0.00     0.164 C 
BRANCH  16  17
ATOM     17  C   UNL A   1      34.592  23.827  24.468  1.00  0.00     0.024 A 
ATOM     18  C   UNL A   1      35.168  24.056  25.705  1.00  0.00     0.017 A 
ATOM     19  S   UNL A   1      35.718  23.120  23.382  1.00  0.00    -0.147 S 
ATOM     20  C   UNL A   1      36.547  23.698  25.739  1.00  0.00     0.012 A 
ATOM     21  C   UNL A   1      36.973  23.176  24.539  1.00  0.00     0.065 A 
ENDBRANCH  16  17
ENDBRANCH  14  16
ENDBRANCH   9  12
ENDBRANCH   5   6
ENDBRANCH   3   5
ENDBRANCH   2   3
ENDBRANCH   1   2
BRANCH   1  22
ATOM     22  C   UNL A   1      31.782  32.828  26.788  1.00  0.00     0.275 C 
BRANCH  22  23
ATOM     23  O   UNL A   1      32.868  32.402  27.620  1.00  0.00    -0.458 OA
BRANCH  23  24
ATOM     24  C   UNL A   1      33.805  33.351  27.861  1.00  0.00     0.338 C 
ATOM     25  O   UNL A   1      33.640  34.558  27.877  1.00  0.00    -0.246 OA
BRANCH  24  26
ATOM     26  C   UNL A   1      35.038  32.686  28.327  1.00  0.00     0.060 A 
ATOM     27  C   UNL A   1      34.945  31.339  28.697  1.00  0.00     0.016 A 
ATOM     28  C   UNL A   1      36.271  33.347  28.356  1.00  0.00     0.016 A 
ATOM     29  C   UNL A   1      36.079  30.660  29.138  1.00  0.00     0.010 A 
ATOM     30  C   UNL A   1      37.406  32.668  28.801  1.00  0.00     0.010 A 
ATOM     31  C   UNL A   1      37.304  31.333  29.226  1.00  0.00    -0.014 A 
BRANCH  31  32
ATOM     32  C   UNL A   1      38.432  30.693  29.938  1.00  0.00     0.031 A 
ATOM     33  C   UNL A   1      38.677  31.078  31.370  1.00  0.00     0.074 A 
ATOM     34  C   UNL A   1      39.201  29.771  29.335  1.00  0.00     0.049 A 
ATOM     35  N   UNL A   1      39.574  30.631  32.210  1.00  0.00    -0.248 NA
ATOM     36  C   UNL A   1      37.786  32.109  31.930  1.00  0.00     0.031 C 
ATOM     37  C   UNL A   1      39.052  29.311  27.956  1.00  0.00     0.029 A 
ATOM     38  N   UNL A   1      40.269  29.056  29.817  1.00  0.00    -0.354 N 
ATOM     39  C   UNL A   1      39.343  31.309  33.399  1.00  0.00     0.074 A 
ATOM     40  C   UNL A   1      38.256  32.234  33.161  1.00  0.00     0.031 C 
ATOM     41  C   UNL A   1      40.001  28.393  27.700  1.00  0.00     0.029 A 
ATOM     42  C   UNL A   1      40.830  28.213  28.890  1.00  0.00     0.049 A 
ATOM     43  H   UNL A   1      40.601  29.140  30.740  1.00  0.00     0.167 HD
ATOM     44  C   UNL A   1      39.970  31.160  34.588  1.00  0.00     0.037 A 
ATOM     45  C   UNL A   1      41.896  27.397  28.999  1.00  0.00     0.037 A 
ATOM     46  C   UNL A   1      41.061  30.255  34.820  1.00  0.00     0.049 A 
ATOM     47  C   UNL A   1      42.620  27.301  30.319  1.00  0.00     0.074 A 
ATOM     48  C   UNL A   1      41.762  30.027  35.990  1.00  0.00     0.029 A 
ATOM     49  N   UNL A   1      41.618  29.434  33.851  1.00  0.00    -0.354 N 
ATOM     50  N   UNL A   1      42.362  27.906  31.454  1.00  0.00    -0.248 NA
ATOM     51  C   UNL A   1      43.780  26.400  30.374  1.00  0.00     0.031 C 
ATOM     52  C   UNL A   1      42.772  29.098  35.719  1.00  0.00     0.029 A 
ATOM     53  C   UNL A   1      42.670  28.714  34.392  1.00  0.00     0.049 A 
ATOM     54  H   UNL A   1      41.311  29.372  32.917  1.00  0.00     0.167 HD
ATOM     55  C   UNL A   1      43.303  27.436  32.362  1.00  0.00     0.074 A 
ATOM     56  C   UNL A   1      44.129  26.485  31.650  1.00  0.00     0.031 C 
ATOM     57  C   UNL A   1      43.472  27.762  33.667  1.00  0.00     0.037 A 
BRANCH  44  58
ATOM     58  C   UNL A   1      39.488  32.005  35.729  1.00  0.00     0.064 A 
ATOM     59  C   UNL A   1      38.493  31.548  36.607  1.00  0.00     0.173 A 
ATOM     60  C   UNL A   1      40.043  33.270  35.964  1.00  0.00     0.173 A 
ATOM     61  F   UNL A   1      37.917  30.351  36.410  1.00  0.00    -0.203 F 
ATOM     62  C   UNL A   1      38.059  32.335  37.670  1.00  0.00     0.198 A 
ATOM     63  C   UNL A   1      39.625  34.045  37.043  1.00  0.00     0.198 A 
ATOM     64  F   UNL A   1      40.994  33.753  35.151  1.00  0.00    -0.203 F 
ATOM     65  F   UNL A   1      37.081  31.896  38.472  1.00  0.00    -0.200 F 
ATOM     66  C   UNL A   1      38.631  33.579  37.891  1.00  0.00     0.200 A 
ATOM     67  F   UNL A   1      40.182  35.244  37.260  1.00  0.00    -0.200 F 
ATOM     68  F   UNL A   1      38.218  34.333  38.918  1.00  0.00    -0.200 F 
ENDBRANCH  44  58
BRANCH  45  69
ATOM     69  C   UNL A   1      42.352  26.598  27.832  1.00  0.00     0.064 A 
ATOM     70  C   UNL A   1      43.335  27.086  26.959  1.00  0.00     0.173 A 
ATOM     71  C   UNL A   1      41.776  25.354  27.536  1.00  0.00     0.173 A 
ATOM     72  F   UNL A   1      43.895  28.283  27.184  1.00  0.00    -0.203 F 
ATOM     73  C   UNL A   1      43.704  26.372  25.820  1.00  0.00     0.198 A 
ATOM     74  C   UNL A   1      42.166  24.629  26.411  1.00  0.00     0.198 A 
ATOM     75  F   UNL A   1      40.827  24.845  28.336  1.00  0.00    -0.203 F 
ATOM     76  F   UNL A   1      44.604  26.889  24.972  1.00  0.00    -0.200 F 
ATOM     77  C   UNL A   1      43.121  25.143  25.549  1.00  0.00     0.200 A 
ATOM     78  F   UNL A   1      41.605  23.438  26.157  1.00  0.00    -0.200 F 
ATOM     79  F   UNL A   1      43.469  24.463  24.449  1.00  0.00    -0.200 F 
ENDBRANCH  45  69
BRANCH  57  80
ATOM     80  C   UNL A   1      44.569  27.063  34.415  1.00  0.00     0.064 A 
ATOM     81  C   UNL A   1      45.853  27.616  34.526  1.00  0.00     0.173 A 
ATOM     82  C   UNL A   1      44.320  25.844  35.064  1.00  0.00     0.173 A 
ATOM     83  F   UNL A   1      46.144  28.773  33.912  1.00  0.00    -0.203 F 
ATOM     84  C   UNL A   1      46.856  26.960  35.234  1.00  0.00     0.198 A 
ATOM     85  C   UNL A   1      45.317  25.206  35.796  1.00  0.00     0.198 A 
ATOM     86  F   UNL A   1      43.105  25.278  34.998  1.00  0.00    -0.203 F 
ATOM     87  F   UNL A   1      48.089  27.483  35.285  1.00  0.00    -0.200 F 
ATOM     88  C   UNL A   1      46.586  25.760  35.874  1.00  0.00     0.200 A 
ATOM     89  F   UNL A   1      45.050  24.053  36.426  1.00  0.00    -0.200 F 
ATOM     90  F   UNL A   1      47.551  25.133  36.560  1.00  0.00    -0.200 F 
ENDBRANCH  57  80
ENDBRANCH  31  32
ENDBRANCH  24  26
ENDBRANCH  23  24
ENDBRANCH  22  23
ENDBRANCH   1  22
TORSDOF 15
ENDMDL
