MODEL 1
REMARK VINA RESULT:     -12.4      0.000      0.000
REMARK SMILES CC[C@@H](C)N1C(=O)/C(=C/Nc2cccc(C(=O)OCCOC(=O)c3ccc(-c4c5nc(c(-c6c(F)c(F)c(F)c(F)c6F)c6ccc([nH]6)c(-c6c(F)c(F)c(F)c(F)c6F)c6nc(c(-c7c(F)c(F)c(F)c(F)c7F)c7ccc4[nH]7)C=C6)C=C5)cc3)c2)C(=O)NC1=S
REMARK SMILES IDX 19 1 18 2 16 3 17 4 15 5 11 6 12 7 87 8 13 9 14 10 10 11
REMARK SMILES IDX 9 13 5 14 6 15 91 16 7 17 8 18 90 19 92 20 88 21 89 23 3 24
REMARK SMILES IDX 4 25 2 26 1 27 20 28 21 29 22 30 23 31 24 32 25 33 86 34
REMARK SMILES IDX 26 35 85 36 27 37 28 38 29 39 79 40 30 41 84 42 78 43 80 44
REMARK SMILES IDX 31 45 83 46 77 47 76 48 32 50 64 51 44 52 63 53 45 54 48 55
REMARK SMILES IDX 62 56 81 57 46 58 47 59 61 61 82 62 49 63 33 64 34 65 42 66
REMARK SMILES IDX 35 67 36 68 40 69 43 70 37 71 38 72 41 73 39 74 65 75 66 76
REMARK SMILES IDX 74 77 67 78 68 79 72 80 75 81 69 82 70 83 73 84 71 85 50 86
REMARK SMILES IDX 51 87 59 88 52 89 53 90 57 91 60 92 54 93 55 94 58 95 56 96
REMARK H PARENT 10 12 90 22 80 49 48 60
REMARK Flexibility Score: inf
ROOT
ATOM      1  C   UNL A   1      42.806  20.641  26.011  1.00  0.00     0.275 C 
ENDROOT
BRANCH   1   2
ATOM      2  O   UNL A   1      41.449  20.999  25.674  1.00  0.00    -0.458 OA
BRANCH   2   3
ATOM      3  C   UNL A   1      40.562  21.058  26.699  1.00  0.00     0.338 C 
ATOM      4  O   UNL A   1      40.706  20.584  27.815  1.00  0.00    -0.246 OA
BRANCH   3   5
ATOM      5  C   UNL A   1      39.408  21.917  26.331  1.00  0.00     0.062 A 
ATOM      6  C   UNL A   1      37.375  22.323  25.059  1.00  0.00     0.039 A 
ATOM      7  C   UNL A   1      37.353  23.636  25.542  1.00  0.00     0.026 A 
ATOM      8  C   UNL A   1      38.425  21.476  25.445  1.00  0.00     0.041 A 
ATOM      9  C   UNL A   1      38.313  24.076  26.452  1.00  0.00     0.003 A 
ATOM     10  C   UNL A   1      39.312  23.203  26.878  1.00  0.00     0.016 A 
BRANCH   6  11
ATOM     11  N   UNL A   1      36.293  21.858  24.299  1.00  0.00    -0.361 N 
ATOM     12  H   UNL A   1      36.144  20.886  24.280  1.00  0.00     0.166 HD
BRANCH  11  13
ATOM     13  C   UNL A   1      35.424  22.639  23.580  1.00  0.00     0.102 C 
ATOM     14  N   UNL A   1      32.708  24.969  23.539  1.00  0.00    -0.282 N 
ATOM     15  C   UNL A   1      33.515  23.972  22.969  1.00  0.00     0.267 C 
ATOM     16  C   UNL A   1      32.100  24.710  24.777  1.00  0.00     0.183 C 
ATOM     17  O   UNL A   1      33.670  23.770  21.768  1.00  0.00    -0.268 OA
ATOM     18  C   UNL A   1      34.205  23.083  23.918  1.00  0.00     0.121 C 
ATOM     19  N   UNL A   1      32.544  23.608  25.479  1.00  0.00    -0.298 N 
ATOM     20  S   UNL A   1      30.869  25.513  25.578  1.00  0.00    -0.040 S 
ATOM     21  C   UNL A   1      33.600  22.792  25.207  1.00  0.00     0.264 C 
ATOM     22  H   UNL A   1      32.027  23.381  26.285  1.00  0.00     0.172 HD
ATOM     23  O   UNL A   1      34.000  21.934  25.985  1.00  0.00    -0.269 OA
BRANCH  14  24
ATOM     24  C   UNL A   1      32.707  26.305  22.785  1.00  0.00     0.090 C 
ATOM     25  C   UNL A   1      33.225  27.543  23.524  1.00  0.00     0.031 C 
BRANCH  24  26
ATOM     26  C   UNL A   1      31.371  26.658  22.057  1.00  0.00     0.022 C 
ATOM     27  C   UNL A   1      30.472  27.686  22.738  1.00  0.00     0.006 C 
ENDBRANCH  24  26
ENDBRANCH  14  24
ENDBRANCH  11  13
ENDBRANCH   6  11
ENDBRANCH   3   5
ENDBRANCH   2   3
ENDBRANCH   1   2
BRANCH   1  28
ATOM     28  C   UNL A   1      43.804  21.587  25.341  1.00  0.00     0.275 C 
BRANCH  28  29
ATOM     29  O   UNL A   1      43.120  22.771  24.890  1.00  0.00    -0.458 OA
BRANCH  29  30
ATOM     30  C   UNL A   1      43.807  23.929  25.001  1.00  0.00     0.338 C 
ATOM     31  O   UNL A   1      44.767  24.300  24.351  1.00  0.00    -0.246 OA
BRANCH  30  32
ATOM     32  C   UNL A   1      43.150  24.776  26.007  1.00  0.00     0.060 A 
ATOM     33  C   UNL A   1      43.327  26.151  25.911  1.00  0.00     0.016 A 
ATOM     34  C   UNL A   1      42.487  24.231  27.103  1.00  0.00     0.016 A 
ATOM     35  C   UNL A   1      42.905  26.995  26.932  1.00  0.00     0.010 A 
ATOM     36  C   UNL A   1      41.991  25.087  28.096  1.00  0.00     0.010 A 
ATOM     37  C   UNL A   1      42.223  26.475  28.039  1.00  0.00    -0.014 A 
BRANCH  37  38
ATOM     38  C   UNL A   1      41.818  27.380  29.152  1.00  0.00     0.031 A 
ATOM     39  C   UNL A   1      42.631  27.428  30.418  1.00  0.00     0.074 A 
ATOM     40  C   UNL A   1      40.744  28.185  29.026  1.00  0.00     0.049 A 
ATOM     41  N   UNL A   1      42.370  28.033  31.550  1.00  0.00    -0.248 NA
ATOM     42  C   UNL A   1      43.900  26.687  30.413  1.00  0.00     0.031 C 
ATOM     43  C   UNL A   1      39.893  28.280  27.839  1.00  0.00     0.029 A 
ATOM     44  N   UNL A   1      40.188  29.081  29.906  1.00  0.00    -0.354 N 
ATOM     45  C   UNL A   1      43.408  27.693  32.410  1.00  0.00     0.074 A 
ATOM     46  C   UNL A   1      44.302  26.828  31.668  1.00  0.00     0.031 C 
ATOM     47  C   UNL A   1      38.942  29.202  28.054  1.00  0.00     0.029 A 
ATOM     48  C   UNL A   1      39.063  29.703  29.419  1.00  0.00     0.049 A 
ATOM     49  H   UNL A   1      40.560  29.262  30.800  1.00  0.00     0.167 HD
ATOM     50  C   UNL A   1      43.596  28.066  33.699  1.00  0.00     0.037 A 
ATOM     51  C   UNL A   1      38.198  30.547  30.015  1.00  0.00     0.037 A 
ATOM     52  C   UNL A   1      42.739  28.977  34.415  1.00  0.00     0.049 A 
ATOM     53  C   UNL A   1      38.418  30.936  31.450  1.00  0.00     0.074 A 
ATOM     54  C   UNL A   1      42.870  29.449  35.710  1.00  0.00     0.029 A 
ATOM     55  N   UNL A   1      41.596  29.564  33.891  1.00  0.00    -0.354 N 
ATOM     56  N   UNL A   1      39.380  30.580  32.264  1.00  0.00    -0.248 NA
ATOM     57  C   UNL A   1      37.422  31.833  32.052  1.00  0.00     0.031 C 
ATOM     58  C   UNL A   1      41.783  30.285  35.985  1.00  0.00     0.029 A 
ATOM     59  C   UNL A   1      41.000  30.376  34.845  1.00  0.00     0.049 A 
ATOM     60  H   UNL A   1      41.257  29.425  32.977  1.00  0.00     0.167 HD
ATOM     61  C   UNL A   1      39.113  31.212  33.471  1.00  0.00     0.074 A 
ATOM     62  C   UNL A   1      37.910  31.995  33.273  1.00  0.00     0.031 C 
ATOM     63  C   UNL A   1      39.799  31.144  34.638  1.00  0.00     0.037 A 
BRANCH  50  64
ATOM     64  C   UNL A   1      44.749  27.451  34.437  1.00  0.00     0.064 A 
ATOM     65  C   UNL A   1      46.012  28.057  34.494  1.00  0.00     0.173 A 
ATOM     66  C   UNL A   1      44.576  26.235  35.120  1.00  0.00     0.173 A 
ATOM     67  F   UNL A   1      46.236  29.212  33.849  1.00  0.00    -0.203 F 
ATOM     68  C   UNL A   1      47.068  27.453  35.175  1.00  0.00     0.198 A 
ATOM     69  C   UNL A   1      45.624  25.651  35.826  1.00  0.00     0.198 A 
ATOM     70  F   UNL A   1      43.386  25.616  35.107  1.00  0.00    -0.203 F 
ATOM     71  F   UNL A   1      48.281  28.023  35.167  1.00  0.00    -0.200 F 
ATOM     72  C   UNL A   1      46.872  26.254  35.844  1.00  0.00     0.200 A 
ATOM     73  F   UNL A   1      45.426  24.500  36.484  1.00  0.00    -0.200 F 
ATOM     74  F   UNL A   1      47.886  25.676  36.501  1.00  0.00    -0.200 F 
ENDBRANCH  50  64
BRANCH  51  75
ATOM     75  C   UNL A   1      37.019  31.043  29.257  1.00  0.00     0.064 A 
ATOM     76  C   UNL A   1      36.979  32.348  28.751  1.00  0.00     0.173 A 
ATOM     77  C   UNL A   1      35.917  30.211  29.007  1.00  0.00     0.173 A 
ATOM     78  F   UNL A   1      37.995  33.190  28.989  1.00  0.00    -0.203 F 
ATOM     79  C   UNL A   1      35.880  32.804  28.025  1.00  0.00     0.198 A 
ATOM     80  C   UNL A   1      34.834  30.657  28.254  1.00  0.00     0.198 A 
ATOM     81  F   UNL A   1      35.905  28.953  29.472  1.00  0.00    -0.203 F 
ATOM     82  F   UNL A   1      35.851  34.068  27.582  1.00  0.00    -0.200 F 
ATOM     83  C   UNL A   1      34.814  31.955  27.768  1.00  0.00     0.200 A 
ATOM     84  F   UNL A   1      33.813  29.829  27.996  1.00  0.00    -0.200 F 
ATOM     85  F   UNL A   1      33.765  32.390  27.056  1.00  0.00    -0.200 F 
ENDBRANCH  51  75
BRANCH  63  86
ATOM     86  C   UNL A   1      39.275  31.955  35.788  1.00  0.00     0.064 A 
ATOM     87  C   UNL A   1      39.659  33.291  35.979  1.00  0.00     0.173 A 
ATOM     88  C   UNL A   1      38.358  31.399  36.692  1.00  0.00     0.173 A 
ATOM     89  F   UNL A   1      40.546  33.863  35.150  1.00  0.00    -0.203 F 
ATOM     90  C   UNL A   1      39.165  34.030  37.050  1.00  0.00     0.198 A 
ATOM     91  C   UNL A   1      37.844  32.151  37.745  1.00  0.00     0.198 A 
ATOM     92  F   UNL A   1      37.954  30.127  36.550  1.00  0.00    -0.203 F 
ATOM     93  F   UNL A   1      39.583  35.290  37.242  1.00  0.00    -0.200 F 
ATOM     94  C   UNL A   1      38.253  33.462  37.928  1.00  0.00     0.200 A 
ATOM     95  F   UNL A   1      36.955  31.604  38.585  1.00  0.00    -0.200 F 
ATOM     96  F   UNL A   1      37.776  34.177  38.956  1.00  0.00    -0.200 F 
ENDBRANCH  63  86
ENDBRANCH  37  38
ENDBRANCH  30  32
ENDBRANCH  29  30
ENDBRANCH  28  29
ENDBRANCH   1  28
TORSDOF 15
ENDMDL
MODEL 2
REMARK VINA RESULT:     -12.4      0.515      1.652
REMARK SMILES CC[C@@H](C)N1C(=O)/C(=C/Nc2cccc(C(=O)OCCOC(=O)c3ccc(-c4c5nc(c(-c6c(F)c(F)c(F)c(F)c6F)c6ccc([nH]6)c(-c6c(F)c(F)c(F)c(F)c6F)c6nc(c(-c7c(F)c(F)c(F)c(F)c7F)c7ccc4[nH]7)C=C6)C=C5)cc3)c2)C(=O)NC1=S
REMARK SMILES IDX 19 1 18 2 16 3 17 4 15 5 11 6 12 7 87 8 13 9 14 10 10 11
REMARK SMILES IDX 9 13 5 14 6 15 91 16 7 17 8 18 90 19 92 20 88 21 89 23 3 24
REMARK SMILES IDX 4 25 2 26 1 27 20 28 21 29 22 30 23 31 24 32 25 33 86 34
REMARK SMILES IDX 26 35 85 36 27 37 28 38 29 39 79 40 30 41 84 42 78 43 80 44
REMARK SMILES IDX 31 45 83 46 77 47 76 48 32 50 64 51 44 52 63 53 45 54 48 55
REMARK SMILES IDX 62 56 81 57 46 58 47 59 61 61 82 62 49 63 33 64 34 65 42 66
REMARK SMILES IDX 35 67 36 68 40 69 43 70 37 71 38 72 41 73 39 74 65 75 66 76
REMARK SMILES IDX 74 77 67 78 68 79 72 80 75 81 69 82 70 83 73 84 71 85 50 86
REMARK SMILES IDX 51 87 59 88 52 89 53 90 57 91 60 92 54 93 55 94 58 95 56 96
REMARK H PARENT 10 12 90 22 80 49 48 60
REMARK Flexibility Score: inf
ROOT
ATOM      1  C   UNL A   1      42.353  20.253  26.158  1.00  0.00     0.275 C 
ENDROOT
BRANCH   1   2
ATOM      2  O   UNL A   1      41.117  20.938  26.451  1.00  0.00    -0.458 OA
BRANCH   2   3
ATOM      3  C   UNL A   1      39.983  20.393  25.942  1.00  0.00     0.338 C 
ATOM      4  O   UNL A   1      39.775  19.207  25.734  1.00  0.00    -0.246 OA
BRANCH   3   5
ATOM      5  C   UNL A   1      38.936  21.435  25.788  1.00  0.00     0.062 A 
ATOM      6  C   UNL A   1      36.856  22.237  24.815  1.00  0.00     0.039 A 
ATOM      7  C   UNL A   1      37.085  23.489  25.396  1.00  0.00     0.026 A 
ATOM      8  C   UNL A   1      37.804  21.220  25.001  1.00  0.00     0.041 A 
ATOM      9  C   UNL A   1      38.195  23.703  26.210  1.00  0.00     0.003 A 
ATOM     10  C   UNL A   1      39.095  22.664  26.439  1.00  0.00     0.016 A 
BRANCH   6  11
ATOM     11  N   UNL A   1      35.638  22.000  24.163  1.00  0.00    -0.361 N 
ATOM     12  H   UNL A   1      35.296  21.077  24.173  1.00  0.00     0.166 HD
BRANCH  11  13
ATOM     13  C   UNL A   1      34.882  22.941  23.512  1.00  0.00     0.102 C 
ATOM     14  N   UNL A   1      32.463  25.573  23.661  1.00  0.00    -0.282 N 
ATOM     15  C   UNL A   1      33.156  24.542  23.010  1.00  0.00     0.267 C 
ATOM     16  C   UNL A   1      31.805  25.279  24.866  1.00  0.00     0.183 C 
ATOM     17  O   UNL A   1      33.309  24.431  21.796  1.00  0.00    -0.268 OA
ATOM     18  C   UNL A   1      33.718  23.495  23.879  1.00  0.00     0.121 C 
ATOM     19  N   UNL A   1      32.101  24.073  25.468  1.00  0.00    -0.298 N 
ATOM     20  S   UNL A   1      30.662  26.148  25.727  1.00  0.00    -0.040 S 
ATOM     21  C   UNL A   1      33.058  23.164  25.130  1.00  0.00     0.264 C 
ATOM     22  H   UNL A   1      31.546  23.838  26.245  1.00  0.00     0.172 HD
ATOM     23  O   UNL A   1      33.339  22.198  25.830  1.00  0.00    -0.269 OA
BRANCH  14  24
ATOM     24  C   UNL A   1      32.634  26.962  23.032  1.00  0.00     0.090 C 
ATOM     25  C   UNL A   1      33.328  28.043  23.867  1.00  0.00     0.031 C 
BRANCH  24  26
ATOM     26  C   UNL A   1      31.349  27.559  22.376  1.00  0.00     0.022 C 
ATOM     27  C   UNL A   1      30.771  28.814  23.023  1.00  0.00     0.006 C 
ENDBRANCH  24  26
ENDBRANCH  14  24
ENDBRANCH  11  13
ENDBRANCH   6  11
ENDBRANCH   3   5
ENDBRANCH   2   3
ENDBRANCH   1   2
BRANCH   1  28
ATOM     28  C   UNL A   1      43.358  21.197  25.497  1.00  0.00     0.275 C 
BRANCH  28  29
ATOM     29  O   UNL A   1      42.683  22.390  25.056  1.00  0.00    -0.458 OA
BRANCH  29  30
ATOM     30  C   UNL A   1      43.415  23.526  25.076  1.00  0.00     0.338 C 
ATOM     31  O   UNL A   1      44.370  23.818  24.380  1.00  0.00    -0.246 OA
BRANCH  30  32
ATOM     32  C   UNL A   1      42.818  24.458  26.043  1.00  0.00     0.060 A 
ATOM     33  C   UNL A   1      43.226  25.786  25.997  1.00  0.00     0.016 A 
ATOM     34  C   UNL A   1      41.980  24.018  27.063  1.00  0.00     0.016 A 
ATOM     35  C   UNL A   1      42.857  26.677  26.999  1.00  0.00     0.010 A 
ATOM     36  C   UNL A   1      41.544  24.933  28.031  1.00  0.00     0.010 A 
ATOM     37  C   UNL A   1      42.004  26.265  28.030  1.00  0.00    -0.014 A 
BRANCH  37  38
ATOM     38  C   UNL A   1      41.654  27.212  29.126  1.00  0.00     0.031 A 
ATOM     39  C   UNL A   1      42.485  27.254  30.380  1.00  0.00     0.074 A 
ATOM     40  C   UNL A   1      40.616  28.061  28.994  1.00  0.00     0.049 A 
ATOM     41  N   UNL A   1      42.267  27.895  31.501  1.00  0.00    -0.248 NA
ATOM     42  C   UNL A   1      43.720  26.456  30.377  1.00  0.00     0.031 C 
ATOM     43  C   UNL A   1      39.753  28.168  27.817  1.00  0.00     0.029 A 
ATOM     44  N   UNL A   1      40.111  29.002  29.860  1.00  0.00    -0.354 N 
ATOM     45  C   UNL A   1      43.300  27.529  32.356  1.00  0.00     0.074 A 
ATOM     46  C   UNL A   1      44.145  26.608  31.623  1.00  0.00     0.031 C 
ATOM     47  C   UNL A   1      38.847  29.135  28.021  1.00  0.00     0.029 A 
ATOM     48  C   UNL A   1      39.009  29.661  29.373  1.00  0.00     0.049 A 
ATOM     49  H   UNL A   1      40.503  29.186  30.744  1.00  0.00     0.167 HD
ATOM     50  C   UNL A   1      43.522  27.922  33.633  1.00  0.00     0.037 A 
ATOM     51  C   UNL A   1      38.190  30.557  29.959  1.00  0.00     0.037 A 
ATOM     52  C   UNL A   1      42.716  28.888  34.338  1.00  0.00     0.049 A 
ATOM     53  C   UNL A   1      38.447  30.969  31.382  1.00  0.00     0.074 A 
ATOM     54  C   UNL A   1      42.885  29.382  35.620  1.00  0.00     0.029 A 
ATOM     55  N   UNL A   1      41.593  29.512  33.814  1.00  0.00    -0.354 N 
ATOM     56  N   UNL A   1      39.403  30.588  32.192  1.00  0.00    -0.248 NA
ATOM     57  C   UNL A   1      37.499  31.923  31.975  1.00  0.00     0.031 C 
ATOM     58  C   UNL A   1      41.840  30.272  35.889  1.00  0.00     0.029 A 
ATOM     59  C   UNL A   1      41.047  30.371  34.757  1.00  0.00     0.049 A 
ATOM     60  H   UNL A   1      41.236  29.367  32.909  1.00  0.00     0.167 HD
ATOM     61  C   UNL A   1      39.180  31.259  33.387  1.00  0.00     0.074 A 
ATOM     62  C   UNL A   1      38.010  32.090  33.186  1.00  0.00     0.031 C 
ATOM     63  C   UNL A   1      39.878  31.187  34.547  1.00  0.00     0.037 A 
BRANCH  50  64
ATOM     64  C   UNL A   1      44.657  27.274  34.371  1.00  0.00     0.064 A 
ATOM     65  C   UNL A   1      45.947  27.822  34.395  1.00  0.00     0.173 A 
ATOM     66  C   UNL A   1      44.439  26.085  35.087  1.00  0.00     0.173 A 
ATOM     67  F   UNL A   1      46.214  28.950  33.718  1.00  0.00    -0.203 F 
ATOM     68  C   UNL A   1      46.984  27.188  35.077  1.00  0.00     0.198 A 
ATOM     69  C   UNL A   1      45.469  25.470  35.793  1.00  0.00     0.198 A 
ATOM     70  F   UNL A   1      43.222  25.521  35.105  1.00  0.00    -0.203 F 
ATOM     71  F   UNL A   1      48.221  27.701  35.039  1.00  0.00    -0.200 F 
ATOM     72  C   UNL A   1      46.743  26.017  35.779  1.00  0.00     0.200 A 
ATOM     73  F   UNL A   1      45.229  24.346  36.483  1.00  0.00    -0.200 F 
ATOM     74  F   UNL A   1      47.740  25.409  36.436  1.00  0.00    -0.200 F 
ENDBRANCH  50  64
BRANCH  51  75
ATOM     75  C   UNL A   1      37.024  31.087  29.204  1.00  0.00     0.064 A 
ATOM     76  C   UNL A   1      35.901  30.288  28.952  1.00  0.00     0.173 A 
ATOM     77  C   UNL A   1      37.003  32.410  28.740  1.00  0.00     0.173 A 
ATOM     78  F   UNL A   1      35.885  29.008  29.350  1.00  0.00    -0.203 F 
ATOM     79  C   UNL A   1      34.801  30.794  28.261  1.00  0.00     0.198 A 
ATOM     80  C   UNL A   1      35.890  32.923  28.078  1.00  0.00     0.198 A 
ATOM     81  F   UNL A   1      38.054  33.215  28.953  1.00  0.00    -0.203 F 
ATOM     82  F   UNL A   1      33.754  30.000  28.001  1.00  0.00    -0.200 F 
ATOM     83  C   UNL A   1      34.792  32.113  27.834  1.00  0.00     0.200 A 
ATOM     84  F   UNL A   1      35.881  34.203  27.680  1.00  0.00    -0.200 F 
ATOM     85  F   UNL A   1      33.728  32.602  27.183  1.00  0.00    -0.200 F 
ENDBRANCH  51  75
BRANCH  63  86
ATOM     86  C   UNL A   1      39.406  32.047  35.683  1.00  0.00     0.064 A 
ATOM     87  C   UNL A   1      38.475  31.577  36.622  1.00  0.00     0.173 A 
ATOM     88  C   UNL A   1      39.910  33.346  35.851  1.00  0.00     0.173 A 
ATOM     89  F   UNL A   1      37.951  30.349  36.496  1.00  0.00    -0.203 F 
ATOM     90  C   UNL A   1      38.046  32.387  37.670  1.00  0.00     0.198 A 
ATOM     91  C   UNL A   1      39.501  34.141  36.917  1.00  0.00     0.198 A 
ATOM     92  F   UNL A   1      40.807  33.839  34.985  1.00  0.00    -0.203 F 
ATOM     93  F   UNL A   1      37.119  31.935  38.527  1.00  0.00    -0.200 F 
ATOM     94  C   UNL A   1      38.563  33.665  37.821  1.00  0.00     0.200 A 
ATOM     95  F   UNL A   1      40.011  35.371  37.068  1.00  0.00    -0.200 F 
ATOM     96  F   UNL A   1      38.152  34.441  38.833  1.00  0.00    -0.200 F 
ENDBRANCH  63  86
ENDBRANCH  37  38
ENDBRANCH  30  32
ENDBRANCH  29  30
ENDBRANCH  28  29
ENDBRANCH   1  28
TORSDOF 15
ENDMDL
MODEL 3
REMARK VINA RESULT:     -12.3      3.880      9.225
REMARK SMILES CC[C@@H](C)N1C(=O)/C(=C/Nc2cccc(C(=O)OCCOC(=O)c3ccc(-c4c5nc(c(-c6c(F)c(F)c(F)c(F)c6F)c6ccc([nH]6)c(-c6c(F)c(F)c(F)c(F)c6F)c6nc(c(-c7c(F)c(F)c(F)c(F)c7F)c7ccc4[nH]7)C=C6)C=C5)cc3)c2)C(=O)NC1=S
REMARK SMILES IDX 19 1 18 2 16 3 17 4 15 5 11 6 12 7 87 8 13 9 14 10 10 11
REMARK SMILES IDX 9 13 5 14 6 15 91 16 7 17 8 18 90 19 92 20 88 21 89 23 3 24
REMARK SMILES IDX 4 25 2 26 1 27 20 28 21 29 22 30 23 31 24 32 25 33 86 34
REMARK SMILES IDX 26 35 85 36 27 37 28 38 29 39 79 40 30 41 84 42 78 43 80 44
REMARK SMILES IDX 31 45 83 46 77 47 76 48 32 50 64 51 44 52 63 53 45 54 48 55
REMARK SMILES IDX 62 56 81 57 46 58 47 59 61 61 82 62 49 63 33 64 34 65 42 66
REMARK SMILES IDX 35 67 36 68 40 69 43 70 37 71 38 72 41 73 39 74 65 75 66 76
REMARK SMILES IDX 74 77 67 78 68 79 72 80 75 81 69 82 70 83 73 84 71 85 50 86
REMARK SMILES IDX 51 87 59 88 52 89 53 90 57 91 60 92 54 93 55 94 58 95 56 96
REMARK H PARENT 10 12 90 22 80 49 48 60
REMARK Flexibility Score: inf
ROOT
ATOM      1  C   UNL A   1      33.926  35.157  28.670  1.00  0.00     0.275 C 
ENDROOT
BRANCH   1   2
ATOM      2  O   UNL A   1      33.611  33.770  28.917  1.00  0.00    -0.458 OA
BRANCH   2   3
ATOM      3  C   UNL A   1      32.959  33.108  27.929  1.00  0.00     0.338 C 
ATOM      4  O   UNL A   1      32.018  33.525  27.271  1.00  0.00    -0.246 OA
BRANCH   3   5
ATOM      5  C   UNL A   1      33.636  31.819  27.639  1.00  0.00     0.062 A 
ATOM      6  C   UNL A   1      33.656  29.600  26.642  1.00  0.00     0.039 A 
ATOM      7  C   UNL A   1      34.882  29.347  27.268  1.00  0.00     0.026 A 
ATOM      8  C   UNL A   1      33.030  30.838  26.854  1.00  0.00     0.041 A 
ATOM      9  C   UNL A   1      35.510  30.332  28.028  1.00  0.00     0.003 A 
ATOM     10  C   UNL A   1      34.907  31.579  28.175  1.00  0.00     0.016 A 
BRANCH   6  11
ATOM     11  N   UNL A   1      33.147  28.661  25.735  1.00  0.00    -0.361 N 
ATOM     12  H   UNL A   1      32.417  28.957  25.145  1.00  0.00     0.166 HD
BRANCH  11  13
ATOM     13  C   UNL A   1      33.578  27.366  25.596  1.00  0.00     0.102 C 
ATOM     14  N   UNL A   1      32.805  23.876  25.440  1.00  0.00    -0.282 N 
ATOM     15  C   UNL A   1      33.662  24.962  25.675  1.00  0.00     0.267 C 
ATOM     16  C   UNL A   1      31.581  23.831  26.125  1.00  0.00     0.183 C 
ATOM     17  O   UNL A   1      34.889  24.933  25.633  1.00  0.00    -0.268 OA
ATOM     18  C   UNL A   1      33.009  26.233  26.029  1.00  0.00     0.121 C 
ATOM     19  N   UNL A   1      31.180  24.979  26.777  1.00  0.00    -0.298 N 
ATOM     20  S   UNL A   1      30.486  22.579  26.325  1.00  0.00    -0.040 S 
ATOM     21  C   UNL A   1      31.742  26.220  26.742  1.00  0.00     0.264 C 
ATOM     22  H   UNL A   1      30.380  24.890  27.343  1.00  0.00     0.172 HD
ATOM     23  O   UNL A   1      31.213  27.209  27.234  1.00  0.00    -0.269 OA
BRANCH  14  24
ATOM     24  C   UNL A   1      33.263  22.922  24.329  1.00  0.00     0.090 C 
ATOM     25  C   UNL A   1      32.522  22.978  22.989  1.00  0.00     0.031 C 
BRANCH  24  26
ATOM     26  C   UNL A   1      33.440  21.432  24.761  1.00  0.00     0.022 C 
ATOM     27  C   UNL A   1      32.666  20.390  23.958  1.00  0.00     0.006 C 
ENDBRANCH  24  26
ENDBRANCH  14  24
ENDBRANCH  11  13
ENDBRANCH   6  11
ENDBRANCH   3   5
ENDBRANCH   2   3
ENDBRANCH   1   2
BRANCH   1  28
ATOM     28  C   UNL A   1      33.007  36.078  29.474  1.00  0.00     0.275 C 
BRANCH  28  29
ATOM     29  O   UNL A   1      32.364  35.326  30.520  1.00  0.00    -0.458 OA
BRANCH  29  30
ATOM     30  C   UNL A   1      32.544  35.788  31.777  1.00  0.00     0.338 C 
ATOM     31  O   UNL A   1      31.879  36.612  32.379  1.00  0.00    -0.246 OA
BRANCH  30  32
ATOM     32  C   UNL A   1      33.659  35.056  32.396  1.00  0.00     0.060 A 
ATOM     33  C   UNL A   1      34.910  35.662  32.394  1.00  0.00     0.016 A 
ATOM     34  C   UNL A   1      33.516  33.748  32.847  1.00  0.00     0.016 A 
ATOM     35  C   UNL A   1      36.043  34.954  32.779  1.00  0.00     0.010 A 
ATOM     36  C   UNL A   1      34.644  33.058  33.310  1.00  0.00     0.010 A 
ATOM     37  C   UNL A   1      35.926  33.640  33.251  1.00  0.00    -0.014 A 
BRANCH  37  38
ATOM     38  C   UNL A   1      37.149  32.872  33.615  1.00  0.00     0.031 A 
ATOM     39  C   UNL A   1      37.818  33.105  34.943  1.00  0.00     0.074 A 
ATOM     40  C   UNL A   1      37.649  31.940  32.779  1.00  0.00     0.049 A 
ATOM     41  N   UNL A   1      38.963  32.650  35.389  1.00  0.00    -0.248 NA
ATOM     42  C   UNL A   1      37.111  33.977  35.892  1.00  0.00     0.031 C 
ATOM     43  C   UNL A   1      37.079  31.573  31.483  1.00  0.00     0.029 A 
ATOM     44  N   UNL A   1      38.751  31.128  32.898  1.00  0.00    -0.354 N 
ATOM     45  C   UNL A   1      39.142  33.231  36.639  1.00  0.00     0.074 A 
ATOM     46  C   UNL A   1      37.988  34.071  36.881  1.00  0.00     0.031 C 
ATOM     47  C   UNL A   1      37.816  30.592  30.940  1.00  0.00     0.029 A 
ATOM     48  C   UNL A   1      38.956  30.318  31.808  1.00  0.00     0.049 A 
ATOM     49  H   UNL A   1      39.338  31.126  33.689  1.00  0.00     0.167 HD
ATOM     50  C   UNL A   1      40.174  33.078  37.503  1.00  0.00     0.037 A 
ATOM     51  C   UNL A   1      39.969  29.479  31.514  1.00  0.00     0.037 A 
ATOM     52  C   UNL A   1      41.290  32.192  37.288  1.00  0.00     0.049 A 
ATOM     53  C   UNL A   1      41.111  29.336  32.481  1.00  0.00     0.074 A 
ATOM     54  C   UNL A   1      42.364  31.937  38.124  1.00  0.00     0.029 A 
ATOM     55  N   UNL A   1      41.471  31.408  36.157  1.00  0.00    -0.354 N 
ATOM     56  N   UNL A   1      41.289  29.917  33.642  1.00  0.00    -0.248 NA
ATOM     57  C   UNL A   1      42.201  28.431  32.088  1.00  0.00     0.031 C 
ATOM     58  C   UNL A   1      43.217  31.034  37.480  1.00  0.00     0.029 A 
ATOM     59  C   UNL A   1      42.650  30.686  36.265  1.00  0.00     0.049 A 
ATOM     60  H   UNL A   1      40.853  31.370  35.392  1.00  0.00     0.167 HD
ATOM     61  C   UNL A   1      42.502  29.445  34.122  1.00  0.00     0.074 A 
ATOM     62  C   UNL A   1      43.006  28.510  33.137  1.00  0.00     0.031 C 
ATOM     63  C   UNL A   1      43.144  29.764  35.274  1.00  0.00     0.037 A 
BRANCH  50  64
ATOM     64  C   UNL A   1      40.170  33.923  38.744  1.00  0.00     0.064 A 
ATOM     65  C   UNL A   1      40.827  35.159  38.812  1.00  0.00     0.173 A 
ATOM     66  C   UNL A   1      39.473  33.489  39.884  1.00  0.00     0.173 A 
ATOM     67  F   UNL A   1      41.518  35.615  37.756  1.00  0.00    -0.203 F 
ATOM     68  C   UNL A   1      40.819  35.914  39.984  1.00  0.00     0.198 A 
ATOM     69  C   UNL A   1      39.439  34.260  41.044  1.00  0.00     0.198 A 
ATOM     70  F   UNL A   1      38.819  32.318  39.872  1.00  0.00    -0.203 F 
ATOM     71  F   UNL A   1      41.501  37.065  40.043  1.00  0.00    -0.200 F 
ATOM     72  C   UNL A   1      40.120  35.466  41.096  1.00  0.00     0.200 A 
ATOM     73  F   UNL A   1      38.752  33.831  42.111  1.00  0.00    -0.200 F 
ATOM     74  F   UNL A   1      40.110  36.193  42.221  1.00  0.00    -0.200 F 
ENDBRANCH  50  64
BRANCH  51  75
ATOM     75  C   UNL A   1      39.961  28.746  30.221  1.00  0.00     0.064 A 
ATOM     76  C   UNL A   1      40.552  29.292  29.074  1.00  0.00     0.173 A 
ATOM     77  C   UNL A   1      39.379  27.474  30.113  1.00  0.00     0.173 A 
ATOM     78  F   UNL A   1      41.096  30.517  29.120  1.00  0.00    -0.203 F 
ATOM     79  C   UNL A   1      40.561  28.594  27.868  1.00  0.00     0.198 A 
ATOM     80  C   UNL A   1      39.416  26.764  28.915  1.00  0.00     0.198 A 
ATOM     81  F   UNL A   1      38.798  26.908  31.181  1.00  0.00    -0.203 F 
ATOM     82  F   UNL A   1      41.102  29.153  26.778  1.00  0.00    -0.200 F 
ATOM     83  C   UNL A   1      40.002  27.327  27.792  1.00  0.00     0.200 A 
ATOM     84  F   UNL A   1      38.888  25.534  28.852  1.00  0.00    -0.200 F 
ATOM     85  F   UNL A   1      40.024  26.650  26.636  1.00  0.00    -0.200 F 
ENDBRANCH  51  75
BRANCH  63  86
ATOM     86  C   UNL A   1      44.453  29.079  35.539  1.00  0.00     0.064 A 
ATOM     87  C   UNL A   1      44.516  27.851  36.213  1.00  0.00     0.173 A 
ATOM     88  C   UNL A   1      45.657  29.645  35.091  1.00  0.00     0.173 A 
ATOM     89  F   UNL A   1      43.395  27.276  36.675  1.00  0.00    -0.203 F 
ATOM     90  C   UNL A   1      45.738  27.227  36.452  1.00  0.00     0.198 A 
ATOM     91  C   UNL A   1      46.873  29.005  35.307  1.00  0.00     0.198 A 
ATOM     92  F   UNL A   1      45.650  30.816  34.436  1.00  0.00    -0.203 F 
ATOM     93  F   UNL A   1      45.778  26.078  37.141  1.00  0.00    -0.200 F 
ATOM     94  C   UNL A   1      46.915  27.801  35.994  1.00  0.00     0.200 A 
ATOM     95  F   UNL A   1      48.007  29.555  34.853  1.00  0.00    -0.200 F 
ATOM     96  F   UNL A   1      48.089  27.199  36.222  1.00  0.00    -0.200 F 
ENDBRANCH  63  86
ENDBRANCH  37  38
ENDBRANCH  30  32
ENDBRANCH  29  30
ENDBRANCH  28  29
ENDBRANCH   1  28
TORSDOF 15
ENDMDL
