MODEL 1
REMARK VINA RESULT:     -12.9      0.000      0.000
REMARK SMILES O=C(N[C@@H](C(=O)OCCOC(=O)c1ccc(-c2c3nc(c(-c4c(F)c(F)c(F)c(F)c4F)c4ccc([nH]4)c(-c4c(F)c(F)c(F)c(F)c4F)c4nc(c(-c5c(F)c(F)c(F)c(F)c5F)c5ccc2[nH]5)C=C4)C=C3)cc1)c1ccccc1)c1ccc(Br)nc1
REMARK SMILES IDX 8 1 7 2 5 3 6 4 4 5 3 6 1 7 2 8 82 10 83 11 88 12 84 13
REMARK SMILES IDX 87 14 85 15 86 16 76 17 77 18 81 19 78 20 80 21 79 22 9 23
REMARK SMILES IDX 10 24 11 25 12 26 13 27 14 28 75 29 15 30 74 31 16 32 17 33
REMARK SMILES IDX 18 34 68 35 19 36 73 37 67 38 69 39 20 40 72 41 66 42 65 43
REMARK SMILES IDX 21 45 53 46 33 47 52 48 34 49 37 50 51 51 70 52 35 53 36 54
REMARK SMILES IDX 50 56 71 57 38 58 22 59 23 60 31 61 24 62 25 63 29 64 32 65
REMARK SMILES IDX 26 66 27 67 30 68 28 69 54 70 55 71 63 72 56 73 57 74 61 75
REMARK SMILES IDX 64 76 58 77 59 78 62 79 60 80 39 81 40 82 48 83 41 84 42 85
REMARK SMILES IDX 46 86 49 87 43 88 44 89 47 90 45 91
REMARK H PARENT 3 9 69 44 37 55
REMARK Flexibility Score: inf
ROOT
ATOM      1  C   UNL A   1      31.741  28.879  25.684  1.00  0.00     0.274 C 
ENDROOT
BRANCH   1   2
ATOM      2  O   UNL A   1      32.886  28.351  24.983  1.00  0.00    -0.460 OA
BRANCH   2   3
ATOM      3  C   UNL A   1      32.885  28.506  23.628  1.00  0.00     0.333 C 
ATOM      4  O   UNL A   1      33.569  29.331  23.027  1.00  0.00    -0.249 OA
BRANCH   3   5
ATOM      5  C   UNL A   1      31.863  27.586  22.930  1.00  0.00     0.223 C 
BRANCH   5   6
ATOM      6  N   UNL A   1      32.304  27.029  21.646  1.00  0.00    -0.335 N 
ATOM      7  O   UNL A   1      33.050  25.450  20.216  1.00  0.00    -0.269 OA
ATOM      8  C   UNL A   1      32.629  25.739  21.329  1.00  0.00     0.253 C 
ATOM      9  H   UNL A   1      32.377  27.677  20.907  1.00  0.00     0.165 HD
BRANCH   8  10
ATOM     10  C   UNL A   1      32.561  24.698  22.364  1.00  0.00     0.058 A 
ATOM     11  C   UNL A   1      31.311  24.254  22.790  1.00  0.00     0.018 A 
ATOM     12  C   UNL A   1      33.696  24.104  22.895  1.00  0.00     0.126 A 
ATOM     13  C   UNL A   1      31.241  23.188  23.682  1.00  0.00     0.037 A 
ATOM     14  N   UNL A   1      33.655  23.053  23.747  1.00  0.00    -0.249 NA
ATOM     15  C   UNL A   1      32.429  22.612  24.117  1.00  0.00     0.106 A 
ATOM     16  Br  UNL A   1      32.344  21.106  25.266  1.00  0.00    -0.029 Br
ENDBRANCH   8  10
ENDBRANCH   5   6
BRANCH   5  17
ATOM     17  C   UNL A   1      30.482  28.213  22.779  1.00  0.00    -0.014 A 
ATOM     18  C   UNL A   1      30.345  29.468  22.162  1.00  0.00     0.006 A 
ATOM     19  C   UNL A   1      29.323  27.576  23.257  1.00  0.00     0.006 A 
ATOM     20  C   UNL A   1      29.093  30.079  22.051  1.00  0.00     0.000 A 
ATOM     21  C   UNL A   1      28.072  28.192  23.150  1.00  0.00     0.000 A 
ATOM     22  C   UNL A   1      27.959  29.444  22.551  1.00  0.00     0.000 A 
ENDBRANCH   5  17
ENDBRANCH   3   5
ENDBRANCH   2   3
ENDBRANCH   1   2
BRANCH   1  23
ATOM     23  C   UNL A   1      31.877  30.381  25.921  1.00  0.00     0.275 C 
BRANCH  23  24
ATOM     24  O   UNL A   1      32.364  30.641  27.250  1.00  0.00    -0.458 OA
BRANCH  24  25
ATOM     25  C   UNL A   1      33.132  31.746  27.372  1.00  0.00     0.338 C 
ATOM     26  O   UNL A   1      32.772  32.911  27.343  1.00  0.00    -0.246 OA
BRANCH  25  27
ATOM     27  C   UNL A   1      34.527  31.372  27.638  1.00  0.00     0.060 A 
ATOM     28  C   UNL A   1      34.827  30.028  27.822  1.00  0.00     0.016 A 
ATOM     29  C   UNL A   1      35.470  32.350  27.951  1.00  0.00     0.016 A 
ATOM     30  C   UNL A   1      36.008  29.664  28.460  1.00  0.00     0.010 A 
ATOM     31  C   UNL A   1      36.701  31.970  28.504  1.00  0.00     0.010 A 
ATOM     32  C   UNL A   1      36.952  30.628  28.839  1.00  0.00    -0.014 A 
BRANCH  32  33
ATOM     33  C   UNL A   1      38.110  30.239  29.700  1.00  0.00     0.031 A 
ATOM     34  C   UNL A   1      39.234  29.409  29.123  1.00  0.00     0.074 A 
ATOM     35  C   UNL A   1      38.225  30.685  30.967  1.00  0.00     0.049 A 
ATOM     36  N   UNL A   1      40.228  28.816  29.738  1.00  0.00    -0.248 NA
ATOM     37  C   UNL A   1      39.232  29.205  27.666  1.00  0.00     0.031 C 
ATOM     38  C   UNL A   1      37.269  31.556  31.652  1.00  0.00     0.029 A 
ATOM     39  N   UNL A   1      39.218  30.492  31.897  1.00  0.00    -0.354 N 
ATOM     40  C   UNL A   1      40.906  28.096  28.761  1.00  0.00     0.074 A 
ATOM     41  C   UNL A   1      40.228  28.345  27.507  1.00  0.00     0.031 C 
ATOM     42  C   UNL A   1      37.757  31.883  32.858  1.00  0.00     0.029 A 
ATOM     43  C   UNL A   1      39.010  31.167  33.074  1.00  0.00     0.049 A 
ATOM     44  H   UNL A   1      40.006  29.924  31.733  1.00  0.00     0.167 HD
ATOM     45  C   UNL A   1      41.989  27.294  28.899  1.00  0.00     0.037 A 
ATOM     46  C   UNL A   1      39.727  31.186  34.215  1.00  0.00     0.037 A 
ATOM     47  C   UNL A   1      42.732  27.129  30.121  1.00  0.00     0.049 A 
ATOM     48  C   UNL A   1      40.951  30.323  34.334  1.00  0.00     0.074 A 
ATOM     49  C   UNL A   1      43.841  26.335  30.360  1.00  0.00     0.029 A 
ATOM     50  N   UNL A   1      42.468  27.811  31.299  1.00  0.00    -0.354 N 
ATOM     51  N   UNL A   1      41.499  29.537  33.442  1.00  0.00    -0.248 NA
ATOM     52  C   UNL A   1      41.635  30.327  35.635  1.00  0.00     0.031 C 
ATOM     53  C   UNL A   1      44.242  26.527  31.688  1.00  0.00     0.029 A 
ATOM     54  C   UNL A   1      43.400  27.463  32.265  1.00  0.00     0.049 A 
ATOM     55  H   UNL A   1      41.729  28.446  31.430  1.00  0.00     0.167 HD
ATOM     56  C   UNL A   1      42.581  28.942  34.074  1.00  0.00     0.074 A 
ATOM     57  C   UNL A   1      42.639  29.488  35.414  1.00  0.00     0.031 C 
ATOM     58  C   UNL A   1      43.439  28.009  33.594  1.00  0.00     0.037 A 
BRANCH  45  59
ATOM     59  C   UNL A   1      42.420  26.494  27.706  1.00  0.00     0.064 A 
ATOM     60  C   UNL A   1      43.393  26.954  26.809  1.00  0.00     0.173 A 
ATOM     61  C   UNL A   1      41.872  25.220  27.486  1.00  0.00     0.173 A 
ATOM     62  F   UNL A   1      43.933  28.171  26.967  1.00  0.00    -0.203 F 
ATOM     63  C   UNL A   1      43.790  26.174  25.725  1.00  0.00     0.198 A 
ATOM     64  C   UNL A   1      42.289  24.433  26.416  1.00  0.00     0.198 A 
ATOM     65  F   UNL A   1      40.940  24.732  28.318  1.00  0.00    -0.203 F 
ATOM     66  F   UNL A   1      44.696  26.648  24.857  1.00  0.00    -0.200 F 
ATOM     67  C   UNL A   1      43.243  24.914  25.533  1.00  0.00     0.200 A 
ATOM     68  F   UNL A   1      41.767  23.212  26.239  1.00  0.00    -0.200 F 
ATOM     69  F   UNL A   1      43.634  24.162  24.494  1.00  0.00    -0.200 F 
ENDBRANCH  45  59
BRANCH  46  70
ATOM     70  C   UNL A   1      39.278  32.025  35.355  1.00  0.00     0.064 A 
ATOM     71  C   UNL A   1      38.492  31.481  36.380  1.00  0.00     0.173 A 
ATOM     72  C   UNL A   1      39.624  33.380  35.444  1.00  0.00     0.173 A 
ATOM     73  F   UNL A   1      38.112  30.196  36.321  1.00  0.00    -0.203 F 
ATOM     74  C   UNL A   1      38.065  32.264  37.450  1.00  0.00     0.198 A 
ATOM     75  C   UNL A   1      39.221  34.155  36.528  1.00  0.00     0.198 A 
ATOM     76  F   UNL A   1      40.370  33.947  34.485  1.00  0.00    -0.203 F 
ATOM     77  F   UNL A   1      37.284  31.730  38.398  1.00  0.00    -0.200 F 
ATOM     78  C   UNL A   1      38.437  33.599  37.527  1.00  0.00     0.200 A 
ATOM     79  F   UNL A   1      39.592  35.440  36.605  1.00  0.00    -0.200 F 
ATOM     80  F   UNL A   1      38.034  34.349  38.561  1.00  0.00    -0.200 F 
ENDBRANCH  46  70
BRANCH  58  81
ATOM     81  C   UNL A   1      44.508  27.525  34.526  1.00  0.00     0.064 A 
ATOM     82  C   UNL A   1      45.745  28.181  34.613  1.00  0.00     0.173 A 
ATOM     83  C   UNL A   1      44.292  26.410  35.346  1.00  0.00     0.173 A 
ATOM     84  F   UNL A   1      46.003  29.242  33.835  1.00  0.00    -0.203 F 
ATOM     85  C   UNL A   1      46.737  27.719  35.472  1.00  0.00     0.198 A 
ATOM     86  C   UNL A   1      45.280  25.962  36.219  1.00  0.00     0.198 A 
ATOM     87  F   UNL A   1      43.123  25.752  35.299  1.00  0.00    -0.203 F 
ATOM     88  F   UNL A   1      47.928  28.333  35.509  1.00  0.00    -0.200 F 
ATOM     89  C   UNL A   1      46.503  26.613  36.276  1.00  0.00     0.200 A 
ATOM     90  F   UNL A   1      45.051  24.897  36.999  1.00  0.00    -0.200 F 
ATOM     91  F   UNL A   1      47.463  26.167  37.100  1.00  0.00    -0.200 F 
ENDBRANCH  58  81
ENDBRANCH  32  33
ENDBRANCH  25  27
ENDBRANCH  24  25
ENDBRANCH  23  24
ENDBRANCH   1  23
TORSDOF 14
ENDMDL
MODEL 2
REMARK VINA RESULT:     -12.9      0.445      1.724
REMARK SMILES O=C(N[C@@H](C(=O)OCCOC(=O)c1ccc(-c2c3nc(c(-c4c(F)c(F)c(F)c(F)c4F)c4ccc([nH]4)c(-c4c(F)c(F)c(F)c(F)c4F)c4nc(c(-c5c(F)c(F)c(F)c(F)c5F)c5ccc2[nH]5)C=C4)C=C3)cc1)c1ccccc1)c1ccc(Br)nc1
REMARK SMILES IDX 8 1 7 2 5 3 6 4 4 5 3 6 1 7 2 8 82 10 83 11 88 12 84 13
REMARK SMILES IDX 87 14 85 15 86 16 76 17 77 18 81 19 78 20 80 21 79 22 9 23
REMARK SMILES IDX 10 24 11 25 12 26 13 27 14 28 75 29 15 30 74 31 16 32 17 33
REMARK SMILES IDX 18 34 68 35 19 36 73 37 67 38 69 39 20 40 72 41 66 42 65 43
REMARK SMILES IDX 21 45 53 46 33 47 52 48 34 49 37 50 51 51 70 52 35 53 36 54
REMARK SMILES IDX 50 56 71 57 38 58 22 59 23 60 31 61 24 62 25 63 29 64 32 65
REMARK SMILES IDX 26 66 27 67 30 68 28 69 54 70 55 71 63 72 56 73 57 74 61 75
REMARK SMILES IDX 64 76 58 77 59 78 62 79 60 80 39 81 40 82 48 83 41 84 42 85
REMARK SMILES IDX 46 86 49 87 43 88 44 89 47 90 45 91
REMARK H PARENT 3 9 69 44 37 55
REMARK Flexibility Score: inf
ROOT
ATOM      1  C   UNL A   1      31.410  29.100  25.719  1.00  0.00     0.274 C 
ENDROOT
BRANCH   1   2
ATOM      2  O   UNL A   1      32.371  28.243  25.069  1.00  0.00    -0.460 OA
BRANCH   2   3
ATOM      3  C   UNL A   1      32.517  28.414  23.724  1.00  0.00     0.333 C 
ATOM      4  O   UNL A   1      33.350  29.154  23.209  1.00  0.00    -0.249 OA
BRANCH   3   5
ATOM      5  C   UNL A   1      31.459  27.637  22.914  1.00  0.00     0.223 C 
BRANCH   5   6
ATOM      6  N   UNL A   1      31.945  27.052  21.659  1.00  0.00    -0.335 N 
ATOM      7  O   UNL A   1      32.976  25.542  20.336  1.00  0.00    -0.269 OA
ATOM      8  C   UNL A   1      32.567  25.853  21.448  1.00  0.00     0.253 C 
ATOM      9  H   UNL A   1      31.802  27.601  20.854  1.00  0.00     0.165 HD
BRANCH   8  10
ATOM     10  C   UNL A   1      32.833  24.963  22.586  1.00  0.00     0.058 A 
ATOM     11  C   UNL A   1      34.058  25.061  23.243  1.00  0.00     0.018 A 
ATOM     12  C   UNL A   1      31.891  24.064  23.063  1.00  0.00     0.126 A 
ATOM     13  C   UNL A   1      34.270  24.304  24.392  1.00  0.00     0.037 A 
ATOM     14  N   UNL A   1      32.065  23.333  24.189  1.00  0.00    -0.249 NA
ATOM     15  C   UNL A   1      33.247  23.473  24.834  1.00  0.00     0.106 A 
ATOM     16  Br  UNL A   1      33.494  22.503  26.444  1.00  0.00    -0.029 Br
ENDBRANCH   8  10
ENDBRANCH   5   6
BRANCH   5  17
ATOM     17  C   UNL A   1      30.183  28.431  22.660  1.00  0.00    -0.014 A 
ATOM     18  C   UNL A   1      30.241  29.648  21.960  1.00  0.00     0.006 A 
ATOM     19  C   UNL A   1      28.930  27.987  23.121  1.00  0.00     0.006 A 
ATOM     20  C   UNL A   1      29.089  30.411  21.752  1.00  0.00     0.000 A 
ATOM     21  C   UNL A   1      27.780  28.756  22.916  1.00  0.00     0.000 A 
ATOM     22  C   UNL A   1      27.860  29.968  22.236  1.00  0.00     0.000 A 
ENDBRANCH   5  17
ENDBRANCH   3   5
ENDBRANCH   2   3
ENDBRANCH   1   2
BRANCH   1  23
ATOM     23  C   UNL A   1      31.956  30.514  25.901  1.00  0.00     0.275 C 
BRANCH  23  24
ATOM     24  O   UNL A   1      32.453  30.695  27.240  1.00  0.00    -0.458 OA
BRANCH  24  25
ATOM     25  C   UNL A   1      33.234  31.784  27.416  1.00  0.00     0.338 C 
ATOM     26  O   UNL A   1      32.889  32.953  27.432  1.00  0.00    -0.246 OA
BRANCH  25  27
ATOM     27  C   UNL A   1      34.621  31.380  27.686  1.00  0.00     0.060 A 
ATOM     28  C   UNL A   1      34.885  30.035  27.916  1.00  0.00     0.016 A 
ATOM     29  C   UNL A   1      35.593  32.342  27.955  1.00  0.00     0.016 A 
ATOM     30  C   UNL A   1      36.060  29.662  28.558  1.00  0.00     0.010 A 
ATOM     31  C   UNL A   1      36.818  31.947  28.511  1.00  0.00     0.010 A 
ATOM     32  C   UNL A   1      37.035  30.611  28.893  1.00  0.00    -0.014 A 
BRANCH  32  33
ATOM     33  C   UNL A   1      38.189  30.221  29.758  1.00  0.00     0.031 A 
ATOM     34  C   UNL A   1      39.306  29.376  29.191  1.00  0.00     0.074 A 
ATOM     35  C   UNL A   1      38.307  30.680  31.021  1.00  0.00     0.049 A 
ATOM     36  N   UNL A   1      40.295  28.781  29.812  1.00  0.00    -0.248 NA
ATOM     37  C   UNL A   1      39.303  29.157  27.735  1.00  0.00     0.031 C 
ATOM     38  C   UNL A   1      37.359  31.565  31.697  1.00  0.00     0.029 A 
ATOM     39  N   UNL A   1      39.299  30.488  31.953  1.00  0.00    -0.354 N 
ATOM     40  C   UNL A   1      40.967  28.046  28.842  1.00  0.00     0.074 A 
ATOM     41  C   UNL A   1      40.292  28.288  27.585  1.00  0.00     0.031 C 
ATOM     42  C   UNL A   1      37.849  31.900  32.900  1.00  0.00     0.029 A 
ATOM     43  C   UNL A   1      39.096  31.176  33.124  1.00  0.00     0.049 A 
ATOM     44  H   UNL A   1      40.081  29.911  31.795  1.00  0.00     0.167 HD
ATOM     45  C   UNL A   1      42.043  27.236  28.988  1.00  0.00     0.037 A 
ATOM     46  C   UNL A   1      39.812  31.200  34.264  1.00  0.00     0.037 A 
ATOM     47  C   UNL A   1      42.785  27.077  30.213  1.00  0.00     0.049 A 
ATOM     48  C   UNL A   1      41.029  30.328  34.392  1.00  0.00     0.074 A 
ATOM     49  C   UNL A   1      43.886  26.276  30.460  1.00  0.00     0.029 A 
ATOM     50  N   UNL A   1      42.526  27.773  31.383  1.00  0.00    -0.354 N 
ATOM     51  N   UNL A   1      41.571  29.529  33.509  1.00  0.00    -0.248 NA
ATOM     52  C   UNL A   1      41.713  30.339  35.694  1.00  0.00     0.031 C 
ATOM     53  C   UNL A   1      44.289  26.479  31.786  1.00  0.00     0.029 A 
ATOM     54  C   UNL A   1      43.455  27.428  32.353  1.00  0.00     0.049 A 
ATOM     55  H   UNL A   1      41.793  28.416  31.508  1.00  0.00     0.167 HD
ATOM     56  C   UNL A   1      42.648  28.931  34.147  1.00  0.00     0.074 A 
ATOM     57  C   UNL A   1      42.709  29.490  35.481  1.00  0.00     0.031 C 
ATOM     58  C   UNL A   1      43.498  27.986  33.677  1.00  0.00     0.037 A 
BRANCH  45  59
ATOM     59  C   UNL A   1      42.467  26.420  27.804  1.00  0.00     0.064 A 
ATOM     60  C   UNL A   1      41.920  25.160  27.529  1.00  0.00     0.173 A 
ATOM     61  C   UNL A   1      43.413  26.937  26.903  1.00  0.00     0.173 A 
ATOM     62  F   UNL A   1      41.026  24.616  28.368  1.00  0.00    -0.203 F 
ATOM     63  C   UNL A   1      42.317  24.439  26.405  1.00  0.00     0.198 A 
ATOM     64  C   UNL A   1      43.789  26.225  25.768  1.00  0.00     0.198 A 
ATOM     65  F   UNL A   1      43.963  28.142  27.119  1.00  0.00    -0.203 F 
ATOM     66  F   UNL A   1      41.809  23.218  26.181  1.00  0.00    -0.200 F 
ATOM     67  C   UNL A   1      43.245  24.974  25.523  1.00  0.00     0.200 A 
ATOM     68  F   UNL A   1      44.677  26.749  24.912  1.00  0.00    -0.200 F 
ATOM     69  F   UNL A   1      43.618  24.282  24.438  1.00  0.00    -0.200 F 
ENDBRANCH  45  59
BRANCH  46  70
ATOM     70  C   UNL A   1      39.370  32.055  35.395  1.00  0.00     0.064 A 
ATOM     71  C   UNL A   1      38.530  31.544  36.394  1.00  0.00     0.173 A 
ATOM     72  C   UNL A   1      39.777  33.391  35.502  1.00  0.00     0.173 A 
ATOM     73  F   UNL A   1      38.092  30.279  36.317  1.00  0.00    -0.203 F 
ATOM     74  C   UNL A   1      38.109  32.342  37.456  1.00  0.00     0.198 A 
ATOM     75  C   UNL A   1      39.379  34.180  36.579  1.00  0.00     0.198 A 
ATOM     76  F   UNL A   1      40.576  33.927  34.568  1.00  0.00    -0.203 F 
ATOM     77  F   UNL A   1      37.277  31.840  38.378  1.00  0.00    -0.200 F 
ATOM     78  C   UNL A   1      38.541  33.657  37.552  1.00  0.00     0.200 A 
ATOM     79  F   UNL A   1      39.808  35.446  36.674  1.00  0.00    -0.200 F 
ATOM     80  F   UNL A   1      38.144  34.420  38.578  1.00  0.00    -0.200 F 
ENDBRANCH  46  70
BRANCH  58  81
ATOM     81  C   UNL A   1      44.562  27.502  34.614  1.00  0.00     0.064 A 
ATOM     82  C   UNL A   1      44.359  26.372  35.420  1.00  0.00     0.173 A 
ATOM     83  C   UNL A   1      45.795  28.162  34.698  1.00  0.00     0.173 A 
ATOM     84  F   UNL A   1      43.188  25.719  35.386  1.00  0.00    -0.203 F 
ATOM     85  C   UNL A   1      45.348  25.936  36.297  1.00  0.00     0.198 A 
ATOM     86  C   UNL A   1      46.790  27.710  35.562  1.00  0.00     0.198 A 
ATOM     87  F   UNL A   1      46.035  29.245  33.944  1.00  0.00    -0.203 F 
ATOM     88  F   UNL A   1      45.119  24.880  37.090  1.00  0.00    -0.200 F 
ATOM     89  C   UNL A   1      46.562  26.602  36.365  1.00  0.00     0.200 A 
ATOM     90  F   UNL A   1      47.964  28.352  35.623  1.00  0.00    -0.200 F 
ATOM     91  F   UNL A   1      47.512  26.182  37.213  1.00  0.00    -0.200 F 
ENDBRANCH  58  81
ENDBRANCH  32  33
ENDBRANCH  25  27
ENDBRANCH  24  25
ENDBRANCH  23  24
ENDBRANCH   1  23
TORSDOF 14
ENDMDL
MODEL 3
REMARK VINA RESULT:     -12.6      1.519      3.266
REMARK SMILES O=C(N[C@@H](C(=O)OCCOC(=O)c1ccc(-c2c3nc(c(-c4c(F)c(F)c(F)c(F)c4F)c4ccc([nH]4)c(-c4c(F)c(F)c(F)c(F)c4F)c4nc(c(-c5c(F)c(F)c(F)c(F)c5F)c5ccc2[nH]5)C=C4)C=C3)cc1)c1ccccc1)c1ccc(Br)nc1
REMARK SMILES IDX 8 1 7 2 5 3 6 4 4 5 3 6 1 7 2 8 82 10 83 11 88 12 84 13
REMARK SMILES IDX 87 14 85 15 86 16 76 17 77 18 81 19 78 20 80 21 79 22 9 23
REMARK SMILES IDX 10 24 11 25 12 26 13 27 14 28 75 29 15 30 74 31 16 32 17 33
REMARK SMILES IDX 18 34 68 35 19 36 73 37 67 38 69 39 20 40 72 41 66 42 65 43
REMARK SMILES IDX 21 45 53 46 33 47 52 48 34 49 37 50 51 51 70 52 35 53 36 54
REMARK SMILES IDX 50 56 71 57 38 58 22 59 23 60 31 61 24 62 25 63 29 64 32 65
REMARK SMILES IDX 26 66 27 67 30 68 28 69 54 70 55 71 63 72 56 73 57 74 61 75
REMARK SMILES IDX 64 76 58 77 59 78 62 79 60 80 39 81 40 82 48 83 41 84 42 85
REMARK SMILES IDX 46 86 49 87 43 88 44 89 47 90 45 91
REMARK H PARENT 3 9 69 44 37 55
REMARK Flexibility Score: inf
ROOT
ATOM      1  C   UNL A   1      31.935  28.342  25.224  1.00  0.00     0.274 C 
ENDROOT
BRANCH   1   2
ATOM      2  O   UNL A   1      33.097  27.516  25.446  1.00  0.00    -0.460 OA
BRANCH   2   3
ATOM      3  C   UNL A   1      33.461  26.700  24.416  1.00  0.00     0.333 C 
ATOM      4  O   UNL A   1      33.791  27.100  23.303  1.00  0.00    -0.249 OA
BRANCH   3   5
ATOM      5  C   UNL A   1      33.330  25.206  24.772  1.00  0.00     0.223 C 
BRANCH   5   6
ATOM      6  N   UNL A   1      32.665  24.927  26.051  1.00  0.00    -0.335 N 
ATOM      7  O   UNL A   1      31.634  23.682  27.625  1.00  0.00    -0.269 OA
ATOM      8  C   UNL A   1      32.241  23.733  26.562  1.00  0.00     0.253 C 
ATOM      9  H   UNL A   1      32.501  25.714  26.621  1.00  0.00     0.165 HD
BRANCH   8  10
ATOM     10  C   UNL A   1      32.432  22.501  25.785  1.00  0.00     0.058 A 
ATOM     11  C   UNL A   1      33.322  21.539  26.258  1.00  0.00     0.018 A 
ATOM     12  C   UNL A   1      31.719  22.237  24.625  1.00  0.00     0.126 A 
ATOM     13  C   UNL A   1      33.419  20.322  25.589  1.00  0.00     0.037 A 
ATOM     14  N   UNL A   1      31.780  21.054  23.969  1.00  0.00    -0.249 NA
ATOM     15  C   UNL A   1      32.623  20.119  24.468  1.00  0.00     0.106 A 
ATOM     16  Br  UNL A   1      32.685  18.435  23.600  1.00  0.00    -0.029 Br
ENDBRANCH   8  10
ENDBRANCH   5   6
BRANCH   5  17
ATOM     17  C   UNL A   1      34.647  24.443  24.693  1.00  0.00    -0.014 A 
ATOM     18  C   UNL A   1      34.954  23.691  23.546  1.00  0.00     0.006 A 
ATOM     19  C   UNL A   1      35.576  24.453  25.750  1.00  0.00     0.006 A 
ATOM     20  C   UNL A   1      36.137  22.951  23.470  1.00  0.00     0.000 A 
ATOM     21  C   UNL A   1      36.756  23.708  25.673  1.00  0.00     0.000 A 
ATOM     22  C   UNL A   1      37.034  22.955  24.536  1.00  0.00     0.000 A 
ENDBRANCH   5  17
ENDBRANCH   3   5
ENDBRANCH   2   3
ENDBRANCH   1   2
BRANCH   1  23
ATOM     23  C   UNL A   1      32.241  29.816  25.477  1.00  0.00     0.275 C 
BRANCH  23  24
ATOM     24  O   UNL A   1      32.426  30.059  26.884  1.00  0.00    -0.458 OA
BRANCH  24  25
ATOM     25  C   UNL A   1      33.088  31.198  27.185  1.00  0.00     0.338 C 
ATOM     26  O   UNL A   1      32.627  32.322  27.286  1.00  0.00    -0.246 OA
BRANCH  25  27
ATOM     27  C   UNL A   1      34.499  30.909  27.474  1.00  0.00     0.060 A 
ATOM     28  C   UNL A   1      34.879  29.584  27.648  1.00  0.00     0.016 A 
ATOM     29  C   UNL A   1      35.372  31.940  27.816  1.00  0.00     0.016 A 
ATOM     30  C   UNL A   1      36.068  29.287  28.305  1.00  0.00     0.010 A 
ATOM     31  C   UNL A   1      36.615  31.631  28.387  1.00  0.00     0.010 A 
ATOM     32  C   UNL A   1      36.944  30.303  28.713  1.00  0.00    -0.014 A 
BRANCH  32  33
ATOM     33  C   UNL A   1      38.107  29.977  29.591  1.00  0.00     0.031 A 
ATOM     34  C   UNL A   1      39.267  29.177  29.042  1.00  0.00     0.074 A 
ATOM     35  C   UNL A   1      38.194  30.455  30.849  1.00  0.00     0.049 A 
ATOM     36  N   UNL A   1      40.277  28.636  29.678  1.00  0.00    -0.248 NA
ATOM     37  C   UNL A   1      39.285  28.942  27.590  1.00  0.00     0.031 C 
ATOM     38  C   UNL A   1      37.200  31.304  31.507  1.00  0.00     0.029 A 
ATOM     39  N   UNL A   1      39.186  30.320  31.790  1.00  0.00    -0.354 N 
ATOM     40  C   UNL A   1      40.989  27.921  28.722  1.00  0.00     0.074 A 
ATOM     41  C   UNL A   1      40.314  28.118  27.458  1.00  0.00     0.031 C 
ATOM     42  C   UNL A   1      37.665  31.675  32.709  1.00  0.00     0.029 A 
ATOM     43  C   UNL A   1      38.942  31.012  32.951  1.00  0.00     0.049 A 
ATOM     44  H   UNL A   1      39.995  29.778  31.646  1.00  0.00     0.167 HD
ATOM     45  C   UNL A   1      42.101  27.164  28.886  1.00  0.00     0.037 A 
ATOM     46  C   UNL A   1      39.647  31.082  34.097  1.00  0.00     0.037 A 
ATOM     47  C   UNL A   1      42.839  27.054  30.118  1.00  0.00     0.049 A 
ATOM     48  C   UNL A   1      40.902  30.269  34.245  1.00  0.00     0.074 A 
ATOM     49  C   UNL A   1      43.974  26.307  30.384  1.00  0.00     0.029 A 
ATOM     50  N   UNL A   1      42.539  27.750  31.278  1.00  0.00    -0.354 N 
ATOM     51  N   UNL A   1      41.487  29.486  33.375  1.00  0.00    -0.248 NA
ATOM     52  C   UNL A   1      41.574  30.327  35.551  1.00  0.00     0.031 C 
ATOM     53  C   UNL A   1      44.356  26.544  31.710  1.00  0.00     0.029 A 
ATOM     54  C   UNL A   1      43.475  27.460  32.259  1.00  0.00     0.049 A 
ATOM     55  H   UNL A   1      41.776  28.360  31.389  1.00  0.00     0.167 HD
ATOM     56  C   UNL A   1      42.585  28.945  34.029  1.00  0.00     0.074 A 
ATOM     57  C   UNL A   1      42.610  29.522  35.357  1.00  0.00     0.031 C 
ATOM     58  C   UNL A   1      43.481  28.035  33.577  1.00  0.00     0.037 A 
BRANCH  45  59
ATOM     59  C   UNL A   1      42.572  26.354  27.715  1.00  0.00     0.064 A 
ATOM     60  C   UNL A   1      42.028  25.101  27.405  1.00  0.00     0.173 A 
ATOM     61  C   UNL A   1      43.561  26.871  26.863  1.00  0.00     0.173 A 
ATOM     62  F   UNL A   1      41.093  24.558  28.198  1.00  0.00    -0.203 F 
ATOM     63  C   UNL A   1      42.469  24.387  26.294  1.00  0.00     0.198 A 
ATOM     64  C   UNL A   1      43.982  26.165  25.739  1.00  0.00     0.198 A 
ATOM     65  F   UNL A   1      44.110  28.069  27.114  1.00  0.00    -0.203 F 
ATOM     66  F   UNL A   1      41.963  23.172  26.036  1.00  0.00    -0.200 F 
ATOM     67  C   UNL A   1      43.440  24.921  25.460  1.00  0.00     0.200 A 
ATOM     68  F   UNL A   1      44.912  26.689  24.929  1.00  0.00    -0.200 F 
ATOM     69  F   UNL A   1      43.857  24.235  24.386  1.00  0.00    -0.200 F 
ENDBRANCH  45  59
BRANCH  46  70
ATOM     70  C   UNL A   1      39.157  31.929  35.214  1.00  0.00     0.064 A 
ATOM     71  C   UNL A   1      39.439  33.301  35.251  1.00  0.00     0.173 A 
ATOM     72  C   UNL A   1      38.401  31.387  36.263  1.00  0.00     0.173 A 
ATOM     73  F   UNL A   1      40.183  33.858  34.285  1.00  0.00    -0.203 F 
ATOM     74  C   UNL A   1      38.985  34.100  36.299  1.00  0.00     0.198 A 
ATOM     75  C   UNL A   1      37.924  32.190  37.295  1.00  0.00     0.198 A 
ATOM     76  F   UNL A   1      38.111  30.078  36.274  1.00  0.00    -0.203 F 
ATOM     77  F   UNL A   1      39.298  35.402  36.330  1.00  0.00    -0.200 F 
ATOM     78  C   UNL A   1      38.220  33.544  37.316  1.00  0.00     0.200 A 
ATOM     79  F   UNL A   1      37.177  31.653  38.268  1.00  0.00    -0.200 F 
ATOM     80  F   UNL A   1      37.776  34.314  38.318  1.00  0.00    -0.200 F 
ENDBRANCH  46  70
BRANCH  58  81
ATOM     81  C   UNL A   1      44.559  27.612  34.527  1.00  0.00     0.064 A 
ATOM     82  C   UNL A   1      45.771  28.314  34.608  1.00  0.00     0.173 A 
ATOM     83  C   UNL A   1      44.377  26.509  35.371  1.00  0.00     0.173 A 
ATOM     84  F   UNL A   1      45.996  29.366  33.808  1.00  0.00    -0.203 F 
ATOM     85  C   UNL A   1      46.772  27.909  35.485  1.00  0.00     0.198 A 
ATOM     86  C   UNL A   1      45.373  26.118  36.262  1.00  0.00     0.198 A 
ATOM     87  F   UNL A   1      43.234  25.808  35.331  1.00  0.00    -0.203 F 
ATOM     88  F   UNL A   1      47.939  28.567  35.517  1.00  0.00    -0.200 F 
ATOM     89  C   UNL A   1      46.572  26.815  36.313  1.00  0.00     0.200 A 
ATOM     90  F   UNL A   1      45.177  25.063  37.065  1.00  0.00    -0.200 F 
ATOM     91  F   UNL A   1      47.540  26.423  37.154  1.00  0.00    -0.200 F 
ENDBRANCH  58  81
ENDBRANCH  32  33
ENDBRANCH  25  27
ENDBRANCH  24  25
ENDBRANCH  23  24
ENDBRANCH   1  23
TORSDOF 14
ENDMDL
