MODEL 1
REMARK VINA RESULT:     -13.1      0.000      0.000
REMARK SMILES Cc1cccc(OCC(=O)Nc2cc(C(=O)OCCOC(=O)c3ccc(-c4c5nc(c(-c6c(F)c(F)c(F)c(F)c6F)c6ccc([nH]6)c(-c6c(F)c(F)c(F)c(F)c6F)c6nc(c(-c7c(F)c(F)c(F)c(F)c7F)c7ccc4[nH]7)C=C6)C=C5)cc3)c(Cl)cc2Cl)c1
REMARK SMILES IDX 18 1 17 2 15 3 16 4 14 5 12 6 13 7 89 8 88 9 90 10 86 11
REMARK SMILES IDX 87 12 11 13 9 14 10 15 8 17 7 18 6 19 1 20 2 21 3 22 91 23
REMARK SMILES IDX 4 24 5 25 19 26 20 27 21 28 22 29 23 30 24 31 85 32 25 33
REMARK SMILES IDX 84 34 26 35 27 36 28 37 78 38 29 39 83 40 77 41 79 42 30 43
REMARK SMILES IDX 82 44 76 45 75 46 31 48 63 49 43 50 62 51 44 52 47 53 61 54
REMARK SMILES IDX 80 55 45 56 46 57 60 59 81 60 48 61 32 62 33 63 41 64 34 65
REMARK SMILES IDX 35 66 39 67 42 68 36 69 37 70 40 71 38 72 64 73 65 74 73 75
REMARK SMILES IDX 66 76 67 77 71 78 74 79 68 80 69 81 72 82 70 83 49 84 50 85
REMARK SMILES IDX 58 86 51 87 52 88 56 89 59 90 53 91 54 92 57 93 55 94
REMARK H PARENT 11 16 79 47 47 58
REMARK Flexibility Score: inf
ROOT
ATOM      1  C   UNL A   1      38.285  23.395  26.106  1.00  0.00     0.275 C 
ENDROOT
BRANCH   1   2
ATOM      2  O   UNL A   1      36.886  23.247  25.925  1.00  0.00    -0.458 OA
BRANCH   2   3
ATOM      3  C   UNL A   1      36.617  22.292  25.040  1.00  0.00     0.339 C 
ATOM      4  O   UNL A   1      37.442  21.730  24.336  1.00  0.00    -0.246 OA
BRANCH   3   5
ATOM      5  C   UNL A   1      35.121  21.994  24.986  1.00  0.00     0.080 A 
ATOM      6  C   UNL A   1      33.317  23.372  22.930  1.00  0.00     0.061 A 
ATOM      7  C   UNL A   1      34.873  22.840  23.410  1.00  0.00     0.045 A 
ATOM      8  C   UNL A   1      31.901  23.169  23.914  1.00  0.00     0.066 A 
ATOM      9  C   UNL A   1      31.888  22.371  25.446  1.00  0.00     0.044 A 
ATOM     10  Cl  UNL A   1      30.411  23.837  23.344  1.00  0.00    -0.082 Cl
ATOM     11  C   UNL A   1      33.454  21.779  26.151  1.00  0.00     0.057 A 
ATOM     12  Cl  UNL A   1      32.883  22.553  27.940  1.00  0.00    -0.083 Cl
BRANCH   6  13
ATOM     13  N   UNL A   1      33.229  23.988  21.674  1.00  0.00    -0.322 N 
ATOM     14  C   UNL A   1      33.101  25.343  21.441  1.00  0.00     0.262 C 
ATOM     15  O   UNL A   1      32.878  25.736  20.293  1.00  0.00    -0.271 OA
ATOM     16  H   UNL A   1      33.261  23.400  20.884  1.00  0.00     0.170 HD
BRANCH  14  17
ATOM     17  C   UNL A   1      33.461  26.364  22.574  1.00  0.00     0.329 C 
BRANCH  17  18
ATOM     18  O   UNL A   1      32.734  27.529  22.944  1.00  0.00    -0.484 OA
BRANCH  18  19
ATOM     19  C   UNL A   1      32.797  27.962  24.232  1.00  0.00     0.120 A 
ATOM     20  C   UNL A   1      31.774  30.837  26.419  1.00  0.00     0.044 C 
ATOM     21  C   UNL A   1      32.267  29.489  26.006  1.00  0.00    -0.047 A 
ATOM     22  C   UNL A   1      32.758  28.578  26.952  1.00  0.00     0.003 A 
ATOM     23  C   UNL A   1      32.270  29.164  24.649  1.00  0.00     0.049 A 
ATOM     24  C   UNL A   1      33.329  27.384  26.532  1.00  0.00     0.004 A 
ATOM     25  C   UNL A   1      33.406  27.114  25.167  1.00  0.00     0.046 A 
ENDBRANCH  18  19
ENDBRANCH  17  18
ENDBRANCH  14  17
ENDBRANCH   6  13
ENDBRANCH   3   5
ENDBRANCH   2   3
ENDBRANCH   1   2
BRANCH   1  26
ATOM     26  C   UNL A   1      38.844  24.574  27.006  1.00  0.00     0.275 C 
BRANCH  26  27
ATOM     27  O   UNL A   1      39.845  25.618  26.595  1.00  0.00    -0.458 OA
BRANCH  27  28
ATOM     28  C   UNL A   1      40.579  26.571  27.320  1.00  0.00     0.338 C 
ATOM     29  O   UNL A   1      41.795  26.565  27.397  1.00  0.00    -0.246 OA
BRANCH  28  30
ATOM     30  C   UNL A   1      39.749  27.227  28.376  1.00  0.00     0.060 A 
ATOM     31  C   UNL A   1      38.916  26.741  29.958  1.00  0.00     0.016 A 
ATOM     32  C   UNL A   1      40.104  28.917  28.138  1.00  0.00     0.016 A 
ATOM     33  C   UNL A   1      38.728  28.243  31.328  1.00  0.00     0.010 A 
ATOM     34  C   UNL A   1      39.965  30.052  29.309  1.00  0.00     0.010 A 
ATOM     35  C   UNL A   1      39.321  29.889  30.874  1.00  0.00    -0.014 A 
BRANCH  35  36
ATOM     36  C   UNL A   1      39.772  31.120  31.638  1.00  0.00     0.031 A 
ATOM     37  C   UNL A   1      40.995  31.010  32.468  1.00  0.00     0.074 A 
ATOM     38  C   UNL A   1      39.172  32.347  31.388  1.00  0.00     0.049 A 
ATOM     39  N   UNL A   1      41.104  31.227  33.735  1.00  0.00    -0.248 NA
ATOM     40  C   UNL A   1      42.246  30.524  31.888  1.00  0.00     0.031 C 
ATOM     41  C   UNL A   1      39.560  33.730  31.698  1.00  0.00     0.029 A 
ATOM     42  N   UNL A   1      37.952  32.599  30.690  1.00  0.00    -0.354 N 
ATOM     43  C   UNL A   1      42.473  31.319  33.982  1.00  0.00     0.074 A 
ATOM     44  C   UNL A   1      43.096  30.573  32.924  1.00  0.00     0.031 C 
ATOM     45  C   UNL A   1      38.495  34.560  31.553  1.00  0.00     0.029 A 
ATOM     46  C   UNL A   1      37.351  33.778  31.136  1.00  0.00     0.049 A 
ATOM     47  H   UNL A   1      37.583  32.018  29.987  1.00  0.00     0.167 HD
ATOM     48  C   UNL A   1      42.986  32.375  34.693  1.00  0.00     0.037 A 
ATOM     49  C   UNL A   1      36.098  33.714  31.659  1.00  0.00     0.037 A 
ATOM     50  C   UNL A   1      41.933  33.379  34.842  1.00  0.00     0.049 A 
ATOM     51  C   UNL A   1      36.280  33.681  33.148  1.00  0.00     0.074 A 
ATOM     52  C   UNL A   1      41.698  34.588  34.210  1.00  0.00     0.029 A 
ATOM     53  N   UNL A   1      40.742  33.022  35.449  1.00  0.00    -0.354 N 
ATOM     54  N   UNL A   1      37.440  33.486  33.714  1.00  0.00    -0.248 NA
ATOM     55  C   UNL A   1      35.220  33.968  34.095  1.00  0.00     0.031 C 
ATOM     56  C   UNL A   1      40.343  34.951  34.459  1.00  0.00     0.029 A 
ATOM     57  C   UNL A   1      39.749  33.947  35.211  1.00  0.00     0.049 A 
ATOM     58  H   UNL A   1      40.618  32.206  35.987  1.00  0.00     0.167 HD
ATOM     59  C   UNL A   1      37.350  33.765  35.037  1.00  0.00     0.074 A 
ATOM     60  C   UNL A   1      35.937  34.057  35.227  1.00  0.00     0.031 C 
ATOM     61  C   UNL A   1      38.447  33.778  35.849  1.00  0.00     0.037 A 
BRANCH  48  62
ATOM     62  C   UNL A   1      44.456  32.690  34.983  1.00  0.00     0.064 A 
ATOM     63  C   UNL A   1      45.026  32.400  36.248  1.00  0.00     0.173 A 
ATOM     64  C   UNL A   1      45.382  33.171  34.033  1.00  0.00     0.173 A 
ATOM     65  F   UNL A   1      44.300  31.861  37.236  1.00  0.00    -0.203 F 
ATOM     66  C   UNL A   1      46.376  32.620  36.552  1.00  0.00     0.198 A 
ATOM     67  C   UNL A   1      46.734  33.410  34.344  1.00  0.00     0.198 A 
ATOM     68  F   UNL A   1      45.027  33.375  32.757  1.00  0.00    -0.203 F 
ATOM     69  F   UNL A   1      46.842  32.312  37.772  1.00  0.00    -0.200 F 
ATOM     70  C   UNL A   1      47.230  33.134  35.602  1.00  0.00     0.200 A 
ATOM     71  F   UNL A   1      47.562  33.888  33.403  1.00  0.00    -0.200 F 
ATOM     72  F   UNL A   1      48.524  33.334  35.890  1.00  0.00    -0.200 F 
ENDBRANCH  48  62
BRANCH  49  73
ATOM     73  C   UNL A   1      35.244  32.793  30.845  1.00  0.00     0.064 A 
ATOM     74  C   UNL A   1      34.616  33.344  29.699  1.00  0.00     0.173 A 
ATOM     75  C   UNL A   1      35.566  31.441  30.822  1.00  0.00     0.173 A 
ATOM     76  F   UNL A   1      34.252  34.635  29.685  1.00  0.00    -0.203 F 
ATOM     77  C   UNL A   1      34.570  32.641  28.502  1.00  0.00     0.198 A 
ATOM     78  C   UNL A   1      35.503  30.740  29.630  1.00  0.00     0.198 A 
ATOM     79  F   UNL A   1      36.135  30.848  31.879  1.00  0.00    -0.203 F 
ATOM     80  F   UNL A   1      34.211  33.256  27.364  1.00  0.00    -0.200 F 
ATOM     81  C   UNL A   1      35.047  31.351  28.458  1.00  0.00     0.200 A 
ATOM     82  F   UNL A   1      36.019  29.509  29.652  1.00  0.00    -0.200 F 
ATOM     83  F   UNL A   1      35.116  30.761  27.258  1.00  0.00    -0.200 F 
ENDBRANCH  49  73
BRANCH  61  84
ATOM     84  C   UNL A   1      38.391  33.738  37.353  1.00  0.00     0.064 A 
ATOM     85  C   UNL A   1      37.934  32.634  38.084  1.00  0.00     0.173 A 
ATOM     86  C   UNL A   1      38.921  34.797  38.134  1.00  0.00     0.173 A 
ATOM     87  F   UNL A   1      37.632  31.469  37.499  1.00  0.00    -0.203 F 
ATOM     88  C   UNL A   1      37.843  32.656  39.471  1.00  0.00     0.198 A 
ATOM     89  C   UNL A   1      38.959  34.753  39.520  1.00  0.00     0.198 A 
ATOM     90  F   UNL A   1      39.450  35.903  37.596  1.00  0.00    -0.203 F 
ATOM     91  F   UNL A   1      37.265  31.628  40.105  1.00  0.00    -0.200 F 
ATOM     92  C   UNL A   1      38.370  33.709  40.191  1.00  0.00     0.200 A 
ATOM     93  F   UNL A   1      39.578  35.733  40.193  1.00  0.00    -0.200 F 
ATOM     94  F   UNL A   1      38.335  33.700  41.527  1.00  0.00    -0.200 F 
ENDBRANCH  61  84
ENDBRANCH  35  36
ENDBRANCH  28  30
ENDBRANCH  27  28
ENDBRANCH  26  27
ENDBRANCH   1  26
TORSDOF 15
ENDMDL
MODEL 2
REMARK VINA RESULT:     -12.9      3.946      8.215
REMARK SMILES Cc1cccc(OCC(=O)Nc2cc(C(=O)OCCOC(=O)c3ccc(-c4c5nc(c(-c6c(F)c(F)c(F)c(F)c6F)c6ccc([nH]6)c(-c6c(F)c(F)c(F)c(F)c6F)c6nc(c(-c7c(F)c(F)c(F)c(F)c7F)c7ccc4[nH]7)C=C6)C=C5)cc3)c(Cl)cc2Cl)c1
REMARK SMILES IDX 18 1 17 2 15 3 16 4 14 5 12 6 13 7 89 8 88 9 90 10 86 11
REMARK SMILES IDX 87 12 11 13 9 14 10 15 8 17 7 18 6 19 1 20 2 21 3 22 91 23
REMARK SMILES IDX 4 24 5 25 19 26 20 27 21 28 22 29 23 30 24 31 85 32 25 33
REMARK SMILES IDX 84 34 26 35 27 36 28 37 78 38 29 39 83 40 77 41 79 42 30 43
REMARK SMILES IDX 82 44 76 45 75 46 31 48 63 49 43 50 62 51 44 52 47 53 61 54
REMARK SMILES IDX 80 55 45 56 46 57 60 59 81 60 48 61 32 62 33 63 41 64 34 65
REMARK SMILES IDX 35 66 39 67 42 68 36 69 37 70 40 71 38 72 64 73 65 74 73 75
REMARK SMILES IDX 66 76 67 77 71 78 74 79 68 80 69 81 72 82 70 83 49 84 50 85
REMARK SMILES IDX 58 86 51 87 52 88 56 89 59 90 53 91 54 92 57 93 55 94
REMARK H PARENT 11 16 79 47 47 58
REMARK Flexibility Score: inf
ROOT
ATOM      1  C   UNL A   1      34.666  29.347  26.698  1.00  0.00     0.275 C 
ENDROOT
BRANCH   1   2
ATOM      2  O   UNL A   1      33.649  28.420  27.041  1.00  0.00    -0.458 OA
BRANCH   2   3
ATOM      3  C   UNL A   1      32.443  28.911  26.774  1.00  0.00     0.339 C 
ATOM      4  O   UNL A   1      31.852  29.739  27.450  1.00  0.00    -0.246 OA
BRANCH   3   5
ATOM      5  C   UNL A   1      31.861  28.286  25.509  1.00  0.00     0.080 A 
ATOM      6  C   UNL A   1      30.525  25.532  25.589  1.00  0.00     0.061 A 
ATOM      7  C   UNL A   1      31.007  26.964  26.394  1.00  0.00     0.045 A 
ATOM      8  C   UNL A   1      30.842  25.237  23.908  1.00  0.00     0.066 A 
ATOM      9  C   UNL A   1      31.621  26.362  22.854  1.00  0.00     0.044 A 
ATOM     10  Cl  UNL A   1      30.380  23.707  23.247  1.00  0.00    -0.082 Cl
ATOM     11  C   UNL A   1      32.252  27.924  23.535  1.00  0.00     0.057 A 
ATOM     12  Cl  UNL A   1      33.960  27.639  22.472  1.00  0.00    -0.083 Cl
BRANCH   6  13
ATOM     13  N   UNL A   1      29.839  24.583  26.361  1.00  0.00    -0.322 N 
ATOM     14  C   UNL A   1      30.353  23.387  26.824  1.00  0.00     0.262 C 
ATOM     15  O   UNL A   1      29.594  22.576  27.360  1.00  0.00    -0.271 OA
ATOM     16  H   UNL A   1      28.904  24.787  26.595  1.00  0.00     0.170 HD
BRANCH  14  17
ATOM     17  C   UNL A   1      31.904  23.174  26.869  1.00  0.00     0.329 C 
BRANCH  17  18
ATOM     18  O   UNL A   1      32.671  22.266  26.086  1.00  0.00    -0.484 OA
BRANCH  18  19
ATOM     19  C   UNL A   1      33.771  22.727  25.433  1.00  0.00     0.120 A 
ATOM     20  C   UNL A   1      37.277  23.914  26.058  1.00  0.00     0.044 C 
ATOM     21  C   UNL A   1      36.061  23.439  25.333  1.00  0.00    -0.047 A 
ATOM     22  C   UNL A   1      36.029  23.384  23.933  1.00  0.00     0.003 A 
ATOM     23  C   UNL A   1      34.934  23.088  26.077  1.00  0.00     0.049 A 
ATOM     24  C   UNL A   1      34.846  23.063  23.279  1.00  0.00     0.004 A 
ATOM     25  C   UNL A   1      33.706  22.802  24.035  1.00  0.00     0.046 A 
ENDBRANCH  18  19
ENDBRANCH  17  18
ENDBRANCH  14  17
ENDBRANCH   6  13
ENDBRANCH   3   5
ENDBRANCH   2   3
ENDBRANCH   1   2
BRANCH   1  26
ATOM     26  C   UNL A   1      34.960  30.584  27.645  1.00  0.00     0.275 C 
BRANCH  26  27
ATOM     27  O   UNL A   1      34.273  31.921  27.613  1.00  0.00    -0.458 OA
BRANCH  27  28
ATOM     28  C   UNL A   1      34.446  33.099  28.358  1.00  0.00     0.338 C 
ATOM     29  O   UNL A   1      34.306  34.215  27.890  1.00  0.00    -0.246 OA
BRANCH  28  30
ATOM     30  C   UNL A   1      35.305  32.876  29.560  1.00  0.00     0.060 A 
ATOM     31  C   UNL A   1      35.189  31.973  31.175  1.00  0.00     0.016 A 
ATOM     32  C   UNL A   1      36.897  33.255  28.962  1.00  0.00     0.016 A 
ATOM     33  C   UNL A   1      36.974  31.335  31.933  1.00  0.00     0.010 A 
ATOM     34  C   UNL A   1      38.280  32.664  29.607  1.00  0.00     0.010 A 
ATOM     35  C   UNL A   1      38.481  31.743  31.022  1.00  0.00    -0.014 A 
BRANCH  35  36
ATOM     36  C   UNL A   1      39.882  31.166  30.945  1.00  0.00     0.031 A 
ATOM     37  C   UNL A   1      40.083  29.941  30.135  1.00  0.00     0.074 A 
ATOM     38  C   UNL A   1      40.956  31.891  31.444  1.00  0.00     0.049 A 
ATOM     39  N   UNL A   1      40.556  28.808  30.532  1.00  0.00    -0.248 NA
ATOM     40  C   UNL A   1      39.645  29.892  28.741  1.00  0.00     0.031 C 
ATOM     41  C   UNL A   1      42.410  31.781  31.255  1.00  0.00     0.029 A 
ATOM     42  N   UNL A   1      40.920  33.028  32.307  1.00  0.00    -0.354 N 
ATOM     43  C   UNL A   1      40.857  28.101  29.369  1.00  0.00     0.074 A 
ATOM     44  C   UNL A   1      39.998  28.655  28.360  1.00  0.00     0.031 C 
ATOM     45  C   UNL A   1      43.062  32.493  32.209  1.00  0.00     0.029 A 
ATOM     46  C   UNL A   1      42.084  33.115  33.075  1.00  0.00     0.049 A 
ATOM     47  H   UNL A   1      40.173  33.667  32.355  1.00  0.00     0.167 HD
ATOM     48  C   UNL A   1      42.084  27.510  29.208  1.00  0.00     0.037 A 
ATOM     49  C   UNL A   1      41.974  33.092  34.430  1.00  0.00     0.037 A 
ATOM     50  C   UNL A   1      42.965  27.991  30.271  1.00  0.00     0.049 A 
ATOM     51  C   UNL A   1      42.255  31.676  34.837  1.00  0.00     0.074 A 
ATOM     52  C   UNL A   1      43.991  28.921  30.286  1.00  0.00     0.029 A 
ATOM     53  N   UNL A   1      42.595  27.803  31.591  1.00  0.00    -0.354 N 
ATOM     54  N   UNL A   1      42.314  30.692  33.980  1.00  0.00    -0.248 NA
ATOM     55  C   UNL A   1      42.593  31.278  36.190  1.00  0.00     0.031 C 
ATOM     56  C   UNL A   1      44.232  29.280  31.644  1.00  0.00     0.029 A 
ATOM     57  C   UNL A   1      43.331  28.595  32.447  1.00  0.00     0.049 A 
ATOM     58  H   UNL A   1      41.891  27.180  31.884  1.00  0.00     0.167 HD
ATOM     59  C   UNL A   1      42.834  29.597  34.584  1.00  0.00     0.074 A 
ATOM     60  C   UNL A   1      42.986  30.013  35.970  1.00  0.00     0.031 C 
ATOM     61  C   UNL A   1      43.136  28.462  33.888  1.00  0.00     0.037 A 
BRANCH  48  62
ATOM     62  C   UNL A   1      42.623  26.777  27.977  1.00  0.00     0.064 A 
ATOM     63  C   UNL A   1      42.362  25.396  27.780  1.00  0.00     0.173 A 
ATOM     64  C   UNL A   1      43.303  27.391  26.904  1.00  0.00     0.173 A 
ATOM     65  F   UNL A   1      41.656  24.684  28.667  1.00  0.00    -0.203 F 
ATOM     66  C   UNL A   1      42.786  24.687  26.648  1.00  0.00     0.198 A 
ATOM     67  C   UNL A   1      43.745  26.674  25.775  1.00  0.00     0.198 A 
ATOM     68  F   UNL A   1      43.515  28.714  26.881  1.00  0.00    -0.203 F 
ATOM     69  F   UNL A   1      42.493  23.384  26.532  1.00  0.00    -0.200 F 
ATOM     70  C   UNL A   1      43.487  25.324  25.648  1.00  0.00     0.200 A 
ATOM     71  F   UNL A   1      44.406  27.310  24.797  1.00  0.00    -0.200 F 
ATOM     72  F   UNL A   1      43.883  24.648  24.561  1.00  0.00    -0.200 F 
ENDBRANCH  48  62
BRANCH  49  73
ATOM     73  C   UNL A   1      40.817  33.932  34.870  1.00  0.00     0.064 A 
ATOM     74  C   UNL A   1      39.663  33.246  35.328  1.00  0.00     0.173 A 
ATOM     75  C   UNL A   1      41.077  35.191  35.399  1.00  0.00     0.173 A 
ATOM     76  F   UNL A   1      39.347  32.045  34.821  1.00  0.00    -0.203 F 
ATOM     77  C   UNL A   1      38.970  33.683  36.450  1.00  0.00     0.198 A 
ATOM     78  C   UNL A   1      40.373  35.628  36.508  1.00  0.00     0.198 A 
ATOM     79  F   UNL A   1      42.133  35.906  34.993  1.00  0.00    -0.203 F 
ATOM     80  F   UNL A   1      38.045  32.900  37.028  1.00  0.00    -0.200 F 
ATOM     81  C   UNL A   1      39.349  34.856  37.064  1.00  0.00     0.200 A 
ATOM     82  F   UNL A   1      40.820  36.752  37.074  1.00  0.00    -0.200 F 
ATOM     83  F   UNL A   1      38.751  35.166  38.221  1.00  0.00    -0.200 F 
ENDBRANCH  49  73
BRANCH  61  84
ATOM     84  C   UNL A   1      43.385  27.119  34.519  1.00  0.00     0.064 A 
ATOM     85  C   UNL A   1      44.654  26.662  34.899  1.00  0.00     0.173 A 
ATOM     86  C   UNL A   1      42.308  26.269  34.882  1.00  0.00     0.173 A 
ATOM     87  F   UNL A   1      45.736  27.447  34.851  1.00  0.00    -0.203 F 
ATOM     88  C   UNL A   1      44.851  25.391  35.428  1.00  0.00     0.198 A 
ATOM     89  C   UNL A   1      42.500  25.062  35.539  1.00  0.00     0.198 A 
ATOM     90  F   UNL A   1      41.027  26.577  34.643  1.00  0.00    -0.203 F 
ATOM     91  F   UNL A   1      46.100  24.957  35.638  1.00  0.00    -0.200 F 
ATOM     92  C   UNL A   1      43.773  24.597  35.762  1.00  0.00     0.200 A 
ATOM     93  F   UNL A   1      41.436  24.363  35.956  1.00  0.00    -0.200 F 
ATOM     94  F   UNL A   1      43.964  23.399  36.325  1.00  0.00    -0.200 F 
ENDBRANCH  61  84
ENDBRANCH  35  36
ENDBRANCH  28  30
ENDBRANCH  27  28
ENDBRANCH  26  27
ENDBRANCH   1  26
TORSDOF 15
ENDMDL
MODEL 3
REMARK VINA RESULT:     -12.8      5.236     10.009
REMARK SMILES Cc1cccc(OCC(=O)Nc2cc(C(=O)OCCOC(=O)c3ccc(-c4c5nc(c(-c6c(F)c(F)c(F)c(F)c6F)c6ccc([nH]6)c(-c6c(F)c(F)c(F)c(F)c6F)c6nc(c(-c7c(F)c(F)c(F)c(F)c7F)c7ccc4[nH]7)C=C6)C=C5)cc3)c(Cl)cc2Cl)c1
REMARK SMILES IDX 18 1 17 2 15 3 16 4 14 5 12 6 13 7 89 8 88 9 90 10 86 11
REMARK SMILES IDX 87 12 11 13 9 14 10 15 8 17 7 18 6 19 1 20 2 21 3 22 91 23
REMARK SMILES IDX 4 24 5 25 19 26 20 27 21 28 22 29 23 30 24 31 85 32 25 33
REMARK SMILES IDX 84 34 26 35 27 36 28 37 78 38 29 39 83 40 77 41 79 42 30 43
REMARK SMILES IDX 82 44 76 45 75 46 31 48 63 49 43 50 62 51 44 52 47 53 61 54
REMARK SMILES IDX 80 55 45 56 46 57 60 59 81 60 48 61 32 62 33 63 41 64 34 65
REMARK SMILES IDX 35 66 39 67 42 68 36 69 37 70 40 71 38 72 64 73 65 74 73 75
REMARK SMILES IDX 66 76 67 77 71 78 74 79 68 80 69 81 72 82 70 83 49 84 50 85
REMARK SMILES IDX 58 86 51 87 52 88 56 89 59 90 53 91 54 92 57 93 55 94
REMARK H PARENT 11 16 79 47 47 58
REMARK Flexibility Score: inf
ROOT
ATOM      1  C   UNL A   1      38.923  22.326  25.862  1.00  0.00     0.275 C 
ENDROOT
BRANCH   1   2
ATOM      2  O   UNL A   1      37.981  23.315  26.246  1.00  0.00    -0.458 OA
BRANCH   2   3
ATOM      3  C   UNL A   1      36.982  23.388  25.372  1.00  0.00     0.339 C 
ATOM      4  O   UNL A   1      37.083  23.202  24.168  1.00  0.00    -0.246 OA
BRANCH   3   5
ATOM      5  C   UNL A   1      35.673  23.767  26.059  1.00  0.00     0.080 A 
ATOM      6  C   UNL A   1      33.388  21.744  26.311  1.00  0.00     0.061 A 
ATOM      7  C   UNL A   1      35.058  22.070  26.119  1.00  0.00     0.045 A 
ATOM      8  C   UNL A   1      32.186  22.991  26.427  1.00  0.00     0.066 A 
ATOM      9  C   UNL A   1      32.536  24.682  26.417  1.00  0.00     0.044 A 
ATOM     10  Cl  UNL A   1      30.526  22.516  26.525  1.00  0.00    -0.082 Cl
ATOM     11  C   UNL A   1      34.251  25.231  26.172  1.00  0.00     0.057 A 
ATOM     12  Cl  UNL A   1      33.564  26.625  24.864  1.00  0.00    -0.083 Cl
BRANCH   6  13
ATOM     13  N   UNL A   1      33.020  20.392  26.379  1.00  0.00    -0.322 N 
ATOM     14  C   UNL A   1      32.603  19.609  25.321  1.00  0.00     0.262 C 
ATOM     15  O   UNL A   1      32.161  18.480  25.547  1.00  0.00    -0.271 OA
ATOM     16  H   UNL A   1      33.064  19.960  27.264  1.00  0.00     0.170 HD
BRANCH  14  17
ATOM     17  C   UNL A   1      32.900  20.066  23.852  1.00  0.00     0.329 C 
BRANCH  17  18
ATOM     18  O   UNL A   1      32.012  20.729  22.960  1.00  0.00    -0.484 OA
BRANCH  18  19
ATOM     19  C   UNL A   1      32.110  22.078  22.816  1.00  0.00     0.120 A 
ATOM     20  C   UNL A   1      30.145  25.237  23.317  1.00  0.00     0.044 C 
ATOM     21  C   UNL A   1      31.299  24.323  23.066  1.00  0.00    -0.047 A 
ATOM     22  C   UNL A   1      32.562  24.829  22.733  1.00  0.00     0.003 A 
ATOM     23  C   UNL A   1      31.086  22.945  23.126  1.00  0.00     0.049 A 
ATOM     24  C   UNL A   1      33.585  23.959  22.378  1.00  0.00     0.004 A 
ATOM     25  C   UNL A   1      33.331  22.589  22.357  1.00  0.00     0.046 A 
ENDBRANCH  18  19
ENDBRANCH  17  18
ENDBRANCH  14  17
ENDBRANCH   6  13
ENDBRANCH   3   5
ENDBRANCH   2   3
ENDBRANCH   1   2
BRANCH   1  26
ATOM     26  C   UNL A   1      40.029  21.848  26.892  1.00  0.00     0.275 C 
BRANCH  26  27
ATOM     27  O   UNL A   1      40.927  20.649  26.751  1.00  0.00    -0.458 OA
BRANCH  27  28
ATOM     28  C   UNL A   1      42.161  20.455  26.111  1.00  0.00     0.338 C 
ATOM     29  O   UNL A   1      42.743  19.384  26.087  1.00  0.00    -0.246 OA
BRANCH  28  30
ATOM     30  C   UNL A   1      42.912  21.736  25.948  1.00  0.00     0.060 A 
ATOM     31  C   UNL A   1      43.142  23.029  24.640  1.00  0.00     0.016 A 
ATOM     32  C   UNL A   1      43.246  22.190  27.597  1.00  0.00     0.016 A 
ATOM     33  C   UNL A   1      43.542  24.903  25.345  1.00  0.00     0.010 A 
ATOM     34  C   UNL A   1      43.515  23.729  28.084  1.00  0.00     0.010 A 
ATOM     35  C   UNL A   1      43.692  25.127  27.133  1.00  0.00    -0.014 A 
BRANCH  35  36
ATOM     36  C   UNL A   1      43.552  26.298  28.087  1.00  0.00     0.031 A 
ATOM     37  C   UNL A   1      42.221  26.943  28.200  1.00  0.00     0.074 A 
ATOM     38  C   UNL A   1      44.583  26.600  28.966  1.00  0.00     0.049 A 
ATOM     39  N   UNL A   1      41.930  28.181  27.984  1.00  0.00    -0.248 NA
ATOM     40  C   UNL A   1      41.033  26.147  28.501  1.00  0.00     0.031 C 
ATOM     41  C   UNL A   1      44.649  27.423  30.183  1.00  0.00     0.029 A 
ATOM     42  N   UNL A   1      45.932  26.134  28.928  1.00  0.00    -0.354 N 
ATOM     43  C   UNL A   1      40.662  28.367  28.532  1.00  0.00     0.074 A 
ATOM     44  C   UNL A   1      40.056  27.065  28.526  1.00  0.00     0.031 C 
ATOM     45  C   UNL A   1      45.942  27.686  30.501  1.00  0.00     0.029 A 
ATOM     46  C   UNL A   1      46.799  27.053  29.523  1.00  0.00     0.049 A 
ATOM     47  H   UNL A   1      46.213  25.278  28.534  1.00  0.00     0.167 HD
ATOM     48  C   UNL A   1      40.414  29.415  29.382  1.00  0.00     0.037 A 
ATOM     49  C   UNL A   1      47.809  27.574  28.776  1.00  0.00     0.037 A 
ATOM     50  C   UNL A   1      41.695  30.017  29.750  1.00  0.00     0.049 A 
ATOM     51  C   UNL A   1      47.316  28.909  28.301  1.00  0.00     0.074 A 
ATOM     52  C   UNL A   1      42.469  29.944  30.896  1.00  0.00     0.029 A 
ATOM     53  N   UNL A   1      42.528  30.492  28.752  1.00  0.00    -0.354 N 
ATOM     54  N   UNL A   1      46.070  29.282  28.409  1.00  0.00    -0.248 NA
ATOM     55  C   UNL A   1      48.183  29.948  27.780  1.00  0.00     0.031 C 
ATOM     56  C   UNL A   1      43.779  30.394  30.564  1.00  0.00     0.029 A 
ATOM     57  C   UNL A   1      43.809  30.706  29.212  1.00  0.00     0.049 A 
ATOM     58  H   UNL A   1      42.240  30.659  27.825  1.00  0.00     0.167 HD
ATOM     59  C   UNL A   1      45.970  30.607  28.145  1.00  0.00     0.074 A 
ATOM     60  C   UNL A   1      47.321  30.977  27.750  1.00  0.00     0.031 C 
ATOM     61  C   UNL A   1      44.802  31.292  28.317  1.00  0.00     0.037 A 
BRANCH  48  62
ATOM     62  C   UNL A   1      39.123  29.725  30.144  1.00  0.00     0.064 A 
ATOM     63  C   UNL A   1      38.797  29.032  31.338  1.00  0.00     0.173 A 
ATOM     64  C   UNL A   1      38.222  30.761  29.819  1.00  0.00     0.173 A 
ATOM     65  F   UNL A   1      39.593  28.073  31.829  1.00  0.00    -0.203 F 
ATOM     66  C   UNL A   1      37.656  29.310  32.101  1.00  0.00     0.198 A 
ATOM     67  C   UNL A   1      37.065  31.027  30.576  1.00  0.00     0.198 A 
ATOM     68  F   UNL A   1      38.456  31.589  28.790  1.00  0.00    -0.203 F 
ATOM     69  F   UNL A   1      37.421  28.613  33.223  1.00  0.00    -0.200 F 
ATOM     70  C   UNL A   1      36.783  30.302  31.716  1.00  0.00     0.200 A 
ATOM     71  F   UNL A   1      36.235  32.013  30.204  1.00  0.00    -0.200 F 
ATOM     72  F   UNL A   1      35.697  30.575  32.453  1.00  0.00    -0.200 F 
ENDBRANCH  48  62
BRANCH  49  73
ATOM     73  C   UNL A   1      48.437  26.506  27.937  1.00  0.00     0.064 A 
ATOM     74  C   UNL A   1      48.076  26.472  26.565  1.00  0.00     0.173 A 
ATOM     75  C   UNL A   1      49.701  26.047  28.287  1.00  0.00     0.173 A 
ATOM     76  F   UNL A   1      46.854  26.868  26.180  1.00  0.00    -0.203 F 
ATOM     77  C   UNL A   1      49.030  26.250  25.581  1.00  0.00     0.198 A 
ATOM     78  C   UNL A   1      50.644  25.812  27.301  1.00  0.00     0.198 A 
ATOM     79  F   UNL A   1      50.098  26.024  29.565  1.00  0.00    -0.203 F 
ATOM     80  F   UNL A   1      48.740  26.471  24.288  1.00  0.00    -0.200 F 
ATOM     81  C   UNL A   1      50.324  25.956  25.948  1.00  0.00     0.200 A 
ATOM     82  F   UNL A   1      51.885  25.572  27.730  1.00  0.00    -0.200 F 
ATOM     83  F   UNL A   1      51.241  25.892  24.974  1.00  0.00    -0.200 F 
ENDBRANCH  49  73
BRANCH  61  84
ATOM     84  C   UNL A   1      44.521  32.651  27.734  1.00  0.00     0.064 A 
ATOM     85  C   UNL A   1      44.096  32.857  26.415  1.00  0.00     0.173 A 
ATOM     86  C   UNL A   1      44.556  33.816  28.542  1.00  0.00     0.173 A 
ATOM     87  F   UNL A   1      43.778  31.843  25.603  1.00  0.00    -0.203 F 
ATOM     88  C   UNL A   1      43.901  34.132  25.895  1.00  0.00     0.198 A 
ATOM     89  C   UNL A   1      44.222  35.072  28.054  1.00  0.00     0.198 A 
ATOM     90  F   UNL A   1      44.886  33.792  29.839  1.00  0.00    -0.203 F 
ATOM     91  F   UNL A   1      43.636  34.273  24.590  1.00  0.00    -0.200 F 
ATOM     92  C   UNL A   1      43.949  35.239  26.718  1.00  0.00     0.200 A 
ATOM     93  F   UNL A   1      44.164  36.112  28.897  1.00  0.00    -0.200 F 
ATOM     94  F   UNL A   1      43.703  36.458  26.228  1.00  0.00    -0.200 F 
ENDBRANCH  61  84
ENDBRANCH  35  36
ENDBRANCH  28  30
ENDBRANCH  27  28
ENDBRANCH  26  27
ENDBRANCH   1  26
TORSDOF 15
ENDMDL
