MODEL 1
REMARK VINA RESULT:     -11.1      0.000      0.000
REMARK SMILES C[C@@]1(C(=O)N[C@@H](CO)C(=O)OCCOC(=O)c2ccc(-c3c4nc(c(-c5c(F)c(F)c(F)c(F)c5F)c5ccc([nH]5)c(-c5c(F)c(F)c(F)c(F)c5F)c5nc(c(-c6c(F)c(F)c(F)c(F)c6F)c6ccc3[nH]6)C=C5)C=C4)cc2)CCCO1
REMARK SMILES IDX 12 1 11 2 9 3 10 4 6 5 5 6 3 7 4 8 2 10 1 11 80 12 83 13
REMARK SMILES IDX 81 14 82 15 7 16 8 17 13 19 14 20 15 21 16 22 17 23 18 24
REMARK SMILES IDX 79 25 19 26 78 27 20 28 21 29 22 30 72 31 23 32 77 33 71 34
REMARK SMILES IDX 73 35 24 36 76 37 70 38 69 39 25 41 57 42 37 43 56 44 38 45
REMARK SMILES IDX 41 46 55 47 74 48 39 49 40 50 54 52 75 53 42 54 26 55 27 56
REMARK SMILES IDX 35 57 28 58 29 59 33 60 36 61 30 62 31 63 34 64 32 65 58 66
REMARK SMILES IDX 59 67 67 68 60 69 61 70 65 71 68 72 62 73 63 74 66 75 64 76
REMARK SMILES IDX 43 77 44 78 52 79 45 80 46 81 50 82 53 83 47 84 48 85 51 86
REMARK SMILES IDX 49 87
REMARK H PARENT 5 9 8 18 73 40 41 51
REMARK Flexibility Score: inf
ROOT
ATOM      1  C   UNL A   1      31.786  29.066  24.993  1.00  0.00     0.274 C 
ENDROOT
BRANCH   1   2
ATOM      2  O   UNL A   1      32.363  28.144  25.940  1.00  0.00    -0.460 OA
BRANCH   2   3
ATOM      3  C   UNL A   1      31.493  27.336  26.607  1.00  0.00     0.331 C 
ATOM      4  O   UNL A   1      30.922  27.622  27.653  1.00  0.00    -0.250 OA
BRANCH   3   5
ATOM      5  C   UNL A   1      31.331  25.976  25.922  1.00  0.00     0.218 C 
BRANCH   5   6
ATOM      6  N   UNL A   1      31.343  24.853  26.864  1.00  0.00    -0.338 N 
ATOM      7  C   UNL A   1      32.065  23.696  26.849  1.00  0.00     0.252 C 
ATOM      8  O   UNL A   1      31.868  22.908  27.780  1.00  0.00    -0.272 OA
ATOM      9  H   UNL A   1      30.732  24.951  27.631  1.00  0.00     0.164 HD
BRANCH   7  10
ATOM     10  C   UNL A   1      33.130  23.417  25.748  1.00  0.00     0.143 C 
ATOM     11  C   UNL A   1      33.746  22.026  25.972  1.00  0.00     0.053 C 
ATOM     12  C   UNL A   1      34.242  24.472  25.760  1.00  0.00     0.048 C 
ATOM     13  O   UNL A   1      32.566  23.445  24.425  1.00  0.00    -0.365 OA
ATOM     14  C   UNL A   1      34.366  24.942  24.324  1.00  0.00     0.032 C 
ATOM     15  C   UNL A   1      33.568  23.938  23.530  1.00  0.00     0.162 C 
ENDBRANCH   7  10
ENDBRANCH   5   6
BRANCH   5  16
ATOM     16  C   UNL A   1      30.041  25.997  25.097  1.00  0.00     0.193 C 
BRANCH  16  17
ATOM     17  O   UNL A   1      29.927  24.827  24.283  1.00  0.00    -0.394 OA
ATOM     18  H   UNL A   1      30.493  24.920  23.502  1.00  0.00     0.210 HD
ENDBRANCH  16  17
ENDBRANCH   5  16
ENDBRANCH   3   5
ENDBRANCH   2   3
ENDBRANCH   1   2
BRANCH   1  19
ATOM     19  C   UNL A   1      31.650  30.437  25.643  1.00  0.00     0.275 C 
BRANCH  19  20
ATOM     20  O   UNL A   1      32.342  30.418  26.905  1.00  0.00    -0.458 OA
BRANCH  20  21
ATOM     21  C   UNL A   1      33.026  31.541  27.219  1.00  0.00     0.338 C 
ATOM     22  O   UNL A   1      32.635  32.692  27.136  1.00  0.00    -0.246 OA
BRANCH  21  23
ATOM     23  C   UNL A   1      34.376  31.189  27.706  1.00  0.00     0.060 A 
ATOM     24  C   UNL A   1      34.726  29.864  27.967  1.00  0.00     0.016 A 
ATOM     25  C   UNL A   1      35.268  32.217  28.022  1.00  0.00     0.016 A 
ATOM     26  C   UNL A   1      35.920  29.586  28.641  1.00  0.00     0.010 A 
ATOM     27  C   UNL A   1      36.503  31.919  28.611  1.00  0.00     0.010 A 
ATOM     28  C   UNL A   1      36.827  30.603  28.981  1.00  0.00    -0.014 A 
BRANCH  28  29
ATOM     29  C   UNL A   1      38.065  30.315  29.776  1.00  0.00     0.031 A 
ATOM     30  C   UNL A   1      39.190  29.503  29.171  1.00  0.00     0.074 A 
ATOM     31  C   UNL A   1      38.228  30.784  31.030  1.00  0.00     0.049 A 
ATOM     32  N   UNL A   1      40.207  28.923  29.762  1.00  0.00    -0.248 NA
ATOM     33  C   UNL A   1      39.159  29.306  27.714  1.00  0.00     0.031 C 
ATOM     34  C   UNL A   1      37.280  31.628  31.756  1.00  0.00     0.029 A 
ATOM     35  N   UNL A   1      39.270  30.626  31.916  1.00  0.00    -0.354 N 
ATOM     36  C   UNL A   1      40.875  28.217  28.769  1.00  0.00     0.074 A 
ATOM     37  C   UNL A   1      40.169  28.466  27.530  1.00  0.00     0.031 C 
ATOM     38  C   UNL A   1      37.810  31.971  32.939  1.00  0.00     0.029 A 
ATOM     39  C   UNL A   1      39.082  31.278  33.111  1.00  0.00     0.049 A 
ATOM     40  H   UNL A   1      40.074  30.096  31.713  1.00  0.00     0.167 HD
ATOM     41  C   UNL A   1      41.970  27.426  28.881  1.00  0.00     0.037 A 
ATOM     42  C   UNL A   1      39.815  31.282  34.243  1.00  0.00     0.037 A 
ATOM     43  C   UNL A   1      42.736  27.251  30.089  1.00  0.00     0.049 A 
ATOM     44  C   UNL A   1      41.041  30.419  34.341  1.00  0.00     0.074 A 
ATOM     45  C   UNL A   1      43.851  26.456  30.300  1.00  0.00     0.029 A 
ATOM     46  N   UNL A   1      42.492  27.918  31.279  1.00  0.00    -0.354 N 
ATOM     47  N   UNL A   1      41.574  29.636  33.437  1.00  0.00    -0.248 NA
ATOM     48  C   UNL A   1      41.742  30.412  35.633  1.00  0.00     0.031 C 
ATOM     49  C   UNL A   1      44.276  26.635  31.622  1.00  0.00     0.029 A 
ATOM     50  C   UNL A   1      43.442  27.562  32.223  1.00  0.00     0.049 A 
ATOM     51  H   UNL A   1      41.752  28.550  31.431  1.00  0.00     0.167 HD
ATOM     52  C   UNL A   1      42.658  29.029  34.055  1.00  0.00     0.074 A 
ATOM     53  C   UNL A   1      42.734  29.564  35.397  1.00  0.00     0.031 C 
ATOM     54  C   UNL A   1      43.503  28.094  33.558  1.00  0.00     0.037 A 
BRANCH  41  55
ATOM     55  C   UNL A   1      42.398  26.647  27.672  1.00  0.00     0.064 A 
ATOM     56  C   UNL A   1      43.383  27.115  26.795  1.00  0.00     0.173 A 
ATOM     57  C   UNL A   1      41.852  25.374  27.431  1.00  0.00     0.173 A 
ATOM     58  F   UNL A   1      43.924  28.329  26.975  1.00  0.00    -0.203 F 
ATOM     59  C   UNL A   1      43.798  26.345  25.710  1.00  0.00     0.198 A 
ATOM     60  C   UNL A   1      42.287  24.598  26.362  1.00  0.00     0.198 A 
ATOM     61  F   UNL A   1      40.912  24.877  28.248  1.00  0.00    -0.203 F 
ATOM     62  F   UNL A   1      44.722  26.825  24.865  1.00  0.00    -0.200 F 
ATOM     63  C   UNL A   1      43.257  25.085  25.499  1.00  0.00     0.200 A 
ATOM     64  F   UNL A   1      41.772  23.376  26.169  1.00  0.00    -0.200 F 
ATOM     65  F   UNL A   1      43.669  24.341  24.464  1.00  0.00    -0.200 F 
ENDBRANCH  41  55
BRANCH  42  66
ATOM     66  C   UNL A   1      39.365  32.090  35.404  1.00  0.00     0.064 A 
ATOM     67  C   UNL A   1      38.524  31.539  36.380  1.00  0.00     0.173 A 
ATOM     68  C   UNL A   1      39.779  33.420  35.571  1.00  0.00     0.173 A 
ATOM     69  F   UNL A   1      38.076  30.283  36.246  1.00  0.00    -0.203 F 
ATOM     70  C   UNL A   1      38.113  32.290  37.480  1.00  0.00     0.198 A 
ATOM     71  C   UNL A   1      39.394  34.158  36.687  1.00  0.00     0.198 A 
ATOM     72  F   UNL A   1      40.581  33.992  34.662  1.00  0.00    -0.203 F 
ATOM     73  F   UNL A   1      37.281  31.752  38.383  1.00  0.00    -0.200 F 
ATOM     74  C   UNL A   1      38.557  33.594  37.639  1.00  0.00     0.200 A 
ATOM     75  F   UNL A   1      39.837  35.412  36.843  1.00  0.00    -0.200 F 
ATOM     76  F   UNL A   1      38.176  34.310  38.705  1.00  0.00    -0.200 F 
ENDBRANCH  42  66
BRANCH  54  77
ATOM     77  C   UNL A   1      44.579  27.590  34.470  1.00  0.00     0.064 A 
ATOM     78  C   UNL A   1      44.379  26.456  35.271  1.00  0.00     0.173 A 
ATOM     79  C   UNL A   1      45.825  28.228  34.530  1.00  0.00     0.173 A 
ATOM     80  F   UNL A   1      43.197  25.822  35.260  1.00  0.00    -0.203 F 
ATOM     81  C   UNL A   1      45.384  25.991  36.115  1.00  0.00     0.198 A 
ATOM     82  C   UNL A   1      46.835  27.750  35.361  1.00  0.00     0.198 A 
ATOM     83  F   UNL A   1      46.064  29.316  33.781  1.00  0.00    -0.203 F 
ATOM     84  F   UNL A   1      45.159  24.928  36.900  1.00  0.00    -0.200 F 
ATOM     85  C   UNL A   1      46.611  26.636  36.157  1.00  0.00     0.200 A 
ATOM     86  F   UNL A   1      48.021  28.371  35.398  1.00  0.00    -0.200 F 
ATOM     87  F   UNL A   1      47.577  26.188  36.971  1.00  0.00    -0.200 F 
ENDBRANCH  54  77
ENDBRANCH  28  29
ENDBRANCH  21  23
ENDBRANCH  20  21
ENDBRANCH  19  20
ENDBRANCH   1  19
TORSDOF 15
ENDMDL
MODEL 2
REMARK VINA RESULT:     -11.0      1.345      2.599
REMARK SMILES C[C@@]1(C(=O)N[C@@H](CO)C(=O)OCCOC(=O)c2ccc(-c3c4nc(c(-c5c(F)c(F)c(F)c(F)c5F)c5ccc([nH]5)c(-c5c(F)c(F)c(F)c(F)c5F)c5nc(c(-c6c(F)c(F)c(F)c(F)c6F)c6ccc3[nH]6)C=C5)C=C4)cc2)CCCO1
REMARK SMILES IDX 12 1 11 2 9 3 10 4 6 5 5 6 3 7 4 8 2 10 1 11 80 12 83 13
REMARK SMILES IDX 81 14 82 15 7 16 8 17 13 19 14 20 15 21 16 22 17 23 18 24
REMARK SMILES IDX 79 25 19 26 78 27 20 28 21 29 22 30 72 31 23 32 77 33 71 34
REMARK SMILES IDX 73 35 24 36 76 37 70 38 69 39 25 41 57 42 37 43 56 44 38 45
REMARK SMILES IDX 41 46 55 47 74 48 39 49 40 50 54 52 75 53 42 54 26 55 27 56
REMARK SMILES IDX 35 57 28 58 29 59 33 60 36 61 30 62 31 63 34 64 32 65 58 66
REMARK SMILES IDX 59 67 67 68 60 69 61 70 65 71 68 72 62 73 63 74 66 75 64 76
REMARK SMILES IDX 43 77 44 78 52 79 45 80 46 81 50 82 53 83 47 84 48 85 51 86
REMARK SMILES IDX 49 87
REMARK H PARENT 5 9 8 18 73 40 41 51
REMARK Flexibility Score: inf
ROOT
ATOM      1  C   UNL A   1      30.946  29.764  24.689  1.00  0.00     0.274 C 
ENDROOT
BRANCH   1   2
ATOM      2  O   UNL A   1      31.154  28.420  24.210  1.00  0.00    -0.460 OA
BRANCH   2   3
ATOM      3  C   UNL A   1      31.546  28.293  22.912  1.00  0.00     0.331 C 
ATOM      4  O   UNL A   1      30.948  28.751  21.944  1.00  0.00    -0.250 OA
BRANCH   3   5
ATOM      5  C   UNL A   1      32.822  27.458  22.775  1.00  0.00     0.218 C 
BRANCH   5   6
ATOM      6  N   UNL A   1      32.911  26.750  21.495  1.00  0.00    -0.338 N 
ATOM      7  C   UNL A   1      32.946  25.413  21.226  1.00  0.00     0.252 C 
ATOM      8  O   UNL A   1      33.032  25.090  20.038  1.00  0.00    -0.272 OA
ATOM      9  H   UNL A   1      32.952  27.333  20.702  1.00  0.00     0.164 HD
BRANCH   7  10
ATOM     10  C   UNL A   1      32.816  24.353  22.360  1.00  0.00     0.143 C 
ATOM     11  C   UNL A   1      33.097  22.954  21.787  1.00  0.00     0.053 C 
ATOM     12  C   UNL A   1      31.419  24.372  22.991  1.00  0.00     0.048 C 
ATOM     13  O   UNL A   1      33.744  24.587  23.434  1.00  0.00    -0.365 OA
ATOM     14  C   UNL A   1      31.655  24.449  24.486  1.00  0.00     0.032 C 
ATOM     15  C   UNL A   1      33.126  24.157  24.650  1.00  0.00     0.162 C 
ENDBRANCH   7  10
ENDBRANCH   5   6
BRANCH   5  16
ATOM     16  C   UNL A   1      34.030  28.375  22.989  1.00  0.00     0.193 C 
BRANCH  16  17
ATOM     17  O   UNL A   1      33.620  29.722  23.239  1.00  0.00    -0.394 OA
ATOM     18  H   UNL A   1      32.769  29.887  22.804  1.00  0.00     0.210 HD
ENDBRANCH  16  17
ENDBRANCH   5  16
ENDBRANCH   3   5
ENDBRANCH   2   3
ENDBRANCH   1   2
BRANCH   1  19
ATOM     19  C   UNL A   1      31.489  29.882  26.109  1.00  0.00     0.275 C 
BRANCH  19  20
ATOM     20  O   UNL A   1      32.854  30.333  26.043  1.00  0.00    -0.458 OA
BRANCH  20  21
ATOM     21  C   UNL A   1      33.213  31.262  26.958  1.00  0.00     0.338 C 
ATOM     22  O   UNL A   1      32.566  32.227  27.325  1.00  0.00    -0.246 OA
BRANCH  21  23
ATOM     23  C   UNL A   1      34.554  30.950  27.494  1.00  0.00     0.060 A 
ATOM     24  C   UNL A   1      34.935  29.634  27.762  1.00  0.00     0.016 A 
ATOM     25  C   UNL A   1      35.399  32.002  27.851  1.00  0.00     0.016 A 
ATOM     26  C   UNL A   1      36.110  29.389  28.480  1.00  0.00     0.010 A 
ATOM     27  C   UNL A   1      36.619  31.740  28.486  1.00  0.00     0.010 A 
ATOM     28  C   UNL A   1      36.971  30.432  28.860  1.00  0.00    -0.014 A 
BRANCH  28  29
ATOM     29  C   UNL A   1      38.186  30.177  29.702  1.00  0.00     0.031 A 
ATOM     30  C   UNL A   1      39.337  29.362  29.154  1.00  0.00     0.074 A 
ATOM     31  C   UNL A   1      38.304  30.680  30.948  1.00  0.00     0.049 A 
ATOM     32  N   UNL A   1      40.340  28.809  29.791  1.00  0.00    -0.248 NA
ATOM     33  C   UNL A   1      39.355  29.128  27.702  1.00  0.00     0.031 C 
ATOM     34  C   UNL A   1      37.324  31.532  31.621  1.00  0.00     0.029 A 
ATOM     35  N   UNL A   1      39.318  30.556  31.870  1.00  0.00    -0.354 N 
ATOM     36  C   UNL A   1      41.047  28.085  28.839  1.00  0.00     0.074 A 
ATOM     37  C   UNL A   1      40.377  28.294  27.572  1.00  0.00     0.031 C 
ATOM     38  C   UNL A   1      37.813  31.910  32.812  1.00  0.00     0.029 A 
ATOM     39  C   UNL A   1      39.086  31.236  33.042  1.00  0.00     0.049 A 
ATOM     40  H   UNL A   1      40.134  30.029  31.706  1.00  0.00     0.167 HD
ATOM     41  C   UNL A   1      42.145  27.308  29.006  1.00  0.00     0.037 A 
ATOM     42  C   UNL A   1      39.782  31.276  34.195  1.00  0.00     0.037 A 
ATOM     43  C   UNL A   1      42.873  27.172  30.241  1.00  0.00     0.049 A 
ATOM     44  C   UNL A   1      41.013  30.430  34.354  1.00  0.00     0.074 A 
ATOM     45  C   UNL A   1      43.989  26.395  30.508  1.00  0.00     0.029 A 
ATOM     46  N   UNL A   1      42.585  27.867  31.405  1.00  0.00    -0.354 N 
ATOM     47  N   UNL A   1      41.582  29.630  33.488  1.00  0.00    -0.248 NA
ATOM     48  C   UNL A   1      41.672  30.462  35.668  1.00  0.00     0.031 C 
ATOM     49  C   UNL A   1      44.370  26.612  31.838  1.00  0.00     0.029 A 
ATOM     50  C   UNL A   1      43.509  27.545  32.388  1.00  0.00     0.049 A 
ATOM     51  H   UNL A   1      41.835  28.494  31.518  1.00  0.00     0.167 HD
ATOM     52  C   UNL A   1      42.652  29.050  34.155  1.00  0.00     0.074 A 
ATOM     53  C   UNL A   1      42.680  29.619  35.485  1.00  0.00     0.031 C 
ATOM     54  C   UNL A   1      43.522  28.111  33.710  1.00  0.00     0.037 A 
BRANCH  41  55
ATOM     55  C   UNL A   1      42.619  26.503  27.832  1.00  0.00     0.064 A 
ATOM     56  C   UNL A   1      42.091  25.241  27.532  1.00  0.00     0.173 A 
ATOM     57  C   UNL A   1      43.575  27.042  26.954  1.00  0.00     0.173 A 
ATOM     58  F   UNL A   1      41.186  24.679  28.347  1.00  0.00    -0.203 F 
ATOM     59  C   UNL A   1      42.513  24.539  26.405  1.00  0.00     0.198 A 
ATOM     60  C   UNL A   1      43.975  26.349  25.816  1.00  0.00     0.198 A 
ATOM     61  F   UNL A   1      44.104  28.251  27.192  1.00  0.00    -0.203 F 
ATOM     62  F   UNL A   1      42.016  23.320  26.153  1.00  0.00    -0.200 F 
ATOM     63  C   UNL A   1      43.447  25.097  25.544  1.00  0.00     0.200 A 
ATOM     64  F   UNL A   1      44.868  26.896  24.979  1.00  0.00    -0.200 F 
ATOM     65  F   UNL A   1      43.839  24.426  24.452  1.00  0.00    -0.200 F 
ENDBRANCH  41  55
BRANCH  42  66
ATOM     66  C   UNL A   1      39.287  32.109  35.321  1.00  0.00     0.064 A 
ATOM     67  C   UNL A   1      38.481  31.555  36.324  1.00  0.00     0.173 A 
ATOM     68  C   UNL A   1      39.624  33.466  35.426  1.00  0.00     0.173 A 
ATOM     69  F   UNL A   1      38.107  30.270  36.249  1.00  0.00    -0.203 F 
ATOM     70  C   UNL A   1      38.028  32.330  37.390  1.00  0.00     0.198 A 
ATOM     71  C   UNL A   1      39.198  34.232  36.508  1.00  0.00     0.198 A 
ATOM     72  F   UNL A   1      40.391  34.043  34.489  1.00  0.00    -0.203 F 
ATOM     73  F   UNL A   1      37.230  31.786  38.319  1.00  0.00    -0.200 F 
ATOM     74  C   UNL A   1      38.397  33.664  37.488  1.00  0.00     0.200 A 
ATOM     75  F   UNL A   1      39.568  35.515  36.606  1.00  0.00    -0.200 F 
ATOM     76  F   UNL A   1      37.976  34.404  38.522  1.00  0.00    -0.200 F 
ENDBRANCH  42  66
BRANCH  54  77
ATOM     77  C   UNL A   1      44.573  27.642  34.669  1.00  0.00     0.064 A 
ATOM     78  C   UNL A   1      45.813  28.290  34.760  1.00  0.00     0.173 A 
ATOM     79  C   UNL A   1      44.333  26.553  35.517  1.00  0.00     0.173 A 
ATOM     80  F   UNL A   1      46.094  29.327  33.957  1.00  0.00    -0.203 F 
ATOM     81  C   UNL A   1      46.785  27.851  35.656  1.00  0.00     0.198 A 
ATOM     82  C   UNL A   1      45.299  26.127  36.424  1.00  0.00     0.198 A 
ATOM     83  F   UNL A   1      43.161  25.902  35.466  1.00  0.00    -0.203 F 
ATOM     84  F   UNL A   1      47.977  28.461  35.701  1.00  0.00    -0.200 F 
ATOM     85  C   UNL A   1      46.526  26.773  36.489  1.00  0.00     0.200 A 
ATOM     86  F   UNL A   1      45.047  25.088  37.231  1.00  0.00    -0.200 F 
ATOM     87  F   UNL A   1      47.462  26.349  37.349  1.00  0.00    -0.200 F 
ENDBRANCH  54  77
ENDBRANCH  28  29
ENDBRANCH  21  23
ENDBRANCH  20  21
ENDBRANCH  19  20
ENDBRANCH   1  19
TORSDOF 15
ENDMDL
MODEL 3
REMARK VINA RESULT:     -11.0      0.759      1.463
REMARK SMILES C[C@@]1(C(=O)N[C@@H](CO)C(=O)OCCOC(=O)c2ccc(-c3c4nc(c(-c5c(F)c(F)c(F)c(F)c5F)c5ccc([nH]5)c(-c5c(F)c(F)c(F)c(F)c5F)c5nc(c(-c6c(F)c(F)c(F)c(F)c6F)c6ccc3[nH]6)C=C5)C=C4)cc2)CCCO1
REMARK SMILES IDX 12 1 11 2 9 3 10 4 6 5 5 6 3 7 4 8 2 10 1 11 80 12 83 13
REMARK SMILES IDX 81 14 82 15 7 16 8 17 13 19 14 20 15 21 16 22 17 23 18 24
REMARK SMILES IDX 79 25 19 26 78 27 20 28 21 29 22 30 72 31 23 32 77 33 71 34
REMARK SMILES IDX 73 35 24 36 76 37 70 38 69 39 25 41 57 42 37 43 56 44 38 45
REMARK SMILES IDX 41 46 55 47 74 48 39 49 40 50 54 52 75 53 42 54 26 55 27 56
REMARK SMILES IDX 35 57 28 58 29 59 33 60 36 61 30 62 31 63 34 64 32 65 58 66
REMARK SMILES IDX 59 67 67 68 60 69 61 70 65 71 68 72 62 73 63 74 66 75 64 76
REMARK SMILES IDX 43 77 44 78 52 79 45 80 46 81 50 82 53 83 47 84 48 85 51 86
REMARK SMILES IDX 49 87
REMARK H PARENT 5 9 8 18 73 40 41 51
REMARK Flexibility Score: inf
ROOT
ATOM      1  C   UNL A   1      31.212  29.008  24.571  1.00  0.00     0.274 C 
ENDROOT
BRANCH   1   2
ATOM      2  O   UNL A   1      31.124  27.647  25.040  1.00  0.00    -0.460 OA
BRANCH   2   3
ATOM      3  C   UNL A   1      30.285  26.822  24.354  1.00  0.00     0.331 C 
ATOM      4  O   UNL A   1      29.257  27.173  23.785  1.00  0.00    -0.250 OA
BRANCH   3   5
ATOM      5  C   UNL A   1      30.745  25.363  24.405  1.00  0.00     0.218 C 
BRANCH   5   6
ATOM      6  N   UNL A   1      30.279  24.655  25.601  1.00  0.00    -0.338 N 
ATOM      7  C   UNL A   1      30.941  23.805  26.438  1.00  0.00     0.252 C 
ATOM      8  O   UNL A   1      30.293  23.339  27.380  1.00  0.00    -0.272 OA
ATOM      9  H   UNL A   1      29.338  24.821  25.840  1.00  0.00     0.164 HD
BRANCH   7  10
ATOM     10  C   UNL A   1      32.456  23.494  26.248  1.00  0.00     0.143 C 
ATOM     11  C   UNL A   1      32.949  22.622  27.414  1.00  0.00     0.053 C 
ATOM     12  C   UNL A   1      33.291  24.778  26.185  1.00  0.00     0.048 C 
ATOM     13  O   UNL A   1      32.717  22.787  25.023  1.00  0.00    -0.365 OA
ATOM     14  C   UNL A   1      34.151  24.638  24.945  1.00  0.00     0.032 C 
ATOM     15  C   UNL A   1      34.005  23.189  24.549  1.00  0.00     0.162 C 
ENDBRANCH   7  10
ENDBRANCH   5   6
BRANCH   5  16
ATOM     16  C   UNL A   1      30.279  24.660  23.126  1.00  0.00     0.193 C 
BRANCH  16  17
ATOM     17  O   UNL A   1      30.846  23.353  23.018  1.00  0.00    -0.394 OA
ATOM     18  H   UNL A   1      31.812  23.423  22.966  1.00  0.00     0.210 HD
ENDBRANCH  16  17
ENDBRANCH   5  16
ENDBRANCH   3   5
ENDBRANCH   2   3
ENDBRANCH   1   2
BRANCH   1  19
ATOM     19  C   UNL A   1      31.403  29.940  25.761  1.00  0.00     0.275 C 
BRANCH  19  20
ATOM     20  O   UNL A   1      32.813  30.155  25.955  1.00  0.00    -0.458 OA
BRANCH  20  21
ATOM     21  C   UNL A   1      33.147  31.086  26.877  1.00  0.00     0.338 C 
ATOM     22  O   UNL A   1      32.475  32.033  27.248  1.00  0.00    -0.246 OA
BRANCH  21  23
ATOM     23  C   UNL A   1      34.494  30.804  27.414  1.00  0.00     0.060 A 
ATOM     24  C   UNL A   1      34.936  29.494  27.600  1.00  0.00     0.016 A 
ATOM     25  C   UNL A   1      35.281  31.870  27.854  1.00  0.00     0.016 A 
ATOM     26  C   UNL A   1      36.112  29.258  28.320  1.00  0.00     0.010 A 
ATOM     27  C   UNL A   1      36.504  31.625  28.491  1.00  0.00     0.010 A 
ATOM     28  C   UNL A   1      36.915  30.313  28.784  1.00  0.00    -0.014 A 
BRANCH  28  29
ATOM     29  C   UNL A   1      38.129  30.062  29.627  1.00  0.00     0.031 A 
ATOM     30  C   UNL A   1      39.288  29.260  29.077  1.00  0.00     0.074 A 
ATOM     31  C   UNL A   1      38.239  30.557  30.877  1.00  0.00     0.049 A 
ATOM     32  N   UNL A   1      40.294  28.710  29.713  1.00  0.00    -0.248 NA
ATOM     33  C   UNL A   1      39.312  29.037  27.623  1.00  0.00     0.031 C 
ATOM     34  C   UNL A   1      37.251  31.396  31.553  1.00  0.00     0.029 A 
ATOM     35  N   UNL A   1      39.252  30.434  31.802  1.00  0.00    -0.354 N 
ATOM     36  C   UNL A   1      41.009  27.999  28.757  1.00  0.00     0.074 A 
ATOM     37  C   UNL A   1      40.342  28.212  27.489  1.00  0.00     0.031 C 
ATOM     38  C   UNL A   1      37.733  31.769  32.748  1.00  0.00     0.029 A 
ATOM     39  C   UNL A   1      39.011  31.103  32.977  1.00  0.00     0.049 A 
ATOM     40  H   UNL A   1      40.072  29.915  31.636  1.00  0.00     0.167 HD
ATOM     41  C   UNL A   1      42.113  27.230  28.922  1.00  0.00     0.037 A 
ATOM     42  C   UNL A   1      39.703  31.141  34.133  1.00  0.00     0.037 A 
ATOM     43  C   UNL A   1      42.839  27.090  30.158  1.00  0.00     0.049 A 
ATOM     44  C   UNL A   1      40.940  30.303  34.290  1.00  0.00     0.074 A 
ATOM     45  C   UNL A   1      43.960  26.320  30.423  1.00  0.00     0.029 A 
ATOM     46  N   UNL A   1      42.541  27.774  31.327  1.00  0.00    -0.354 N 
ATOM     47  N   UNL A   1      41.518  29.514  33.420  1.00  0.00    -0.248 NA
ATOM     48  C   UNL A   1      41.595  30.331  35.606  1.00  0.00     0.031 C 
ATOM     49  C   UNL A   1      44.335  26.531  31.755  1.00  0.00     0.029 A 
ATOM     50  C   UNL A   1      43.464  27.453  32.310  1.00  0.00     0.049 A 
ATOM     51  H   UNL A   1      41.786  28.395  31.441  1.00  0.00     0.167 HD
ATOM     52  C   UNL A   1      42.590  28.937  34.086  1.00  0.00     0.074 A 
ATOM     53  C   UNL A   1      42.610  29.497  35.420  1.00  0.00     0.031 C 
ATOM     54  C   UNL A   1      43.469  28.009  33.636  1.00  0.00     0.037 A 
BRANCH  41  55
ATOM     55  C   UNL A   1      42.597  26.437  27.743  1.00  0.00     0.064 A 
ATOM     56  C   UNL A   1      43.595  26.913  26.885  1.00  0.00     0.173 A 
ATOM     57  C   UNL A   1      42.092  25.146  27.514  1.00  0.00     0.173 A 
ATOM     58  F   UNL A   1      44.098  28.145  27.055  1.00  0.00    -0.203 F 
ATOM     59  C   UNL A   1      44.062  26.132  25.830  1.00  0.00     0.198 A 
ATOM     60  C   UNL A   1      42.579  24.359  26.475  1.00  0.00     0.198 A 
ATOM     61  F   UNL A   1      41.141  24.641  28.314  1.00  0.00    -0.203 F 
ATOM     62  F   UNL A   1      44.997  26.619  25.002  1.00  0.00    -0.200 F 
ATOM     63  C   UNL A   1      43.560  24.854  25.631  1.00  0.00     0.200 A 
ATOM     64  F   UNL A   1      42.102  23.120  26.294  1.00  0.00    -0.200 F 
ATOM     65  F   UNL A   1      44.023  24.100  24.624  1.00  0.00    -0.200 F 
ENDBRANCH  41  55
BRANCH  42  66
ATOM     66  C   UNL A   1      39.198  31.961  35.263  1.00  0.00     0.064 A 
ATOM     67  C   UNL A   1      38.445  31.380  36.292  1.00  0.00     0.173 A 
ATOM     68  C   UNL A   1      39.472  33.334  35.346  1.00  0.00     0.173 A 
ATOM     69  F   UNL A   1      38.132  30.078  36.240  1.00  0.00    -0.203 F 
ATOM     70  C   UNL A   1      37.984  32.144  37.363  1.00  0.00     0.198 A 
ATOM     71  C   UNL A   1      39.038  34.090  36.432  1.00  0.00     0.198 A 
ATOM     72  F   UNL A   1      40.186  33.936  34.384  1.00  0.00    -0.203 F 
ATOM     73  F   UNL A   1      37.238  31.573  38.318  1.00  0.00    -0.200 F 
ATOM     74  C   UNL A   1      38.290  33.495  37.438  1.00  0.00     0.200 A 
ATOM     75  F   UNL A   1      39.349  35.390  36.508  1.00  0.00    -0.200 F 
ATOM     76  F   UNL A   1      37.861  34.226  38.476  1.00  0.00    -0.200 F 
ENDBRANCH  42  66
BRANCH  54  77
ATOM     77  C   UNL A   1      44.521  27.541  34.595  1.00  0.00     0.064 A 
ATOM     78  C   UNL A   1      45.748  28.210  34.709  1.00  0.00     0.173 A 
ATOM     79  C   UNL A   1      44.294  26.431  35.420  1.00  0.00     0.173 A 
ATOM     80  F   UNL A   1      46.016  29.267  33.928  1.00  0.00    -0.203 F 
ATOM     81  C   UNL A   1      46.720  27.771  35.604  1.00  0.00     0.198 A 
ATOM     82  C   UNL A   1      45.261  26.006  36.327  1.00  0.00     0.198 A 
ATOM     83  F   UNL A   1      43.135  25.760  35.347  1.00  0.00    -0.203 F 
ATOM     84  F   UNL A   1      47.901  28.402  35.671  1.00  0.00    -0.200 F 
ATOM     85  C   UNL A   1      46.475  26.673  36.414  1.00  0.00     0.200 A 
ATOM     86  F   UNL A   1      45.022  24.947  37.112  1.00  0.00    -0.200 F 
ATOM     87  F   UNL A   1      47.412  26.250  37.274  1.00  0.00    -0.200 F 
ENDBRANCH  54  77
ENDBRANCH  28  29
ENDBRANCH  21  23
ENDBRANCH  20  21
ENDBRANCH  19  20
ENDBRANCH   1  19
TORSDOF 15
ENDMDL
