MODEL 1
REMARK VINA RESULT:     -13.2      0.000      0.000
REMARK SMILES O=C(OCCOC(=O)c1c(S(=O)(=O)N2CCCCC2)sc2c1CC[NH2+]C2)c1ccc(-c2c3nc(c(-c4c(F)c(F)c(F)c(F)c4F)c4ccc([nH]4)c(-c4c(F)c(F)c(F)c(F)c4F)c4nc(c(-c5c(F)c(F)c(F)c(F)c5F)c5ccc2[nH]5)C=C4)C=C3)cc1
REMARK SMILES IDX 4 1 3 2 2 3 1 4 27 5 28 6 89 7 29 8 88 9 30 10 31 11 32 12
REMARK SMILES IDX 82 13 33 14 87 15 81 16 83 17 34 18 86 19 80 20 79 21 35 23
REMARK SMILES IDX 67 24 47 25 66 26 48 27 51 28 65 29 84 30 49 31 50 32 64 34
REMARK SMILES IDX 85 35 52 36 36 37 37 38 45 39 38 40 39 41 43 42 46 43 40 44
REMARK SMILES IDX 41 45 44 46 42 47 68 48 69 49 77 50 70 51 71 52 75 53 78 54
REMARK SMILES IDX 72 55 73 56 76 57 74 58 53 59 54 60 62 61 55 62 56 63 60 64
REMARK SMILES IDX 63 65 57 66 58 67 61 68 59 69 5 70 6 71 7 72 8 73 9 74 10 75
REMARK SMILES IDX 22 76 20 77 21 78 23 79 26 80 24 81 25 82 11 85 12 86 13 87
REMARK SMILES IDX 14 88 15 89 19 90 16 91 18 92 17 93
REMARK H PARENT 83 22 51 33 25 83 25 84
REMARK Flexibility Score: inf
ROOT
ATOM      1  C   UNL A   1      32.853  31.700  27.617  1.00  0.00     0.275 C 
ENDROOT
BRANCH   1   2
ATOM      2  O   UNL A   1      34.176  31.149  27.458  1.00  0.00    -0.458 OA
BRANCH   2   3
ATOM      3  C   UNL A   1      35.239  31.936  27.704  1.00  0.00     0.338 C 
ATOM      4  O   UNL A   1      35.254  33.153  27.655  1.00  0.00    -0.246 OA
BRANCH   3   5
ATOM      5  C   UNL A   1      36.375  31.131  28.186  1.00  0.00     0.060 A 
ATOM      6  C   UNL A   1      36.464  29.759  27.935  1.00  0.00     0.016 A 
ATOM      7  C   UNL A   1      37.432  31.804  28.800  1.00  0.00     0.016 A 
ATOM      8  C   UNL A   1      37.604  29.061  28.315  1.00  0.00     0.010 A 
ATOM      9  C   UNL A   1      38.597  31.115  29.114  1.00  0.00     0.010 A 
ATOM     10  C   UNL A   1      38.684  29.735  28.902  1.00  0.00    -0.014 A 
BRANCH  10  11
ATOM     11  C   UNL A   1      39.913  28.976  29.183  1.00  0.00     0.031 A 
ATOM     12  C   UNL A   1      40.281  28.794  30.630  1.00  0.00     0.074 A 
ATOM     13  C   UNL A   1      40.642  28.334  28.243  1.00  0.00     0.049 A 
ATOM     14  N   UNL A   1      41.409  29.049  31.213  1.00  0.00    -0.248 NA
ATOM     15  C   UNL A   1      39.252  28.293  31.554  1.00  0.00     0.031 C 
ATOM     16  C   UNL A   1      40.354  28.152  26.817  1.00  0.00     0.029 A 
ATOM     17  N   UNL A   1      41.793  27.617  28.411  1.00  0.00    -0.354 N 
ATOM     18  C   UNL A   1      41.286  28.622  32.538  1.00  0.00     0.074 A 
ATOM     19  C   UNL A   1      39.922  28.195  32.703  1.00  0.00     0.031 C 
ATOM     20  C   UNL A   1      41.170  27.204  26.308  1.00  0.00     0.029 A 
ATOM     21  C   UNL A   1      42.149  26.844  27.316  1.00  0.00     0.049 A 
ATOM     22  H   UNL A   1      42.323  27.646  29.239  1.00  0.00     0.167 HD
ATOM     23  C   UNL A   1      42.360  28.546  33.373  1.00  0.00     0.037 A 
ATOM     24  C   UNL A   1      43.175  25.965  27.228  1.00  0.00     0.037 A 
ATOM     25  C   UNL A   1      43.411  29.428  32.940  1.00  0.00     0.049 A 
ATOM     26  C   UNL A   1      44.157  26.316  28.279  1.00  0.00     0.074 A 
ATOM     27  C   UNL A   1      43.495  30.793  32.737  1.00  0.00     0.029 A 
ATOM     28  N   UNL A   1      44.510  28.902  32.311  1.00  0.00    -0.354 N 
ATOM     29  N   UNL A   1      44.893  27.390  28.259  1.00  0.00    -0.248 NA
ATOM     30  C   UNL A   1      44.038  25.659  29.570  1.00  0.00     0.031 C 
ATOM     31  C   UNL A   1      44.297  30.935  31.567  1.00  0.00     0.029 A 
ATOM     32  C   UNL A   1      44.700  29.656  31.182  1.00  0.00     0.049 A 
ATOM     33  H   UNL A   1      45.053  28.138  32.610  1.00  0.00     0.167 HD
ATOM     34  C   UNL A   1      44.963  27.788  29.583  1.00  0.00     0.074 A 
ATOM     35  C   UNL A   1      44.517  26.629  30.352  1.00  0.00     0.031 C 
ATOM     36  C   UNL A   1      45.111  29.102  29.917  1.00  0.00     0.037 A 
BRANCH  23  37
ATOM     37  C   UNL A   1      42.593  27.456  34.394  1.00  0.00     0.064 A 
ATOM     38  C   UNL A   1      43.131  26.220  33.972  1.00  0.00     0.173 A 
ATOM     39  C   UNL A   1      42.008  27.454  35.677  1.00  0.00     0.173 A 
ATOM     40  F   UNL A   1      43.728  26.103  32.775  1.00  0.00    -0.203 F 
ATOM     41  C   UNL A   1      42.977  25.050  34.719  1.00  0.00     0.198 A 
ATOM     42  C   UNL A   1      41.896  26.290  36.440  1.00  0.00     0.198 A 
ATOM     43  F   UNL A   1      41.437  28.545  36.197  1.00  0.00    -0.203 F 
ATOM     44  F   UNL A   1      43.380  23.877  34.209  1.00  0.00    -0.200 F 
ATOM     45  C   UNL A   1      42.342  25.082  35.946  1.00  0.00     0.200 A 
ATOM     46  F   UNL A   1      41.274  26.338  37.627  1.00  0.00    -0.200 F 
ATOM     47  F   UNL A   1      42.122  23.951  36.628  1.00  0.00    -0.200 F 
ENDBRANCH  23  37
BRANCH  24  48
ATOM     48  C   UNL A   1      43.283  24.727  26.429  1.00  0.00     0.064 A 
ATOM     49  C   UNL A   1      44.169  24.637  25.343  1.00  0.00     0.173 A 
ATOM     50  C   UNL A   1      42.727  23.518  26.889  1.00  0.00     0.173 A 
ATOM     51  F   UNL A   1      44.768  25.739  24.867  1.00  0.00    -0.203 F 
ATOM     52  C   UNL A   1      44.507  23.406  24.775  1.00  0.00     0.198 A 
ATOM     53  C   UNL A   1      43.061  22.290  26.317  1.00  0.00     0.198 A 
ATOM     54  F   UNL A   1      41.926  23.498  27.965  1.00  0.00    -0.203 F 
ATOM     55  F   UNL A   1      45.409  23.353  23.784  1.00  0.00    -0.200 F 
ATOM     56  C   UNL A   1      43.964  22.233  25.271  1.00  0.00     0.200 A 
ATOM     57  F   UNL A   1      42.554  21.160  26.827  1.00  0.00    -0.200 F 
ATOM     58  F   UNL A   1      44.340  21.047  24.771  1.00  0.00    -0.200 F 
ENDBRANCH  24  48
BRANCH  36  59
ATOM     59  C   UNL A   1      45.472  30.080  28.836  1.00  0.00     0.064 A 
ATOM     60  C   UNL A   1      44.537  30.712  27.997  1.00  0.00     0.173 A 
ATOM     61  C   UNL A   1      46.804  30.509  28.752  1.00  0.00     0.173 A 
ATOM     62  F   UNL A   1      43.229  30.444  28.087  1.00  0.00    -0.203 F 
ATOM     63  C   UNL A   1      44.932  31.689  27.084  1.00  0.00     0.198 A 
ATOM     64  C   UNL A   1      47.187  31.514  27.870  1.00  0.00     0.198 A 
ATOM     65  F   UNL A   1      47.732  29.985  29.570  1.00  0.00    -0.203 F 
ATOM     66  F   UNL A   1      44.024  32.266  26.283  1.00  0.00    -0.200 F 
ATOM     67  C   UNL A   1      46.255  32.095  27.027  1.00  0.00     0.200 A 
ATOM     68  F   UNL A   1      48.458  31.940  27.859  1.00  0.00    -0.200 F 
ATOM     69  F   UNL A   1      46.626  33.065  26.181  1.00  0.00    -0.200 F 
ENDBRANCH  36  59
ENDBRANCH  10  11
ENDBRANCH   3   5
ENDBRANCH   2   3
ENDBRANCH   1   2
BRANCH   1  70
ATOM     70  C   UNL A   1      31.794  31.368  26.558  1.00  0.00     0.275 C 
BRANCH  70  71
ATOM     71  O   UNL A   1      31.708  29.945  26.342  1.00  0.00    -0.458 OA
BRANCH  71  72
ATOM     72  C   UNL A   1      32.028  29.502  25.086  1.00  0.00     0.340 C 
ATOM     73  O   UNL A   1      33.100  29.647  24.529  1.00  0.00    -0.246 OA
BRANCH  72  74
ATOM     74  C   UNL A   1      30.910  28.790  24.476  1.00  0.00     0.095 A 
ATOM     75  C   UNL A   1      30.796  27.410  24.575  1.00  0.00     0.150 A 
ATOM     76  C   UNL A   1      29.760  29.357  23.820  1.00  0.00    -0.007 A 
ATOM     77  S   UNL A   1      29.480  26.825  23.655  1.00  0.00    -0.120 S 
ATOM     78  C   UNL A   1      28.902  28.382  23.353  1.00  0.00     0.064 A 
ATOM     79  C   UNL A   1      29.439  30.800  23.589  1.00  0.00     0.099 C 
ATOM     80  C   UNL A   1      27.588  28.636  22.680  1.00  0.00     0.308 C 
ATOM     81  C   UNL A   1      27.994  31.002  23.074  1.00  0.00     0.265 C 
ATOM     82  N   UNL A   1      27.540  29.988  22.101  1.00  0.00    -0.342 N 
ATOM     83  H   UNL A   1      28.144  30.020  21.280  1.00  0.00     0.346 HD
ATOM     84  H   UNL A   1      26.574  30.195  21.846  1.00  0.00     0.346 HD
BRANCH  75  85
ATOM     85  S   UNL A   1      31.777  26.238  25.511  1.00  0.00     0.253 S 
ATOM     86  O   UNL A   1      33.137  26.498  25.089  1.00  0.00    -0.206 OA
ATOM     87  O   UNL A   1      31.357  26.468  26.876  1.00  0.00    -0.206 OA
BRANCH  85  88
ATOM     88  N   UNL A   1      31.374  24.616  25.112  1.00  0.00    -0.197 NA
ATOM     89  C   UNL A   1      32.086  24.078  23.922  1.00  0.00     0.102 C 
ATOM     90  C   UNL A   1      31.154  23.735  26.285  1.00  0.00     0.102 C 
ATOM     91  C   UNL A   1      31.790  22.612  23.648  1.00  0.00     0.017 C 
ATOM     92  C   UNL A   1      30.904  22.281  25.921  1.00  0.00     0.017 C 
ATOM     93  C   UNL A   1      31.917  21.777  24.910  1.00  0.00     0.003 C 
ENDBRANCH  85  88
ENDBRANCH  75  85
ENDBRANCH  72  74
ENDBRANCH  71  72
ENDBRANCH  70  71
ENDBRANCH   1  70
TORSDOF 13
ENDMDL
MODEL 2
REMARK VINA RESULT:     -13.2      0.957      1.969
REMARK SMILES O=C(OCCOC(=O)c1c(S(=O)(=O)N2CCCCC2)sc2c1CC[NH2+]C2)c1ccc(-c2c3nc(c(-c4c(F)c(F)c(F)c(F)c4F)c4ccc([nH]4)c(-c4c(F)c(F)c(F)c(F)c4F)c4nc(c(-c5c(F)c(F)c(F)c(F)c5F)c5ccc2[nH]5)C=C4)C=C3)cc1
REMARK SMILES IDX 4 1 3 2 2 3 1 4 27 5 28 6 89 7 29 8 88 9 30 10 31 11 32 12
REMARK SMILES IDX 82 13 33 14 87 15 81 16 83 17 34 18 86 19 80 20 79 21 35 23
REMARK SMILES IDX 67 24 47 25 66 26 48 27 51 28 65 29 84 30 49 31 50 32 64 34
REMARK SMILES IDX 85 35 52 36 36 37 37 38 45 39 38 40 39 41 43 42 46 43 40 44
REMARK SMILES IDX 41 45 44 46 42 47 68 48 69 49 77 50 70 51 71 52 75 53 78 54
REMARK SMILES IDX 72 55 73 56 76 57 74 58 53 59 54 60 62 61 55 62 56 63 60 64
REMARK SMILES IDX 63 65 57 66 58 67 61 68 59 69 5 70 6 71 7 72 8 73 9 74 10 75
REMARK SMILES IDX 22 76 20 77 21 78 23 79 26 80 24 81 25 82 11 85 12 86 13 87
REMARK SMILES IDX 14 88 15 89 19 90 16 91 18 92 17 93
REMARK H PARENT 83 22 51 33 25 83 25 84
REMARK Flexibility Score: inf
ROOT
ATOM      1  C   UNL A   1      33.264  31.120  27.195  1.00  0.00     0.275 C 
ENDROOT
BRANCH   1   2
ATOM      2  O   UNL A   1      34.157  31.416  28.288  1.00  0.00    -0.458 OA
BRANCH   2   3
ATOM      3  C   UNL A   1      35.324  32.029  28.020  1.00  0.00     0.338 C 
ATOM      4  O   UNL A   1      35.457  33.164  27.599  1.00  0.00    -0.246 OA
BRANCH   3   5
ATOM      5  C   UNL A   1      36.457  31.184  28.440  1.00  0.00     0.060 A 
ATOM      6  C   UNL A   1      36.536  29.833  28.091  1.00  0.00     0.016 A 
ATOM      7  C   UNL A   1      37.519  31.804  29.100  1.00  0.00     0.016 A 
ATOM      8  C   UNL A   1      37.672  29.102  28.416  1.00  0.00     0.010 A 
ATOM      9  C   UNL A   1      38.680  31.087  29.360  1.00  0.00     0.010 A 
ATOM     10  C   UNL A   1      38.758  29.725  29.048  1.00  0.00    -0.014 A 
BRANCH  10  11
ATOM     11  C   UNL A   1      39.982  28.941  29.271  1.00  0.00     0.031 A 
ATOM     12  C   UNL A   1      40.332  28.620  30.698  1.00  0.00     0.074 A 
ATOM     13  C   UNL A   1      40.723  28.390  28.284  1.00  0.00     0.049 A 
ATOM     14  N   UNL A   1      41.452  28.816  31.318  1.00  0.00    -0.248 NA
ATOM     15  C   UNL A   1      39.291  28.035  31.557  1.00  0.00     0.031 C 
ATOM     16  C   UNL A   1      40.453  28.345  26.843  1.00  0.00     0.029 A 
ATOM     17  N   UNL A   1      41.871  27.657  28.396  1.00  0.00    -0.354 N 
ATOM     18  C   UNL A   1      41.312  28.265  32.594  1.00  0.00     0.074 A 
ATOM     19  C   UNL A   1      39.946  27.827  32.700  1.00  0.00     0.031 C 
ATOM     20  C   UNL A   1      41.275  27.449  26.256  1.00  0.00     0.029 A 
ATOM     21  C   UNL A   1      42.241  26.992  27.237  1.00  0.00     0.049 A 
ATOM     22  H   UNL A   1      42.391  27.606  29.231  1.00  0.00     0.167 HD
ATOM     23  C   UNL A   1      42.376  28.107  33.431  1.00  0.00     0.037 A 
ATOM     24  C   UNL A   1      43.267  26.124  27.079  1.00  0.00     0.037 A 
ATOM     25  C   UNL A   1      43.432  29.024  33.098  1.00  0.00     0.049 A 
ATOM     26  C   UNL A   1      44.235  26.370  28.171  1.00  0.00     0.074 A 
ATOM     27  C   UNL A   1      43.520  30.402  33.028  1.00  0.00     0.029 A 
ATOM     28  N   UNL A   1      44.540  28.558  32.435  1.00  0.00    -0.354 N 
ATOM     29  N   UNL A   1      44.973  27.440  28.262  1.00  0.00    -0.248 NA
ATOM     30  C   UNL A   1      44.100  25.593  29.391  1.00  0.00     0.031 C 
ATOM     31  C   UNL A   1      44.338  30.653  31.887  1.00  0.00     0.029 A 
ATOM     32  C   UNL A   1      44.744  29.416  31.387  1.00  0.00     0.049 A 
ATOM     33  H   UNL A   1      45.078  27.768  32.667  1.00  0.00     0.167 HD
ATOM     34  C   UNL A   1      45.026  27.709  29.619  1.00  0.00     0.074 A 
ATOM     35  C   UNL A   1      44.570  26.483  30.269  1.00  0.00     0.031 C 
ATOM     36  C   UNL A   1      45.171  28.985  30.079  1.00  0.00     0.037 A 
BRANCH  23  37
ATOM     37  C   UNL A   1      42.594  26.924  34.346  1.00  0.00     0.064 A 
ATOM     38  C   UNL A   1      42.254  27.037  35.713  1.00  0.00     0.173 A 
ATOM     39  C   UNL A   1      43.419  25.828  34.018  1.00  0.00     0.173 A 
ATOM     40  F   UNL A   1      41.461  28.031  36.142  1.00  0.00    -0.203 F 
ATOM     41  C   UNL A   1      42.801  26.198  36.686  1.00  0.00     0.198 A 
ATOM     42  C   UNL A   1      43.929  24.965  34.990  1.00  0.00     0.198 A 
ATOM     43  F   UNL A   1      43.842  25.608  32.769  1.00  0.00    -0.203 F 
ATOM     44  F   UNL A   1      42.559  26.437  37.983  1.00  0.00    -0.200 F 
ATOM     45  C   UNL A   1      43.654  25.173  36.326  1.00  0.00     0.200 A 
ATOM     46  F   UNL A   1      44.758  23.977  34.624  1.00  0.00    -0.200 F 
ATOM     47  F   UNL A   1      44.244  24.418  37.262  1.00  0.00    -0.200 F 
ENDBRANCH  23  37
BRANCH  24  48
ATOM     48  C   UNL A   1      43.384  24.967  26.166  1.00  0.00     0.064 A 
ATOM     49  C   UNL A   1      44.457  24.856  25.266  1.00  0.00     0.173 A 
ATOM     50  C   UNL A   1      42.601  23.813  26.357  1.00  0.00     0.173 A 
ATOM     51  F   UNL A   1      45.272  25.901  25.055  1.00  0.00    -0.203 F 
ATOM     52  C   UNL A   1      44.751  23.651  24.624  1.00  0.00     0.198 A 
ATOM     53  C   UNL A   1      42.892  22.612  25.710  1.00  0.00     0.198 A 
ATOM     54  F   UNL A   1      41.599  23.804  27.249  1.00  0.00    -0.203 F 
ATOM     55  F   UNL A   1      45.823  23.564  23.824  1.00  0.00    -0.200 F 
ATOM     56  C   UNL A   1      43.976  22.526  24.857  1.00  0.00     0.200 A 
ATOM     57  F   UNL A   1      42.155  21.523  25.968  1.00  0.00    -0.200 F 
ATOM     58  F   UNL A   1      44.299  21.353  24.293  1.00  0.00    -0.200 F 
ENDBRANCH  24  48
BRANCH  36  59
ATOM     59  C   UNL A   1      45.546  30.061  29.102  1.00  0.00     0.064 A 
ATOM     60  C   UNL A   1      46.869  30.376  28.741  1.00  0.00     0.173 A 
ATOM     61  C   UNL A   1      44.518  30.694  28.389  1.00  0.00     0.173 A 
ATOM     62  F   UNL A   1      47.910  29.739  29.293  1.00  0.00    -0.203 F 
ATOM     63  C   UNL A   1      47.142  31.317  27.749  1.00  0.00     0.198 A 
ATOM     64  C   UNL A   1      44.795  31.601  27.371  1.00  0.00     0.198 A 
ATOM     65  F   UNL A   1      43.236  30.390  28.647  1.00  0.00    -0.203 F 
ATOM     66  F   UNL A   1      48.412  31.610  27.434  1.00  0.00    -0.200 F 
ATOM     67  C   UNL A   1      46.105  31.922  27.060  1.00  0.00     0.200 A 
ATOM     68  F   UNL A   1      43.788  32.141  26.671  1.00  0.00    -0.200 F 
ATOM     69  F   UNL A   1      46.369  32.792  26.075  1.00  0.00    -0.200 F 
ENDBRANCH  36  59
ENDBRANCH  10  11
ENDBRANCH   3   5
ENDBRANCH   2   3
ENDBRANCH   1   2
BRANCH   1  70
ATOM     70  C   UNL A   1      33.397  29.761  26.495  1.00  0.00     0.275 C 
BRANCH  70  71
ATOM     71  O   UNL A   1      32.136  29.343  25.933  1.00  0.00    -0.458 OA
BRANCH  71  72
ATOM     72  C   UNL A   1      32.190  28.743  24.704  1.00  0.00     0.340 C 
ATOM     73  O   UNL A   1      33.182  28.622  24.010  1.00  0.00    -0.246 OA
BRANCH  72  74
ATOM     74  C   UNL A   1      30.883  28.225  24.312  1.00  0.00     0.095 A 
ATOM     75  C   UNL A   1      30.496  26.932  24.634  1.00  0.00     0.150 A 
ATOM     76  C   UNL A   1      29.807  28.943  23.678  1.00  0.00    -0.007 A 
ATOM     77  S   UNL A   1      28.987  26.539  23.935  1.00  0.00    -0.120 S 
ATOM     78  C   UNL A   1      28.715  28.132  23.445  1.00  0.00     0.064 A 
ATOM     79  C   UNL A   1      29.769  30.377  23.253  1.00  0.00     0.099 C 
ATOM     80  C   UNL A   1      27.412  28.582  22.858  1.00  0.00     0.308 C 
ATOM     81  C   UNL A   1      28.348  30.828  22.841  1.00  0.00     0.265 C 
ATOM     82  N   UNL A   1      27.579  29.821  22.081  1.00  0.00    -0.342 N 
ATOM     83  H   UNL A   1      28.075  29.607  21.216  1.00  0.00     0.346 HD
ATOM     84  H   UNL A   1      26.655  30.203  21.881  1.00  0.00     0.346 HD
BRANCH  75  85
ATOM     85  S   UNL A   1      31.315  25.705  25.652  1.00  0.00     0.253 S 
ATOM     86  O   UNL A   1      31.465  26.355  26.937  1.00  0.00    -0.206 OA
ATOM     87  O   UNL A   1      30.480  24.533  25.496  1.00  0.00    -0.206 OA
BRANCH  85  88
ATOM     88  N   UNL A   1      32.872  25.315  25.042  1.00  0.00    -0.197 NA
ATOM     89  C   UNL A   1      33.746  24.587  26.001  1.00  0.00     0.102 C 
ATOM     90  C   UNL A   1      32.889  24.929  23.610  1.00  0.00     0.102 C 
ATOM     91  C   UNL A   1      35.081  24.165  25.407  1.00  0.00     0.017 C 
ATOM     92  C   UNL A   1      34.254  24.485  23.111  1.00  0.00     0.017 C 
ATOM     93  C   UNL A   1      34.897  23.491  24.059  1.00  0.00     0.003 C 
ENDBRANCH  85  88
ENDBRANCH  75  85
ENDBRANCH  72  74
ENDBRANCH  71  72
ENDBRANCH  70  71
ENDBRANCH   1  70
TORSDOF 13
ENDMDL
MODEL 3
REMARK VINA RESULT:     -13.2      3.700      9.384
REMARK SMILES O=C(OCCOC(=O)c1c(S(=O)(=O)N2CCCCC2)sc2c1CC[NH2+]C2)c1ccc(-c2c3nc(c(-c4c(F)c(F)c(F)c(F)c4F)c4ccc([nH]4)c(-c4c(F)c(F)c(F)c(F)c4F)c4nc(c(-c5c(F)c(F)c(F)c(F)c5F)c5ccc2[nH]5)C=C4)C=C3)cc1
REMARK SMILES IDX 4 1 3 2 2 3 1 4 27 5 28 6 89 7 29 8 88 9 30 10 31 11 32 12
REMARK SMILES IDX 82 13 33 14 87 15 81 16 83 17 34 18 86 19 80 20 79 21 35 23
REMARK SMILES IDX 67 24 47 25 66 26 48 27 51 28 65 29 84 30 49 31 50 32 64 34
REMARK SMILES IDX 85 35 52 36 36 37 37 38 45 39 38 40 39 41 43 42 46 43 40 44
REMARK SMILES IDX 41 45 44 46 42 47 68 48 69 49 77 50 70 51 71 52 75 53 78 54
REMARK SMILES IDX 72 55 73 56 76 57 74 58 53 59 54 60 62 61 55 62 56 63 60 64
REMARK SMILES IDX 63 65 57 66 58 67 61 68 59 69 5 70 6 71 7 72 8 73 9 74 10 75
REMARK SMILES IDX 22 76 20 77 21 78 23 79 26 80 24 81 25 82 11 85 12 86 13 87
REMARK SMILES IDX 14 88 15 89 19 90 16 91 18 92 17 93
REMARK H PARENT 83 22 51 33 25 83 25 84
REMARK Flexibility Score: inf
ROOT
ATOM      1  C   UNL A   1      38.934  21.315  25.770  1.00  0.00     0.275 C 
ENDROOT
BRANCH   1   2
ATOM      2  O   UNL A   1      39.717  21.877  26.843  1.00  0.00    -0.458 OA
BRANCH   2   3
ATOM      3  C   UNL A   1      40.794  22.621  26.535  1.00  0.00     0.338 C 
ATOM      4  O   UNL A   1      41.657  22.331  25.727  1.00  0.00    -0.246 OA
BRANCH   3   5
ATOM      5  C   UNL A   1      40.728  23.928  27.215  1.00  0.00     0.060 A 
ATOM      6  C   UNL A   1      41.705  24.332  28.129  1.00  0.00     0.016 A 
ATOM      7  C   UNL A   1      39.719  24.810  26.827  1.00  0.00     0.016 A 
ATOM      8  C   UNL A   1      41.660  25.613  28.664  1.00  0.00     0.010 A 
ATOM      9  C   UNL A   1      39.719  26.112  27.311  1.00  0.00     0.010 A 
ATOM     10  C   UNL A   1      40.670  26.517  28.254  1.00  0.00    -0.014 A 
BRANCH  10  11
ATOM     11  C   UNL A   1      40.730  27.897  28.761  1.00  0.00     0.031 A 
ATOM     12  C   UNL A   1      41.844  28.763  28.241  1.00  0.00     0.074 A 
ATOM     13  C   UNL A   1      39.785  28.461  29.547  1.00  0.00     0.049 A 
ATOM     14  N   UNL A   1      42.703  29.462  28.912  1.00  0.00    -0.248 NA
ATOM     15  C   UNL A   1      42.050  28.836  26.787  1.00  0.00     0.031 C 
ATOM     16  C   UNL A   1      38.495  27.912  29.977  1.00  0.00     0.029 A 
ATOM     17  N   UNL A   1      39.762  29.724  30.068  1.00  0.00    -0.354 N 
ATOM     18  C   UNL A   1      43.470  30.166  27.981  1.00  0.00     0.074 A 
ATOM     19  C   UNL A   1      43.047  29.715  26.682  1.00  0.00     0.031 C 
ATOM     20  C   UNL A   1      37.732  28.900  30.493  1.00  0.00     0.029 A 
ATOM     21  C   UNL A   1      38.537  30.103  30.595  1.00  0.00     0.049 A 
ATOM     22  H   UNL A   1      40.549  30.315  30.068  1.00  0.00     0.167 HD
ATOM     23  C   UNL A   1      44.324  31.160  28.355  1.00  0.00     0.037 A 
ATOM     24  C   UNL A   1      38.192  31.317  31.085  1.00  0.00     0.037 A 
ATOM     25  C   UNL A   1      44.728  31.001  29.726  1.00  0.00     0.049 A 
ATOM     26  C   UNL A   1      39.441  32.026  31.445  1.00  0.00     0.074 A 
ATOM     27  C   UNL A   1      45.374  30.000  30.426  1.00  0.00     0.029 A 
ATOM     28  N   UNL A   1      44.178  31.814  30.685  1.00  0.00    -0.354 N 
ATOM     29  N   UNL A   1      40.209  31.688  32.441  1.00  0.00    -0.248 NA
ATOM     30  C   UNL A   1      40.050  32.885  30.444  1.00  0.00     0.031 C 
ATOM     31  C   UNL A   1      44.718  29.962  31.690  1.00  0.00     0.029 A 
ATOM     32  C   UNL A   1      43.769  30.985  31.696  1.00  0.00     0.049 A 
ATOM     33  H   UNL A   1      44.095  32.794  30.653  1.00  0.00     0.167 HD
ATOM     34  C   UNL A   1      41.494  31.915  31.980  1.00  0.00     0.074 A 
ATOM     35  C   UNL A   1      41.331  32.753  30.795  1.00  0.00     0.031 C 
ATOM     36  C   UNL A   1      42.547  31.178  32.436  1.00  0.00     0.037 A 
BRANCH  23  37
ATOM     37  C   UNL A   1      44.550  32.445  27.591  1.00  0.00     0.064 A 
ATOM     38  C   UNL A   1      45.716  32.584  26.805  1.00  0.00     0.173 A 
ATOM     39  C   UNL A   1      43.858  33.644  27.862  1.00  0.00     0.173 A 
ATOM     40  F   UNL A   1      46.450  31.511  26.470  1.00  0.00    -0.203 F 
ATOM     41  C   UNL A   1      46.217  33.834  26.434  1.00  0.00     0.198 A 
ATOM     42  C   UNL A   1      44.339  34.888  27.451  1.00  0.00     0.198 A 
ATOM     43  F   UNL A   1      42.752  33.669  28.613  1.00  0.00    -0.203 F 
ATOM     44  F   UNL A   1      47.402  33.919  25.812  1.00  0.00    -0.200 F 
ATOM     45  C   UNL A   1      45.537  34.988  26.774  1.00  0.00     0.200 A 
ATOM     46  F   UNL A   1      43.670  35.999  27.792  1.00  0.00    -0.200 F 
ATOM     47  F   UNL A   1      46.054  36.190  26.490  1.00  0.00    -0.200 F 
ENDBRANCH  23  37
BRANCH  24  48
ATOM     48  C   UNL A   1      36.874  31.986  31.090  1.00  0.00     0.064 A 
ATOM     49  C   UNL A   1      36.095  32.049  32.256  1.00  0.00     0.173 A 
ATOM     50  C   UNL A   1      36.484  32.821  30.026  1.00  0.00     0.173 A 
ATOM     51  F   UNL A   1      36.421  31.310  33.327  1.00  0.00    -0.203 F 
ATOM     52  C   UNL A   1      35.010  32.923  32.364  1.00  0.00     0.198 A 
ATOM     53  C   UNL A   1      35.397  33.689  30.133  1.00  0.00     0.198 A 
ATOM     54  F   UNL A   1      37.209  32.880  28.899  1.00  0.00    -0.203 F 
ATOM     55  F   UNL A   1      34.330  33.004  33.517  1.00  0.00    -0.200 F 
ATOM     56  C   UNL A   1      34.670  33.752  31.308  1.00  0.00     0.200 A 
ATOM     57  F   UNL A   1      35.098  34.509  29.116  1.00  0.00    -0.200 F 
ATOM     58  F   UNL A   1      33.673  34.638  31.436  1.00  0.00    -0.200 F 
ENDBRANCH  24  48
BRANCH  36  59
ATOM     59  C   UNL A   1      42.344  30.308  33.643  1.00  0.00     0.064 A 
ATOM     60  C   UNL A   1      41.849  28.992  33.595  1.00  0.00     0.173 A 
ATOM     61  C   UNL A   1      42.813  30.773  34.879  1.00  0.00     0.173 A 
ATOM     62  F   UNL A   1      41.482  28.430  32.436  1.00  0.00    -0.203 F 
ATOM     63  C   UNL A   1      41.783  28.203  34.742  1.00  0.00     0.198 A 
ATOM     64  C   UNL A   1      42.785  29.968  36.014  1.00  0.00     0.198 A 
ATOM     65  F   UNL A   1      43.353  31.999  34.976  1.00  0.00    -0.203 F 
ATOM     66  F   UNL A   1      41.292  26.957  34.673  1.00  0.00    -0.200 F 
ATOM     67  C   UNL A   1      42.258  28.689  35.949  1.00  0.00     0.200 A 
ATOM     68  F   UNL A   1      43.298  30.424  37.165  1.00  0.00    -0.200 F 
ATOM     69  F   UNL A   1      42.237  27.914  37.042  1.00  0.00    -0.200 F 
ENDBRANCH  36  59
ENDBRANCH  10  11
ENDBRANCH   3   5
ENDBRANCH   2   3
ENDBRANCH   1   2
BRANCH   1  70
ATOM     70  C   UNL A   1      37.631  22.020  25.373  1.00  0.00     0.275 C 
BRANCH  70  71
ATOM     71  O   UNL A   1      36.608  21.063  25.031  1.00  0.00    -0.458 OA
BRANCH  71  72
ATOM     72  C   UNL A   1      35.412  21.195  25.686  1.00  0.00     0.340 C 
ATOM     73  O   UNL A   1      35.265  21.542  26.842  1.00  0.00    -0.246 OA
BRANCH  72  74
ATOM     74  C   UNL A   1      34.292  20.885  24.804  1.00  0.00     0.095 A 
ATOM     75  C   UNL A   1      33.517  21.891  24.244  1.00  0.00     0.150 A 
ATOM     76  C   UNL A   1      33.896  19.592  24.306  1.00  0.00    -0.007 A 
ATOM     77  S   UNL A   1      32.193  21.249  23.375  1.00  0.00    -0.120 S 
ATOM     78  C   UNL A   1      32.780  19.671  23.499  1.00  0.00     0.064 A 
ATOM     79  C   UNL A   1      34.520  18.260  24.580  1.00  0.00     0.099 C 
ATOM     80  C   UNL A   1      32.152  18.520  22.775  1.00  0.00     0.308 C 
ATOM     81  C   UNL A   1      33.958  17.151  23.660  1.00  0.00     0.265 C 
ATOM     82  N   UNL A   1      32.506  17.239  23.407  1.00  0.00    -0.342 N 
ATOM     83  H   UNL A   1      32.007  17.156  24.293  1.00  0.00     0.346 HD
ATOM     84  H   UNL A   1      32.241  16.483  22.774  1.00  0.00     0.346 HD
BRANCH  75  85
ATOM     85  S   UNL A   1      33.731  23.670  24.290  1.00  0.00     0.253 S 
ATOM     86  O   UNL A   1      33.587  24.008  25.690  1.00  0.00    -0.206 OA
ATOM     87  O   UNL A   1      34.984  23.871  23.594  1.00  0.00    -0.206 OA
BRANCH  85  88
ATOM     88  N   UNL A   1      32.507  24.477  23.396  1.00  0.00    -0.197 NA
ATOM     89  C   UNL A   1      31.443  25.100  24.230  1.00  0.00     0.102 C 
ATOM     90  C   UNL A   1      32.999  25.196  22.196  1.00  0.00     0.102 C 
ATOM     91  C   UNL A   1      30.426  25.893  23.425  1.00  0.00     0.017 C 
ATOM     92  C   UNL A   1      31.925  25.993  21.475  1.00  0.00     0.017 C 
ATOM     93  C   UNL A   1      31.107  26.828  22.443  1.00  0.00     0.003 C 
ENDBRANCH  85  88
ENDBRANCH  75  85
ENDBRANCH  72  74
ENDBRANCH  71  72
ENDBRANCH  70  71
ENDBRANCH   1  70
TORSDOF 13
ENDMDL
