MODEL 1
REMARK VINA RESULT:     -15.3      0.000      0.000
REMARK SMILES Cc1ccc(S(=O)(=O)n2cc(C(=O)C(=O)N[C@@H](Cc3cnc[nH]3)C(=O)OCCOC(=O)c3ccc(-c4c5nc(c(-c6c(F)c(F)c(F)c(F)c6F)c6ccc([nH]6)c(-c6c(F)c(F)c(F)c(F)c6F)c6nc(c(-c7c(F)c(F)c(F)c(F)c7F)c7ccc4[nH]7)C=C6)C=C5)cc3)c3ccccc32)cc1
REMARK SMILES IDX 26 1 24 2 25 3 17 4 16 5 14 6 15 7 12 9 13 10 11 11 9 12
REMARK SMILES IDX 10 13 100 14 95 15 99 16 96 17 98 18 97 19 6 20 7 21 8 22
REMARK SMILES IDX 5 23 1 24 2 25 3 26 102 27 4 28 101 29 18 30 19 31 20 32
REMARK SMILES IDX 23 33 21 34 22 35 27 37 28 38 29 39 30 40 31 41 32 42 33 43
REMARK SMILES IDX 94 44 34 45 93 46 35 47 36 48 37 49 87 50 38 51 92 52 86 53
REMARK SMILES IDX 88 54 39 55 91 56 85 57 84 58 40 60 72 61 52 62 71 63 53 64
REMARK SMILES IDX 56 65 70 66 89 67 54 68 55 69 69 71 90 72 57 73 41 74 42 75
REMARK SMILES IDX 50 76 43 77 44 78 48 79 51 80 45 81 46 82 49 83 47 84 73 85
REMARK SMILES IDX 74 86 82 87 75 88 76 89 80 90 83 91 77 92 78 93 81 94 79 95
REMARK SMILES IDX 58 96 59 97 67 98 60 99 61 100 65 101 68 102 62 103 63 104
REMARK SMILES IDX 66 105 64 106
REMARK H PARENT 16 8 23 36 88 59 56 70
REMARK Flexibility Score: inf
ROOT
ATOM      1  O   UNL A   1      33.682  28.653  24.943  1.00  0.00    -0.461 OA
ENDROOT
BRANCH   1   2
ATOM      2  C   UNL A   1      33.035  28.885  23.653  1.00  0.00     0.329 C 
ATOM      3  O   UNL A   1      34.004  28.948  22.846  1.00  0.00    -0.250 OA
BRANCH   2   4
ATOM      4  C   UNL A   1      30.851  28.894  23.372  1.00  0.00     0.198 C 
BRANCH   4   5
ATOM      5  N   UNL A   1      29.731  27.673  23.704  1.00  0.00    -0.335 N 
ATOM      6  C   UNL A   1      29.668  26.540  24.494  1.00  0.00     0.293 C 
ATOM      7  O   UNL A   1      28.707  25.797  24.314  1.00  0.00    -0.265 OA
ATOM      8  H   UNL A   1      28.897  27.802  23.197  1.00  0.00     0.164 HD
BRANCH   6   9
ATOM      9  C   UNL A   1      30.729  26.172  25.565  1.00  0.00     0.252 C 
ATOM     10  O   UNL A   1      30.711  26.787  26.629  1.00  0.00    -0.283 OA
BRANCH   9  11
ATOM     11  C   UNL A   1      31.781  25.157  25.296  1.00  0.00     0.054 A 
ATOM     12  N   UNL A   1      33.240  23.468  25.557  1.00  0.00    -0.240 N 
ATOM     13  C   UNL A   1      32.424  24.349  26.223  1.00  0.00     0.117 A 
ATOM     14  C   UNL A   1      33.180  23.672  24.195  1.00  0.00     0.065 A 
ATOM     15  C   UNL A   1      32.321  24.769  24.009  1.00  0.00     0.012 A 
ATOM     16  C   UNL A   1      33.805  23.015  23.117  1.00  0.00     0.028 A 
ATOM     17  C   UNL A   1      32.138  25.244  22.689  1.00  0.00     0.011 A 
ATOM     18  C   UNL A   1      33.611  23.519  21.831  1.00  0.00     0.002 A 
ATOM     19  C   UNL A   1      32.799  24.626  21.620  1.00  0.00     0.001 A 
BRANCH  12  20
ATOM     20  S   UNL A   1      34.115  22.219  26.323  1.00  0.00     0.268 S 
ATOM     21  O   UNL A   1      33.496  22.072  27.628  1.00  0.00    -0.201 OA
ATOM     22  O   UNL A   1      35.516  22.569  26.176  1.00  0.00    -0.201 OA
BRANCH  20  23
ATOM     23  C   UNL A   1      33.868  20.697  25.443  1.00  0.00     0.088 A 
ATOM     24  C   UNL A   1      33.538  16.867  23.501  1.00  0.00     0.044 C 
ATOM     25  C   UNL A   1      33.648  18.209  24.165  1.00  0.00    -0.051 A 
ATOM     26  C   UNL A   1      34.909  18.745  24.449  1.00  0.00     0.005 A 
ATOM     27  C   UNL A   1      32.504  18.942  24.502  1.00  0.00     0.005 A 
ATOM     28  C   UNL A   1      35.020  19.980  25.092  1.00  0.00     0.022 A 
ATOM     29  C   UNL A   1      32.608  20.191  25.125  1.00  0.00     0.022 A 
ENDBRANCH  20  23
ENDBRANCH  12  20
ENDBRANCH   9  11
ENDBRANCH   6   9
ENDBRANCH   4   5
BRANCH   4  30
ATOM     30  C   UNL A   1      29.600  30.155  23.596  1.00  0.00     0.092 C 
BRANCH  30  31
ATOM     31  C   UNL A   1      29.012  30.809  22.364  1.00  0.00     0.037 A 
ATOM     32  C   UNL A   1      28.198  30.350  21.349  1.00  0.00     0.134 A 
ATOM     33  N   UNL A   1      29.231  32.129  22.022  1.00  0.00    -0.348 N 
ATOM     34  N   UNL A   1      27.742  31.391  20.577  1.00  0.00    -0.245 NA
ATOM     35  C   UNL A   1      28.340  32.459  21.045  1.00  0.00     0.196 A 
ATOM     36  H   UNL A   1      29.909  32.725  22.414  1.00  0.00     0.167 HD
ENDBRANCH  30  31
ENDBRANCH   4  30
ENDBRANCH   2   4
ENDBRANCH   1   2
BRANCH   1  37
ATOM     37  C   UNL A   1      33.606  29.681  25.947  1.00  0.00     0.274 C 
BRANCH  37  38
ATOM     38  C   UNL A   1      34.546  29.364  27.118  1.00  0.00     0.275 C 
BRANCH  38  39
ATOM     39  O   UNL A   1      35.299  30.494  27.638  1.00  0.00    -0.458 OA
BRANCH  39  40
ATOM     40  C   UNL A   1      34.740  31.500  28.369  1.00  0.00     0.338 C 
ATOM     41  O   UNL A   1      33.738  32.115  28.047  1.00  0.00    -0.246 OA
BRANCH  40  42
ATOM     42  C   UNL A   1      35.664  32.066  29.363  1.00  0.00     0.060 A 
ATOM     43  C   UNL A   1      37.001  33.078  28.693  1.00  0.00     0.016 A 
ATOM     44  C   UNL A   1      35.889  31.192  30.918  1.00  0.00     0.016 A 
ATOM     45  C   UNL A   1      38.653  33.019  29.459  1.00  0.00     0.010 A 
ATOM     46  C   UNL A   1      37.533  31.143  31.663  1.00  0.00     0.010 A 
ATOM     47  C   UNL A   1      38.921  31.999  30.892  1.00  0.00    -0.014 A 
BRANCH  47  48
ATOM     48  C   UNL A   1      40.179  31.321  31.236  1.00  0.00     0.031 A 
ATOM     49  C   UNL A   1      40.515  30.131  30.449  1.00  0.00     0.074 A 
ATOM     50  C   UNL A   1      41.146  32.068  31.812  1.00  0.00     0.049 A 
ATOM     51  N   UNL A   1      41.479  30.072  29.589  1.00  0.00    -0.248 NA
ATOM     52  C   UNL A   1      39.629  28.961  30.450  1.00  0.00     0.031 C 
ATOM     53  C   UNL A   1      42.593  31.901  31.763  1.00  0.00     0.029 A 
ATOM     54  N   UNL A   1      40.968  33.070  32.764  1.00  0.00    -0.354 N 
ATOM     55  C   UNL A   1      41.459  28.802  29.060  1.00  0.00     0.074 A 
ATOM     56  C   UNL A   1      40.192  28.217  29.493  1.00  0.00     0.031 C 
ATOM     57  C   UNL A   1      43.142  32.499  32.836  1.00  0.00     0.029 A 
ATOM     58  C   UNL A   1      42.053  32.992  33.662  1.00  0.00     0.049 A 
ATOM     59  H   UNL A   1      40.223  33.713  32.802  1.00  0.00     0.167 HD
ATOM     60  C   UNL A   1      42.575  28.028  29.077  1.00  0.00     0.037 A 
ATOM     61  C   UNL A   1      41.770  32.577  34.934  1.00  0.00     0.037 A 
ATOM     62  C   UNL A   1      43.426  28.304  30.209  1.00  0.00     0.049 A 
ATOM     63  C   UNL A   1      42.123  31.109  35.125  1.00  0.00     0.074 A 
ATOM     64  C   UNL A   1      44.505  29.126  30.461  1.00  0.00     0.029 A 
ATOM     65  N   UNL A   1      42.995  27.842  31.437  1.00  0.00    -0.354 N 
ATOM     66  N   UNL A   1      42.512  30.323  34.153  1.00  0.00    -0.248 NA
ATOM     67  C   UNL A   1      42.048  30.402  36.400  1.00  0.00     0.031 C 
ATOM     68  C   UNL A   1      44.649  29.218  31.884  1.00  0.00     0.029 A 
ATOM     69  C   UNL A   1      43.690  28.413  32.481  1.00  0.00     0.049 A 
ATOM     70  H   UNL A   1      42.274  27.182  31.553  1.00  0.00     0.167 HD
ATOM     71  C   UNL A   1      42.785  29.078  34.633  1.00  0.00     0.074 A 
ATOM     72  C   UNL A   1      42.402  29.155  36.035  1.00  0.00     0.031 C 
ATOM     73  C   UNL A   1      43.317  28.087  33.855  1.00  0.00     0.037 A 
BRANCH  60  74
ATOM     74  C   UNL A   1      42.901  27.246  27.843  1.00  0.00     0.064 A 
ATOM     75  C   UNL A   1      42.495  25.908  27.714  1.00  0.00     0.173 A 
ATOM     76  C   UNL A   1      43.711  27.753  26.798  1.00  0.00     0.173 A 
ATOM     77  F   UNL A   1      41.697  25.342  28.631  1.00  0.00    -0.203 F 
ATOM     78  C   UNL A   1      42.921  25.111  26.650  1.00  0.00     0.198 A 
ATOM     79  C   UNL A   1      44.120  26.958  25.727  1.00  0.00     0.198 A 
ATOM     80  F   UNL A   1      44.145  29.024  26.808  1.00  0.00    -0.203 F 
ATOM     81  F   UNL A   1      42.552  23.824  26.596  1.00  0.00    -0.200 F 
ATOM     82  C   UNL A   1      43.740  25.632  25.663  1.00  0.00     0.200 A 
ATOM     83  F   UNL A   1      44.905  27.479  24.774  1.00  0.00    -0.200 F 
ATOM     84  F   UNL A   1      44.168  24.856  24.657  1.00  0.00    -0.200 F 
ENDBRANCH  60  74
BRANCH  61  85
ATOM     85  C   UNL A   1      40.558  33.307  35.436  1.00  0.00     0.064 A 
ATOM     86  C   UNL A   1      39.376  32.535  35.576  1.00  0.00     0.173 A 
ATOM     87  C   UNL A   1      40.645  34.474  36.200  1.00  0.00     0.173 A 
ATOM     88  F   UNL A   1      39.220  31.420  34.844  1.00  0.00    -0.203 F 
ATOM     89  C   UNL A   1      38.450  32.794  36.585  1.00  0.00     0.198 A 
ATOM     90  C   UNL A   1      39.667  34.771  37.160  1.00  0.00     0.198 A 
ATOM     91  F   UNL A   1      41.739  35.248  36.138  1.00  0.00    -0.203 F 
ATOM     92  F   UNL A   1      37.463  31.918  36.826  1.00  0.00    -0.200 F 
ATOM     93  C   UNL A   1      38.614  33.898  37.398  1.00  0.00     0.200 A 
ATOM     94  F   UNL A   1      39.822  35.842  37.953  1.00  0.00    -0.200 F 
ATOM     95  F   UNL A   1      37.796  34.095  38.442  1.00  0.00    -0.200 F 
ENDBRANCH  61  85
BRANCH  73  96
ATOM     96  C   UNL A   1      43.543  26.701  34.382  1.00  0.00     0.064 A 
ATOM     97  C   UNL A   1      44.825  26.146  34.492  1.00  0.00     0.173 A 
ATOM     98  C   UNL A   1      42.471  25.864  34.759  1.00  0.00     0.173 A 
ATOM     99  F   UNL A   1      45.901  26.810  34.042  1.00  0.00    -0.203 F 
ATOM    100  C   UNL A   1      45.032  24.894  35.070  1.00  0.00     0.198 A 
ATOM    101  C   UNL A   1      42.674  24.578  35.250  1.00  0.00     0.198 A 
ATOM    102  F   UNL A   1      41.198  26.284  34.710  1.00  0.00    -0.203 F 
ATOM    103  F   UNL A   1      46.281  24.460  35.278  1.00  0.00    -0.200 F 
ATOM    104  C   UNL A   1      43.956  24.108  35.444  1.00  0.00     0.200 A 
ATOM    105  F   UNL A   1      41.618  23.814  35.560  1.00  0.00    -0.200 F 
ATOM    106  F   UNL A   1      44.154  22.907  36.001  1.00  0.00    -0.200 F 
ENDBRANCH  73  96
ENDBRANCH  47  48
ENDBRANCH  40  42
ENDBRANCH  39  40
ENDBRANCH  38  39
ENDBRANCH  37  38
ENDBRANCH   1  37
TORSDOF 18
ENDMDL
MODEL 2
REMARK VINA RESULT:     -15.3      2.247      3.541
REMARK SMILES Cc1ccc(S(=O)(=O)n2cc(C(=O)C(=O)N[C@@H](Cc3cnc[nH]3)C(=O)OCCOC(=O)c3ccc(-c4c5nc(c(-c6c(F)c(F)c(F)c(F)c6F)c6ccc([nH]6)c(-c6c(F)c(F)c(F)c(F)c6F)c6nc(c(-c7c(F)c(F)c(F)c(F)c7F)c7ccc4[nH]7)C=C6)C=C5)cc3)c3ccccc32)cc1
REMARK SMILES IDX 26 1 24 2 25 3 17 4 16 5 14 6 15 7 12 9 13 10 11 11 9 12
REMARK SMILES IDX 10 13 100 14 95 15 99 16 96 17 98 18 97 19 6 20 7 21 8 22
REMARK SMILES IDX 5 23 1 24 2 25 3 26 102 27 4 28 101 29 18 30 19 31 20 32
REMARK SMILES IDX 23 33 21 34 22 35 27 37 28 38 29 39 30 40 31 41 32 42 33 43
REMARK SMILES IDX 94 44 34 45 93 46 35 47 36 48 37 49 87 50 38 51 92 52 86 53
REMARK SMILES IDX 88 54 39 55 91 56 85 57 84 58 40 60 72 61 52 62 71 63 53 64
REMARK SMILES IDX 56 65 70 66 89 67 54 68 55 69 69 71 90 72 57 73 41 74 42 75
REMARK SMILES IDX 50 76 43 77 44 78 48 79 51 80 45 81 46 82 49 83 47 84 73 85
REMARK SMILES IDX 74 86 82 87 75 88 76 89 80 90 83 91 77 92 78 93 81 94 79 95
REMARK SMILES IDX 58 96 59 97 67 98 60 99 61 100 65 101 68 102 62 103 63 104
REMARK SMILES IDX 66 105 64 106
REMARK H PARENT 16 8 23 36 88 59 56 70
REMARK Flexibility Score: inf
ROOT
ATOM      1  O   UNL A   1      32.944  30.089  25.643  1.00  0.00    -0.461 OA
ENDROOT
BRANCH   1   2
ATOM      2  C   UNL A   1      32.374  28.850  25.118  1.00  0.00     0.329 C 
ATOM      3  O   UNL A   1      32.726  27.982  25.964  1.00  0.00    -0.250 OA
BRANCH   2   4
ATOM      4  C   UNL A   1      31.067  28.768  23.347  1.00  0.00     0.198 C 
BRANCH   4   5
ATOM      5  N   UNL A   1      30.967  27.576  22.153  1.00  0.00    -0.335 N 
ATOM      6  C   UNL A   1      31.785  26.592  21.630  1.00  0.00     0.293 C 
ATOM      7  O   UNL A   1      31.386  26.028  20.614  1.00  0.00    -0.265 OA
ATOM      8  H   UNL A   1      30.088  27.585  21.709  1.00  0.00     0.164 HD
BRANCH   6   9
ATOM      9  C   UNL A   1      33.148  26.181  22.247  1.00  0.00     0.252 C 
ATOM     10  O   UNL A   1      34.164  26.706  21.797  1.00  0.00    -0.283 OA
BRANCH   9  11
ATOM     11  C   UNL A   1      33.239  25.135  23.298  1.00  0.00     0.054 A 
ATOM     12  N   UNL A   1      34.034  23.528  24.653  1.00  0.00    -0.240 N 
ATOM     13  C   UNL A   1      34.287  24.251  23.514  1.00  0.00     0.117 A 
ATOM     14  C   UNL A   1      32.825  23.888  25.208  1.00  0.00     0.065 A 
ATOM     15  C   UNL A   1      32.276  24.848  24.341  1.00  0.00     0.012 A 
ATOM     16  C   UNL A   1      32.157  23.456  26.371  1.00  0.00     0.028 A 
ATOM     17  C   UNL A   1      30.983  25.340  24.639  1.00  0.00     0.011 A 
ATOM     18  C   UNL A   1      30.879  23.954  26.626  1.00  0.00     0.002 A 
ATOM     19  C   UNL A   1      30.294  24.874  25.766  1.00  0.00     0.001 A 
BRANCH  12  20
ATOM     20  S   UNL A   1      35.135  22.418  25.339  1.00  0.00     0.268 S 
ATOM     21  O   UNL A   1      34.952  22.546  26.774  1.00  0.00    -0.201 OA
ATOM     22  O   UNL A   1      36.412  22.684  24.703  1.00  0.00    -0.201 OA
BRANCH  20  23
ATOM     23  C   UNL A   1      34.668  20.766  24.889  1.00  0.00     0.088 A 
ATOM     24  C   UNL A   1      33.340  16.901  23.529  1.00  0.00     0.044 C 
ATOM     25  C   UNL A   1      33.804  18.242  24.017  1.00  0.00    -0.051 A 
ATOM     26  C   UNL A   1      32.912  19.321  24.044  1.00  0.00     0.005 A 
ATOM     27  C   UNL A   1      35.120  18.435  24.456  1.00  0.00     0.005 A 
ATOM     28  C   UNL A   1      33.343  20.580  24.471  1.00  0.00     0.022 A 
ATOM     29  C   UNL A   1      35.551  19.687  24.907  1.00  0.00     0.022 A 
ENDBRANCH  20  23
ENDBRANCH  12  20
ENDBRANCH   9  11
ENDBRANCH   6   9
ENDBRANCH   4   5
BRANCH   4  30
ATOM     30  C   UNL A   1      29.364  29.246  23.067  1.00  0.00     0.092 C 
BRANCH  30  31
ATOM     31  C   UNL A   1      29.072  30.688  22.715  1.00  0.00     0.037 A 
ATOM     32  C   UNL A   1      28.519  31.296  21.607  1.00  0.00     0.134 A 
ATOM     33  N   UNL A   1      29.354  31.751  23.551  1.00  0.00    -0.348 N 
ATOM     34  N   UNL A   1      28.247  32.619  21.858  1.00  0.00    -0.245 NA
ATOM     35  C   UNL A   1      28.712  32.848  23.061  1.00  0.00     0.196 A 
ATOM     36  H   UNL A   1      29.918  31.721  24.357  1.00  0.00     0.167 HD
ENDBRANCH  30  31
ENDBRANCH   4  30
ENDBRANCH   2   4
ENDBRANCH   1   2
BRANCH   1  37
ATOM     37  C   UNL A   1      33.319  30.141  27.031  1.00  0.00     0.274 C 
BRANCH  37  38
ATOM     38  C   UNL A   1      34.129  31.411  27.325  1.00  0.00     0.275 C 
BRANCH  38  39
ATOM     39  O   UNL A   1      34.867  31.405  28.578  1.00  0.00    -0.458 OA
BRANCH  39  40
ATOM     40  C   UNL A   1      36.227  31.474  28.651  1.00  0.00     0.338 C 
ATOM     41  O   UNL A   1      36.876  32.499  28.529  1.00  0.00    -0.246 OA
BRANCH  40  42
ATOM     42  C   UNL A   1      36.875  30.167  28.474  1.00  0.00     0.060 A 
ATOM     43  C   UNL A   1      36.842  29.080  29.916  1.00  0.00     0.016 A 
ATOM     44  C   UNL A   1      38.207  30.027  27.273  1.00  0.00     0.016 A 
ATOM     45  C   UNL A   1      38.274  28.017  30.284  1.00  0.00     0.010 A 
ATOM     46  C   UNL A   1      39.620  28.970  27.655  1.00  0.00     0.010 A 
ATOM     47  C   UNL A   1      39.677  28.025  29.190  1.00  0.00    -0.014 A 
BRANCH  47  48
ATOM     48  C   UNL A   1      41.075  27.808  29.590  1.00  0.00     0.031 A 
ATOM     49  C   UNL A   1      41.766  26.677  28.961  1.00  0.00     0.074 A 
ATOM     50  C   UNL A   1      41.764  28.882  30.034  1.00  0.00     0.049 A 
ATOM     51  N   UNL A   1      42.716  26.793  28.093  1.00  0.00    -0.248 NA
ATOM     52  C   UNL A   1      41.271  25.307  29.143  1.00  0.00     0.031 C 
ATOM     53  C   UNL A   1      43.195  29.150  29.971  1.00  0.00     0.029 A 
ATOM     54  N   UNL A   1      41.279  29.904  30.847  1.00  0.00    -0.354 N 
ATOM     55  C   UNL A   1      43.087  25.515  27.740  1.00  0.00     0.074 A 
ATOM     56  C   UNL A   1      42.046  24.642  28.281  1.00  0.00     0.031 C 
ATOM     57  C   UNL A   1      43.523  30.025  30.938  1.00  0.00     0.029 A 
ATOM     58  C   UNL A   1      42.323  30.278  31.718  1.00  0.00     0.049 A 
ATOM     59  H   UNL A   1      40.375  30.293  30.818  1.00  0.00     0.167 HD
ATOM     60  C   UNL A   1      44.382  25.121  27.832  1.00  0.00     0.037 A 
ATOM     61  C   UNL A   1      42.158  29.974  33.041  1.00  0.00     0.037 A 
ATOM     62  C   UNL A   1      45.094  25.791  28.894  1.00  0.00     0.049 A 
ATOM     63  C   UNL A   1      42.932  28.720  33.419  1.00  0.00     0.074 A 
ATOM     64  C   UNL A   1      45.872  26.924  29.005  1.00  0.00     0.029 A 
ATOM     65  N   UNL A   1      44.802  25.393  30.184  1.00  0.00    -0.354 N 
ATOM     66  N   UNL A   1      43.554  27.961  32.553  1.00  0.00    -0.248 NA
ATOM     67  C   UNL A   1      43.053  28.204  34.779  1.00  0.00     0.031 C 
ATOM     68  C   UNL A   1      45.959  27.248  30.398  1.00  0.00     0.029 A 
ATOM     69  C   UNL A   1      45.278  26.282  31.123  1.00  0.00     0.049 A 
ATOM     70  H   UNL A   1      44.310  24.570  30.406  1.00  0.00     0.167 HD
ATOM     71  C   UNL A   1      44.180  26.933  33.189  1.00  0.00     0.074 A 
ATOM     72  C   UNL A   1      43.770  27.083  34.577  1.00  0.00     0.031 C 
ATOM     73  C   UNL A   1      44.998  26.051  32.538  1.00  0.00     0.037 A 
BRANCH  60  74
ATOM     74  C   UNL A   1      44.947  24.312  26.706  1.00  0.00     0.064 A 
ATOM     75  C   UNL A   1      44.661  22.942  26.595  1.00  0.00     0.173 A 
ATOM     76  C   UNL A   1      45.869  24.832  25.767  1.00  0.00     0.173 A 
ATOM     77  F   UNL A   1      43.774  22.357  27.413  1.00  0.00    -0.203 F 
ATOM     78  C   UNL A   1      45.300  22.133  25.653  1.00  0.00     0.198 A 
ATOM     79  C   UNL A   1      46.493  24.024  24.815  1.00  0.00     0.198 A 
ATOM     80  F   UNL A   1      46.207  26.132  25.770  1.00  0.00    -0.203 F 
ATOM     81  F   UNL A   1      45.034  20.820  25.617  1.00  0.00    -0.200 F 
ATOM     82  C   UNL A   1      46.221  22.671  24.770  1.00  0.00     0.200 A 
ATOM     83  F   UNL A   1      47.375  24.561  23.962  1.00  0.00    -0.200 F 
ATOM     84  F   UNL A   1      46.851  21.886  23.885  1.00  0.00    -0.200 F 
ENDBRANCH  60  74
BRANCH  61  85
ATOM     85  C   UNL A   1      40.775  30.369  33.473  1.00  0.00     0.064 A 
ATOM     86  C   UNL A   1      40.473  31.753  33.415  1.00  0.00     0.173 A 
ATOM     87  C   UNL A   1      39.693  29.484  33.438  1.00  0.00     0.173 A 
ATOM     88  F   UNL A   1      41.467  32.654  33.477  1.00  0.00    -0.203 F 
ATOM     89  C   UNL A   1      39.192  32.209  33.107  1.00  0.00     0.198 A 
ATOM     90  C   UNL A   1      38.394  29.957  33.207  1.00  0.00     0.198 A 
ATOM     91  F   UNL A   1      39.898  28.159  33.469  1.00  0.00    -0.203 F 
ATOM     92  F   UNL A   1      38.992  33.509  32.845  1.00  0.00    -0.200 F 
ATOM     93  C   UNL A   1      38.158  31.305  32.973  1.00  0.00     0.200 A 
ATOM     94  F   UNL A   1      37.385  29.082  33.075  1.00  0.00    -0.200 F 
ATOM     95  F   UNL A   1      36.947  31.718  32.567  1.00  0.00    -0.200 F 
ENDBRANCH  61  85
BRANCH  73  96
ATOM     96  C   UNL A   1      45.621  24.881  33.241  1.00  0.00     0.064 A 
ATOM     97  C   UNL A   1      46.966  24.878  33.633  1.00  0.00     0.173 A 
ATOM     98  C   UNL A   1      44.894  23.701  33.510  1.00  0.00     0.173 A 
ATOM     99  F   UNL A   1      47.776  25.899  33.311  1.00  0.00    -0.203 F 
ATOM    100  C   UNL A   1      47.511  23.826  34.368  1.00  0.00     0.198 A 
ATOM    101  C   UNL A   1      45.466  22.613  34.163  1.00  0.00     0.198 A 
ATOM    102  F   UNL A   1      43.596  23.585  33.193  1.00  0.00    -0.203 F 
ATOM    103  F   UNL A   1      48.761  23.924  34.837  1.00  0.00    -0.200 F 
ATOM    104  C   UNL A   1      46.762  22.692  34.628  1.00  0.00     0.200 A 
ATOM    105  F   UNL A   1      44.740  21.505  34.362  1.00  0.00    -0.200 F 
ATOM    106  F   UNL A   1      47.284  21.682  35.336  1.00  0.00    -0.200 F 
ENDBRANCH  73  96
ENDBRANCH  47  48
ENDBRANCH  40  42
ENDBRANCH  39  40
ENDBRANCH  38  39
ENDBRANCH  37  38
ENDBRANCH   1  37
TORSDOF 18
ENDMDL
MODEL 3
REMARK VINA RESULT:     -15.3      1.080      2.129
REMARK SMILES Cc1ccc(S(=O)(=O)n2cc(C(=O)C(=O)N[C@@H](Cc3cnc[nH]3)C(=O)OCCOC(=O)c3ccc(-c4c5nc(c(-c6c(F)c(F)c(F)c(F)c6F)c6ccc([nH]6)c(-c6c(F)c(F)c(F)c(F)c6F)c6nc(c(-c7c(F)c(F)c(F)c(F)c7F)c7ccc4[nH]7)C=C6)C=C5)cc3)c3ccccc32)cc1
REMARK SMILES IDX 26 1 24 2 25 3 17 4 16 5 14 6 15 7 12 9 13 10 11 11 9 12
REMARK SMILES IDX 10 13 100 14 95 15 99 16 96 17 98 18 97 19 6 20 7 21 8 22
REMARK SMILES IDX 5 23 1 24 2 25 3 26 102 27 4 28 101 29 18 30 19 31 20 32
REMARK SMILES IDX 23 33 21 34 22 35 27 37 28 38 29 39 30 40 31 41 32 42 33 43
REMARK SMILES IDX 94 44 34 45 93 46 35 47 36 48 37 49 87 50 38 51 92 52 86 53
REMARK SMILES IDX 88 54 39 55 91 56 85 57 84 58 40 60 72 61 52 62 71 63 53 64
REMARK SMILES IDX 56 65 70 66 89 67 54 68 55 69 69 71 90 72 57 73 41 74 42 75
REMARK SMILES IDX 50 76 43 77 44 78 48 79 51 80 45 81 46 82 49 83 47 84 73 85
REMARK SMILES IDX 74 86 82 87 75 88 76 89 80 90 83 91 77 92 78 93 81 94 79 95
REMARK SMILES IDX 58 96 59 97 67 98 60 99 61 100 65 101 68 102 62 103 63 104
REMARK SMILES IDX 66 105 64 106
REMARK H PARENT 16 8 23 36 88 59 56 70
REMARK Flexibility Score: inf
ROOT
ATOM      1  O   UNL A   1      32.303  29.293  27.504  1.00  0.00    -0.461 OA
ENDROOT
BRANCH   1   2
ATOM      2  C   UNL A   1      31.554  28.541  26.498  1.00  0.00     0.329 C 
ATOM      3  O   UNL A   1      31.002  27.625  27.168  1.00  0.00    -0.250 OA
BRANCH   2   4
ATOM      4  C   UNL A   1      31.403  29.151  24.388  1.00  0.00     0.198 C 
BRANCH   4   5
ATOM      5  N   UNL A   1      32.548  29.005  23.153  1.00  0.00    -0.335 N 
ATOM      6  C   UNL A   1      33.008  28.012  22.309  1.00  0.00     0.293 C 
ATOM      7  O   UNL A   1      34.010  28.275  21.647  1.00  0.00    -0.265 OA
ATOM      8  H   UNL A   1      33.013  29.857  22.992  1.00  0.00     0.164 HD
BRANCH   6   9
ATOM      9  C   UNL A   1      32.342  26.618  22.166  1.00  0.00     0.252 C 
ATOM     10  O   UNL A   1      31.559  26.448  21.235  1.00  0.00    -0.283 OA
BRANCH   9  11
ATOM     11  C   UNL A   1      32.584  25.540  23.159  1.00  0.00     0.054 A 
ATOM     12  N   UNL A   1      33.590  23.950  24.388  1.00  0.00    -0.240 N 
ATOM     13  C   UNL A   1      33.712  24.740  23.272  1.00  0.00     0.117 A 
ATOM     14  C   UNL A   1      32.392  24.182  25.029  1.00  0.00     0.065 A 
ATOM     15  C   UNL A   1      31.714  25.128  24.242  1.00  0.00     0.012 A 
ATOM     16  C   UNL A   1      31.835  23.645  26.206  1.00  0.00     0.028 A 
ATOM     17  C   UNL A   1      30.406  25.496  24.638  1.00  0.00     0.011 A 
ATOM     18  C   UNL A   1      30.540  24.021  26.558  1.00  0.00     0.002 A 
ATOM     19  C   UNL A   1      29.828  24.925  25.779  1.00  0.00     0.001 A 
BRANCH  12  20
ATOM     20  S   UNL A   1      34.819  22.909  24.955  1.00  0.00     0.268 S 
ATOM     21  O   UNL A   1      34.863  23.127  26.389  1.00  0.00    -0.201 OA
ATOM     22  O   UNL A   1      35.970  23.158  24.107  1.00  0.00    -0.201 OA
BRANCH  20  23
ATOM     23  C   UNL A   1      34.336  21.222  24.688  1.00  0.00     0.088 A 
ATOM     24  C   UNL A   1      33.008  17.237  23.733  1.00  0.00     0.044 C 
ATOM     25  C   UNL A   1      33.469  18.623  24.081  1.00  0.00    -0.051 A 
ATOM     26  C   UNL A   1      32.629  19.717  23.847  1.00  0.00     0.005 A 
ATOM     27  C   UNL A   1      34.732  18.841  24.646  1.00  0.00     0.005 A 
ATOM     28  C   UNL A   1      33.062  21.012  24.142  1.00  0.00     0.022 A 
ATOM     29  C   UNL A   1      35.163  20.134  24.965  1.00  0.00     0.022 A 
ENDBRANCH  20  23
ENDBRANCH  12  20
ENDBRANCH   9  11
ENDBRANCH   6   9
ENDBRANCH   4   5
BRANCH   4  30
ATOM     30  C   UNL A   1      30.062  29.111  23.202  1.00  0.00     0.092 C 
BRANCH  30  31
ATOM     31  C   UNL A   1      29.256  30.373  22.986  1.00  0.00     0.037 A 
ATOM     32  C   UNL A   1      28.061  30.830  23.502  1.00  0.00     0.134 A 
ATOM     33  N   UNL A   1      29.639  31.386  22.128  1.00  0.00    -0.348 N 
ATOM     34  N   UNL A   1      27.858  32.148  23.175  1.00  0.00    -0.245 NA
ATOM     35  C   UNL A   1      28.857  32.471  22.391  1.00  0.00     0.196 A 
ATOM     36  H   UNL A   1      30.349  31.334  21.449  1.00  0.00     0.167 HD
ENDBRANCH  30  31
ENDBRANCH   4  30
ENDBRANCH   2   4
ENDBRANCH   1   2
BRANCH   1  37
ATOM     37  C   UNL A   1      33.739  29.316  27.420  1.00  0.00     0.274 C 
BRANCH  37  38
ATOM     38  C   UNL A   1      34.240  30.734  27.113  1.00  0.00     0.275 C 
BRANCH  38  39
ATOM     39  O   UNL A   1      35.038  31.355  28.158  1.00  0.00    -0.458 OA
BRANCH  39  40
ATOM     40  C   UNL A   1      34.623  32.432  28.882  1.00  0.00     0.338 C 
ATOM     41  O   UNL A   1      33.707  33.171  28.563  1.00  0.00    -0.246 OA
BRANCH  40  42
ATOM     42  C   UNL A   1      35.625  32.883  29.860  1.00  0.00     0.060 A 
ATOM     43  C   UNL A   1      37.005  33.828  29.180  1.00  0.00     0.016 A 
ATOM     44  C   UNL A   1      35.846  31.922  31.363  1.00  0.00     0.016 A 
ATOM     45  C   UNL A   1      38.677  33.616  29.871  1.00  0.00     0.010 A 
ATOM     46  C   UNL A   1      37.511  31.721  32.035  1.00  0.00     0.010 A 
ATOM     47  C   UNL A   1      38.926  32.512  31.243  1.00  0.00    -0.014 A 
BRANCH  47  48
ATOM     48  C   UNL A   1      40.143  31.730  31.503  1.00  0.00     0.031 A 
ATOM     49  C   UNL A   1      40.323  30.516  30.700  1.00  0.00     0.074 A 
ATOM     50  C   UNL A   1      41.207  32.393  32.007  1.00  0.00     0.049 A 
ATOM     51  N   UNL A   1      41.216  30.377  29.776  1.00  0.00    -0.248 NA
ATOM     52  C   UNL A   1      39.344  29.425  30.769  1.00  0.00     0.031 C 
ATOM     53  C   UNL A   1      42.628  32.105  31.858  1.00  0.00     0.029 A 
ATOM     54  N   UNL A   1      41.181  33.406  32.963  1.00  0.00    -0.354 N 
ATOM     55  C   UNL A   1      41.053  29.114  29.256  1.00  0.00     0.074 A 
ATOM     56  C   UNL A   1      39.774  28.637  29.780  1.00  0.00     0.031 C 
ATOM     57  C   UNL A   1      43.300  32.654  32.887  1.00  0.00     0.029 A 
ATOM     58  C   UNL A   1      42.316  33.236  33.784  1.00  0.00     0.049 A 
ATOM     59  H   UNL A   1      40.497  34.109  33.050  1.00  0.00     0.167 HD
ATOM     60  C   UNL A   1      42.098  28.249  29.200  1.00  0.00     0.037 A 
ATOM     61  C   UNL A   1      42.088  32.846  35.074  1.00  0.00     0.037 A 
ATOM     62  C   UNL A   1      43.047  28.452  30.268  1.00  0.00     0.049 A 
ATOM     63  C   UNL A   1      42.330  31.353  35.248  1.00  0.00     0.074 A 
ATOM     64  C   UNL A   1      44.206  29.180  30.440  1.00  0.00     0.029 A 
ATOM     65  N   UNL A   1      42.665  28.027  31.525  1.00  0.00    -0.354 N 
ATOM     66  N   UNL A   1      42.582  30.537  34.256  1.00  0.00    -0.248 NA
ATOM     67  C   UNL A   1      42.285  30.654  36.529  1.00  0.00     0.031 C 
ATOM     68  C   UNL A   1      44.455  29.258  31.849  1.00  0.00     0.029 A 
ATOM     69  C   UNL A   1      43.477  28.536  32.515  1.00  0.00     0.049 A 
ATOM     70  H   UNL A   1      41.901  27.430  31.695  1.00  0.00     0.167 HD
ATOM     71  C   UNL A   1      42.782  29.274  34.722  1.00  0.00     0.074 A 
ATOM     72  C   UNL A   1      42.506  29.382  36.147  1.00  0.00     0.031 C 
ATOM     73  C   UNL A   1      43.175  28.242  33.914  1.00  0.00     0.037 A 
BRANCH  60  74
ATOM     74  C   UNL A   1      42.270  27.443  27.950  1.00  0.00     0.064 A 
ATOM     75  C   UNL A   1      41.621  26.208  27.799  1.00  0.00     0.173 A 
ATOM     76  C   UNL A   1      43.160  27.808  26.911  1.00  0.00     0.173 A 
ATOM     77  F   UNL A   1      40.731  25.784  28.708  1.00  0.00    -0.203 F 
ATOM     78  C   UNL A   1      41.888  25.365  26.718  1.00  0.00     0.198 A 
ATOM     79  C   UNL A   1      43.412  26.971  25.824  1.00  0.00     0.198 A 
ATOM     80  F   UNL A   1      43.826  28.975  26.943  1.00  0.00    -0.203 F 
ATOM     81  F   UNL A   1      41.284  24.171  26.641  1.00  0.00    -0.200 F 
ATOM     82  C   UNL A   1      42.790  25.741  25.737  1.00  0.00     0.200 A 
ATOM     83  F   UNL A   1      44.280  27.353  24.877  1.00  0.00    -0.200 F 
ATOM     84  F   UNL A   1      43.063  24.918  24.715  1.00  0.00    -0.200 F 
ENDBRANCH  60  74
BRANCH  61  85
ATOM     85  C   UNL A   1      40.980  33.674  35.656  1.00  0.00     0.064 A 
ATOM     86  C   UNL A   1      39.733  33.020  35.828  1.00  0.00     0.173 A 
ATOM     87  C   UNL A   1      41.218  34.799  36.451  1.00  0.00     0.173 A 
ATOM     88  F   UNL A   1      39.433  31.952  35.070  1.00  0.00    -0.203 F 
ATOM     89  C   UNL A   1      38.884  33.334  36.888  1.00  0.00     0.198 A 
ATOM     90  C   UNL A   1      40.318  35.158  37.464  1.00  0.00     0.198 A 
ATOM     91  F   UNL A   1      42.381  35.462  36.360  1.00  0.00    -0.203 F 
ATOM     92  F   UNL A   1      37.825  32.552  37.148  1.00  0.00    -0.200 F 
ATOM     93  C   UNL A   1      39.194  34.386  37.725  1.00  0.00     0.200 A 
ATOM     94  F   UNL A   1      40.616  36.180  38.282  1.00  0.00    -0.200 F 
ATOM     95  F   UNL A   1      38.447  34.628  38.813  1.00  0.00    -0.200 F 
ENDBRANCH  61  85
BRANCH  73  96
ATOM     96  C   UNL A   1      43.320  26.841  34.431  1.00  0.00     0.064 A 
ATOM     97  C   UNL A   1      42.216  26.079  34.835  1.00  0.00     0.173 A 
ATOM     98  C   UNL A   1      44.583  26.229  34.576  1.00  0.00     0.173 A 
ATOM     99  F   UNL A   1      40.985  26.613  34.857  1.00  0.00    -0.203 F 
ATOM    100  C   UNL A   1      42.351  24.747  35.225  1.00  0.00     0.198 A 
ATOM    101  C   UNL A   1      44.724  24.929  35.054  1.00  0.00     0.198 A 
ATOM    102  F   UNL A   1      45.714  26.851  34.214  1.00  0.00    -0.203 F 
ATOM    103  F   UNL A   1      41.257  24.016  35.474  1.00  0.00    -0.200 F 
ATOM    104  C   UNL A   1      43.605  24.175  35.339  1.00  0.00     0.200 A 
ATOM    105  F   UNL A   1      45.949  24.409  35.204  1.00  0.00    -0.200 F 
ATOM    106  F   UNL A   1      43.735  22.895  35.711  1.00  0.00    -0.200 F 
ENDBRANCH  73  96
ENDBRANCH  47  48
ENDBRANCH  40  42
ENDBRANCH  39  40
ENDBRANCH  38  39
ENDBRANCH  37  38
ENDBRANCH   1  37
TORSDOF 18
ENDMDL
