MODEL 1
REMARK VINA RESULT:     -11.8      0.000      0.000
REMARK SMILES Cn1nc(N2CCC(CC(=O)OCCOC(=O)c3ccc(-c4c5nc(c(-c6c(F)c(F)c(F)c(F)c6F)c6ccc([nH]6)c(-c6c(F)c(F)c(F)c(F)c6F)c6nc(c(-c7c(F)c(F)c(F)c(F)c7F)c7ccc4[nH]7)C=C6)C=C5)cc3)CC2)c(=O)n(C)c1=O
REMARK SMILES IDX 13 1 12 2 10 3 11 4 9 5 8 6 5 7 6 8 82 9 7 10 81 11 4 12
REMARK SMILES IDX 1 13 2 14 3 15 87 16 85 17 88 18 83 19 86 20 84 21 14 22
REMARK SMILES IDX 15 23 16 24 17 25 18 26 19 27 80 28 20 29 79 30 21 31 22 32
REMARK SMILES IDX 23 33 73 34 24 35 78 36 72 37 74 38 25 39 77 40 71 41 70 42
REMARK SMILES IDX 26 44 58 45 38 46 57 47 39 48 42 49 56 50 75 51 40 52 41 53
REMARK SMILES IDX 55 55 76 56 43 57 27 58 28 59 36 60 29 61 30 62 34 63 37 64
REMARK SMILES IDX 31 65 32 66 35 67 33 68 59 69 60 70 68 71 61 72 62 73 66 74
REMARK SMILES IDX 69 75 63 76 64 77 67 78 65 79 44 80 45 81 53 82 46 83 47 84
REMARK SMILES IDX 51 85 54 86 48 87 49 88 52 89 50 90
REMARK H PARENT 74 43 42 54
REMARK Flexibility Score: inf
ROOT
ATOM      1  C   UNL A   1      35.615  20.329  25.000  1.00  0.00     0.274 C 
ENDROOT
BRANCH   1   2
ATOM      2  O   UNL A   1      34.492  21.194  24.747  1.00  0.00    -0.462 OA
BRANCH   2   3
ATOM      3  C   UNL A   1      34.014  21.915  25.789  1.00  0.00     0.306 C 
ATOM      4  O   UNL A   1      33.273  21.476  26.661  1.00  0.00    -0.252 OA
BRANCH   3   5
ATOM      5  C   UNL A   1      34.441  23.369  25.738  1.00  0.00     0.126 C 
BRANCH   5   6
ATOM      6  C   UNL A   1      33.416  24.361  25.156  1.00  0.00     0.003 C 
ATOM      7  N   UNL A   1      32.465  27.090  25.036  1.00  0.00    -0.351 N 
ATOM      8  C   UNL A   1      31.652  26.094  25.718  1.00  0.00     0.118 C 
ATOM      9  C   UNL A   1      33.204  26.582  23.888  1.00  0.00     0.118 C 
ATOM     10  C   UNL A   1      32.543  24.986  26.261  1.00  0.00     0.026 C 
ATOM     11  C   UNL A   1      34.147  25.466  24.357  1.00  0.00     0.026 C 
BRANCH   7  12
ATOM     12  C   UNL A   1      32.860  28.250  25.690  1.00  0.00     0.215 A 
ATOM     13  C   UNL A   1      35.556  29.392  27.768  1.00  0.00     0.180 C 
ATOM     14  N   UNL A   1      34.289  29.425  27.061  1.00  0.00    -0.216 N 
ATOM     15  N   UNL A   1      33.944  28.272  26.415  1.00  0.00    -0.145 NA
ATOM     16  C   UNL A   1      33.486  30.558  27.158  1.00  0.00     0.346 A 
ATOM     17  N   UNL A   1      32.312  30.535  26.435  1.00  0.00    -0.259 N 
ATOM     18  O   UNL A   1      33.818  31.528  27.843  1.00  0.00    -0.246 OA
ATOM     19  C   UNL A   1      31.976  29.499  25.588  1.00  0.00     0.299 A 
ATOM     20  C   UNL A   1      31.403  31.659  26.502  1.00  0.00     0.159 C 
ATOM     21  O   UNL A   1      31.027  29.510  24.811  1.00  0.00    -0.265 OA
ENDBRANCH   7  12
ENDBRANCH   5   6
ENDBRANCH   3   5
ENDBRANCH   2   3
ENDBRANCH   1   2
BRANCH   1  22
ATOM     22  C   UNL A   1      36.937  21.040  24.708  1.00  0.00     0.275 C 
BRANCH  22  23
ATOM     23  O   UNL A   1      37.487  21.618  25.906  1.00  0.00    -0.458 OA
BRANCH  23  24
ATOM     24  C   UNL A   1      38.797  21.364  26.125  1.00  0.00     0.338 C 
ATOM     25  O   UNL A   1      39.403  20.330  25.908  1.00  0.00    -0.246 OA
BRANCH  24  26
ATOM     26  C   UNL A   1      39.454  22.601  26.571  1.00  0.00     0.060 A 
ATOM     27  C   UNL A   1      38.943  23.822  26.124  1.00  0.00     0.016 A 
ATOM     28  C   UNL A   1      40.596  22.556  27.372  1.00  0.00     0.016 A 
ATOM     29  C   UNL A   1      39.573  25.011  26.478  1.00  0.00     0.010 A 
ATOM     30  C   UNL A   1      41.230  23.751  27.725  1.00  0.00     0.010 A 
ATOM     31  C   UNL A   1      40.727  24.984  27.274  1.00  0.00    -0.014 A 
BRANCH  31  32
ATOM     32  C   UNL A   1      41.435  26.248  27.583  1.00  0.00     0.031 A 
ATOM     33  C   UNL A   1      40.736  27.318  28.372  1.00  0.00     0.074 A 
ATOM     34  C   UNL A   1      42.712  26.416  27.194  1.00  0.00     0.049 A 
ATOM     35  N   UNL A   1      41.157  28.513  28.699  1.00  0.00    -0.248 NA
ATOM     36  C   UNL A   1      39.387  26.997  28.865  1.00  0.00     0.031 C 
ATOM     37  C   UNL A   1      43.512  25.423  26.478  1.00  0.00     0.029 A 
ATOM     38  N   UNL A   1      43.563  27.481  27.353  1.00  0.00    -0.354 N 
ATOM     39  C   UNL A   1      40.130  29.085  29.435  1.00  0.00     0.074 A 
ATOM     40  C   UNL A   1      39.054  28.120  29.488  1.00  0.00     0.031 C 
ATOM     41  C   UNL A   1      44.743  25.921  26.270  1.00  0.00     0.029 A 
ATOM     42  C   UNL A   1      44.803  27.281  26.798  1.00  0.00     0.049 A 
ATOM     43  H   UNL A   1      43.309  28.308  27.821  1.00  0.00     0.167 HD
ATOM     44  C   UNL A   1      40.097  30.304  30.026  1.00  0.00     0.037 A 
ATOM     45  C   UNL A   1      45.859  28.113  26.710  1.00  0.00     0.037 A 
ATOM     46  C   UNL A   1      41.170  31.261  29.975  1.00  0.00     0.049 A 
ATOM     47  C   UNL A   1      45.754  29.499  27.289  1.00  0.00     0.074 A 
ATOM     48  C   UNL A   1      41.217  32.533  30.517  1.00  0.00     0.029 A 
ATOM     49  N   UNL A   1      42.389  31.046  29.349  1.00  0.00    -0.354 N 
ATOM     50  N   UNL A   1      44.769  30.044  27.961  1.00  0.00    -0.248 NA
ATOM     51  C   UNL A   1      46.906  30.393  27.088  1.00  0.00     0.031 C 
ATOM     52  C   UNL A   1      42.453  33.101  30.194  1.00  0.00     0.029 A 
ATOM     53  C   UNL A   1      43.190  32.168  29.483  1.00  0.00     0.049 A 
ATOM     54  H   UNL A   1      42.647  30.220  28.879  1.00  0.00     0.167 HD
ATOM     55  C   UNL A   1      45.188  31.327  28.281  1.00  0.00     0.074 A 
ATOM     56  C   UNL A   1      46.524  31.479  27.744  1.00  0.00     0.031 C 
ATOM     57  C   UNL A   1      44.523  32.295  28.957  1.00  0.00     0.037 A 
BRANCH  44  58
ATOM     58  C   UNL A   1      38.861  30.684  30.781  1.00  0.00     0.064 A 
ATOM     59  C   UNL A   1      38.763  30.474  32.164  1.00  0.00     0.173 A 
ATOM     60  C   UNL A   1      37.807  31.345  30.135  1.00  0.00     0.173 A 
ATOM     61  F   UNL A   1      39.741  29.834  32.821  1.00  0.00    -0.203 F 
ATOM     62  C   UNL A   1      37.649  30.914  32.874  1.00  0.00     0.198 A 
ATOM     63  C   UNL A   1      36.705  31.802  30.853  1.00  0.00     0.198 A 
ATOM     64  F   UNL A   1      37.858  31.573  28.815  1.00  0.00    -0.203 F 
ATOM     65  F   UNL A   1      37.566  30.690  34.193  1.00  0.00    -0.200 F 
ATOM     66  C   UNL A   1      36.627  31.586  32.221  1.00  0.00     0.200 A 
ATOM     67  F   UNL A   1      35.723  32.462  30.222  1.00  0.00    -0.200 F 
ATOM     68  F   UNL A   1      35.565  32.028  32.910  1.00  0.00    -0.200 F 
ENDBRANCH  44  58
BRANCH  45  69
ATOM     69  C   UNL A   1      47.107  27.669  26.038  1.00  0.00     0.064 A 
ATOM     70  C   UNL A   1      47.235  27.732  24.643  1.00  0.00     0.173 A 
ATOM     71  C   UNL A   1      48.185  27.147  26.768  1.00  0.00     0.173 A 
ATOM     72  F   UNL A   1      46.220  28.195  23.899  1.00  0.00    -0.203 F 
ATOM     73  C   UNL A   1      48.385  27.274  24.004  1.00  0.00     0.198 A 
ATOM     74  C   UNL A   1      49.345  26.716  26.131  1.00  0.00     0.198 A 
ATOM     75  F   UNL A   1      48.111  27.059  28.105  1.00  0.00    -0.203 F 
ATOM     76  F   UNL A   1      48.462  27.301  22.667  1.00  0.00    -0.200 F 
ATOM     77  C   UNL A   1      49.442  26.772  24.749  1.00  0.00     0.200 A 
ATOM     78  F   UNL A   1      50.367  26.237  26.855  1.00  0.00    -0.200 F 
ATOM     79  F   UNL A   1      50.548  26.329  24.135  1.00  0.00    -0.200 F 
ENDBRANCH  45  69
BRANCH  57  80
ATOM     80  C   UNL A   1      45.234  33.597  29.182  1.00  0.00     0.064 A 
ATOM     81  C   UNL A   1      45.101  34.666  28.286  1.00  0.00     0.173 A 
ATOM     82  C   UNL A   1      45.995  33.798  30.343  1.00  0.00     0.173 A 
ATOM     83  F   UNL A   1      44.393  34.516  27.155  1.00  0.00    -0.203 F 
ATOM     84  C   UNL A   1      45.717  35.889  28.537  1.00  0.00     0.198 A 
ATOM     85  C   UNL A   1      46.588  35.029  30.604  1.00  0.00     0.198 A 
ATOM     86  F   UNL A   1      46.144  32.807  31.235  1.00  0.00    -0.203 F 
ATOM     87  F   UNL A   1      45.602  36.888  27.652  1.00  0.00    -0.200 F 
ATOM     88  C   UNL A   1      46.451  36.072  29.700  1.00  0.00     0.200 A 
ATOM     89  F   UNL A   1      47.287  35.210  31.733  1.00  0.00    -0.200 F 
ATOM     90  F   UNL A   1      47.031  37.255  29.947  1.00  0.00    -0.200 F 
ENDBRANCH  57  80
ENDBRANCH  31  32
ENDBRANCH  24  26
ENDBRANCH  23  24
ENDBRANCH  22  23
ENDBRANCH   1  22
TORSDOF 13
ENDMDL
MODEL 2
REMARK VINA RESULT:     -11.8      4.108      9.879
REMARK SMILES Cn1nc(N2CCC(CC(=O)OCCOC(=O)c3ccc(-c4c5nc(c(-c6c(F)c(F)c(F)c(F)c6F)c6ccc([nH]6)c(-c6c(F)c(F)c(F)c(F)c6F)c6nc(c(-c7c(F)c(F)c(F)c(F)c7F)c7ccc4[nH]7)C=C6)C=C5)cc3)CC2)c(=O)n(C)c1=O
REMARK SMILES IDX 13 1 12 2 10 3 11 4 9 5 8 6 5 7 6 8 82 9 7 10 81 11 4 12
REMARK SMILES IDX 1 13 2 14 3 15 87 16 85 17 88 18 83 19 86 20 84 21 14 22
REMARK SMILES IDX 15 23 16 24 17 25 18 26 19 27 80 28 20 29 79 30 21 31 22 32
REMARK SMILES IDX 23 33 73 34 24 35 78 36 72 37 74 38 25 39 77 40 71 41 70 42
REMARK SMILES IDX 26 44 58 45 38 46 57 47 39 48 42 49 56 50 75 51 40 52 41 53
REMARK SMILES IDX 55 55 76 56 43 57 27 58 28 59 36 60 29 61 30 62 34 63 37 64
REMARK SMILES IDX 31 65 32 66 35 67 33 68 59 69 60 70 68 71 61 72 62 73 66 74
REMARK SMILES IDX 69 75 63 76 64 77 67 78 65 79 44 80 45 81 53 82 46 83 47 84
REMARK SMILES IDX 51 85 54 86 48 87 49 88 52 89 50 90
REMARK H PARENT 74 43 42 54
REMARK Flexibility Score: inf
ROOT
ATOM      1  C   UNL A   1      31.389  29.593  24.594  1.00  0.00     0.274 C 
ENDROOT
BRANCH   1   2
ATOM      2  O   UNL A   1      31.028  28.200  24.545  1.00  0.00    -0.462 OA
BRANCH   2   3
ATOM      3  C   UNL A   1      31.769  27.392  23.750  1.00  0.00     0.306 C 
ATOM      4  O   UNL A   1      31.537  27.171  22.568  1.00  0.00    -0.252 OA
BRANCH   3   5
ATOM      5  C   UNL A   1      32.905  26.720  24.497  1.00  0.00     0.126 C 
BRANCH   5   6
ATOM      6  C   UNL A   1      32.873  25.181  24.547  1.00  0.00     0.003 C 
ATOM      7  N   UNL A   1      34.329  22.729  25.032  1.00  0.00    -0.351 N 
ATOM      8  C   UNL A   1      33.935  23.051  23.670  1.00  0.00     0.118 C 
ATOM      9  C   UNL A   1      33.385  23.167  26.053  1.00  0.00     0.118 C 
ATOM     10  C   UNL A   1      33.827  24.561  23.508  1.00  0.00     0.026 C 
ATOM     11  C   UNL A   1      33.235  24.691  25.970  1.00  0.00     0.026 C 
BRANCH   7  12
ATOM     12  C   UNL A   1      35.658  22.474  25.344  1.00  0.00     0.215 A 
ATOM     13  C   UNL A   1      38.532  24.246  26.567  1.00  0.00     0.180 C 
ATOM     14  N   UNL A   1      37.751  23.146  26.029  1.00  0.00    -0.216 N 
ATOM     15  N   UNL A   1      36.443  23.431  25.753  1.00  0.00    -0.145 NA
ATOM     16  C   UNL A   1      38.383  21.939  25.749  1.00  0.00     0.346 A 
ATOM     17  N   UNL A   1      37.576  20.927  25.272  1.00  0.00    -0.259 N 
ATOM     18  O   UNL A   1      39.592  21.784  25.932  1.00  0.00    -0.246 OA
ATOM     19  C   UNL A   1      36.207  21.054  25.156  1.00  0.00     0.299 A 
ATOM     20  C   UNL A   1      38.155  19.647  24.926  1.00  0.00     0.159 C 
ATOM     21  O   UNL A   1      35.439  20.137  24.889  1.00  0.00    -0.265 OA
ENDBRANCH   7  12
ENDBRANCH   5   6
ENDBRANCH   3   5
ENDBRANCH   2   3
ENDBRANCH   1   2
BRANCH   1  22
ATOM     22  C   UNL A   1      31.763  30.018  26.014  1.00  0.00     0.275 C 
BRANCH  22  23
ATOM     23  O   UNL A   1      33.137  30.441  26.080  1.00  0.00    -0.458 OA
BRANCH  23  24
ATOM     24  C   UNL A   1      33.406  31.403  26.991  1.00  0.00     0.338 C 
ATOM     25  O   UNL A   1      32.704  32.346  27.310  1.00  0.00    -0.246 OA
BRANCH  24  26
ATOM     26  C   UNL A   1      34.669  31.078  27.669  1.00  0.00     0.060 A 
ATOM     27  C   UNL A   1      34.888  29.757  28.067  1.00  0.00     0.016 A 
ATOM     28  C   UNL A   1      35.601  32.076  27.962  1.00  0.00     0.016 A 
ATOM     29  C   UNL A   1      36.047  29.423  28.762  1.00  0.00     0.010 A 
ATOM     30  C   UNL A   1      36.763  31.739  28.663  1.00  0.00     0.010 A 
ATOM     31  C   UNL A   1      36.988  30.413  29.074  1.00  0.00    -0.014 A 
BRANCH  31  32
ATOM     32  C   UNL A   1      38.181  30.064  29.880  1.00  0.00     0.031 A 
ATOM     33  C   UNL A   1      39.232  29.161  29.300  1.00  0.00     0.074 A 
ATOM     34  C   UNL A   1      38.339  30.588  31.109  1.00  0.00     0.049 A 
ATOM     35  N   UNL A   1      40.318  28.691  29.857  1.00  0.00    -0.248 NA
ATOM     36  C   UNL A   1      39.039  28.738  27.904  1.00  0.00     0.031 C 
ATOM     37  C   UNL A   1      37.417  31.524  31.751  1.00  0.00     0.029 A 
ATOM     38  N   UNL A   1      39.338  30.413  32.034  1.00  0.00    -0.354 N 
ATOM     39  C   UNL A   1      40.938  27.921  28.884  1.00  0.00     0.074 A 
ATOM     40  C   UNL A   1      40.097  27.963  27.708  1.00  0.00     0.031 C 
ATOM     41  C   UNL A   1      37.899  31.852  32.962  1.00  0.00     0.029 A 
ATOM     42  C   UNL A   1      39.138  31.116  33.198  1.00  0.00     0.049 A 
ATOM     43  H   UNL A   1      40.122  29.840  31.879  1.00  0.00     0.167 HD
ATOM     44  C   UNL A   1      42.112  27.251  28.965  1.00  0.00     0.037 A 
ATOM     45  C   UNL A   1      39.866  31.143  34.331  1.00  0.00     0.037 A 
ATOM     46  C   UNL A   1      42.949  27.213  30.135  1.00  0.00     0.049 A 
ATOM     47  C   UNL A   1      41.114  30.306  34.424  1.00  0.00     0.074 A 
ATOM     48  C   UNL A   1      44.141  26.536  30.320  1.00  0.00     0.029 A 
ATOM     49  N   UNL A   1      42.681  27.888  31.317  1.00  0.00    -0.354 N 
ATOM     50  N   UNL A   1      41.680  29.558  33.508  1.00  0.00    -0.248 NA
ATOM     51  C   UNL A   1      41.821  30.308  35.715  1.00  0.00     0.031 C 
ATOM     52  C   UNL A   1      44.582  26.776  31.626  1.00  0.00     0.029 A 
ATOM     53  C   UNL A   1      43.682  27.633  32.240  1.00  0.00     0.049 A 
ATOM     54  H   UNL A   1      41.897  28.462  31.477  1.00  0.00     0.167 HD
ATOM     55  C   UNL A   1      42.815  29.022  34.101  1.00  0.00     0.074 A 
ATOM     56  C   UNL A   1      42.869  29.540  35.451  1.00  0.00     0.031 C 
ATOM     57  C   UNL A   1      43.728  28.172  33.573  1.00  0.00     0.037 A 
BRANCH  44  58
ATOM     58  C   UNL A   1      42.572  26.495  27.757  1.00  0.00     0.064 A 
ATOM     59  C   UNL A   1      43.435  27.081  26.819  1.00  0.00     0.173 A 
ATOM     60  C   UNL A   1      42.223  25.148  27.583  1.00  0.00     0.173 A 
ATOM     61  F   UNL A   1      43.786  28.369  26.938  1.00  0.00    -0.203 F 
ATOM     62  C   UNL A   1      43.932  26.342  25.748  1.00  0.00     0.198 A 
ATOM     63  C   UNL A   1      42.738  24.408  26.523  1.00  0.00     0.198 A 
ATOM     64  F   UNL A   1      41.405  24.543  28.456  1.00  0.00    -0.203 F 
ATOM     65  F   UNL A   1      44.742  26.925  24.854  1.00  0.00    -0.200 F 
ATOM     66  C   UNL A   1      43.592  25.005  25.607  1.00  0.00     0.200 A 
ATOM     67  F   UNL A   1      42.419  23.112  26.394  1.00  0.00    -0.200 F 
ATOM     68  F   UNL A   1      44.089  24.290  24.588  1.00  0.00    -0.200 F 
ENDBRANCH  44  58
BRANCH  45  69
ATOM     69  C   UNL A   1      39.432  31.981  35.478  1.00  0.00     0.064 A 
ATOM     70  C   UNL A   1      38.547  31.478  36.442  1.00  0.00     0.173 A 
ATOM     71  C   UNL A   1      39.867  33.306  35.621  1.00  0.00     0.173 A 
ATOM     72  F   UNL A   1      38.079  30.226  36.333  1.00  0.00    -0.203 F 
ATOM     73  C   UNL A   1      38.101  32.275  37.495  1.00  0.00     0.198 A 
ATOM     74  C   UNL A   1      39.443  34.093  36.689  1.00  0.00     0.198 A 
ATOM     75  F   UNL A   1      40.709  33.838  34.722  1.00  0.00    -0.203 F 
ATOM     76  F   UNL A   1      37.218  31.785  38.375  1.00  0.00    -0.200 F 
ATOM     77  C   UNL A   1      38.554  33.580  37.620  1.00  0.00     0.200 A 
ATOM     78  F   UNL A   1      39.888  35.352  36.810  1.00  0.00    -0.200 F 
ATOM     79  F   UNL A   1      38.124  34.347  38.632  1.00  0.00    -0.200 F 
ENDBRANCH  45  69
BRANCH  57  80
ATOM     80  C   UNL A   1      44.882  27.768  34.442  1.00  0.00     0.064 A 
ATOM     81  C   UNL A   1      44.835  26.606  35.225  1.00  0.00     0.173 A 
ATOM     82  C   UNL A   1      46.071  28.511  34.433  1.00  0.00     0.173 A 
ATOM     83  F   UNL A   1      43.714  25.870  35.274  1.00  0.00    -0.203 F 
ATOM     84  C   UNL A   1      45.936  26.209  35.980  1.00  0.00     0.198 A 
ATOM     85  C   UNL A   1      47.178  28.098  35.170  1.00  0.00     0.198 A 
ATOM     86  F   UNL A   1      46.167  29.626  33.693  1.00  0.00    -0.203 F 
ATOM     87  F   UNL A   1      45.859  25.112  36.745  1.00  0.00    -0.200 F 
ATOM     88  C   UNL A   1      47.108  26.950  35.944  1.00  0.00     0.200 A 
ATOM     89  F   UNL A   1      48.314  28.808  35.125  1.00  0.00    -0.200 F 
ATOM     90  F   UNL A   1      48.171  26.558  36.660  1.00  0.00    -0.200 F 
ENDBRANCH  57  80
ENDBRANCH  31  32
ENDBRANCH  24  26
ENDBRANCH  23  24
ENDBRANCH  22  23
ENDBRANCH   1  22
TORSDOF 13
ENDMDL
MODEL 3
REMARK VINA RESULT:     -11.7      4.222      9.906
REMARK SMILES Cn1nc(N2CCC(CC(=O)OCCOC(=O)c3ccc(-c4c5nc(c(-c6c(F)c(F)c(F)c(F)c6F)c6ccc([nH]6)c(-c6c(F)c(F)c(F)c(F)c6F)c6nc(c(-c7c(F)c(F)c(F)c(F)c7F)c7ccc4[nH]7)C=C6)C=C5)cc3)CC2)c(=O)n(C)c1=O
REMARK SMILES IDX 13 1 12 2 10 3 11 4 9 5 8 6 5 7 6 8 82 9 7 10 81 11 4 12
REMARK SMILES IDX 1 13 2 14 3 15 87 16 85 17 88 18 83 19 86 20 84 21 14 22
REMARK SMILES IDX 15 23 16 24 17 25 18 26 19 27 80 28 20 29 79 30 21 31 22 32
REMARK SMILES IDX 23 33 73 34 24 35 78 36 72 37 74 38 25 39 77 40 71 41 70 42
REMARK SMILES IDX 26 44 58 45 38 46 57 47 39 48 42 49 56 50 75 51 40 52 41 53
REMARK SMILES IDX 55 55 76 56 43 57 27 58 28 59 36 60 29 61 30 62 34 63 37 64
REMARK SMILES IDX 31 65 32 66 35 67 33 68 59 69 60 70 68 71 61 72 62 73 66 74
REMARK SMILES IDX 69 75 63 76 64 77 67 78 65 79 44 80 45 81 53 82 46 83 47 84
REMARK SMILES IDX 51 85 54 86 48 87 49 88 52 89 50 90
REMARK H PARENT 74 43 42 54
REMARK Flexibility Score: inf
ROOT
ATOM      1  C   UNL A   1      31.692  29.125  24.464  1.00  0.00     0.274 C 
ENDROOT
BRANCH   1   2
ATOM      2  O   UNL A   1      30.794  28.021  24.688  1.00  0.00    -0.462 OA
BRANCH   2   3
ATOM      3  C   UNL A   1      31.231  27.013  25.480  1.00  0.00     0.306 C 
ATOM      4  O   UNL A   1      30.670  26.635  26.502  1.00  0.00    -0.252 OA
BRANCH   3   5
ATOM      5  C   UNL A   1      32.545  26.425  25.005  1.00  0.00     0.126 C 
BRANCH   5   6
ATOM      6  C   UNL A   1      32.609  24.889  24.909  1.00  0.00     0.003 C 
ATOM      7  N   UNL A   1      34.222  22.499  25.147  1.00  0.00    -0.351 N 
ATOM      8  C   UNL A   1      33.788  22.923  23.824  1.00  0.00     0.118 C 
ATOM      9  C   UNL A   1      33.267  22.778  26.212  1.00  0.00     0.118 C 
ATOM     10  C   UNL A   1      33.585  24.431  23.807  1.00  0.00     0.026 C 
ATOM     11  C   UNL A   1      33.021  24.291  26.276  1.00  0.00     0.026 C 
BRANCH   7  12
ATOM     12  C   UNL A   1      35.569  22.301  25.421  1.00  0.00     0.215 A 
ATOM     13  C   UNL A   1      38.405  24.199  26.535  1.00  0.00     0.180 C 
ATOM     14  N   UNL A   1      37.653  23.063  26.035  1.00  0.00    -0.216 N 
ATOM     15  N   UNL A   1      36.327  23.293  25.795  1.00  0.00    -0.145 NA
ATOM     16  C   UNL A   1      38.323  21.877  25.750  1.00  0.00     0.346 A 
ATOM     17  N   UNL A   1      37.543  20.829  25.310  1.00  0.00    -0.259 N 
ATOM     18  O   UNL A   1      39.542  21.773  25.898  1.00  0.00    -0.246 OA
ATOM     19  C   UNL A   1      36.168  20.901  25.234  1.00  0.00     0.299 A 
ATOM     20  C   UNL A   1      38.162  19.567  24.962  1.00  0.00     0.159 C 
ATOM     21  O   UNL A   1      35.428  19.950  25.001  1.00  0.00    -0.265 OA
ENDBRANCH   7  12
ENDBRANCH   5   6
ENDBRANCH   3   5
ENDBRANCH   2   3
ENDBRANCH   1   2
BRANCH   1  22
ATOM     22  C   UNL A   1      31.805  30.005  25.709  1.00  0.00     0.275 C 
BRANCH  22  23
ATOM     23  O   UNL A   1      33.171  30.398  25.940  1.00  0.00    -0.458 OA
BRANCH  23  24
ATOM     24  C   UNL A   1      33.356  31.313  26.917  1.00  0.00     0.338 C 
ATOM     25  O   UNL A   1      32.604  32.211  27.251  1.00  0.00    -0.246 OA
BRANCH  24  26
ATOM     26  C   UNL A   1      34.594  30.993  27.642  1.00  0.00     0.060 A 
ATOM     27  C   UNL A   1      34.827  29.664  28.003  1.00  0.00     0.016 A 
ATOM     28  C   UNL A   1      35.487  32.000  28.014  1.00  0.00     0.016 A 
ATOM     29  C   UNL A   1      35.960  29.331  28.740  1.00  0.00     0.010 A 
ATOM     30  C   UNL A   1      36.623  31.665  28.757  1.00  0.00     0.010 A 
ATOM     31  C   UNL A   1      36.861  30.331  29.130  1.00  0.00    -0.014 A 
BRANCH  31  32
ATOM     32  C   UNL A   1      38.024  29.981  29.980  1.00  0.00     0.031 A 
ATOM     33  C   UNL A   1      39.097  29.081  29.436  1.00  0.00     0.074 A 
ATOM     34  C   UNL A   1      38.136  30.500  31.216  1.00  0.00     0.049 A 
ATOM     35  N   UNL A   1      40.162  28.611  30.031  1.00  0.00    -0.248 NA
ATOM     36  C   UNL A   1      38.957  28.663  28.032  1.00  0.00     0.031 C 
ATOM     37  C   UNL A   1      37.189  31.433  31.826  1.00  0.00     0.029 A 
ATOM     38  N   UNL A   1      39.099  30.324  32.177  1.00  0.00    -0.354 N 
ATOM     39  C   UNL A   1      40.819  27.844  29.079  1.00  0.00     0.074 A 
ATOM     40  C   UNL A   1      40.023  27.889  27.873  1.00  0.00     0.031 C 
ATOM     41  C   UNL A   1      37.625  31.757  33.055  1.00  0.00     0.029 A 
ATOM     42  C   UNL A   1      38.856  31.022  33.334  1.00  0.00     0.049 A 
ATOM     43  H   UNL A   1      39.890  29.752  32.048  1.00  0.00     0.167 HD
ATOM     44  C   UNL A   1      41.990  27.175  29.201  1.00  0.00     0.037 A 
ATOM     45  C   UNL A   1      39.541  31.045  34.494  1.00  0.00     0.037 A 
ATOM     46  C   UNL A   1      42.782  27.134  30.402  1.00  0.00     0.049 A 
ATOM     47  C   UNL A   1      40.786  30.210  34.631  1.00  0.00     0.074 A 
ATOM     48  C   UNL A   1      43.968  26.458  30.629  1.00  0.00     0.029 A 
ATOM     49  N   UNL A   1      42.470  27.805  31.575  1.00  0.00    -0.354 N 
ATOM     50  N   UNL A   1      41.386  29.466  33.734  1.00  0.00    -0.248 NA
ATOM     51  C   UNL A   1      41.444  30.208  35.946  1.00  0.00     0.031 C 
ATOM     52  C   UNL A   1      44.359  26.694  31.951  1.00  0.00     0.029 A 
ATOM     53  C   UNL A   1      43.437  27.548  32.534  1.00  0.00     0.049 A 
ATOM     54  H   UNL A   1      41.680  28.377  31.708  1.00  0.00     0.167 HD
ATOM     55  C   UNL A   1      42.499  28.929  34.366  1.00  0.00     0.074 A 
ATOM     56  C   UNL A   1      42.502  29.443  35.719  1.00  0.00     0.031 C 
ATOM     57  C   UNL A   1      43.433  28.082  33.870  1.00  0.00     0.037 A 
BRANCH  44  58
ATOM     58  C   UNL A   1      42.495  26.424  28.008  1.00  0.00     0.064 A 
ATOM     59  C   UNL A   1      42.110  25.097  27.769  1.00  0.00     0.173 A 
ATOM     60  C   UNL A   1      43.295  27.063  27.050  1.00  0.00     0.173 A 
ATOM     61  F   UNL A   1      41.355  24.442  28.663  1.00  0.00    -0.203 F 
ATOM     62  C   UNL A   1      42.508  24.437  26.610  1.00  0.00     0.198 A 
ATOM     63  C   UNL A   1      43.675  26.406  25.883  1.00  0.00     0.198 A 
ATOM     64  F   UNL A   1      43.685  28.333  27.233  1.00  0.00    -0.203 F 
ATOM     65  F   UNL A   1      42.142  23.164  26.407  1.00  0.00    -0.200 F 
ATOM     66  C   UNL A   1      43.281  25.094  25.664  1.00  0.00     0.200 A 
ATOM     67  F   UNL A   1      44.411  27.046  24.964  1.00  0.00    -0.200 F 
ATOM     68  F   UNL A   1      43.646  24.464  24.538  1.00  0.00    -0.200 F 
ENDBRANCH  44  58
BRANCH  45  69
ATOM     69  C   UNL A   1      39.064  31.879  35.627  1.00  0.00     0.064 A 
ATOM     70  C   UNL A   1      39.480  33.211  35.765  1.00  0.00     0.173 A 
ATOM     71  C   UNL A   1      38.209  31.358  36.609  1.00  0.00     0.173 A 
ATOM     72  F   UNL A   1      40.321  33.746  34.867  1.00  0.00    -0.203 F 
ATOM     73  C   UNL A   1      39.072  33.984  36.851  1.00  0.00     0.198 A 
ATOM     74  C   UNL A   1      37.780  32.139  37.679  1.00  0.00     0.198 A 
ATOM     75  F   UNL A   1      37.788  30.087  36.528  1.00  0.00    -0.203 F 
ATOM     76  F   UNL A   1      39.523  35.238  36.983  1.00  0.00    -0.200 F 
ATOM     77  C   UNL A   1      38.218  33.449  37.803  1.00  0.00     0.200 A 
ATOM     78  F   UNL A   1      36.949  31.621  38.595  1.00  0.00    -0.200 F 
ATOM     79  F   UNL A   1      37.827  34.191  38.849  1.00  0.00    -0.200 F 
ENDBRANCH  45  69
BRANCH  57  80
ATOM     80  C   UNL A   1      44.554  27.676  34.779  1.00  0.00     0.064 A 
ATOM     81  C   UNL A   1      45.752  28.401  34.830  1.00  0.00     0.173 A 
ATOM     82  C   UNL A   1      44.398  26.594  35.659  1.00  0.00     0.173 A 
ATOM     83  F   UNL A   1      45.950  29.436  33.999  1.00  0.00    -0.203 F 
ATOM     84  C   UNL A   1      46.761  28.051  35.722  1.00  0.00     0.198 A 
ATOM     85  C   UNL A   1      45.399  26.262  36.567  1.00  0.00     0.198 A 
ATOM     86  F   UNL A   1      43.266  25.875  35.653  1.00  0.00    -0.203 F 
ATOM     87  F   UNL A   1      47.910  28.740  35.734  1.00  0.00    -0.200 F 
ATOM     88  C   UNL A   1      46.580  26.989  36.595  1.00  0.00     0.200 A 
ATOM     89  F   UNL A   1      45.218  25.243  37.419  1.00  0.00    -0.200 F 
ATOM     90  F   UNL A   1      47.548  26.662  37.464  1.00  0.00    -0.200 F 
ENDBRANCH  57  80
ENDBRANCH  31  32
ENDBRANCH  24  26
ENDBRANCH  23  24
ENDBRANCH  22  23
ENDBRANCH   1  22
TORSDOF 13
ENDMDL
