MODEL 1
REMARK VINA RESULT:     -12.4      0.000      0.000
REMARK SMILES CO[C@@]1(C(=O)OCCOC(=O)c2ccc(-c3c4nc(c(-c5c(F)c(F)c(F)c(F)c5F)c5ccc([nH]5)c(-c5c(F)c(F)c(F)c(F)c5F)c5nc(c(-c6c(F)c(F)c(F)c(F)c6F)c6ccc3[nH]6)C=C5)C=C4)cc2)CC(c2ccccc2)=CC=C1C
REMARK SMILES IDX 8 1 7 2 6 3 4 4 5 5 3 6 75 7 85 8 76 9 84 10 86 11 83 12
REMARK SMILES IDX 2 13 1 14 77 15 78 16 82 17 79 18 81 19 80 20 9 21 10 22
REMARK SMILES IDX 11 23 12 24 13 25 74 26 14 27 73 28 15 29 16 30 17 31 67 32
REMARK SMILES IDX 18 33 72 34 66 35 68 36 19 37 71 38 65 39 64 40 20 42 52 43
REMARK SMILES IDX 32 44 51 45 33 46 36 47 50 48 69 49 34 50 35 51 49 53 70 54
REMARK SMILES IDX 37 55 21 56 22 57 30 58 23 59 24 60 28 61 31 62 25 63 26 64
REMARK SMILES IDX 29 65 27 66 53 67 54 68 62 69 55 70 56 71 60 72 63 73 57 74
REMARK SMILES IDX 58 75 61 76 59 77 38 78 39 79 47 80 40 81 41 82 45 83 48 84
REMARK SMILES IDX 42 85 43 86 46 87 44 88
REMARK H PARENT 68 41 36 52
REMARK Flexibility Score: inf
ROOT
ATOM      1  C   UNL A   1      31.754  30.032  26.658  1.00  0.00     0.275 C 
ENDROOT
BRANCH   1   2
ATOM      2  C   UNL A   1      31.784  28.602  27.185  1.00  0.00     0.274 C 
BRANCH   2   3
ATOM      3  O   UNL A   1      31.235  27.740  26.173  1.00  0.00    -0.460 OA
BRANCH   3   4
ATOM      4  C   UNL A   1      32.100  27.210  25.256  1.00  0.00     0.343 C 
ATOM      5  O   UNL A   1      33.273  26.943  25.496  1.00  0.00    -0.248 OA
BRANCH   4   6
ATOM      6  C   UNL A   1      31.400  27.007  23.869  1.00  0.00     0.190 C 
ATOM      7  C   UNL A   1      30.923  28.426  23.401  1.00  0.00     0.088 C 
ATOM      8  C   UNL A   1      30.273  26.000  24.104  1.00  0.00    -0.030 C 
ATOM      9  C   UNL A   1      29.432  28.617  23.250  1.00  0.00    -0.037 C 
ATOM     10  C   UNL A   1      28.980  26.326  23.927  1.00  0.00     0.003 C 
ATOM     11  C   UNL A   1      30.653  24.623  24.584  1.00  0.00     0.043 C 
ATOM     12  C   UNL A   1      28.554  27.635  23.501  1.00  0.00     0.004 C 
BRANCH   6  13
ATOM     13  O   UNL A   1      32.371  26.407  22.983  1.00  0.00    -0.362 OA
ATOM     14  C   UNL A   1      32.032  26.214  21.623  1.00  0.00     0.197 C 
ENDBRANCH   6  13
BRANCH   9  15
ATOM     15  C   UNL A   1      28.987  29.954  22.814  1.00  0.00    -0.022 A 
ATOM     16  C   UNL A   1      29.136  31.064  23.654  1.00  0.00     0.008 A 
ATOM     17  C   UNL A   1      28.459  30.141  21.529  1.00  0.00     0.008 A 
ATOM     18  C   UNL A   1      28.778  32.340  23.212  1.00  0.00     0.001 A 
ATOM     19  C   UNL A   1      28.104  31.417  21.086  1.00  0.00     0.001 A 
ATOM     20  C   UNL A   1      28.266  32.516  21.926  1.00  0.00     0.000 A 
ENDBRANCH   9  15
ENDBRANCH   4   6
ENDBRANCH   3   4
ENDBRANCH   2   3
ENDBRANCH   1   2
BRANCH   1  21
ATOM     21  O   UNL A   1      33.110  30.452  26.409  1.00  0.00    -0.458 OA
BRANCH  21  22
ATOM     22  C   UNL A   1      33.575  31.435  27.212  1.00  0.00     0.338 C 
ATOM     23  O   UNL A   1      33.034  32.487  27.504  1.00  0.00    -0.246 OA
BRANCH  22  24
ATOM     24  C   UNL A   1      34.900  31.050  27.722  1.00  0.00     0.060 A 
ATOM     25  C   UNL A   1      35.151  29.717  28.045  1.00  0.00     0.016 A 
ATOM     26  C   UNL A   1      35.847  32.034  28.001  1.00  0.00     0.016 A 
ATOM     27  C   UNL A   1      36.328  29.363  28.709  1.00  0.00     0.010 A 
ATOM     28  C   UNL A   1      37.048  31.673  28.619  1.00  0.00     0.010 A 
ATOM     29  C   UNL A   1      37.280  30.344  29.021  1.00  0.00    -0.014 A 
BRANCH  29  30
ATOM     30  C   UNL A   1      38.456  30.024  29.876  1.00  0.00     0.031 A 
ATOM     31  C   UNL A   1      39.531  29.112  29.343  1.00  0.00     0.074 A 
ATOM     32  C   UNL A   1      38.585  30.540  31.113  1.00  0.00     0.049 A 
ATOM     33  N   UNL A   1      40.546  28.563  29.963  1.00  0.00    -0.248 NA
ATOM     34  C   UNL A   1      39.444  28.766  27.915  1.00  0.00     0.031 C 
ATOM     35  C   UNL A   1      37.659  31.479  31.743  1.00  0.00     0.029 A 
ATOM     36  N   UNL A   1      39.555  30.335  32.065  1.00  0.00    -0.354 N 
ATOM     37  C   UNL A   1      41.184  27.769  29.018  1.00  0.00     0.074 A 
ATOM     38  C   UNL A   1      40.444  27.906  27.782  1.00  0.00     0.031 C 
ATOM     39  C   UNL A   1      38.109  31.778  32.972  1.00  0.00     0.029 A 
ATOM     40  C   UNL A   1      39.322  31.010  33.238  1.00  0.00     0.049 A 
ATOM     41  H   UNL A   1      40.341  29.762  31.920  1.00  0.00     0.167 HD
ATOM     42  C   UNL A   1      42.286  26.997  29.167  1.00  0.00     0.037 A 
ATOM     43  C   UNL A   1      39.993  30.986  34.407  1.00  0.00     0.037 A 
ATOM     44  C   UNL A   1      43.057  26.895  30.378  1.00  0.00     0.049 A 
ATOM     45  C   UNL A   1      41.209  30.113  34.551  1.00  0.00     0.074 A 
ATOM     46  C   UNL A   1      44.184  26.133  30.624  1.00  0.00     0.029 A 
ATOM     47  N   UNL A   1      42.786  27.597  31.542  1.00  0.00    -0.354 N 
ATOM     48  N   UNL A   1      41.771  29.321  33.671  1.00  0.00    -0.248 NA
ATOM     49  C   UNL A   1      41.882  30.126  35.860  1.00  0.00     0.031 C 
ATOM     50  C   UNL A   1      44.588  26.360  31.946  1.00  0.00     0.029 A 
ATOM     51  C   UNL A   1      43.729  27.289  32.509  1.00  0.00     0.049 A 
ATOM     52  H   UNL A   1      42.036  28.223  31.663  1.00  0.00     0.167 HD
ATOM     53  C   UNL A   1      42.867  28.757  34.309  1.00  0.00     0.074 A 
ATOM     54  C   UNL A   1      42.904  29.309  35.647  1.00  0.00     0.031 C 
ATOM     55  C   UNL A   1      43.761  27.858  33.830  1.00  0.00     0.037 A 
BRANCH  42  56
ATOM     56  C   UNL A   1      42.710  26.173  27.988  1.00  0.00     0.064 A 
ATOM     57  C   UNL A   1      43.599  26.665  27.023  1.00  0.00     0.173 A 
ATOM     58  C   UNL A   1      42.233  24.862  27.836  1.00  0.00     0.173 A 
ATOM     59  F   UNL A   1      44.069  27.918  27.115  1.00  0.00    -0.203 F 
ATOM     60  C   UNL A   1      43.978  25.882  25.935  1.00  0.00     0.198 A 
ATOM     61  C   UNL A   1      42.632  24.073  26.760  1.00  0.00     0.198 A 
ATOM     62  F   UNL A   1      41.383  24.343  28.735  1.00  0.00    -0.203 F 
ATOM     63  F   UNL A   1      44.796  26.387  25.001  1.00  0.00    -0.200 F 
ATOM     64  C   UNL A   1      43.499  24.586  25.807  1.00  0.00     0.200 A 
ATOM     65  F   UNL A   1      42.175  22.819  26.644  1.00  0.00    -0.200 F 
ATOM     66  F   UNL A   1      43.866  23.834  24.761  1.00  0.00    -0.200 F 
ENDBRANCH  42  56
BRANCH  43  67
ATOM     67  C   UNL A   1      39.517  31.809  35.547  1.00  0.00     0.064 A 
ATOM     68  C   UNL A   1      38.566  31.309  36.447  1.00  0.00     0.173 A 
ATOM     69  C   UNL A   1      39.995  33.110  35.754  1.00  0.00     0.173 A 
ATOM     70  F   UNL A   1      38.061  30.079  36.272  1.00  0.00    -0.203 F 
ATOM     71  C   UNL A   1      38.102  32.086  37.505  1.00  0.00     0.198 A 
ATOM     72  C   UNL A   1      39.549  33.877  36.827  1.00  0.00     0.198 A 
ATOM     73  F   UNL A   1      40.903  33.633  34.916  1.00  0.00    -0.203 F 
ATOM     74  F   UNL A   1      37.163  31.601  38.329  1.00  0.00    -0.200 F 
ATOM     75  C   UNL A   1      38.598  33.367  37.698  1.00  0.00     0.200 A 
ATOM     76  F   UNL A   1      40.037  35.111  37.015  1.00  0.00    -0.200 F 
ATOM     77  F   UNL A   1      38.153  34.113  38.718  1.00  0.00    -0.200 F 
ENDBRANCH  43  67
BRANCH  55  78
ATOM     78  C   UNL A   1      44.878  27.447  34.743  1.00  0.00     0.064 A 
ATOM     79  C   UNL A   1      46.075  28.174  34.813  1.00  0.00     0.173 A 
ATOM     80  C   UNL A   1      44.736  26.329  35.577  1.00  0.00     0.173 A 
ATOM     81  F   UNL A   1      46.263  29.243  34.023  1.00  0.00    -0.203 F 
ATOM     82  C   UNL A   1      47.101  27.780  35.667  1.00  0.00     0.198 A 
ATOM     83  C   UNL A   1      45.755  25.950  36.447  1.00  0.00     0.198 A 
ATOM     84  F   UNL A   1      43.608  25.604  35.550  1.00  0.00    -0.203 F 
ATOM     85  F   UNL A   1      48.254  28.464  35.688  1.00  0.00    -0.200 F 
ATOM     86  C   UNL A   1      46.939  26.672  36.487  1.00  0.00     0.200 A 
ATOM     87  F   UNL A   1      45.595  24.884  37.242  1.00  0.00    -0.200 F 
ATOM     88  F   UNL A   1      47.928  26.294  37.308  1.00  0.00    -0.200 F 
ENDBRANCH  55  78
ENDBRANCH  29  30
ENDBRANCH  22  24
ENDBRANCH  21  22
ENDBRANCH   1  21
TORSDOF 13
ENDMDL
MODEL 2
REMARK VINA RESULT:     -12.4      0.214      1.631
REMARK SMILES CO[C@@]1(C(=O)OCCOC(=O)c2ccc(-c3c4nc(c(-c5c(F)c(F)c(F)c(F)c5F)c5ccc([nH]5)c(-c5c(F)c(F)c(F)c(F)c5F)c5nc(c(-c6c(F)c(F)c(F)c(F)c6F)c6ccc3[nH]6)C=C5)C=C4)cc2)CC(c2ccccc2)=CC=C1C
REMARK SMILES IDX 8 1 7 2 6 3 4 4 5 5 3 6 75 7 85 8 76 9 84 10 86 11 83 12
REMARK SMILES IDX 2 13 1 14 77 15 78 16 82 17 79 18 81 19 80 20 9 21 10 22
REMARK SMILES IDX 11 23 12 24 13 25 74 26 14 27 73 28 15 29 16 30 17 31 67 32
REMARK SMILES IDX 18 33 72 34 66 35 68 36 19 37 71 38 65 39 64 40 20 42 52 43
REMARK SMILES IDX 32 44 51 45 33 46 36 47 50 48 69 49 34 50 35 51 49 53 70 54
REMARK SMILES IDX 37 55 21 56 22 57 30 58 23 59 24 60 28 61 31 62 25 63 26 64
REMARK SMILES IDX 29 65 27 66 53 67 54 68 62 69 55 70 56 71 60 72 63 73 57 74
REMARK SMILES IDX 58 75 61 76 59 77 38 78 39 79 47 80 40 81 41 82 45 83 48 84
REMARK SMILES IDX 42 85 43 86 46 87 44 88
REMARK H PARENT 68 41 36 52
REMARK Flexibility Score: inf
ROOT
ATOM      1  C   UNL A   1      31.761  30.068  26.646  1.00  0.00     0.275 C 
ENDROOT
BRANCH   1   2
ATOM      2  C   UNL A   1      31.776  28.650  27.206  1.00  0.00     0.274 C 
BRANCH   2   3
ATOM      3  O   UNL A   1      31.221  27.770  26.214  1.00  0.00    -0.460 OA
BRANCH   3   4
ATOM      4  C   UNL A   1      32.085  27.191  25.326  1.00  0.00     0.343 C 
ATOM      5  O   UNL A   1      33.237  26.872  25.603  1.00  0.00    -0.248 OA
BRANCH   4   6
ATOM      6  C   UNL A   1      31.416  27.007  23.921  1.00  0.00     0.190 C 
ATOM      7  C   UNL A   1      30.950  28.433  23.464  1.00  0.00     0.088 C 
ATOM      8  C   UNL A   1      30.284  25.998  24.118  1.00  0.00    -0.030 C 
ATOM      9  C   UNL A   1      29.463  28.627  23.283  1.00  0.00    -0.037 C 
ATOM     10  C   UNL A   1      28.995  26.327  23.917  1.00  0.00     0.003 C 
ATOM     11  C   UNL A   1      30.653  24.614  24.587  1.00  0.00     0.043 C 
ATOM     12  C   UNL A   1      28.579  27.642  23.500  1.00  0.00     0.004 C 
BRANCH   6  13
ATOM     13  O   UNL A   1      32.406  26.419  23.049  1.00  0.00    -0.362 OA
ATOM     14  C   UNL A   1      32.118  26.293  21.670  1.00  0.00     0.197 C 
ENDBRANCH   6  13
BRANCH   9  15
ATOM     15  C   UNL A   1      29.028  29.970  22.855  1.00  0.00    -0.022 A 
ATOM     16  C   UNL A   1      29.127  31.061  23.726  1.00  0.00     0.008 A 
ATOM     17  C   UNL A   1      28.560  30.182  21.550  1.00  0.00     0.008 A 
ATOM     18  C   UNL A   1      28.779  32.344  23.295  1.00  0.00     0.001 A 
ATOM     19  C   UNL A   1      28.215  31.465  21.119  1.00  0.00     0.001 A 
ATOM     20  C   UNL A   1      28.328  32.545  21.991  1.00  0.00     0.000 A 
ENDBRANCH   9  15
ENDBRANCH   4   6
ENDBRANCH   3   4
ENDBRANCH   2   3
ENDBRANCH   1   2
BRANCH   1  21
ATOM     21  O   UNL A   1      33.121  30.477  26.409  1.00  0.00    -0.458 OA
BRANCH  21  22
ATOM     22  C   UNL A   1      33.596  31.438  27.232  1.00  0.00     0.338 C 
ATOM     23  O   UNL A   1      33.060  32.482  27.556  1.00  0.00    -0.246 OA
BRANCH  22  24
ATOM     24  C   UNL A   1      34.925  31.037  27.719  1.00  0.00     0.060 A 
ATOM     25  C   UNL A   1      35.173  29.698  28.019  1.00  0.00     0.016 A 
ATOM     26  C   UNL A   1      35.882  32.011  28.000  1.00  0.00     0.016 A 
ATOM     27  C   UNL A   1      36.355  29.327  28.662  1.00  0.00     0.010 A 
ATOM     28  C   UNL A   1      37.088  31.634  28.597  1.00  0.00     0.010 A 
ATOM     29  C   UNL A   1      37.318  30.298  28.977  1.00  0.00    -0.014 A 
BRANCH  29  30
ATOM     30  C   UNL A   1      38.502  29.957  29.811  1.00  0.00     0.031 A 
ATOM     31  C   UNL A   1      39.550  29.023  29.261  1.00  0.00     0.074 A 
ATOM     32  C   UNL A   1      38.664  30.474  31.043  1.00  0.00     0.049 A 
ATOM     33  N   UNL A   1      40.565  28.457  29.865  1.00  0.00    -0.248 NA
ATOM     34  C   UNL A   1      39.431  28.675  27.836  1.00  0.00     0.031 C 
ATOM     35  C   UNL A   1      37.767  31.433  31.687  1.00  0.00     0.029 A 
ATOM     36  N   UNL A   1      39.647  30.255  31.979  1.00  0.00    -0.354 N 
ATOM     37  C   UNL A   1      41.170  27.648  28.912  1.00  0.00     0.074 A 
ATOM     38  C   UNL A   1      40.411  27.795  27.689  1.00  0.00     0.031 C 
ATOM     39  C   UNL A   1      38.245  31.728  32.907  1.00  0.00     0.029 A 
ATOM     40  C   UNL A   1      39.448  30.937  33.153  1.00  0.00     0.049 A 
ATOM     41  H   UNL A   1      40.419  29.666  31.821  1.00  0.00     0.167 HD
ATOM     42  C   UNL A   1      42.260  26.855  29.043  1.00  0.00     0.037 A 
ATOM     43  C   UNL A   1      40.139  30.904  34.310  1.00  0.00     0.037 A 
ATOM     44  C   UNL A   1      43.050  26.742  30.240  1.00  0.00     0.049 A 
ATOM     45  C   UNL A   1      41.341  30.008  34.435  1.00  0.00     0.074 A 
ATOM     46  C   UNL A   1      44.168  25.959  30.469  1.00  0.00     0.029 A 
ATOM     47  N   UNL A   1      42.814  27.453  31.406  1.00  0.00    -0.354 N 
ATOM     48  N   UNL A   1      41.872  29.203  33.548  1.00  0.00    -0.248 NA
ATOM     49  C   UNL A   1      42.038  30.013  35.731  1.00  0.00     0.031 C 
ATOM     50  C   UNL A   1      44.599  26.182  31.782  1.00  0.00     0.029 A 
ATOM     51  C   UNL A   1      43.769  27.130  32.358  1.00  0.00     0.049 A 
ATOM     52  H   UNL A   1      42.079  28.094  31.539  1.00  0.00     0.167 HD
ATOM     53  C   UNL A   1      42.968  28.619  34.168  1.00  0.00     0.074 A 
ATOM     54  C   UNL A   1      43.040  29.175  35.503  1.00  0.00     0.031 C 
ATOM     55  C   UNL A   1      43.836  27.702  33.676  1.00  0.00     0.037 A 
BRANCH  42  56
ATOM     56  C   UNL A   1      42.647  26.019  27.860  1.00  0.00     0.064 A 
ATOM     57  C   UNL A   1      42.039  24.784  27.596  1.00  0.00     0.173 A 
ATOM     58  C   UNL A   1      43.629  26.474  26.966  1.00  0.00     0.173 A 
ATOM     59  F   UNL A   1      41.107  24.299  28.430  1.00  0.00    -0.203 F 
ATOM     60  C   UNL A   1      42.416  24.023  26.491  1.00  0.00     0.198 A 
ATOM     61  C   UNL A   1      43.987  25.722  25.850  1.00  0.00     0.198 A 
ATOM     62  F   UNL A   1      44.238  27.651  27.173  1.00  0.00    -0.203 F 
ATOM     63  F   UNL A   1      41.852  22.826  26.282  1.00  0.00    -0.200 F 
ATOM     64  C   UNL A   1      43.385  24.495  25.617  1.00  0.00     0.200 A 
ATOM     65  F   UNL A   1      44.916  26.183  25.003  1.00  0.00    -0.200 F 
ATOM     66  F   UNL A   1      43.745  23.763  24.554  1.00  0.00    -0.200 F 
ENDBRANCH  42  56
BRANCH  43  67
ATOM     67  C   UNL A   1      39.700  31.739  35.455  1.00  0.00     0.064 A 
ATOM     68  C   UNL A   1      38.721  31.280  36.346  1.00  0.00     0.173 A 
ATOM     69  C   UNL A   1      40.242  33.013  35.677  1.00  0.00     0.173 A 
ATOM     70  F   UNL A   1      38.155  30.078  36.158  1.00  0.00    -0.203 F 
ATOM     71  C   UNL A   1      38.291  32.070  37.410  1.00  0.00     0.198 A 
ATOM     72  C   UNL A   1      39.831  33.792  36.755  1.00  0.00     0.198 A 
ATOM     73  F   UNL A   1      41.180  33.497  34.848  1.00  0.00    -0.203 F 
ATOM     74  F   UNL A   1      37.325  31.625  38.225  1.00  0.00    -0.200 F 
ATOM     75  C   UNL A   1      38.851  33.322  37.617  1.00  0.00     0.200 A 
ATOM     76  F   UNL A   1      40.379  34.997  36.956  1.00  0.00    -0.200 F 
ATOM     77  F   UNL A   1      38.439  34.080  38.642  1.00  0.00    -0.200 F 
ENDBRANCH  43  67
BRANCH  55  78
ATOM     78  C   UNL A   1      44.961  27.273  34.570  1.00  0.00     0.064 A 
ATOM     79  C   UNL A   1      44.843  26.160  35.416  1.00  0.00     0.173 A 
ATOM     80  C   UNL A   1      46.178  27.969  34.561  1.00  0.00     0.173 A 
ATOM     81  F   UNL A   1      43.693  25.473  35.470  1.00  0.00    -0.203 F 
ATOM     82  C   UNL A   1      45.898  25.775  36.239  1.00  0.00     0.198 A 
ATOM     83  C   UNL A   1      47.238  27.568  35.369  1.00  0.00     0.198 A 
ATOM     84  F   UNL A   1      46.340  29.038  33.766  1.00  0.00    -0.203 F 
ATOM     85  F   UNL A   1      45.750  24.734  37.071  1.00  0.00    -0.200 F 
ATOM     86  C   UNL A   1      47.096  26.475  36.212  1.00  0.00     0.200 A 
ATOM     87  F   UNL A   1      48.396  28.241  35.338  1.00  0.00    -0.200 F 
ATOM     88  F   UNL A   1      48.109  26.103  37.006  1.00  0.00    -0.200 F 
ENDBRANCH  55  78
ENDBRANCH  29  30
ENDBRANCH  22  24
ENDBRANCH  21  22
ENDBRANCH   1  21
TORSDOF 13
ENDMDL
MODEL 3
REMARK VINA RESULT:     -12.3      5.073     10.424
REMARK SMILES CO[C@@]1(C(=O)OCCOC(=O)c2ccc(-c3c4nc(c(-c5c(F)c(F)c(F)c(F)c5F)c5ccc([nH]5)c(-c5c(F)c(F)c(F)c(F)c5F)c5nc(c(-c6c(F)c(F)c(F)c(F)c6F)c6ccc3[nH]6)C=C5)C=C4)cc2)CC(c2ccccc2)=CC=C1C
REMARK SMILES IDX 8 1 7 2 6 3 4 4 5 5 3 6 75 7 85 8 76 9 84 10 86 11 83 12
REMARK SMILES IDX 2 13 1 14 77 15 78 16 82 17 79 18 81 19 80 20 9 21 10 22
REMARK SMILES IDX 11 23 12 24 13 25 74 26 14 27 73 28 15 29 16 30 17 31 67 32
REMARK SMILES IDX 18 33 72 34 66 35 68 36 19 37 71 38 65 39 64 40 20 42 52 43
REMARK SMILES IDX 32 44 51 45 33 46 36 47 50 48 69 49 34 50 35 51 49 53 70 54
REMARK SMILES IDX 37 55 21 56 22 57 30 58 23 59 24 60 28 61 31 62 25 63 26 64
REMARK SMILES IDX 29 65 27 66 53 67 54 68 62 69 55 70 56 71 60 72 63 73 57 74
REMARK SMILES IDX 58 75 61 76 59 77 38 78 39 79 47 80 40 81 41 82 45 83 48 84
REMARK SMILES IDX 42 85 43 86 46 87 44 88
REMARK H PARENT 68 41 36 52
REMARK Flexibility Score: inf
ROOT
ATOM      1  C   UNL A   1      37.202  21.105  24.619  1.00  0.00     0.275 C 
ENDROOT
BRANCH   1   2
ATOM      2  C   UNL A   1      36.861  22.333  23.782  1.00  0.00     0.274 C 
BRANCH   2   3
ATOM      3  O   UNL A   1      35.430  22.408  23.658  1.00  0.00    -0.460 OA
BRANCH   3   4
ATOM      4  C   UNL A   1      34.745  23.087  24.627  1.00  0.00     0.343 C 
ATOM      5  O   UNL A   1      35.210  24.028  25.262  1.00  0.00    -0.248 OA
BRANCH   4   6
ATOM      6  C   UNL A   1      33.306  22.497  24.823  1.00  0.00     0.190 C 
ATOM      7  C   UNL A   1      33.491  20.963  25.097  1.00  0.00     0.088 C 
ATOM      8  C   UNL A   1      32.532  22.828  23.546  1.00  0.00    -0.030 C 
ATOM      9  C   UNL A   1      32.894  20.022  24.077  1.00  0.00    -0.037 C 
ATOM     10  C   UNL A   1      32.062  21.867  22.730  1.00  0.00     0.003 C 
ATOM     11  C   UNL A   1      32.342  24.283  23.201  1.00  0.00     0.043 C 
ATOM     12  C   UNL A   1      32.241  20.462  22.991  1.00  0.00     0.004 C 
BRANCH   6  13
ATOM     13  O   UNL A   1      32.698  23.207  25.924  1.00  0.00    -0.362 OA
ATOM     14  C   UNL A   1      32.632  22.583  27.191  1.00  0.00     0.197 C 
ENDBRANCH   6  13
BRANCH   9  15
ATOM     15  C   UNL A   1      33.072  18.582  24.336  1.00  0.00    -0.022 A 
ATOM     16  C   UNL A   1      33.707  17.762  23.395  1.00  0.00     0.008 A 
ATOM     17  C   UNL A   1      32.658  18.023  25.553  1.00  0.00     0.008 A 
ATOM     18  C   UNL A   1      33.936  16.412  23.673  1.00  0.00     0.001 A 
ATOM     19  C   UNL A   1      32.890  16.674  25.832  1.00  0.00     0.001 A 
ATOM     20  C   UNL A   1      33.532  15.871  24.893  1.00  0.00     0.000 A 
ENDBRANCH   9  15
ENDBRANCH   4   6
ENDBRANCH   3   4
ENDBRANCH   2   3
ENDBRANCH   1   2
BRANCH   1  21
ATOM     21  O   UNL A   1      37.678  21.550  25.904  1.00  0.00    -0.458 OA
BRANCH  21  22
ATOM     22  C   UNL A   1      39.005  21.402  26.119  1.00  0.00     0.338 C 
ATOM     23  O   UNL A   1      39.702  20.433  25.880  1.00  0.00    -0.246 OA
BRANCH  22  24
ATOM     24  C   UNL A   1      39.533  22.638  26.716  1.00  0.00     0.060 A 
ATOM     25  C   UNL A   1      39.036  23.871  26.297  1.00  0.00     0.016 A 
ATOM     26  C   UNL A   1      40.612  22.576  27.596  1.00  0.00     0.016 A 
ATOM     27  C   UNL A   1      39.654  25.055  26.704  1.00  0.00     0.010 A 
ATOM     28  C   UNL A   1      41.200  23.762  28.045  1.00  0.00     0.010 A 
ATOM     29  C   UNL A   1      40.758  25.010  27.568  1.00  0.00    -0.014 A 
BRANCH  29  30
ATOM     30  C   UNL A   1      41.538  26.240  27.878  1.00  0.00     0.031 A 
ATOM     31  C   UNL A   1      40.901  27.331  28.701  1.00  0.00     0.074 A 
ATOM     32  C   UNL A   1      42.803  26.395  27.448  1.00  0.00     0.049 A 
ATOM     33  N   UNL A   1      41.322  28.546  28.946  1.00  0.00    -0.248 NA
ATOM     34  C   UNL A   1      39.608  27.007  29.326  1.00  0.00     0.031 C 
ATOM     35  C   UNL A   1      43.571  25.406  26.692  1.00  0.00     0.029 A 
ATOM     36  N   UNL A   1      43.666  27.456  27.584  1.00  0.00    -0.354 N 
ATOM     37  C   UNL A   1      40.326  29.147  29.706  1.00  0.00     0.074 A 
ATOM     38  C   UNL A   1      39.279  28.164  29.883  1.00  0.00     0.031 C 
ATOM     39  C   UNL A   1      44.794  25.902  26.440  1.00  0.00     0.029 A 
ATOM     40  C   UNL A   1      44.876  27.262  26.965  1.00  0.00     0.049 A 
ATOM     41  H   UNL A   1      43.438  28.276  28.078  1.00  0.00     0.167 HD
ATOM     42  C   UNL A   1      40.286  30.403  30.211  1.00  0.00     0.037 A 
ATOM     43  C   UNL A   1      45.921  28.098  26.810  1.00  0.00     0.037 A 
ATOM     44  C   UNL A   1      41.345  31.369  30.083  1.00  0.00     0.049 A 
ATOM     45  C   UNL A   1      45.852  29.493  27.372  1.00  0.00     0.074 A 
ATOM     46  C   UNL A   1      41.392  32.669  30.555  1.00  0.00     0.029 A 
ATOM     47  N   UNL A   1      42.554  31.129  29.449  1.00  0.00    -0.354 N 
ATOM     48  N   UNL A   1      44.883  30.070  28.038  1.00  0.00    -0.248 NA
ATOM     49  C   UNL A   1      47.024  30.354  27.152  1.00  0.00     0.031 C 
ATOM     50  C   UNL A   1      42.625  33.224  30.192  1.00  0.00     0.029 A 
ATOM     51  C   UNL A   1      43.357  32.257  29.523  1.00  0.00     0.049 A 
ATOM     52  H   UNL A   1      42.806  30.284  29.013  1.00  0.00     0.167 HD
ATOM     53  C   UNL A   1      45.331  31.351  28.330  1.00  0.00     0.074 A 
ATOM     54  C   UNL A   1      46.667  31.463  27.784  1.00  0.00     0.031 C 
ATOM     55  C   UNL A   1      44.690  32.348  28.989  1.00  0.00     0.037 A 
BRANCH  42  56
ATOM     56  C   UNL A   1      39.037  30.815  30.930  1.00  0.00     0.064 A 
ATOM     57  C   UNL A   1      37.943  31.370  30.252  1.00  0.00     0.173 A 
ATOM     58  C   UNL A   1      38.928  30.631  32.317  1.00  0.00     0.173 A 
ATOM     59  F   UNL A   1      38.005  31.582  28.929  1.00  0.00    -0.203 F 
ATOM     60  C   UNL A   1      36.792  31.748  30.941  1.00  0.00     0.198 A 
ATOM     61  C   UNL A   1      37.768  30.987  32.999  1.00  0.00     0.198 A 
ATOM     62  F   UNL A   1      39.946  30.100  33.010  1.00  0.00    -0.203 F 
ATOM     63  F   UNL A   1      35.775  32.317  30.280  1.00  0.00    -0.200 F 
ATOM     64  C   UNL A   1      36.704  31.552  32.312  1.00  0.00     0.200 A 
ATOM     65  F   UNL A   1      37.682  30.789  34.321  1.00  0.00    -0.200 F 
ATOM     66  F   UNL A   1      35.596  31.914  32.972  1.00  0.00    -0.200 F 
ENDBRANCH  42  56
BRANCH  43  67
ATOM     67  C   UNL A   1      47.127  27.643  26.073  1.00  0.00     0.064 A 
ATOM     68  C   UNL A   1      47.192  27.733  24.677  1.00  0.00     0.173 A 
ATOM     69  C   UNL A   1      48.231  27.103  26.748  1.00  0.00     0.173 A 
ATOM     70  F   UNL A   1      46.149  28.219  23.987  1.00  0.00    -0.203 F 
ATOM     71  C   UNL A   1      48.313  27.287  23.980  1.00  0.00     0.198 A 
ATOM     72  C   UNL A   1      49.361  26.681  26.053  1.00  0.00     0.198 A 
ATOM     73  F   UNL A   1      48.213  26.993  28.085  1.00  0.00    -0.203 F 
ATOM     74  F   UNL A   1      48.336  27.347  22.642  1.00  0.00    -0.200 F 
ATOM     75  C   UNL A   1      49.399  26.767  24.670  1.00  0.00     0.200 A 
ATOM     76  F   UNL A   1      50.411  26.187  26.723  1.00  0.00    -0.200 F 
ATOM     77  F   UNL A   1      50.478  26.341  23.999  1.00  0.00    -0.200 F 
ENDBRANCH  43  67
BRANCH  55  78
ATOM     78  C   UNL A   1      45.441  33.630  29.191  1.00  0.00     0.064 A 
ATOM     79  C   UNL A   1      46.258  33.833  30.313  1.00  0.00     0.173 A 
ATOM     80  C   UNL A   1      45.361  34.655  28.238  1.00  0.00     0.173 A 
ATOM     81  F   UNL A   1      46.354  32.886  31.258  1.00  0.00    -0.203 F 
ATOM     82  C   UNL A   1      46.950  35.029  30.485  1.00  0.00     0.198 A 
ATOM     83  C   UNL A   1      46.071  35.842  28.403  1.00  0.00     0.198 A 
ATOM     84  F   UNL A   1      44.595  34.507  27.147  1.00  0.00    -0.203 F 
ATOM     85  F   UNL A   1      47.693  35.219  31.584  1.00  0.00    -0.200 F 
ATOM     86  C   UNL A   1      46.860  36.030  29.528  1.00  0.00     0.200 A 
ATOM     87  F   UNL A   1      45.988  36.805  27.475  1.00  0.00    -0.200 F 
ATOM     88  F   UNL A   1      47.526  37.180  29.696  1.00  0.00    -0.200 F 
ENDBRANCH  55  78
ENDBRANCH  29  30
ENDBRANCH  22  24
ENDBRANCH  21  22
ENDBRANCH   1  21
TORSDOF 13
ENDMDL
