MODEL 1
REMARK VINA RESULT:     -10.5      0.000      0.000
REMARK SMILES CC[C@@H](C(=O)OCCOC(=O)c1ccc(-c2c3nc(c(-c4c(F)c(F)c(F)c(F)c4F)c4ccc([nH]4)c(-c4c(F)c(F)c(F)c(F)c4F)c4nc(c(-c5c(F)c(F)c(F)c(F)c5F)c5ccc2[nH]5)C=C4)C=C3)cc1)c1cc(Br)ccc1F
REMARK SMILES IDX 8 1 7 2 6 3 4 4 5 5 3 6 2 7 1 8 75 9 76 10 81 11 77 12 80 13
REMARK SMILES IDX 82 14 78 15 79 16 9 17 10 18 11 19 12 20 13 21 74 22 14 23
REMARK SMILES IDX 73 24 15 25 16 26 17 27 67 28 18 29 72 30 66 31 68 32 19 33
REMARK SMILES IDX 71 34 65 35 64 36 20 38 52 39 32 40 51 41 33 42 36 43 50 44
REMARK SMILES IDX 69 45 34 46 35 47 49 49 70 50 37 51 21 52 22 53 30 54 23 55
REMARK SMILES IDX 24 56 28 57 31 58 25 59 26 60 29 61 27 62 53 63 54 64 62 65
REMARK SMILES IDX 55 66 56 67 60 68 63 69 57 70 58 71 61 72 59 73 38 74 39 75
REMARK SMILES IDX 47 76 40 77 41 78 45 79 48 80 42 81 43 82 46 83 44 84
REMARK H PARENT 68 37 36 48
REMARK Flexibility Score: inf
ROOT
ATOM      1  C   UNL A   1      34.505  33.104  27.999  1.00  0.00     0.275 C 
ENDROOT
BRANCH   1   2
ATOM      2  C   UNL A   1      33.276  34.023  28.053  1.00  0.00     0.274 C 
BRANCH   2   3
ATOM      3  O   UNL A   1      32.751  34.185  29.387  1.00  0.00    -0.462 OA
BRANCH   3   4
ATOM      4  C   UNL A   1      32.890  35.416  29.955  1.00  0.00     0.313 C 
ATOM      5  O   UNL A   1      32.720  36.453  29.326  1.00  0.00    -0.252 OA
BRANCH   4   6
ATOM      6  C   UNL A   1      33.327  35.327  31.441  1.00  0.00     0.132 C 
BRANCH   6   7
ATOM      7  C   UNL A   1      33.594  36.731  32.055  1.00  0.00     0.017 C 
ATOM      8  C   UNL A   1      33.972  36.786  33.529  1.00  0.00     0.005 C 
ENDBRANCH   6   7
BRANCH   6   9
ATOM      9  C   UNL A   1      34.542  34.379  31.618  1.00  0.00     0.003 A 
ATOM     10  C   UNL A   1      35.702  34.444  30.818  1.00  0.00     0.023 A 
ATOM     11  C   UNL A   1      34.510  33.371  32.596  1.00  0.00     0.127 A 
ATOM     12  C   UNL A   1      36.729  33.500  30.948  1.00  0.00     0.018 A 
ATOM     13  C   UNL A   1      35.512  32.403  32.699  1.00  0.00     0.041 A 
ATOM     14  F   UNL A   1      33.488  33.309  33.462  1.00  0.00    -0.207 F 
ATOM     15  Br  UNL A   1      38.250  33.615  29.831  1.00  0.00    -0.051 Br
ATOM     16  C   UNL A   1      36.626  32.461  31.867  1.00  0.00     0.019 A 
ENDBRANCH   6   9
ENDBRANCH   4   6
ENDBRANCH   3   4
ENDBRANCH   2   3
ENDBRANCH   1   2
BRANCH   1  17
ATOM     17  O   UNL A   1      34.271  31.849  28.668  1.00  0.00    -0.458 OA
BRANCH  17  18
ATOM     18  C   UNL A   1      34.633  30.742  27.977  1.00  0.00     0.338 C 
ATOM     19  O   UNL A   1      34.102  30.302  26.967  1.00  0.00    -0.246 OA
BRANCH  18  20
ATOM     20  C   UNL A   1      35.929  30.241  28.478  1.00  0.00     0.060 A 
ATOM     21  C   UNL A   1      37.017  30.359  27.610  1.00  0.00     0.016 A 
ATOM     22  C   UNL A   1      36.104  29.682  29.744  1.00  0.00     0.016 A 
ATOM     23  C   UNL A   1      38.293  29.987  28.016  1.00  0.00     0.010 A 
ATOM     24  C   UNL A   1      37.385  29.262  30.139  1.00  0.00     0.010 A 
ATOM     25  C   UNL A   1      38.486  29.430  29.282  1.00  0.00    -0.014 A 
BRANCH  25  26
ATOM     26  C   UNL A   1      39.845  28.964  29.641  1.00  0.00     0.031 A 
ATOM     27  C   UNL A   1      40.646  29.739  30.643  1.00  0.00     0.074 A 
ATOM     28  C   UNL A   1      40.313  27.795  29.169  1.00  0.00     0.049 A 
ATOM     29  N   UNL A   1      41.865  29.531  31.072  1.00  0.00    -0.248 NA
ATOM     30  C   UNL A   1      39.972  30.888  31.266  1.00  0.00     0.031 C 
ATOM     31  C   UNL A   1      39.572  26.876  28.308  1.00  0.00     0.029 A 
ATOM     32  N   UNL A   1      41.522  27.175  29.363  1.00  0.00    -0.354 N 
ATOM     33  C   UNL A   1      42.106  30.521  32.012  1.00  0.00     0.074 A 
ATOM     34  C   UNL A   1      40.908  31.332  32.091  1.00  0.00     0.031 C 
ATOM     35  C   UNL A   1      40.348  25.811  28.040  1.00  0.00     0.029 A 
ATOM     36  C   UNL A   1      41.654  25.999  28.667  1.00  0.00     0.049 A 
ATOM     37  H   UNL A   1      42.228  27.540  29.945  1.00  0.00     0.167 HD
ATOM     38  C   UNL A   1      43.229  30.740  32.736  1.00  0.00     0.037 A 
ATOM     39  C   UNL A   1      42.723  25.190  28.528  1.00  0.00     0.037 A 
ATOM     40  C   UNL A   1      44.427  29.950  32.637  1.00  0.00     0.049 A 
ATOM     41  C   UNL A   1      44.016  25.551  29.215  1.00  0.00     0.074 A 
ATOM     42  C   UNL A   1      45.638  30.130  33.283  1.00  0.00     0.029 A 
ATOM     43  N   UNL A   1      44.567  28.829  31.832  1.00  0.00    -0.354 N 
ATOM     44  N   UNL A   1      44.266  26.523  30.057  1.00  0.00    -0.248 NA
ATOM     45  C   UNL A   1      45.185  24.709  28.912  1.00  0.00     0.031 C 
ATOM     46  C   UNL A   1      46.526  29.149  32.830  1.00  0.00     0.029 A 
ATOM     47  C   UNL A   1      45.854  28.325  31.942  1.00  0.00     0.049 A 
ATOM     48  H   UNL A   1      43.858  28.448  31.265  1.00  0.00     0.167 HD
ATOM     49  C   UNL A   1      45.606  26.398  30.403  1.00  0.00     0.074 A 
ATOM     50  C   UNL A   1      46.115  25.245  29.692  1.00  0.00     0.031 C 
ATOM     51  C   UNL A   1      46.347  27.170  31.235  1.00  0.00     0.037 A 
BRANCH  38  52
ATOM     52  C   UNL A   1      43.231  31.929  33.647  1.00  0.00     0.064 A 
ATOM     53  C   UNL A   1      42.819  31.838  34.985  1.00  0.00     0.173 A 
ATOM     54  C   UNL A   1      43.655  33.179  33.171  1.00  0.00     0.173 A 
ATOM     55  F   UNL A   1      42.386  30.669  35.480  1.00  0.00    -0.203 F 
ATOM     56  C   UNL A   1      42.808  32.963  35.805  1.00  0.00     0.198 A 
ATOM     57  C   UNL A   1      43.667  34.295  34.002  1.00  0.00     0.198 A 
ATOM     58  F   UNL A   1      44.059  33.317  31.900  1.00  0.00    -0.203 F 
ATOM     59  F   UNL A   1      42.365  32.866  37.067  1.00  0.00    -0.200 F 
ATOM     60  C   UNL A   1      43.236  34.188  35.316  1.00  0.00     0.200 A 
ATOM     61  F   UNL A   1      44.089  35.475  33.528  1.00  0.00    -0.200 F 
ATOM     62  F   UNL A   1      43.223  35.270  36.107  1.00  0.00    -0.200 F 
ENDBRANCH  38  52
BRANCH  39  63
ATOM     63  C   UNL A   1      42.647  23.986  27.657  1.00  0.00     0.064 A 
ATOM     64  C   UNL A   1      42.305  22.733  28.183  1.00  0.00     0.173 A 
ATOM     65  C   UNL A   1      42.965  24.055  26.292  1.00  0.00     0.173 A 
ATOM     66  F   UNL A   1      42.026  22.608  29.489  1.00  0.00    -0.203 F 
ATOM     67  C   UNL A   1      42.304  21.592  27.382  1.00  0.00     0.198 A 
ATOM     68  C   UNL A   1      42.933  22.920  25.486  1.00  0.00     0.198 A 
ATOM     69  F   UNL A   1      43.313  25.227  25.742  1.00  0.00    -0.203 F 
ATOM     70  F   UNL A   1      42.028  20.397  27.922  1.00  0.00    -0.200 F 
ATOM     71  C   UNL A   1      42.612  21.687  26.033  1.00  0.00     0.200 A 
ATOM     72  F   UNL A   1      43.228  23.018  24.183  1.00  0.00    -0.200 F 
ATOM     73  F   UNL A   1      42.617  20.590  25.264  1.00  0.00    -0.200 F 
ENDBRANCH  39  63
BRANCH  51  74
ATOM     74  C   UNL A   1      47.781  26.781  31.450  1.00  0.00     0.064 A 
ATOM     75  C   UNL A   1      48.149  25.817  32.400  1.00  0.00     0.173 A 
ATOM     76  C   UNL A   1      48.796  27.340  30.657  1.00  0.00     0.173 A 
ATOM     77  F   UNL A   1      47.220  25.263  33.194  1.00  0.00    -0.203 F 
ATOM     78  C   UNL A   1      49.480  25.439  32.558  1.00  0.00     0.198 A 
ATOM     79  C   UNL A   1      50.121  26.939  30.798  1.00  0.00     0.198 A 
ATOM     80  F   UNL A   1      48.497  28.263  29.730  1.00  0.00    -0.203 F 
ATOM     81  F   UNL A   1      49.812  24.544  33.499  1.00  0.00    -0.200 F 
ATOM     82  C   UNL A   1      50.463  25.993  31.752  1.00  0.00     0.200 A 
ATOM     83  F   UNL A   1      51.068  27.466  30.009  1.00  0.00    -0.200 F 
ATOM     84  F   UNL A   1      51.741  25.619  31.899  1.00  0.00    -0.200 F 
ENDBRANCH  51  74
ENDBRANCH  25  26
ENDBRANCH  18  20
ENDBRANCH  17  18
ENDBRANCH   1  17
TORSDOF 13
ENDMDL
MODEL 2
REMARK VINA RESULT:     -10.4      3.843     10.955
REMARK SMILES CC[C@@H](C(=O)OCCOC(=O)c1ccc(-c2c3nc(c(-c4c(F)c(F)c(F)c(F)c4F)c4ccc([nH]4)c(-c4c(F)c(F)c(F)c(F)c4F)c4nc(c(-c5c(F)c(F)c(F)c(F)c5F)c5ccc2[nH]5)C=C4)C=C3)cc1)c1cc(Br)ccc1F
REMARK SMILES IDX 8 1 7 2 6 3 4 4 5 5 3 6 2 7 1 8 75 9 76 10 81 11 77 12 80 13
REMARK SMILES IDX 82 14 78 15 79 16 9 17 10 18 11 19 12 20 13 21 74 22 14 23
REMARK SMILES IDX 73 24 15 25 16 26 17 27 67 28 18 29 72 30 66 31 68 32 19 33
REMARK SMILES IDX 71 34 65 35 64 36 20 38 52 39 32 40 51 41 33 42 36 43 50 44
REMARK SMILES IDX 69 45 34 46 35 47 49 49 70 50 37 51 21 52 22 53 30 54 23 55
REMARK SMILES IDX 24 56 28 57 31 58 25 59 26 60 29 61 27 62 53 63 54 64 62 65
REMARK SMILES IDX 55 66 56 67 60 68 63 69 57 70 58 71 61 72 59 73 38 74 39 75
REMARK SMILES IDX 47 76 40 77 41 78 45 79 48 80 42 81 43 82 46 83 44 84
REMARK H PARENT 68 37 36 48
REMARK Flexibility Score: inf
ROOT
ATOM      1  C   UNL A   1      40.094  20.802  26.185  1.00  0.00     0.275 C 
ENDROOT
BRANCH   1   2
ATOM      2  C   UNL A   1      41.625  20.805  26.061  1.00  0.00     0.274 C 
BRANCH   2   3
ATOM      3  O   UNL A   1      42.149  22.062  25.584  1.00  0.00    -0.462 OA
BRANCH   3   4
ATOM      4  C   UNL A   1      43.505  22.197  25.575  1.00  0.00     0.313 C 
ATOM      5  O   UNL A   1      44.210  21.688  24.713  1.00  0.00    -0.252 OA
BRANCH   4   6
ATOM      6  C   UNL A   1      44.019  23.011  26.791  1.00  0.00     0.132 C 
BRANCH   6   7
ATOM      7  C   UNL A   1      42.853  23.571  27.653  1.00  0.00     0.017 C 
ATOM      8  C   UNL A   1      42.683  22.996  29.053  1.00  0.00     0.005 C 
ENDBRANCH   6   7
BRANCH   6   9
ATOM      9  C   UNL A   1      45.001  24.128  26.351  1.00  0.00     0.003 A 
ATOM     10  C   UNL A   1      46.348  24.187  26.766  1.00  0.00     0.023 A 
ATOM     11  C   UNL A   1      44.553  25.170  25.521  1.00  0.00     0.127 A 
ATOM     12  C   UNL A   1      47.166  25.272  26.425  1.00  0.00     0.018 A 
ATOM     13  C   UNL A   1      45.353  26.273  25.216  1.00  0.00     0.041 A 
ATOM     14  F   UNL A   1      43.317  25.131  25.003  1.00  0.00    -0.207 F 
ATOM     15  Br  UNL A   1      48.957  25.317  27.030  1.00  0.00    -0.051 Br
ATOM     16  C   UNL A   1      46.666  26.332  25.675  1.00  0.00     0.019 A 
ENDBRANCH   6   9
ENDBRANCH   4   6
ENDBRANCH   3   4
ENDBRANCH   2   3
ENDBRANCH   1   2
BRANCH   1  17
ATOM     17  O   UNL A   1      39.616  21.894  26.996  1.00  0.00    -0.458 OA
BRANCH  17  18
ATOM     18  C   UNL A   1      38.982  22.885  26.326  1.00  0.00     0.338 C 
ATOM     19  O   UNL A   1      38.026  22.764  25.572  1.00  0.00    -0.246 OA
BRANCH  18  20
ATOM     20  C   UNL A   1      39.453  24.198  26.810  1.00  0.00     0.060 A 
ATOM     21  C   UNL A   1      39.228  24.481  28.159  1.00  0.00     0.016 A 
ATOM     22  C   UNL A   1      40.101  25.132  26.000  1.00  0.00     0.016 A 
ATOM     23  C   UNL A   1      39.701  25.656  28.726  1.00  0.00     0.010 A 
ATOM     24  C   UNL A   1      40.539  26.342  26.561  1.00  0.00     0.010 A 
ATOM     25  C   UNL A   1      40.356  26.600  27.931  1.00  0.00    -0.014 A 
BRANCH  25  26
ATOM     26  C   UNL A   1      40.765  27.879  28.555  1.00  0.00     0.031 A 
ATOM     27  C   UNL A   1      42.216  28.128  28.837  1.00  0.00     0.074 A 
ATOM     28  C   UNL A   1      39.865  28.857  28.760  1.00  0.00     0.049 A 
ATOM     29  N   UNL A   1      42.786  29.158  29.409  1.00  0.00    -0.248 NA
ATOM     30  C   UNL A   1      43.153  27.089  28.386  1.00  0.00     0.031 C 
ATOM     31  C   UNL A   1      38.453  28.795  28.390  1.00  0.00     0.029 A 
ATOM     32  N   UNL A   1      40.014  30.103  29.315  1.00  0.00    -0.354 N 
ATOM     33  C   UNL A   1      44.146  28.891  29.391  1.00  0.00     0.074 A 
ATOM     34  C   UNL A   1      44.318  27.602  28.751  1.00  0.00     0.031 C 
ATOM     35  C   UNL A   1      37.861  29.951  28.739  1.00  0.00     0.029 A 
ATOM     36  C   UNL A   1      38.840  30.811  29.400  1.00  0.00     0.049 A 
ATOM     37  H   UNL A   1      40.879  30.456  29.625  1.00  0.00     0.167 HD
ATOM     38  C   UNL A   1      45.160  29.649  29.872  1.00  0.00     0.037 A 
ATOM     39  C   UNL A   1      38.585  32.000  29.980  1.00  0.00     0.037 A 
ATOM     40  C   UNL A   1      44.986  30.917  30.530  1.00  0.00     0.049 A 
ATOM     41  C   UNL A   1      39.706  32.746  30.659  1.00  0.00     0.074 A 
ATOM     42  C   UNL A   1      45.945  31.730  31.107  1.00  0.00     0.029 A 
ATOM     43  N   UNL A   1      43.765  31.553  30.703  1.00  0.00    -0.354 N 
ATOM     44  N   UNL A   1      40.986  32.466  30.697  1.00  0.00    -0.248 NA
ATOM     45  C   UNL A   1      39.341  33.967  31.395  1.00  0.00     0.031 C 
ATOM     46  C   UNL A   1      45.298  32.833  31.676  1.00  0.00     0.029 A 
ATOM     47  C   UNL A   1      43.943  32.734  31.406  1.00  0.00     0.049 A 
ATOM     48  H   UNL A   1      42.900  31.215  30.377  1.00  0.00     0.167 HD
ATOM     49  C   UNL A   1      41.580  33.482  31.435  1.00  0.00     0.074 A 
ATOM     50  C   UNL A   1      40.524  34.396  31.814  1.00  0.00     0.031 C 
ATOM     51  C   UNL A   1      42.885  33.642  31.770  1.00  0.00     0.037 A 
BRANCH  38  52
ATOM     52  C   UNL A   1      46.543  29.084  29.766  1.00  0.00     0.064 A 
ATOM     53  C   UNL A   1      47.342  29.290  28.631  1.00  0.00     0.173 A 
ATOM     54  C   UNL A   1      47.076  28.327  30.819  1.00  0.00     0.173 A 
ATOM     55  F   UNL A   1      46.868  29.990  27.589  1.00  0.00    -0.203 F 
ATOM     56  C   UNL A   1      48.616  28.734  28.546  1.00  0.00     0.198 A 
ATOM     57  C   UNL A   1      48.360  27.795  30.741  1.00  0.00     0.198 A 
ATOM     58  F   UNL A   1      46.352  28.103  31.926  1.00  0.00    -0.203 F 
ATOM     59  F   UNL A   1      49.345  28.901  27.433  1.00  0.00    -0.200 F 
ATOM     60  C   UNL A   1      49.126  27.992  29.601  1.00  0.00     0.200 A 
ATOM     61  F   UNL A   1      48.852  27.086  31.766  1.00  0.00    -0.200 F 
ATOM     62  F   UNL A   1      50.352  27.457  29.517  1.00  0.00    -0.200 F 
ENDBRANCH  38  52
BRANCH  39  63
ATOM     63  C   UNL A   1      37.201  32.544  30.003  1.00  0.00     0.064 A 
ATOM     64  C   UNL A   1      36.758  33.439  29.020  1.00  0.00     0.173 A 
ATOM     65  C   UNL A   1      36.310  32.221  31.039  1.00  0.00     0.173 A 
ATOM     66  F   UNL A   1      37.582  33.806  28.028  1.00  0.00    -0.203 F 
ATOM     67  C   UNL A   1      35.485  34.004  29.082  1.00  0.00     0.198 A 
ATOM     68  C   UNL A   1      35.028  32.763  31.083  1.00  0.00     0.198 A 
ATOM     69  F   UNL A   1      36.689  31.382  32.014  1.00  0.00    -0.203 F 
ATOM     70  F   UNL A   1      35.106  34.900  28.160  1.00  0.00    -0.200 F 
ATOM     71  C   UNL A   1      34.619  33.662  30.110  1.00  0.00     0.200 A 
ATOM     72  F   UNL A   1      34.194  32.425  32.076  1.00  0.00    -0.200 F 
ATOM     73  F   UNL A   1      33.398  34.210  30.172  1.00  0.00    -0.200 F 
ENDBRANCH  39  63
BRANCH  51  74
ATOM     74  C   UNL A   1      43.254  34.863  32.561  1.00  0.00     0.064 A 
ATOM     75  C   UNL A   1      43.552  36.083  31.936  1.00  0.00     0.173 A 
ATOM     76  C   UNL A   1      43.255  34.828  33.964  1.00  0.00     0.173 A 
ATOM     77  F   UNL A   1      43.579  36.167  30.597  1.00  0.00    -0.203 F 
ATOM     78  C   UNL A   1      43.854  37.217  32.686  1.00  0.00     0.198 A 
ATOM     79  C   UNL A   1      43.529  35.970  34.711  1.00  0.00     0.198 A 
ATOM     80  F   UNL A   1      42.972  33.688  34.611  1.00  0.00    -0.203 F 
ATOM     81  F   UNL A   1      44.174  38.362  32.066  1.00  0.00    -0.200 F 
ATOM     82  C   UNL A   1      43.833  37.163  34.071  1.00  0.00     0.200 A 
ATOM     83  F   UNL A   1      43.496  35.919  36.050  1.00  0.00    -0.200 F 
ATOM     84  F   UNL A   1      44.113  38.258  34.791  1.00  0.00    -0.200 F 
ENDBRANCH  51  74
ENDBRANCH  25  26
ENDBRANCH  18  20
ENDBRANCH  17  18
ENDBRANCH   1  17
TORSDOF 13
ENDMDL
MODEL 3
REMARK VINA RESULT:     -10.4      0.257      1.679
REMARK SMILES CC[C@@H](C(=O)OCCOC(=O)c1ccc(-c2c3nc(c(-c4c(F)c(F)c(F)c(F)c4F)c4ccc([nH]4)c(-c4c(F)c(F)c(F)c(F)c4F)c4nc(c(-c5c(F)c(F)c(F)c(F)c5F)c5ccc2[nH]5)C=C4)C=C3)cc1)c1cc(Br)ccc1F
REMARK SMILES IDX 8 1 7 2 6 3 4 4 5 5 3 6 2 7 1 8 75 9 76 10 81 11 77 12 80 13
REMARK SMILES IDX 82 14 78 15 79 16 9 17 10 18 11 19 12 20 13 21 74 22 14 23
REMARK SMILES IDX 73 24 15 25 16 26 17 27 67 28 18 29 72 30 66 31 68 32 19 33
REMARK SMILES IDX 71 34 65 35 64 36 20 38 52 39 32 40 51 41 33 42 36 43 50 44
REMARK SMILES IDX 69 45 34 46 35 47 49 49 70 50 37 51 21 52 22 53 30 54 23 55
REMARK SMILES IDX 24 56 28 57 31 58 25 59 26 60 29 61 27 62 53 63 54 64 62 65
REMARK SMILES IDX 55 66 56 67 60 68 63 69 57 70 58 71 61 72 59 73 38 74 39 75
REMARK SMILES IDX 47 76 40 77 41 78 45 79 48 80 42 81 43 82 46 83 44 84
REMARK H PARENT 68 37 36 48
REMARK Flexibility Score: inf
ROOT
ATOM      1  C   UNL A   1      33.282  32.571  27.912  1.00  0.00     0.275 C 
ENDROOT
BRANCH   1   2
ATOM      2  C   UNL A   1      33.292  34.095  28.106  1.00  0.00     0.274 C 
BRANCH   2   3
ATOM      3  O   UNL A   1      32.538  34.521  29.260  1.00  0.00    -0.462 OA
BRANCH   3   4
ATOM      4  C   UNL A   1      32.956  35.660  29.880  1.00  0.00     0.313 C 
ATOM      5  O   UNL A   1      33.020  36.738  29.302  1.00  0.00    -0.252 OA
BRANCH   4   6
ATOM      6  C   UNL A   1      33.377  35.404  31.352  1.00  0.00     0.132 C 
BRANCH   6   7
ATOM      7  C   UNL A   1      33.688  36.726  32.108  1.00  0.00     0.017 C 
ATOM      8  C   UNL A   1      34.041  36.617  33.585  1.00  0.00     0.005 C 
ENDBRANCH   6   7
BRANCH   6   9
ATOM      9  C   UNL A   1      34.555  34.398  31.437  1.00  0.00     0.003 A 
ATOM     10  C   UNL A   1      35.689  34.457  30.600  1.00  0.00     0.023 A 
ATOM     11  C   UNL A   1      34.512  33.342  32.363  1.00  0.00     0.127 A 
ATOM     12  C   UNL A   1      36.678  33.466  30.646  1.00  0.00     0.018 A 
ATOM     13  C   UNL A   1      35.475  32.331  32.381  1.00  0.00     0.041 A 
ATOM     14  F   UNL A   1      33.518  33.277  33.261  1.00  0.00    -0.207 F 
ATOM     15  Br  UNL A   1      38.165  33.577  29.482  1.00  0.00    -0.051 Br
ATOM     16  C   UNL A   1      36.562  32.386  31.514  1.00  0.00     0.019 A 
ENDBRANCH   6   9
ENDBRANCH   4   6
ENDBRANCH   3   4
ENDBRANCH   2   3
ENDBRANCH   1   2
BRANCH   1  17
ATOM     17  O   UNL A   1      34.558  31.980  28.222  1.00  0.00    -0.458 OA
BRANCH  17  18
ATOM     18  C   UNL A   1      34.673  30.659  27.945  1.00  0.00     0.338 C 
ATOM     19  O   UNL A   1      33.928  29.991  27.242  1.00  0.00    -0.246 OA
BRANCH  18  20
ATOM     20  C   UNL A   1      35.976  30.158  28.425  1.00  0.00     0.060 A 
ATOM     21  C   UNL A   1      37.071  30.367  27.584  1.00  0.00     0.016 A 
ATOM     22  C   UNL A   1      36.151  29.511  29.650  1.00  0.00     0.016 A 
ATOM     23  C   UNL A   1      38.351  30.001  27.979  1.00  0.00     0.010 A 
ATOM     24  C   UNL A   1      37.438  29.097  30.031  1.00  0.00     0.010 A 
ATOM     25  C   UNL A   1      38.544  29.357  29.203  1.00  0.00    -0.014 A 
BRANCH  25  26
ATOM     26  C   UNL A   1      39.911  28.902  29.547  1.00  0.00     0.031 A 
ATOM     27  C   UNL A   1      40.725  29.694  30.524  1.00  0.00     0.074 A 
ATOM     28  C   UNL A   1      40.377  27.729  29.083  1.00  0.00     0.049 A 
ATOM     29  N   UNL A   1      41.952  29.498  30.936  1.00  0.00    -0.248 NA
ATOM     30  C   UNL A   1      40.056  30.849  31.143  1.00  0.00     0.031 C 
ATOM     31  C   UNL A   1      39.625  26.795  28.248  1.00  0.00     0.029 A 
ATOM     32  N   UNL A   1      41.591  27.117  29.266  1.00  0.00    -0.354 N 
ATOM     33  C   UNL A   1      42.204  30.502  31.858  1.00  0.00     0.074 A 
ATOM     34  C   UNL A   1      41.003  31.308  31.946  1.00  0.00     0.031 C 
ATOM     35  C   UNL A   1      40.402  25.729  27.981  1.00  0.00     0.029 A 
ATOM     36  C   UNL A   1      41.717  25.931  28.584  1.00  0.00     0.049 A 
ATOM     37  H   UNL A   1      42.306  27.493  29.831  1.00  0.00     0.167 HD
ATOM     38  C   UNL A   1      43.338  30.735  32.560  1.00  0.00     0.037 A 
ATOM     39  C   UNL A   1      42.788  25.126  28.438  1.00  0.00     0.037 A 
ATOM     40  C   UNL A   1      44.538  29.949  32.453  1.00  0.00     0.049 A 
ATOM     41  C   UNL A   1      44.090  25.501  29.099  1.00  0.00     0.074 A 
ATOM     42  C   UNL A   1      45.757  30.144  33.076  1.00  0.00     0.029 A 
ATOM     43  N   UNL A   1      44.669  28.818  31.661  1.00  0.00    -0.354 N 
ATOM     44  N   UNL A   1      44.349  26.487  29.923  1.00  0.00    -0.248 NA
ATOM     45  C   UNL A   1      45.258  24.661  28.789  1.00  0.00     0.031 C 
ATOM     46  C   UNL A   1      46.643  29.160  32.622  1.00  0.00     0.029 A 
ATOM     47  C   UNL A   1      45.960  28.322  31.756  1.00  0.00     0.049 A 
ATOM     48  H   UNL A   1      43.952  28.426  31.111  1.00  0.00     0.167 HD
ATOM     49  C   UNL A   1      45.695  26.372  30.249  1.00  0.00     0.074 A 
ATOM     50  C   UNL A   1      46.198  25.211  29.545  1.00  0.00     0.031 C 
ATOM     51  C   UNL A   1      46.447  27.159  31.058  1.00  0.00     0.037 A 
BRANCH  38  52
ATOM     52  C   UNL A   1      43.349  31.937  33.455  1.00  0.00     0.064 A 
ATOM     53  C   UNL A   1      43.742  33.202  32.991  1.00  0.00     0.173 A 
ATOM     54  C   UNL A   1      42.959  31.819  34.797  1.00  0.00     0.173 A 
ATOM     55  F   UNL A   1      44.143  33.361  31.721  1.00  0.00    -0.203 F 
ATOM     56  C   UNL A   1      43.767  34.299  33.848  1.00  0.00     0.198 A 
ATOM     57  C   UNL A   1      42.960  32.924  35.643  1.00  0.00     0.198 A 
ATOM     58  F   UNL A   1      42.575  30.631  35.287  1.00  0.00    -0.203 F 
ATOM     59  F   UNL A   1      44.191  35.489  33.399  1.00  0.00    -0.200 F 
ATOM     60  C   UNL A   1      43.372  34.161  35.171  1.00  0.00     0.200 A 
ATOM     61  F   UNL A   1      42.570  32.788  36.918  1.00  0.00    -0.200 F 
ATOM     62  F   UNL A   1      43.397  35.218  35.994  1.00  0.00    -0.200 F 
ENDBRANCH  38  52
BRANCH  39  63
ATOM     63  C   UNL A   1      42.703  23.909  27.586  1.00  0.00     0.064 A 
ATOM     64  C   UNL A   1      42.312  22.675  28.123  1.00  0.00     0.173 A 
ATOM     65  C   UNL A   1      43.060  23.946  26.229  1.00  0.00     0.173 A 
ATOM     66  F   UNL A   1      41.994  22.580  29.422  1.00  0.00    -0.203 F 
ATOM     67  C   UNL A   1      42.302  21.521  27.341  1.00  0.00     0.198 A 
ATOM     68  C   UNL A   1      43.019  22.799  25.441  1.00  0.00     0.198 A 
ATOM     69  F   UNL A   1      43.455  25.099  25.670  1.00  0.00    -0.203 F 
ATOM     70  F   UNL A   1      41.979  20.343  27.892  1.00  0.00    -0.200 F 
ATOM     71  C   UNL A   1      42.650  21.585  25.999  1.00  0.00     0.200 A 
ATOM     72  F   UNL A   1      43.353  22.867  24.146  1.00  0.00    -0.200 F 
ATOM     73  F   UNL A   1      42.646  20.474  25.249  1.00  0.00    -0.200 F 
ENDBRANCH  39  63
BRANCH  51  74
ATOM     74  C   UNL A   1      47.886  26.779  31.255  1.00  0.00     0.064 A 
ATOM     75  C   UNL A   1      48.912  27.358  30.493  1.00  0.00     0.173 A 
ATOM     76  C   UNL A   1      48.249  25.866  32.257  1.00  0.00     0.173 A 
ATOM     77  F   UNL A   1      48.618  28.226  29.512  1.00  0.00    -0.203 F 
ATOM     78  C   UNL A   1      50.246  27.024  30.716  1.00  0.00     0.198 A 
ATOM     79  C   UNL A   1      49.584  25.556  32.496  1.00  0.00     0.198 A 
ATOM     80  F   UNL A   1      47.307  25.288  33.017  1.00  0.00    -0.203 F 
ATOM     81  F   UNL A   1      51.205  27.560  29.950  1.00  0.00    -0.200 F 
ATOM     82  C   UNL A   1      50.581  26.132  31.722  1.00  0.00     0.200 A 
ATOM     83  F   UNL A   1      49.909  24.703  33.478  1.00  0.00    -0.200 F 
ATOM     84  F   UNL A   1      51.866  25.820  31.943  1.00  0.00    -0.200 F 
ENDBRANCH  51  74
ENDBRANCH  25  26
ENDBRANCH  18  20
ENDBRANCH  17  18
ENDBRANCH   1  17
TORSDOF 13
ENDMDL
