MODEL 1
REMARK VINA RESULT:     -11.2      0.000      0.000
REMARK SMILES COc1ccc(OCC(=O)N/N=C(/C)C(=O)OCCOC(=O)c2ccc(-c3c4nc(c(-c5c(F)c(F)c(F)c(F)c5F)c5ccc([nH]5)c(-c5c(F)c(F)c(F)c(F)c5F)c5nc(c(-c6c(F)c(F)c(F)c(F)c6F)c6ccc3[nH]6)C=C5)C=C4)cc2)cc1
REMARK SMILES IDX 17 1 15 2 16 3 13 4 12 5 14 6 11 7 9 8 10 9 8 11 7 12 6 13
REMARK SMILES IDX 3 14 4 15 87 16 5 17 86 18 2 19 1 20 18 21 19 22 20 23 21 24
REMARK SMILES IDX 22 25 23 26 24 27 85 28 25 29 84 30 26 31 27 32 28 33 78 34
REMARK SMILES IDX 29 35 83 36 77 37 79 38 30 39 82 40 76 41 75 42 31 44 63 45
REMARK SMILES IDX 43 46 62 47 44 48 47 49 61 50 80 51 45 52 46 53 60 55 81 56
REMARK SMILES IDX 48 57 32 58 33 59 41 60 34 61 35 62 39 63 42 64 36 65 37 66
REMARK SMILES IDX 40 67 38 68 64 69 65 70 73 71 66 72 67 73 71 74 74 75 68 76
REMARK SMILES IDX 69 77 72 78 70 79 49 80 50 81 58 82 51 83 52 84 56 85 59 86
REMARK SMILES IDX 53 87 54 88 57 89 55 90
REMARK H PARENT 11 10 79 43 47 54
REMARK Flexibility Score: inf
ROOT
ATOM      1  O   UNL A   1      31.589  29.181  24.472  1.00  0.00    -0.458 OA
ENDROOT
BRANCH   1   2
ATOM      2  C   UNL A   1      31.234  27.937  24.840  1.00  0.00     0.354 C 
ATOM      3  O   UNL A   1      31.440  27.336  25.872  1.00  0.00    -0.245 OA
BRANCH   2   4
ATOM      4  C   UNL A   1      30.429  27.356  23.704  1.00  0.00     0.142 C 
ATOM      5  N   UNL A   1      30.710  27.413  22.434  1.00  0.00    -0.170 NA
ATOM      6  C   UNL A   1      29.180  26.636  24.132  1.00  0.00     0.077 C 
BRANCH   5   7
ATOM      7  N   UNL A   1      31.907  27.882  21.978  1.00  0.00    -0.244 N 
ATOM      8  C   UNL A   1      33.121  27.233  21.996  1.00  0.00     0.277 C 
ATOM      9  O   UNL A   1      34.149  27.904  22.132  1.00  0.00    -0.269 OA
ATOM     10  H   UNL A   1      31.903  28.788  21.593  1.00  0.00     0.193 HD
BRANCH   8  11
ATOM     11  C   UNL A   1      33.205  25.736  21.733  1.00  0.00     0.331 C 
BRANCH  11  12
ATOM     12  O   UNL A   1      34.069  24.959  22.539  1.00  0.00    -0.484 OA
BRANCH  12  13
ATOM     13  C   UNL A   1      33.510  24.632  23.744  1.00  0.00     0.120 A 
ATOM     14  C   UNL A   1      32.161  24.057  26.105  1.00  0.00     0.119 A 
ATOM     15  C   UNL A   1      31.591  23.719  24.878  1.00  0.00     0.050 A 
ATOM     16  C   UNL A   1      33.445  24.596  26.156  1.00  0.00     0.050 A 
ATOM     17  C   UNL A   1      32.266  24.010  23.694  1.00  0.00     0.050 A 
ATOM     18  C   UNL A   1      34.124  24.879  24.973  1.00  0.00     0.050 A 
BRANCH  14  19
ATOM     19  O   UNL A   1      31.415  23.800  27.222  1.00  0.00    -0.497 OA
ATOM     20  C   UNL A   1      30.143  23.235  26.909  1.00  0.00     0.278 C 
ENDBRANCH  14  19
ENDBRANCH  12  13
ENDBRANCH  11  12
ENDBRANCH   8  11
ENDBRANCH   5   7
ENDBRANCH   2   4
ENDBRANCH   1   2
BRANCH   1  21
ATOM     21  C   UNL A   1      31.073  30.384  25.092  1.00  0.00     0.275 C 
BRANCH  21  22
ATOM     22  C   UNL A   1      31.569  30.754  26.489  1.00  0.00     0.275 C 
BRANCH  22  23
ATOM     23  O   UNL A   1      33.002  30.822  26.487  1.00  0.00    -0.458 OA
BRANCH  23  24
ATOM     24  C   UNL A   1      33.497  31.799  27.281  1.00  0.00     0.338 C 
ATOM     25  O   UNL A   1      32.978  32.862  27.567  1.00  0.00    -0.246 OA
BRANCH  24  26
ATOM     26  C   UNL A   1      34.806  31.361  27.784  1.00  0.00     0.060 A 
ATOM     27  C   UNL A   1      34.989  30.026  28.159  1.00  0.00     0.016 A 
ATOM     28  C   UNL A   1      35.819  32.302  27.969  1.00  0.00     0.016 A 
ATOM     29  C   UNL A   1      36.192  29.631  28.747  1.00  0.00     0.010 A 
ATOM     30  C   UNL A   1      37.018  31.907  28.563  1.00  0.00     0.010 A 
ATOM     31  C   UNL A   1      37.199  30.578  28.982  1.00  0.00    -0.014 A 
BRANCH  31  32
ATOM     32  C   UNL A   1      38.357  30.237  29.840  1.00  0.00     0.031 A 
ATOM     33  C   UNL A   1      39.368  29.255  29.321  1.00  0.00     0.074 A 
ATOM     34  C   UNL A   1      38.502  30.768  31.066  1.00  0.00     0.049 A 
ATOM     35  N   UNL A   1      40.425  28.757  29.912  1.00  0.00    -0.248 NA
ATOM     36  C   UNL A   1      39.161  28.771  27.948  1.00  0.00     0.031 C 
ATOM     37  C   UNL A   1      37.616  31.759  31.668  1.00  0.00     0.029 A 
ATOM     38  N   UNL A   1      39.451  30.532  32.031  1.00  0.00    -0.354 N 
ATOM     39  C   UNL A   1      41.012  27.915  28.980  1.00  0.00     0.074 A 
ATOM     40  C   UNL A   1      40.188  27.950  27.791  1.00  0.00     0.031 C 
ATOM     41  C   UNL A   1      38.054  32.040  32.908  1.00  0.00     0.029 A 
ATOM     42  C   UNL A   1      39.232  31.223  33.196  1.00  0.00     0.049 A 
ATOM     43  H   UNL A   1      40.215  29.927  31.898  1.00  0.00     0.167 HD
ATOM     44  C   UNL A   1      42.138  27.175  29.104  1.00  0.00     0.037 A 
ATOM     45  C   UNL A   1      39.895  31.179  34.367  1.00  0.00     0.037 A 
ATOM     46  C   UNL A   1      42.938  27.100  30.295  1.00  0.00     0.049 A 
ATOM     47  C   UNL A   1      41.082  30.265  34.515  1.00  0.00     0.074 A 
ATOM     48  C   UNL A   1      44.086  26.362  30.521  1.00  0.00     0.029 A 
ATOM     49  N   UNL A   1      42.658  27.781  31.470  1.00  0.00    -0.354 N 
ATOM     50  N   UNL A   1      41.645  29.486  33.624  1.00  0.00    -0.248 NA
ATOM     51  C   UNL A   1      41.722  30.218  35.838  1.00  0.00     0.031 C 
ATOM     52  C   UNL A   1      44.481  26.567  31.849  1.00  0.00     0.029 A 
ATOM     53  C   UNL A   1      43.598  27.459  32.435  1.00  0.00     0.049 A 
ATOM     54  H   UNL A   1      41.904  28.400  31.599  1.00  0.00     0.167 HD
ATOM     55  C   UNL A   1      42.710  28.874  34.269  1.00  0.00     0.074 A 
ATOM     56  C   UNL A   1      42.725  29.377  35.626  1.00  0.00     0.031 C 
ATOM     57  C   UNL A   1      43.598  27.975  33.780  1.00  0.00     0.037 A 
BRANCH  44  58
ATOM     58  C   UNL A   1      42.544  26.360  27.916  1.00  0.00     0.064 A 
ATOM     59  C   UNL A   1      43.429  26.869  26.954  1.00  0.00     0.173 A 
ATOM     60  C   UNL A   1      42.041  25.065  27.734  1.00  0.00     0.173 A 
ATOM     61  F   UNL A   1      43.919  28.112  27.077  1.00  0.00    -0.203 F 
ATOM     62  C   UNL A   1      43.783  26.112  25.841  1.00  0.00     0.198 A 
ATOM     63  C   UNL A   1      42.410  24.305  26.628  1.00  0.00     0.198 A 
ATOM     64  F   UNL A   1      41.187  24.540  28.626  1.00  0.00    -0.203 F 
ATOM     65  F   UNL A   1      44.600  26.630  24.913  1.00  0.00    -0.200 F 
ATOM     66  C   UNL A   1      43.275  24.832  25.679  1.00  0.00     0.200 A 
ATOM     67  F   UNL A   1      41.920  23.068  26.473  1.00  0.00    -0.200 F 
ATOM     68  F   UNL A   1      43.612  24.107  24.604  1.00  0.00    -0.200 F 
ENDBRANCH  44  58
BRANCH  45  69
ATOM     69  C   UNL A   1      39.438  32.010  35.509  1.00  0.00     0.064 A 
ATOM     70  C   UNL A   1      39.919  33.314  35.687  1.00  0.00     0.173 A 
ATOM     71  C   UNL A   1      38.535  31.509  36.458  1.00  0.00     0.173 A 
ATOM     72  F   UNL A   1      40.809  33.823  34.822  1.00  0.00    -0.203 F 
ATOM     73  C   UNL A   1      39.522  34.083  36.779  1.00  0.00     0.198 A 
ATOM     74  C   UNL A   1      38.122  32.287  37.538  1.00  0.00     0.198 A 
ATOM     75  F   UNL A   1      38.056  30.263  36.337  1.00  0.00    -0.203 F 
ATOM     76  F   UNL A   1      40.027  35.313  36.948  1.00  0.00    -0.200 F 
ATOM     77  C   UNL A   1      38.621  33.571  37.700  1.00  0.00     0.200 A 
ATOM     78  F   UNL A   1      37.249  31.791  38.423  1.00  0.00    -0.200 F 
ATOM     79  F   UNL A   1      38.240  34.311  38.751  1.00  0.00    -0.200 F 
ENDBRANCH  45  69
BRANCH  57  80
ATOM     80  C   UNL A   1      44.671  27.492  34.707  1.00  0.00     0.064 A 
ATOM     81  C   UNL A   1      44.506  26.330  35.474  1.00  0.00     0.173 A 
ATOM     82  C   UNL A   1      45.896  28.171  34.792  1.00  0.00     0.173 A 
ATOM     83  F   UNL A   1      43.346  25.657  35.437  1.00  0.00    -0.203 F 
ATOM     84  C   UNL A   1      45.525  25.871  36.303  1.00  0.00     0.198 A 
ATOM     85  C   UNL A   1      46.920  27.697  35.606  1.00  0.00     0.198 A 
ATOM     86  F   UNL A   1      46.102  29.285  34.074  1.00  0.00    -0.203 F 
ATOM     87  F   UNL A   1      45.337  24.776  37.051  1.00  0.00    -0.200 F 
ATOM     88  C   UNL A   1      46.734  26.551  36.364  1.00  0.00     0.200 A 
ATOM     89  F   UNL A   1      48.089  28.351  35.658  1.00  0.00    -0.200 F 
ATOM     90  F   UNL A   1      47.716  26.103  37.157  1.00  0.00    -0.200 F 
ENDBRANCH  57  80
ENDBRANCH  31  32
ENDBRANCH  24  26
ENDBRANCH  23  24
ENDBRANCH  22  23
ENDBRANCH  21  22
ENDBRANCH   1  21
TORSDOF 16
ENDMDL
MODEL 2
REMARK VINA RESULT:     -11.1      1.129      2.281
REMARK SMILES COc1ccc(OCC(=O)N/N=C(/C)C(=O)OCCOC(=O)c2ccc(-c3c4nc(c(-c5c(F)c(F)c(F)c(F)c5F)c5ccc([nH]5)c(-c5c(F)c(F)c(F)c(F)c5F)c5nc(c(-c6c(F)c(F)c(F)c(F)c6F)c6ccc3[nH]6)C=C5)C=C4)cc2)cc1
REMARK SMILES IDX 17 1 15 2 16 3 13 4 12 5 14 6 11 7 9 8 10 9 8 11 7 12 6 13
REMARK SMILES IDX 3 14 4 15 87 16 5 17 86 18 2 19 1 20 18 21 19 22 20 23 21 24
REMARK SMILES IDX 22 25 23 26 24 27 85 28 25 29 84 30 26 31 27 32 28 33 78 34
REMARK SMILES IDX 29 35 83 36 77 37 79 38 30 39 82 40 76 41 75 42 31 44 63 45
REMARK SMILES IDX 43 46 62 47 44 48 47 49 61 50 80 51 45 52 46 53 60 55 81 56
REMARK SMILES IDX 48 57 32 58 33 59 41 60 34 61 35 62 39 63 42 64 36 65 37 66
REMARK SMILES IDX 40 67 38 68 64 69 65 70 73 71 66 72 67 73 71 74 74 75 68 76
REMARK SMILES IDX 69 77 72 78 70 79 49 80 50 81 58 82 51 83 52 84 56 85 59 86
REMARK SMILES IDX 53 87 54 88 57 89 55 90
REMARK H PARENT 11 10 79 43 47 54
REMARK Flexibility Score: inf
ROOT
ATOM      1  O   UNL A   1      31.220  28.348  25.402  1.00  0.00    -0.458 OA
ENDROOT
BRANCH   1   2
ATOM      2  C   UNL A   1      31.952  27.357  24.862  1.00  0.00     0.354 C 
ATOM      3  O   UNL A   1      33.151  27.257  24.720  1.00  0.00    -0.245 OA
BRANCH   2   4
ATOM      4  C   UNL A   1      30.989  26.266  24.465  1.00  0.00     0.142 C 
ATOM      5  N   UNL A   1      30.818  25.765  23.276  1.00  0.00    -0.170 NA
ATOM      6  C   UNL A   1      30.164  25.723  25.600  1.00  0.00     0.077 C 
BRANCH   5   7
ATOM      7  N   UNL A   1      31.648  26.069  22.237  1.00  0.00    -0.244 N 
ATOM      8  C   UNL A   1      32.859  25.486  21.936  1.00  0.00     0.277 C 
ATOM      9  O   UNL A   1      33.735  26.181  21.411  1.00  0.00    -0.269 OA
ATOM     10  H   UNL A   1      31.348  26.786  21.634  1.00  0.00     0.193 HD
BRANCH   8  11
ATOM     11  C   UNL A   1      33.071  23.992  22.134  1.00  0.00     0.331 C 
BRANCH  11  12
ATOM     12  O   UNL A   1      33.096  23.485  23.454  1.00  0.00    -0.484 OA
BRANCH  12  13
ATOM     13  C   UNL A   1      34.343  23.543  24.014  1.00  0.00     0.120 A 
ATOM     14  C   UNL A   1      36.906  23.426  25.084  1.00  0.00     0.119 A 
ATOM     15  C   UNL A   1      36.663  22.930  23.804  1.00  0.00     0.050 A 
ATOM     16  C   UNL A   1      35.889  24.066  25.793  1.00  0.00     0.050 A 
ATOM     17  C   UNL A   1      35.377  22.986  23.268  1.00  0.00     0.050 A 
ATOM     18  C   UNL A   1      34.606  24.130  25.254  1.00  0.00     0.050 A 
BRANCH  14  19
ATOM     19  O   UNL A   1      38.175  23.281  25.570  1.00  0.00    -0.497 OA
ATOM     20  C   UNL A   1      38.451  24.172  26.649  1.00  0.00     0.278 C 
ENDBRANCH  14  19
ENDBRANCH  12  13
ENDBRANCH  11  12
ENDBRANCH   8  11
ENDBRANCH   5   7
ENDBRANCH   2   4
ENDBRANCH   1   2
BRANCH   1  21
ATOM     21  C   UNL A   1      31.357  29.744  25.038  1.00  0.00     0.275 C 
BRANCH  21  22
ATOM     22  C   UNL A   1      31.717  30.750  26.130  1.00  0.00     0.275 C 
BRANCH  22  23
ATOM     23  O   UNL A   1      33.089  30.576  26.508  1.00  0.00    -0.458 OA
BRANCH  23  24
ATOM     24  C   UNL A   1      33.556  31.557  27.314  1.00  0.00     0.338 C 
ATOM     25  O   UNL A   1      33.002  32.596  27.621  1.00  0.00    -0.246 OA
BRANCH  24  26
ATOM     26  C   UNL A   1      34.884  31.158  27.800  1.00  0.00     0.060 A 
ATOM     27  C   UNL A   1      35.129  29.818  28.115  1.00  0.00     0.016 A 
ATOM     28  C   UNL A   1      35.852  32.136  28.030  1.00  0.00     0.016 A 
ATOM     29  C   UNL A   1      36.348  29.453  28.688  1.00  0.00     0.010 A 
ATOM     30  C   UNL A   1      37.067  31.771  28.609  1.00  0.00     0.010 A 
ATOM     31  C   UNL A   1      37.309  30.434  28.969  1.00  0.00    -0.014 A 
BRANCH  31  32
ATOM     32  C   UNL A   1      38.481  30.109  29.814  1.00  0.00     0.031 A 
ATOM     33  C   UNL A   1      39.491  29.127  29.292  1.00  0.00     0.074 A 
ATOM     34  C   UNL A   1      38.641  30.654  31.032  1.00  0.00     0.049 A 
ATOM     35  N   UNL A   1      40.559  28.641  29.873  1.00  0.00    -0.248 NA
ATOM     36  C   UNL A   1      39.266  28.626  27.927  1.00  0.00     0.031 C 
ATOM     37  C   UNL A   1      37.758  31.648  31.635  1.00  0.00     0.029 A 
ATOM     38  N   UNL A   1      39.605  30.435  31.985  1.00  0.00    -0.354 N 
ATOM     39  C   UNL A   1      41.137  27.792  28.942  1.00  0.00     0.074 A 
ATOM     40  C   UNL A   1      40.295  27.809  27.765  1.00  0.00     0.031 C 
ATOM     41  C   UNL A   1      38.212  31.944  32.866  1.00  0.00     0.029 A 
ATOM     42  C   UNL A   1      39.398  31.137  33.146  1.00  0.00     0.049 A 
ATOM     43  H   UNL A   1      40.371  29.832  31.849  1.00  0.00     0.167 HD
ATOM     44  C   UNL A   1      42.268  27.059  29.058  1.00  0.00     0.037 A 
ATOM     45  C   UNL A   1      40.078  31.110  34.308  1.00  0.00     0.037 A 
ATOM     46  C   UNL A   1      43.085  27.002  30.238  1.00  0.00     0.049 A 
ATOM     47  C   UNL A   1      41.273  30.204  34.448  1.00  0.00     0.074 A 
ATOM     48  C   UNL A   1      44.241  26.272  30.456  1.00  0.00     0.029 A 
ATOM     49  N   UNL A   1      42.819  27.694  31.410  1.00  0.00    -0.354 N 
ATOM     50  N   UNL A   1      41.827  29.418  33.559  1.00  0.00    -0.248 NA
ATOM     51  C   UNL A   1      41.931  30.175  35.763  1.00  0.00     0.031 C 
ATOM     52  C   UNL A   1      44.653  26.495  31.776  1.00  0.00     0.029 A 
ATOM     53  C   UNL A   1      43.774  27.388  32.365  1.00  0.00     0.049 A 
ATOM     54  H   UNL A   1      42.063  28.311  31.542  1.00  0.00     0.167 HD
ATOM     55  C   UNL A   1      42.905  28.819  34.195  1.00  0.00     0.074 A 
ATOM     56  C   UNL A   1      42.936  29.337  35.546  1.00  0.00     0.031 C 
ATOM     57  C   UNL A   1      43.791  27.919  33.703  1.00  0.00     0.037 A 
BRANCH  44  58
ATOM     58  C   UNL A   1      42.662  26.233  27.873  1.00  0.00     0.064 A 
ATOM     59  C   UNL A   1      43.579  26.712  26.926  1.00  0.00     0.173 A 
ATOM     60  C   UNL A   1      42.116  24.957  27.681  1.00  0.00     0.173 A 
ATOM     61  F   UNL A   1      44.111  27.936  27.060  1.00  0.00    -0.203 F 
ATOM     62  C   UNL A   1      43.920  25.946  25.815  1.00  0.00     0.198 A 
ATOM     63  C   UNL A   1      42.472  24.188  26.578  1.00  0.00     0.198 A 
ATOM     64  F   UNL A   1      41.231  24.461  28.559  1.00  0.00    -0.203 F 
ATOM     65  F   UNL A   1      44.769  26.437  24.900  1.00  0.00    -0.200 F 
ATOM     66  C   UNL A   1      43.370  24.685  25.643  1.00  0.00     0.200 A 
ATOM     67  F   UNL A   1      41.941  22.969  26.412  1.00  0.00    -0.200 F 
ATOM     68  F   UNL A   1      43.696  23.952  24.570  1.00  0.00    -0.200 F 
ENDBRANCH  44  58
BRANCH  45  69
ATOM     69  C   UNL A   1      39.634  31.951  35.447  1.00  0.00     0.064 A 
ATOM     70  C   UNL A   1      38.656  31.494  36.341  1.00  0.00     0.173 A 
ATOM     71  C   UNL A   1      40.157  33.236  35.649  1.00  0.00     0.173 A 
ATOM     72  F   UNL A   1      38.105  30.283  36.167  1.00  0.00    -0.203 F 
ATOM     73  C   UNL A   1      38.210  32.295  37.389  1.00  0.00     0.198 A 
ATOM     74  C   UNL A   1      39.725  34.029  36.710  1.00  0.00     0.198 A 
ATOM     75  F   UNL A   1      41.086  33.723  34.814  1.00  0.00    -0.203 F 
ATOM     76  F   UNL A   1      37.245  31.851  38.206  1.00  0.00    -0.200 F 
ATOM     77  C   UNL A   1      38.747  33.560  37.575  1.00  0.00     0.200 A 
ATOM     78  F   UNL A   1      40.249  35.248  36.890  1.00  0.00    -0.200 F 
ATOM     79  F   UNL A   1      38.316  34.332  38.583  1.00  0.00    -0.200 F 
ENDBRANCH  45  69
BRANCH  57  80
ATOM     80  C   UNL A   1      44.880  27.453  34.620  1.00  0.00     0.064 A 
ATOM     81  C   UNL A   1      46.092  28.148  34.727  1.00  0.00     0.173 A 
ATOM     82  C   UNL A   1      44.688  26.329  35.438  1.00  0.00     0.173 A 
ATOM     83  F   UNL A   1      46.327  29.218  33.954  1.00  0.00    -0.203 F 
ATOM     84  C   UNL A   1      47.082  27.726  35.611  1.00  0.00     0.198 A 
ATOM     85  C   UNL A   1      45.670  25.923  36.336  1.00  0.00     0.198 A 
ATOM     86  F   UNL A   1      43.542  25.635  35.373  1.00  0.00    -0.203 F 
ATOM     87  F   UNL A   1      48.245  28.386  35.677  1.00  0.00    -0.200 F 
ATOM     88  C   UNL A   1      46.868  26.619  36.420  1.00  0.00     0.200 A 
ATOM     89  F   UNL A   1      45.459  24.858  37.121  1.00  0.00    -0.200 F 
ATOM     90  F   UNL A   1      47.817  26.219  37.275  1.00  0.00    -0.200 F 
ENDBRANCH  57  80
ENDBRANCH  31  32
ENDBRANCH  24  26
ENDBRANCH  23  24
ENDBRANCH  22  23
ENDBRANCH  21  22
ENDBRANCH   1  21
TORSDOF 16
ENDMDL
MODEL 3
REMARK VINA RESULT:     -11.0      1.360      2.750
REMARK SMILES COc1ccc(OCC(=O)N/N=C(/C)C(=O)OCCOC(=O)c2ccc(-c3c4nc(c(-c5c(F)c(F)c(F)c(F)c5F)c5ccc([nH]5)c(-c5c(F)c(F)c(F)c(F)c5F)c5nc(c(-c6c(F)c(F)c(F)c(F)c6F)c6ccc3[nH]6)C=C5)C=C4)cc2)cc1
REMARK SMILES IDX 17 1 15 2 16 3 13 4 12 5 14 6 11 7 9 8 10 9 8 11 7 12 6 13
REMARK SMILES IDX 3 14 4 15 87 16 5 17 86 18 2 19 1 20 18 21 19 22 20 23 21 24
REMARK SMILES IDX 22 25 23 26 24 27 85 28 25 29 84 30 26 31 27 32 28 33 78 34
REMARK SMILES IDX 29 35 83 36 77 37 79 38 30 39 82 40 76 41 75 42 31 44 63 45
REMARK SMILES IDX 43 46 62 47 44 48 47 49 61 50 80 51 45 52 46 53 60 55 81 56
REMARK SMILES IDX 48 57 32 58 33 59 41 60 34 61 35 62 39 63 42 64 36 65 37 66
REMARK SMILES IDX 40 67 38 68 64 69 65 70 73 71 66 72 67 73 71 74 74 75 68 76
REMARK SMILES IDX 69 77 72 78 70 79 49 80 50 81 58 82 51 83 52 84 56 85 59 86
REMARK SMILES IDX 53 87 54 88 57 89 55 90
REMARK H PARENT 11 10 79 43 47 54
REMARK Flexibility Score: inf
ROOT
ATOM      1  O   UNL A   1      31.313  27.640  26.627  1.00  0.00    -0.458 OA
ENDROOT
BRANCH   1   2
ATOM      2  C   UNL A   1      31.747  27.240  25.418  1.00  0.00     0.354 C 
ATOM      3  O   UNL A   1      32.860  27.253  24.942  1.00  0.00    -0.245 OA
BRANCH   2   4
ATOM      4  C   UNL A   1      30.553  26.677  24.688  1.00  0.00     0.142 C 
ATOM      5  N   UNL A   1      29.832  25.651  25.039  1.00  0.00    -0.170 NA
ATOM      6  C   UNL A   1      30.187  27.416  23.430  1.00  0.00     0.077 C 
BRANCH   5   7
ATOM      7  N   UNL A   1      29.979  25.043  26.251  1.00  0.00    -0.244 N 
ATOM      8  C   UNL A   1      30.300  23.726  26.493  1.00  0.00     0.277 C 
ATOM      9  O   UNL A   1      29.837  23.180  27.499  1.00  0.00    -0.269 OA
ATOM     10  H   UNL A   1      29.841  25.610  27.043  1.00  0.00     0.193 HD
BRANCH   8  11
ATOM     11  C   UNL A   1      31.300  22.995  25.607  1.00  0.00     0.331 C 
BRANCH  11  12
ATOM     12  O   UNL A   1      31.984  21.879  26.144  1.00  0.00    -0.484 OA
BRANCH  12  13
ATOM     13  C   UNL A   1      33.334  21.943  25.937  1.00  0.00     0.120 A 
ATOM     14  C   UNL A   1      36.045  22.301  25.435  1.00  0.00     0.119 A 
ATOM     15  C   UNL A   1      35.322  23.294  26.094  1.00  0.00     0.050 A 
ATOM     16  C   UNL A   1      35.435  21.090  25.110  1.00  0.00     0.050 A 
ATOM     17  C   UNL A   1      33.962  23.116  26.344  1.00  0.00     0.050 A 
ATOM     18  C   UNL A   1      34.078  20.907  25.367  1.00  0.00     0.050 A 
BRANCH  14  19
ATOM     19  O   UNL A   1      37.358  22.570  25.167  1.00  0.00    -0.497 OA
ATOM     20  C   UNL A   1      38.213  21.467  25.466  1.00  0.00     0.278 C 
ENDBRANCH  14  19
ENDBRANCH  12  13
ENDBRANCH  11  12
ENDBRANCH   8  11
ENDBRANCH   5   7
ENDBRANCH   2   4
ENDBRANCH   1   2
BRANCH   1  21
ATOM     21  C   UNL A   1      31.777  28.838  27.296  1.00  0.00     0.275 C 
BRANCH  21  22
ATOM     22  C   UNL A   1      31.827  30.143  26.502  1.00  0.00     0.275 C 
BRANCH  22  23
ATOM     23  O   UNL A   1      33.192  30.549  26.333  1.00  0.00    -0.458 OA
BRANCH  23  24
ATOM     24  C   UNL A   1      33.592  31.482  27.227  1.00  0.00     0.338 C 
ATOM     25  O   UNL A   1      32.993  32.481  27.581  1.00  0.00    -0.246 OA
BRANCH  24  26
ATOM     26  C   UNL A   1      34.908  31.086  27.746  1.00  0.00     0.060 A 
ATOM     27  C   UNL A   1      35.148  29.746  28.066  1.00  0.00     0.016 A 
ATOM     28  C   UNL A   1      35.868  32.066  28.001  1.00  0.00     0.016 A 
ATOM     29  C   UNL A   1      36.353  29.383  28.668  1.00  0.00     0.010 A 
ATOM     30  C   UNL A   1      37.069  31.702  28.610  1.00  0.00     0.010 A 
ATOM     31  C   UNL A   1      37.306  30.365  28.974  1.00  0.00    -0.014 A 
BRANCH  31  32
ATOM     32  C   UNL A   1      38.457  30.042  29.847  1.00  0.00     0.031 A 
ATOM     33  C   UNL A   1      39.491  29.078  29.341  1.00  0.00     0.074 A 
ATOM     34  C   UNL A   1      38.576  30.573  31.076  1.00  0.00     0.049 A 
ATOM     35  N   UNL A   1      40.548  28.596  29.946  1.00  0.00    -0.248 NA
ATOM     36  C   UNL A   1      39.311  28.593  27.963  1.00  0.00     0.031 C 
ATOM     37  C   UNL A   1      37.666  31.548  31.667  1.00  0.00     0.029 A 
ATOM     38  N   UNL A   1      39.515  30.351  32.053  1.00  0.00    -0.354 N 
ATOM     39  C   UNL A   1      41.162  27.765  29.021  1.00  0.00     0.074 A 
ATOM     40  C   UNL A   1      40.353  27.789  27.820  1.00  0.00     0.031 C 
ATOM     41  C   UNL A   1      38.082  31.833  32.914  1.00  0.00     0.029 A 
ATOM     42  C   UNL A   1      39.269  31.035  33.217  1.00  0.00     0.049 A 
ATOM     43  H   UNL A   1      40.291  29.758  31.930  1.00  0.00     0.167 HD
ATOM     44  C   UNL A   1      42.297  27.043  29.159  1.00  0.00     0.037 A 
ATOM     45  C   UNL A   1      39.916  31.000  34.397  1.00  0.00     0.037 A 
ATOM     46  C   UNL A   1      43.082  26.980  30.360  1.00  0.00     0.049 A 
ATOM     47  C   UNL A   1      41.116  30.106  34.559  1.00  0.00     0.074 A 
ATOM     48  C   UNL A   1      44.239  26.260  30.601  1.00  0.00     0.029 A 
ATOM     49  N   UNL A   1      42.775  27.653  31.533  1.00  0.00    -0.354 N 
ATOM     50  N   UNL A   1      41.704  29.337  33.675  1.00  0.00    -0.248 NA
ATOM     51  C   UNL A   1      41.738  30.066  35.892  1.00  0.00     0.031 C 
ATOM     52  C   UNL A   1      44.612  26.469  31.935  1.00  0.00     0.029 A 
ATOM     53  C   UNL A   1      43.706  27.345  32.510  1.00  0.00     0.049 A 
ATOM     54  H   UNL A   1      42.009  28.259  31.652  1.00  0.00     0.167 HD
ATOM     55  C   UNL A   1      42.770  28.742  34.334  1.00  0.00     0.074 A 
ATOM     56  C   UNL A   1      42.758  29.242  35.692  1.00  0.00     0.031 C 
ATOM     57  C   UNL A   1      43.680  27.858  33.856  1.00  0.00     0.037 A 
BRANCH  44  58
ATOM     58  C   UNL A   1      42.733  26.238  27.975  1.00  0.00     0.064 A 
ATOM     59  C   UNL A   1      42.335  24.902  27.818  1.00  0.00     0.173 A 
ATOM     60  C   UNL A   1      43.558  26.802  26.993  1.00  0.00     0.173 A 
ATOM     61  F   UNL A   1      41.562  24.314  28.745  1.00  0.00    -0.203 F 
ATOM     62  C   UNL A   1      42.764  24.154  26.726  1.00  0.00     0.198 A 
ATOM     63  C   UNL A   1      43.972  26.056  25.894  1.00  0.00     0.198 A 
ATOM     64  F   UNL A   1      43.967  28.074  27.105  1.00  0.00    -0.203 F 
ATOM     65  F   UNL A   1      42.404  22.867  26.614  1.00  0.00    -0.200 F 
ATOM     66  C   UNL A   1      43.580  24.731  25.764  1.00  0.00     0.200 A 
ATOM     67  F   UNL A   1      44.758  26.615  24.965  1.00  0.00    -0.200 F 
ATOM     68  F   UNL A   1      43.996  24.008  24.716  1.00  0.00    -0.200 F 
ENDBRANCH  44  58
BRANCH  45  69
ATOM     69  C   UNL A   1      39.430  31.821  35.534  1.00  0.00     0.064 A 
ATOM     70  C   UNL A   1      39.915  33.119  35.742  1.00  0.00     0.173 A 
ATOM     71  C   UNL A   1      38.494  31.316  36.448  1.00  0.00     0.173 A 
ATOM     72  F   UNL A   1      40.835  33.631  34.911  1.00  0.00    -0.203 F 
ATOM     73  C   UNL A   1      39.490  33.879  36.830  1.00  0.00     0.198 A 
ATOM     74  C   UNL A   1      38.053  32.084  37.524  1.00  0.00     0.198 A 
ATOM     75  F   UNL A   1      38.009  30.075  36.297  1.00  0.00    -0.203 F 
ATOM     76  F   UNL A   1      39.998  35.102  37.030  1.00  0.00    -0.200 F 
ATOM     77  C   UNL A   1      38.556  33.363  37.716  1.00  0.00     0.200 A 
ATOM     78  F   UNL A   1      37.149  31.585  38.375  1.00  0.00    -0.200 F 
ATOM     79  F   UNL A   1      38.148  34.094  38.763  1.00  0.00    -0.200 F 
ENDBRANCH  45  69
BRANCH  57  80
ATOM     80  C   UNL A   1      44.747  27.391  34.797  1.00  0.00     0.064 A 
ATOM     81  C   UNL A   1      45.943  28.105  34.957  1.00  0.00     0.173 A 
ATOM     82  C   UNL A   1      44.551  26.247  35.584  1.00  0.00     0.173 A 
ATOM     83  F   UNL A   1      46.182  29.197  34.215  1.00  0.00    -0.203 F 
ATOM     84  C   UNL A   1      46.911  27.683  35.863  1.00  0.00     0.198 A 
ATOM     85  C   UNL A   1      45.512  25.839  36.504  1.00  0.00     0.198 A 
ATOM     86  F   UNL A   1      43.421  25.533  35.468  1.00  0.00    -0.203 F 
ATOM     87  F   UNL A   1      48.060  28.361  35.980  1.00  0.00    -0.200 F 
ATOM     88  C   UNL A   1      46.693  26.554  36.641  1.00  0.00     0.200 A 
ATOM     89  F   UNL A   1      45.296  24.753  37.259  1.00  0.00    -0.200 F 
ATOM     90  F   UNL A   1      47.622  26.153  37.518  1.00  0.00    -0.200 F 
ENDBRANCH  57  80
ENDBRANCH  31  32
ENDBRANCH  24  26
ENDBRANCH  23  24
ENDBRANCH  22  23
ENDBRANCH  21  22
ENDBRANCH   1  21
TORSDOF 16
ENDMDL
