MODEL 1
REMARK VINA RESULT:     -10.3      0.000      0.000
REMARK SMILES CCCCCCNC(=O)Oc1cccc(-c2ccc([C@@H](C)C(=O)OCCOCCOC(=O)c3ccc(-c4c5nc(c(-c6c(F)c(F)c(F)c(F)c6F)c6ccc([nH]6)c(-c6c(F)c(F)c(F)c(F)c6F)c6nc(c(-c7c(F)c(F)c(F)c(F)c7F)c7ccc4[nH]7)C=C6)C=C5)cc3)cc2O)c1
REMARK SMILES IDX 22 1 23 2 20 3 21 4 19 5 16 6 17 7 97 8 18 9 96 10 15 11
REMARK SMILES IDX 11 12 12 13 99 14 13 15 14 16 10 17 8 18 7 19 9 21 6 22 5 23
REMARK SMILES IDX 4 24 3 25 2 26 1 27 98 28 24 30 25 31 26 32 27 33 28 34
REMARK SMILES IDX 29 35 30 36 31 37 32 38 33 39 34 40 95 41 35 42 94 43 36 44
REMARK SMILES IDX 37 45 38 46 88 47 39 48 93 49 87 50 89 51 40 52 92 53 86 54
REMARK SMILES IDX 85 55 41 57 73 58 53 59 72 60 54 61 57 62 71 63 90 64 55 65
REMARK SMILES IDX 56 66 70 68 91 69 58 70 42 71 43 72 51 73 44 74 45 75 49 76
REMARK SMILES IDX 52 77 46 78 47 79 50 80 48 81 74 82 75 83 83 84 76 85 77 86
REMARK SMILES IDX 81 87 84 88 78 89 79 90 82 91 80 92 59 93 60 94 68 95 61 96
REMARK SMILES IDX 62 97 66 98 69 99 63 100 64 101 67 102 65 103
REMARK H PARENT 7 20 98 29 89 56 57 67
REMARK Flexibility Score: inf
ROOT
ATOM      1  C   UNL A   1      34.702  33.022  30.099  1.00  0.00     0.313 C 
ATOM      2  O   UNL A   1      34.417  32.332  31.073  1.00  0.00    -0.252 OA
ENDROOT
BRANCH   1   3
ATOM      3  C   UNL A   1      35.172  32.405  28.792  1.00  0.00     0.126 C 
ATOM      4  C   UNL A   1      35.733  33.506  27.895  1.00  0.00     0.025 C 
BRANCH   3   5
ATOM      5  C   UNL A   1      34.208  31.493  28.037  1.00  0.00    -0.030 A 
ATOM      6  C   UNL A   1      32.561  29.794  26.427  1.00  0.00     0.024 A 
ATOM      7  C   UNL A   1      32.125  31.067  26.842  1.00  0.00     0.013 A 
ATOM      8  C   UNL A   1      33.832  29.386  26.862  1.00  0.00     0.123 A 
ATOM      9  C   UNL A   1      32.934  31.904  27.627  1.00  0.00     0.005 A 
ATOM     10  C   UNL A   1      34.634  30.209  27.661  1.00  0.00     0.051 A 
BRANCH   6  11
ATOM     11  C   UNL A   1      31.718  28.977  25.534  1.00  0.00    -0.011 A 
ATOM     12  C   UNL A   1      30.773  26.843  24.852  1.00  0.00     0.133 A 
ATOM     13  C   UNL A   1      30.207  27.424  23.719  1.00  0.00     0.047 A 
ATOM     14  C   UNL A   1      31.527  27.601  25.753  1.00  0.00     0.056 A 
ATOM     15  C   UNL A   1      30.372  28.788  23.497  1.00  0.00     0.004 A 
ATOM     16  C   UNL A   1      31.122  29.555  24.396  1.00  0.00     0.009 A 
BRANCH  12  17
ATOM     17  O   UNL A   1      30.658  25.448  24.967  1.00  0.00    -0.410 OA
BRANCH  17  18
ATOM     18  C   UNL A   1      30.402  24.913  26.218  1.00  0.00     0.412 C 
ATOM     19  N   UNL A   1      31.418  24.130  26.692  1.00  0.00    -0.321 N 
ATOM     20  H   UNL A   1      31.295  23.749  27.591  1.00  0.00     0.167 HD
ATOM     21  O   UNL A   1      29.377  25.081  26.876  1.00  0.00    -0.224 OA
BRANCH  19  22
ATOM     22  C   UNL A   1      32.657  23.797  26.016  1.00  0.00     0.119 C 
BRANCH  22  23
ATOM     23  C   UNL A   1      32.547  22.506  25.203  1.00  0.00     0.021 C 
BRANCH  23  24
ATOM     24  C   UNL A   1      33.878  21.959  24.671  1.00  0.00     0.002 C 
BRANCH  24  25
ATOM     25  C   UNL A   1      34.574  22.821  23.612  1.00  0.00    -0.000 C 
BRANCH  25  26
ATOM     26  C   UNL A   1      36.081  23.010  23.802  1.00  0.00    -0.003 C 
ATOM     27  C   UNL A   1      36.743  21.866  24.556  1.00  0.00     0.004 C 
ENDBRANCH  25  26
ENDBRANCH  24  25
ENDBRANCH  23  24
ENDBRANCH  22  23
ENDBRANCH  19  22
ENDBRANCH  17  18
ENDBRANCH  12  17
ENDBRANCH   6  11
BRANCH   8  28
ATOM     28  O   UNL A   1      34.396  28.191  26.500  1.00  0.00    -0.507 OA
ATOM     29  H   UNL A   1      34.356  27.459  27.083  1.00  0.00     0.293 HD
ENDBRANCH   8  28
ENDBRANCH   3   5
ENDBRANCH   1   3
BRANCH   1  30
ATOM     30  O   UNL A   1      34.671  34.381  30.089  1.00  0.00    -0.463 OA
BRANCH  30  31
ATOM     31  C   UNL A   1      33.379  34.980  30.291  1.00  0.00     0.261 C 
BRANCH  31  32
ATOM     32  C   UNL A   1      33.424  36.025  31.409  1.00  0.00     0.202 C 
BRANCH  32  33
ATOM     33  O   UNL A   1      34.486  35.896  32.352  1.00  0.00    -0.374 OA
BRANCH  33  34
ATOM     34  C   UNL A   1      34.256  35.075  33.500  1.00  0.00     0.202 C 
BRANCH  34  35
ATOM     35  C   UNL A   1      35.483  34.397  34.118  1.00  0.00     0.261 C 
BRANCH  35  36
ATOM     36  O   UNL A   1      36.290  33.717  33.140  1.00  0.00    -0.460 OA
BRANCH  36  37
ATOM     37  C   UNL A   1      37.594  34.086  33.130  1.00  0.00     0.338 C 
ATOM     38  O   UNL A   1      38.136  34.917  33.836  1.00  0.00    -0.246 OA
BRANCH  37  39
ATOM     39  C   UNL A   1      38.367  33.192  32.245  1.00  0.00     0.060 A 
ATOM     40  C   UNL A   1      39.343  32.388  32.846  1.00  0.00     0.016 A 
ATOM     41  C   UNL A   1      38.211  33.201  30.857  1.00  0.00     0.016 A 
ATOM     42  C   UNL A   1      40.214  31.640  32.059  1.00  0.00     0.010 A 
ATOM     43  C   UNL A   1      39.089  32.448  30.066  1.00  0.00     0.010 A 
ATOM     44  C   UNL A   1      40.121  31.700  30.662  1.00  0.00    -0.014 A 
BRANCH  44  45
ATOM     45  C   UNL A   1      41.213  31.113  29.845  1.00  0.00     0.031 A 
ATOM     46  C   UNL A   1      42.428  31.948  29.544  1.00  0.00     0.074 A 
ATOM     47  C   UNL A   1      41.158  29.835  29.435  1.00  0.00     0.049 A 
ATOM     48  N   UNL A   1      43.513  31.632  28.881  1.00  0.00    -0.248 NA
ATOM     49  C   UNL A   1      42.420  33.325  30.062  1.00  0.00     0.031 C 
ATOM     50  C   UNL A   1      40.058  28.911  29.701  1.00  0.00     0.029 A 
ATOM     51  N   UNL A   1      42.057  29.091  28.712  1.00  0.00    -0.354 N 
ATOM     52  C   UNL A   1      44.312  32.768  28.902  1.00  0.00     0.074 A 
ATOM     53  C   UNL A   1      43.574  33.792  29.608  1.00  0.00     0.031 C 
ATOM     54  C   UNL A   1      40.348  27.720  29.152  1.00  0.00     0.029 A 
ATOM     55  C   UNL A   1      41.640  27.806  28.472  1.00  0.00     0.049 A 
ATOM     56  H   UNL A   1      42.918  29.446  28.394  1.00  0.00     0.167 HD
ATOM     57  C   UNL A   1      45.556  32.937  28.392  1.00  0.00     0.037 A 
ATOM     58  C   UNL A   1      42.232  26.815  27.778  1.00  0.00     0.037 A 
ATOM     59  C   UNL A   1      46.292  31.919  27.690  1.00  0.00     0.049 A 
ATOM     60  C   UNL A   1      43.582  27.052  27.153  1.00  0.00     0.074 A 
ATOM     61  C   UNL A   1      47.564  31.988  27.151  1.00  0.00     0.029 A 
ATOM     62  N   UNL A   1      45.812  30.645  27.421  1.00  0.00    -0.354 N 
ATOM     63  N   UNL A   1      44.343  28.118  27.200  1.00  0.00    -0.248 NA
ATOM     64  C   UNL A   1      44.158  25.941  26.379  1.00  0.00     0.031 C 
ATOM     65  C   UNL A   1      47.835  30.774  26.510  1.00  0.00     0.029 A 
ATOM     66  C   UNL A   1      46.753  29.928  26.698  1.00  0.00     0.049 A 
ATOM     67  H   UNL A   1      44.934  30.300  27.703  1.00  0.00     0.167 HD
ATOM     68  C   UNL A   1      45.495  27.801  26.492  1.00  0.00     0.074 A 
ATOM     69  C   UNL A   1      45.338  26.436  26.033  1.00  0.00     0.031 C 
ATOM     70  C   UNL A   1      46.586  28.568  26.249  1.00  0.00     0.037 A 
BRANCH  57  71
ATOM     71  C   UNL A   1      46.186  34.291  28.554  1.00  0.00     0.064 A 
ATOM     72  C   UNL A   1      46.013  35.304  27.598  1.00  0.00     0.173 A 
ATOM     73  C   UNL A   1      46.961  34.582  29.686  1.00  0.00     0.173 A 
ATOM     74  F   UNL A   1      45.292  35.073  26.491  1.00  0.00    -0.203 F 
ATOM     75  C   UNL A   1      46.623  36.547  27.754  1.00  0.00     0.198 A 
ATOM     76  C   UNL A   1      47.543  35.836  29.853  1.00  0.00     0.198 A 
ATOM     77  F   UNL A   1      47.153  33.652  30.633  1.00  0.00    -0.203 F 
ATOM     78  F   UNL A   1      46.488  37.481  26.803  1.00  0.00    -0.200 F 
ATOM     79  C   UNL A   1      47.381  36.813  28.883  1.00  0.00     0.200 A 
ATOM     80  F   UNL A   1      48.266  36.096  30.951  1.00  0.00    -0.200 F 
ATOM     81  F   UNL A   1      47.966  38.010  29.033  1.00  0.00    -0.200 F 
ENDBRANCH  57  71
BRANCH  58  82
ATOM     82  C   UNL A   1      41.553  25.501  27.642  1.00  0.00     0.064 A 
ATOM     83  C   UNL A   1      41.980  24.387  28.378  1.00  0.00     0.173 A 
ATOM     84  C   UNL A   1      40.465  25.332  26.772  1.00  0.00     0.173 A 
ATOM     85  F   UNL A   1      43.032  24.493  29.202  1.00  0.00    -0.203 F 
ATOM     86  C   UNL A   1      41.351  23.152  28.242  1.00  0.00     0.198 A 
ATOM     87  C   UNL A   1      39.821  24.102  26.657  1.00  0.00     0.198 A 
ATOM     88  F   UNL A   1      40.021  26.365  26.044  1.00  0.00    -0.203 F 
ATOM     89  F   UNL A   1      41.803  22.092  28.928  1.00  0.00    -0.200 F 
ATOM     90  C   UNL A   1      40.268  23.011  27.387  1.00  0.00     0.200 A 
ATOM     91  F   UNL A   1      38.768  23.975  25.839  1.00  0.00    -0.200 F 
ATOM     92  F   UNL A   1      39.659  21.824  27.262  1.00  0.00    -0.200 F 
ENDBRANCH  58  82
BRANCH  70  93
ATOM     93  C   UNL A   1      47.714  27.943  25.478  1.00  0.00     0.064 A 
ATOM     94  C   UNL A   1      47.678  27.828  24.081  1.00  0.00     0.173 A 
ATOM     95  C   UNL A   1      48.865  27.494  26.145  1.00  0.00     0.173 A 
ATOM     96  F   UNL A   1      46.595  28.228  23.399  1.00  0.00    -0.203 F 
ATOM     97  C   UNL A   1      48.741  27.263  23.382  1.00  0.00     0.198 A 
ATOM     98  C   UNL A   1      49.938  26.957  25.439  1.00  0.00     0.198 A 
ATOM     99  F   UNL A   1      48.954  27.588  27.480  1.00  0.00    -0.203 F 
ATOM    100  F   UNL A   1      48.665  27.119  22.051  1.00  0.00    -0.200 F 
ATOM    101  C   UNL A   1      49.873  26.835  24.060  1.00  0.00     0.200 A 
ATOM    102  F   UNL A   1      51.038  26.557  26.095  1.00  0.00    -0.200 F 
ATOM    103  F   UNL A   1      50.899  26.298  23.384  1.00  0.00    -0.200 F 
ENDBRANCH  70  93
ENDBRANCH  44  45
ENDBRANCH  37  39
ENDBRANCH  36  37
ENDBRANCH  35  36
ENDBRANCH  34  35
ENDBRANCH  33  34
ENDBRANCH  32  33
ENDBRANCH  31  32
ENDBRANCH  30  31
ENDBRANCH   1  30
TORSDOF 24
ENDMDL
MODEL 2
REMARK VINA RESULT:     -10.0      5.276     11.221
REMARK SMILES CCCCCCNC(=O)Oc1cccc(-c2ccc([C@@H](C)C(=O)OCCOCCOC(=O)c3ccc(-c4c5nc(c(-c6c(F)c(F)c(F)c(F)c6F)c6ccc([nH]6)c(-c6c(F)c(F)c(F)c(F)c6F)c6nc(c(-c7c(F)c(F)c(F)c(F)c7F)c7ccc4[nH]7)C=C6)C=C5)cc3)cc2O)c1
REMARK SMILES IDX 22 1 23 2 20 3 21 4 19 5 16 6 17 7 97 8 18 9 96 10 15 11
REMARK SMILES IDX 11 12 12 13 99 14 13 15 14 16 10 17 8 18 7 19 9 21 6 22 5 23
REMARK SMILES IDX 4 24 3 25 2 26 1 27 98 28 24 30 25 31 26 32 27 33 28 34
REMARK SMILES IDX 29 35 30 36 31 37 32 38 33 39 34 40 95 41 35 42 94 43 36 44
REMARK SMILES IDX 37 45 38 46 88 47 39 48 93 49 87 50 89 51 40 52 92 53 86 54
REMARK SMILES IDX 85 55 41 57 73 58 53 59 72 60 54 61 57 62 71 63 90 64 55 65
REMARK SMILES IDX 56 66 70 68 91 69 58 70 42 71 43 72 51 73 44 74 45 75 49 76
REMARK SMILES IDX 52 77 46 78 47 79 50 80 48 81 74 82 75 83 83 84 76 85 77 86
REMARK SMILES IDX 81 87 84 88 78 89 79 90 82 91 80 92 59 93 60 94 68 95 61 96
REMARK SMILES IDX 62 97 66 98 69 99 63 100 64 101 67 102 65 103
REMARK H PARENT 7 20 98 29 89 56 57 67
REMARK Flexibility Score: inf
ROOT
ATOM      1  C   UNL A   1      38.689  21.921  25.847  1.00  0.00     0.313 C 
ATOM      2  O   UNL A   1      38.717  23.114  26.134  1.00  0.00    -0.252 OA
ENDROOT
BRANCH   1   3
ATOM      3  C   UNL A   1      37.379  21.177  25.649  1.00  0.00     0.126 C 
ATOM      4  C   UNL A   1      37.480  20.320  24.390  1.00  0.00     0.025 C 
BRANCH   3   5
ATOM      5  C   UNL A   1      36.081  21.979  25.688  1.00  0.00    -0.030 A 
ATOM      6  C   UNL A   1      33.782  23.685  25.689  1.00  0.00     0.024 A 
ATOM      7  C   UNL A   1      34.269  23.102  26.874  1.00  0.00     0.013 A 
ATOM      8  C   UNL A   1      34.462  23.369  24.501  1.00  0.00     0.123 A 
ATOM      9  C   UNL A   1      35.400  22.269  26.877  1.00  0.00     0.005 A 
ATOM     10  C   UNL A   1      35.577  22.525  24.496  1.00  0.00     0.051 A 
BRANCH   6  11
ATOM     11  C   UNL A   1      32.643  24.620  25.737  1.00  0.00    -0.011 A 
ATOM     12  C   UNL A   1      31.726  26.857  25.992  1.00  0.00     0.133 A 
ATOM     13  C   UNL A   1      30.426  26.359  25.960  1.00  0.00     0.047 A 
ATOM     14  C   UNL A   1      32.830  26.006  25.888  1.00  0.00     0.056 A 
ATOM     15  C   UNL A   1      30.223  24.992  25.793  1.00  0.00     0.004 A 
ATOM     16  C   UNL A   1      31.322  24.133  25.684  1.00  0.00     0.009 A 
BRANCH  12  17
ATOM     17  O   UNL A   1      31.867  28.228  26.265  1.00  0.00    -0.410 OA
BRANCH  17  18
ATOM     18  C   UNL A   1      32.782  28.953  25.519  1.00  0.00     0.412 C 
ATOM     19  N   UNL A   1      32.204  29.897  24.717  1.00  0.00    -0.321 N 
ATOM     20  H   UNL A   1      32.816  30.458  24.188  1.00  0.00     0.167 HD
ATOM     21  O   UNL A   1      34.002  28.797  25.529  1.00  0.00    -0.224 OA
BRANCH  19  22
ATOM     22  C   UNL A   1      30.786  30.164  24.559  1.00  0.00     0.119 C 
BRANCH  22  23
ATOM     23  C   UNL A   1      30.098  29.133  23.662  1.00  0.00     0.021 C 
BRANCH  23  24
ATOM     24  C   UNL A   1      30.918  28.680  22.448  1.00  0.00     0.002 C 
BRANCH  24  25
ATOM     25  C   UNL A   1      30.815  27.192  22.095  1.00  0.00    -0.000 C 
BRANCH  25  26
ATOM     26  C   UNL A   1      32.054  26.351  22.411  1.00  0.00    -0.003 C 
ATOM     27  C   UNL A   1      33.362  27.070  22.122  1.00  0.00     0.004 C 
ENDBRANCH  25  26
ENDBRANCH  24  25
ENDBRANCH  23  24
ENDBRANCH  22  23
ENDBRANCH  19  22
ENDBRANCH  17  18
ENDBRANCH  12  17
ENDBRANCH   6  11
BRANCH   8  28
ATOM     28  O   UNL A   1      34.120  23.898  23.284  1.00  0.00    -0.507 OA
ATOM     29  H   UNL A   1      34.727  24.444  22.825  1.00  0.00     0.293 HD
ENDBRANCH   8  28
ENDBRANCH   3   5
ENDBRANCH   1   3
BRANCH   1  30
ATOM     30  O   UNL A   1      39.793  21.140  25.719  1.00  0.00    -0.463 OA
BRANCH  30  31
ATOM     31  C   UNL A   1      40.876  21.429  26.621  1.00  0.00     0.261 C 
BRANCH  31  32
ATOM     32  C   UNL A   1      42.054  22.068  25.883  1.00  0.00     0.202 C 
BRANCH  32  33
ATOM     33  O   UNL A   1      43.286  21.350  25.916  1.00  0.00    -0.374 OA
BRANCH  33  34
ATOM     34  C   UNL A   1      44.488  22.086  25.682  1.00  0.00     0.202 C 
BRANCH  34  35
ATOM     35  C   UNL A   1      44.521  22.975  24.434  1.00  0.00     0.261 C 
BRANCH  35  36
ATOM     36  O   UNL A   1      44.005  24.295  24.683  1.00  0.00    -0.460 OA
BRANCH  36  37
ATOM     37  C   UNL A   1      44.782  25.061  25.489  1.00  0.00     0.338 C 
ATOM     38  O   UNL A   1      45.978  25.263  25.392  1.00  0.00    -0.246 OA
BRANCH  37  39
ATOM     39  C   UNL A   1      43.938  25.809  26.442  1.00  0.00     0.060 A 
ATOM     40  C   UNL A   1      44.121  27.196  26.502  1.00  0.00     0.016 A 
ATOM     41  C   UNL A   1      43.059  25.170  27.319  1.00  0.00     0.016 A 
ATOM     42  C   UNL A   1      43.477  27.944  27.484  1.00  0.00     0.010 A 
ATOM     43  C   UNL A   1      42.412  25.924  28.307  1.00  0.00     0.010 A 
ATOM     44  C   UNL A   1      42.654  27.306  28.421  1.00  0.00    -0.014 A 
BRANCH  44  45
ATOM     45  C   UNL A   1      42.193  28.070  29.608  1.00  0.00     0.031 A 
ATOM     46  C   UNL A   1      40.905  28.843  29.522  1.00  0.00     0.074 A 
ATOM     47  C   UNL A   1      42.871  28.021  30.767  1.00  0.00     0.049 A 
ATOM     48  N   UNL A   1      40.295  29.550  30.441  1.00  0.00    -0.248 NA
ATOM     49  C   UNL A   1      40.209  28.811  28.227  1.00  0.00     0.031 C 
ATOM     50  C   UNL A   1      44.105  27.272  30.990  1.00  0.00     0.029 A 
ATOM     51  N   UNL A   1      42.610  28.611  31.979  1.00  0.00    -0.354 N 
ATOM     52  C   UNL A   1      39.149  30.048  29.834  1.00  0.00     0.074 A 
ATOM     53  C   UNL A   1      39.165  29.595  28.461  1.00  0.00     0.031 C 
ATOM     54  C   UNL A   1      44.494  27.444  32.265  1.00  0.00     0.029 A 
ATOM     55  C   UNL A   1      43.551  28.336  32.938  1.00  0.00     0.049 A 
ATOM     56  H   UNL A   1      41.822  29.178  32.143  1.00  0.00     0.167 HD
ATOM     57  C   UNL A   1      38.163  30.802  30.378  1.00  0.00     0.037 A 
ATOM     58  C   UNL A   1      43.644  28.763  34.212  1.00  0.00     0.037 A 
ATOM     59  C   UNL A   1      38.144  31.253  31.745  1.00  0.00     0.049 A 
ATOM     60  C   UNL A   1      42.574  29.665  34.772  1.00  0.00     0.074 A 
ATOM     61  C   UNL A   1      37.182  32.006  32.393  1.00  0.00     0.029 A 
ATOM     62  N   UNL A   1      39.144  30.997  32.671  1.00  0.00    -0.354 N 
ATOM     63  N   UNL A   1      41.481  30.108  34.201  1.00  0.00    -0.248 NA
ATOM     64  C   UNL A   1      42.753  30.123  36.158  1.00  0.00     0.031 C 
ATOM     65  C   UNL A   1      37.624  32.252  33.698  1.00  0.00     0.029 A 
ATOM     66  C   UNL A   1      38.836  31.604  33.879  1.00  0.00     0.049 A 
ATOM     67  H   UNL A   1      39.954  30.464  32.498  1.00  0.00     0.167 HD
ATOM     68  C   UNL A   1      40.828  30.870  35.162  1.00  0.00     0.074 A 
ATOM     69  C   UNL A   1      41.643  30.820  36.357  1.00  0.00     0.031 C 
ATOM     70  C   UNL A   1      39.655  31.544  35.064  1.00  0.00     0.037 A 
BRANCH  57  71
ATOM     71  C   UNL A   1      37.033  31.209  29.476  1.00  0.00     0.064 A 
ATOM     72  C   UNL A   1      35.940  30.362  29.233  1.00  0.00     0.173 A 
ATOM     73  C   UNL A   1      37.038  32.468  28.857  1.00  0.00     0.173 A 
ATOM     74  F   UNL A   1      35.893  29.143  29.790  1.00  0.00    -0.203 F 
ATOM     75  C   UNL A   1      34.912  30.748  28.376  1.00  0.00     0.198 A 
ATOM     76  C   UNL A   1      35.993  32.863  28.026  1.00  0.00     0.198 A 
ATOM     77  F   UNL A   1      38.055  33.318  29.060  1.00  0.00    -0.203 F 
ATOM     78  F   UNL A   1      33.906  29.903  28.117  1.00  0.00    -0.200 F 
ATOM     79  C   UNL A   1      34.936  31.999  27.779  1.00  0.00     0.200 A 
ATOM     80  F   UNL A   1      36.012  34.076  27.458  1.00  0.00    -0.200 F 
ATOM     81  F   UNL A   1      33.946  32.370  26.956  1.00  0.00    -0.200 F 
ENDBRANCH  57  71
BRANCH  58  82
ATOM     82  C   UNL A   1      44.792  28.335  35.052  1.00  0.00     0.064 A 
ATOM     83  C   UNL A   1      45.979  29.079  35.087  1.00  0.00     0.173 A 
ATOM     84  C   UNL A   1      44.726  27.172  35.835  1.00  0.00     0.173 A 
ATOM     85  F   UNL A   1      46.099  30.183  34.336  1.00  0.00    -0.203 F 
ATOM     86  C   UNL A   1      47.061  28.671  35.865  1.00  0.00     0.198 A 
ATOM     87  C   UNL A   1      45.799  26.781  36.633  1.00  0.00     0.198 A 
ATOM     88  F   UNL A   1      43.614  26.425  35.834  1.00  0.00    -0.203 F 
ATOM     89  F   UNL A   1      48.199  29.380  35.851  1.00  0.00    -0.200 F 
ATOM     90  C   UNL A   1      46.967  27.527  36.642  1.00  0.00     0.200 A 
ATOM     91  F   UNL A   1      45.699  25.680  37.390  1.00  0.00    -0.200 F 
ATOM     92  F   UNL A   1      48.006  27.138  37.396  1.00  0.00    -0.200 F 
ENDBRANCH  58  82
BRANCH  70  93
ATOM     93  C   UNL A   1      39.164  32.259  36.291  1.00  0.00     0.064 A 
ATOM     94  C   UNL A   1      39.585  33.559  36.606  1.00  0.00     0.173 A 
ATOM     95  C   UNL A   1      38.224  31.650  37.138  1.00  0.00     0.173 A 
ATOM     96  F   UNL A   1      40.492  34.179  35.837  1.00  0.00    -0.203 F 
ATOM     97  C   UNL A   1      39.104  34.212  37.737  1.00  0.00     0.198 A 
ATOM     98  C   UNL A   1      37.724  32.318  38.251  1.00  0.00     0.198 A 
ATOM     99  F   UNL A   1      37.783  30.410  36.877  1.00  0.00    -0.203 F 
ATOM    100  F   UNL A   1      39.556  35.437  38.045  1.00  0.00    -0.200 F 
ATOM    101  C   UNL A   1      38.168  33.596  38.554  1.00  0.00     0.200 A 
ATOM    102  F   UNL A   1      36.808  31.725  39.032  1.00  0.00    -0.200 F 
ATOM    103  F   UNL A   1      37.700  34.230  39.639  1.00  0.00    -0.200 F 
ENDBRANCH  70  93
ENDBRANCH  44  45
ENDBRANCH  37  39
ENDBRANCH  36  37
ENDBRANCH  35  36
ENDBRANCH  34  35
ENDBRANCH  33  34
ENDBRANCH  32  33
ENDBRANCH  31  32
ENDBRANCH  30  31
ENDBRANCH   1  30
TORSDOF 24
ENDMDL
MODEL 3
REMARK VINA RESULT:      -9.8      4.805      8.718
REMARK SMILES CCCCCCNC(=O)Oc1cccc(-c2ccc([C@@H](C)C(=O)OCCOCCOC(=O)c3ccc(-c4c5nc(c(-c6c(F)c(F)c(F)c(F)c6F)c6ccc([nH]6)c(-c6c(F)c(F)c(F)c(F)c6F)c6nc(c(-c7c(F)c(F)c(F)c(F)c7F)c7ccc4[nH]7)C=C6)C=C5)cc3)cc2O)c1
REMARK SMILES IDX 22 1 23 2 20 3 21 4 19 5 16 6 17 7 97 8 18 9 96 10 15 11
REMARK SMILES IDX 11 12 12 13 99 14 13 15 14 16 10 17 8 18 7 19 9 21 6 22 5 23
REMARK SMILES IDX 4 24 3 25 2 26 1 27 98 28 24 30 25 31 26 32 27 33 28 34
REMARK SMILES IDX 29 35 30 36 31 37 32 38 33 39 34 40 95 41 35 42 94 43 36 44
REMARK SMILES IDX 37 45 38 46 88 47 39 48 93 49 87 50 89 51 40 52 92 53 86 54
REMARK SMILES IDX 85 55 41 57 73 58 53 59 72 60 54 61 57 62 71 63 90 64 55 65
REMARK SMILES IDX 56 66 70 68 91 69 58 70 42 71 43 72 51 73 44 74 45 75 49 76
REMARK SMILES IDX 52 77 46 78 47 79 50 80 48 81 74 82 75 83 83 84 76 85 77 86
REMARK SMILES IDX 81 87 84 88 78 89 79 90 82 91 80 92 59 93 60 94 68 95 61 96
REMARK SMILES IDX 62 97 66 98 69 99 63 100 64 101 67 102 65 103
REMARK H PARENT 7 20 98 29 89 56 57 67
REMARK Flexibility Score: inf
ROOT
ATOM      1  C   UNL A   1      39.611  28.252  28.458  1.00  0.00     0.313 C 
ATOM      2  O   UNL A   1      39.552  28.924  27.433  1.00  0.00    -0.252 OA
ENDROOT
BRANCH   1   3
ATOM      3  C   UNL A   1      40.896  27.565  28.891  1.00  0.00     0.126 C 
ATOM      4  C   UNL A   1      42.064  28.529  28.698  1.00  0.00     0.025 C 
BRANCH   3   5
ATOM      5  C   UNL A   1      41.200  26.182  28.323  1.00  0.00    -0.030 A 
ATOM      6  C   UNL A   1      41.560  23.506  27.373  1.00  0.00     0.024 A 
ATOM      7  C   UNL A   1      42.473  24.102  28.263  1.00  0.00     0.013 A 
ATOM      8  C   UNL A   1      40.477  24.295  26.952  1.00  0.00     0.123 A 
ATOM      9  C   UNL A   1      42.296  25.412  28.734  1.00  0.00     0.005 A 
ATOM     10  C   UNL A   1      40.306  25.608  27.404  1.00  0.00     0.051 A 
BRANCH   6  11
ATOM     11  C   UNL A   1      41.733  22.098  26.965  1.00  0.00    -0.011 A 
ATOM     12  C   UNL A   1      42.856  20.375  25.670  1.00  0.00     0.133 A 
ATOM     13  C   UNL A   1      41.943  19.415  26.103  1.00  0.00     0.047 A 
ATOM     14  C   UNL A   1      42.758  21.705  26.086  1.00  0.00     0.056 A 
ATOM     15  C   UNL A   1      40.933  19.785  26.986  1.00  0.00     0.004 A 
ATOM     16  C   UNL A   1      40.830  21.114  27.411  1.00  0.00     0.009 A 
BRANCH  12  17
ATOM     17  O   UNL A   1      43.788  19.964  24.702  1.00  0.00    -0.410 OA
BRANCH  17  18
ATOM     18  C   UNL A   1      44.925  19.299  25.129  1.00  0.00     0.412 C 
ATOM     19  N   UNL A   1      46.061  20.055  25.042  1.00  0.00    -0.321 N 
ATOM     20  H   UNL A   1      46.893  19.635  25.361  1.00  0.00     0.167 HD
ATOM     21  O   UNL A   1      44.969  18.141  25.541  1.00  0.00    -0.224 OA
BRANCH  19  22
ATOM     22  C   UNL A   1      46.177  21.408  24.533  1.00  0.00     0.119 C 
BRANCH  22  23
ATOM     23  C   UNL A   1      46.004  22.458  25.631  1.00  0.00     0.021 C 
BRANCH  23  24
ATOM     24  C   UNL A   1      46.101  23.914  25.158  1.00  0.00     0.002 C 
BRANCH  24  25
ATOM     25  C   UNL A   1      45.135  24.897  25.830  1.00  0.00    -0.000 C 
BRANCH  25  26
ATOM     26  C   UNL A   1      43.868  25.223  25.036  1.00  0.00    -0.003 C 
ATOM     27  C   UNL A   1      43.306  26.605  25.335  1.00  0.00     0.004 C 
ENDBRANCH  25  26
ENDBRANCH  24  25
ENDBRANCH  23  24
ENDBRANCH  22  23
ENDBRANCH  19  22
ENDBRANCH  17  18
ENDBRANCH  12  17
ENDBRANCH   6  11
BRANCH   8  28
ATOM     28  O   UNL A   1      39.493  23.828  26.121  1.00  0.00    -0.507 OA
ATOM     29  H   UNL A   1      38.790  23.316  26.469  1.00  0.00     0.293 HD
ENDBRANCH   8  28
ENDBRANCH   3   5
ENDBRANCH   1   3
BRANCH   1  30
ATOM     30  O   UNL A   1      38.555  28.018  29.281  1.00  0.00    -0.463 OA
BRANCH  30  31
ATOM     31  C   UNL A   1      38.877  27.780  30.663  1.00  0.00     0.261 C 
BRANCH  31  32
ATOM     32  C   UNL A   1      38.194  28.803  31.573  1.00  0.00     0.202 C 
BRANCH  32  33
ATOM     33  O   UNL A   1      36.809  29.040  31.331  1.00  0.00    -0.374 OA
BRANCH  33  34
ATOM     34  C   UNL A   1      36.394  30.392  31.126  1.00  0.00     0.202 C 
BRANCH  34  35
ATOM     35  C   UNL A   1      37.319  31.486  31.668  1.00  0.00     0.261 C 
BRANCH  35  36
ATOM     36  O   UNL A   1      37.765  32.391  30.641  1.00  0.00    -0.460 OA
BRANCH  36  37
ATOM     37  C   UNL A   1      37.873  33.683  31.036  1.00  0.00     0.338 C 
ATOM     38  O   UNL A   1      37.092  34.317  31.723  1.00  0.00    -0.246 OA
BRANCH  37  39
ATOM     39  C   UNL A   1      39.201  34.215  30.672  1.00  0.00     0.060 A 
ATOM     40  C   UNL A   1      39.372  34.655  29.353  1.00  0.00     0.016 A 
ATOM     41  C   UNL A   1      40.279  34.200  31.559  1.00  0.00     0.016 A 
ATOM     42  C   UNL A   1      40.635  35.019  28.896  1.00  0.00     0.010 A 
ATOM     43  C   UNL A   1      41.550  34.566  31.098  1.00  0.00     0.010 A 
ATOM     44  C   UNL A   1      41.740  34.934  29.752  1.00  0.00    -0.014 A 
BRANCH  44  45
ATOM     45  C   UNL A   1      43.103  35.069  29.180  1.00  0.00     0.031 A 
ATOM     46  C   UNL A   1      43.668  36.446  28.959  1.00  0.00     0.074 A 
ATOM     47  C   UNL A   1      43.856  33.986  28.925  1.00  0.00     0.049 A 
ATOM     48  N   UNL A   1      44.844  36.801  28.504  1.00  0.00    -0.248 NA
ATOM     49  C   UNL A   1      42.789  37.576  29.299  1.00  0.00     0.031 C 
ATOM     50  C   UNL A   1      43.441  32.602  29.140  1.00  0.00     0.029 A 
ATOM     51  N   UNL A   1      45.135  33.883  28.437  1.00  0.00    -0.354 N 
ATOM     52  C   UNL A   1      44.844  38.190  28.503  1.00  0.00     0.074 A 
ATOM     53  C   UNL A   1      43.540  38.615  28.964  1.00  0.00     0.031 C 
ATOM     54  C   UNL A   1      44.449  31.786  28.788  1.00  0.00     0.029 A 
ATOM     55  C   UNL A   1      45.569  32.589  28.298  1.00  0.00     0.049 A 
ATOM     56  H   UNL A   1      45.688  34.665  28.207  1.00  0.00     0.167 HD
ATOM     57  C   UNL A   1      45.846  39.036  28.162  1.00  0.00     0.037 A 
ATOM     58  C   UNL A   1      46.734  32.109  27.823  1.00  0.00     0.037 A 
ATOM     59  C   UNL A   1      47.144  38.616  27.704  1.00  0.00     0.049 A 
ATOM     60  C   UNL A   1      47.805  33.069  27.377  1.00  0.00     0.074 A 
ATOM     61  C   UNL A   1      48.230  39.397  27.351  1.00  0.00     0.029 A 
ATOM     62  N   UNL A   1      47.526  37.295  27.526  1.00  0.00    -0.354 N 
ATOM     63  N   UNL A   1      47.807  34.380  27.404  1.00  0.00    -0.248 NA
ATOM     64  C   UNL A   1      49.040  32.480  26.836  1.00  0.00     0.031 C 
ATOM     65  C   UNL A   1      49.253  38.550  26.909  1.00  0.00     0.029 A 
ATOM     66  C   UNL A   1      48.823  37.238  27.040  1.00  0.00     0.049 A 
ATOM     67  H   UNL A   1      46.960  36.512  27.717  1.00  0.00     0.167 HD
ATOM     68  C   UNL A   1      49.047  34.772  26.915  1.00  0.00     0.074 A 
ATOM     69  C   UNL A   1      49.776  33.559  26.608  1.00  0.00     0.031 C 
ATOM     70  C   UNL A   1      49.539  36.023  26.741  1.00  0.00     0.037 A 
BRANCH  57  71
ATOM     71  C   UNL A   1      45.560  40.509  28.247  1.00  0.00     0.064 A 
ATOM     72  C   UNL A   1      45.053  41.227  27.153  1.00  0.00     0.173 A 
ATOM     73  C   UNL A   1      45.783  41.207  29.443  1.00  0.00     0.173 A 
ATOM     74  F   UNL A   1      44.834  40.609  25.983  1.00  0.00    -0.203 F 
ATOM     75  C   UNL A   1      44.814  42.596  27.243  1.00  0.00     0.198 A 
ATOM     76  C   UNL A   1      45.514  42.570  29.539  1.00  0.00     0.198 A 
ATOM     77  F   UNL A   1      46.261  40.568  30.521  1.00  0.00    -0.203 F 
ATOM     78  F   UNL A   1      44.382  43.271  26.170  1.00  0.00    -0.200 F 
ATOM     79  C   UNL A   1      45.039  43.265  28.436  1.00  0.00     0.200 A 
ATOM     80  F   UNL A   1      45.721  43.212  30.696  1.00  0.00    -0.200 F 
ATOM     81  F   UNL A   1      44.808  44.582  28.523  1.00  0.00    -0.200 F 
ENDBRANCH  57  71
BRANCH  58  82
ATOM     82  C   UNL A   1      46.952  30.641  27.752  1.00  0.00     0.064 A 
ATOM     83  C   UNL A   1      46.635  29.918  26.594  1.00  0.00     0.173 A 
ATOM     84  C   UNL A   1      47.481  29.931  28.841  1.00  0.00     0.173 A 
ATOM     85  F   UNL A   1      46.102  30.549  25.537  1.00  0.00    -0.203 F 
ATOM     86  C   UNL A   1      46.828  28.540  26.531  1.00  0.00     0.198 A 
ATOM     87  C   UNL A   1      47.698  28.557  28.766  1.00  0.00     0.198 A 
ATOM     88  F   UNL A   1      47.798  30.576  29.972  1.00  0.00    -0.203 F 
ATOM     89  F   UNL A   1      46.480  27.866  25.425  1.00  0.00    -0.200 F 
ATOM     90  C   UNL A   1      47.366  27.862  27.614  1.00  0.00     0.200 A 
ATOM     91  F   UNL A   1      48.229  27.909  29.812  1.00  0.00    -0.200 F 
ATOM     92  F   UNL A   1      47.559  26.537  27.551  1.00  0.00    -0.200 F 
ENDBRANCH  58  82
BRANCH  70  93
ATOM     93  C   UNL A   1      50.944  36.149  26.224  1.00  0.00     0.064 A 
ATOM     94  C   UNL A   1      51.214  36.366  24.865  1.00  0.00     0.173 A 
ATOM     95  C   UNL A   1      52.033  36.095  27.109  1.00  0.00     0.173 A 
ATOM     96  F   UNL A   1      50.210  36.411  23.977  1.00  0.00    -0.203 F 
ATOM     97  C   UNL A   1      52.522  36.499  24.408  1.00  0.00     0.198 A 
ATOM     98  C   UNL A   1      53.337  36.258  26.652  1.00  0.00     0.198 A 
ATOM     99  F   UNL A   1      51.829  35.897  28.420  1.00  0.00    -0.203 F 
ATOM    100  F   UNL A   1      52.759  36.659  23.097  1.00  0.00    -0.200 F 
ATOM    101  C   UNL A   1      53.582  36.453  25.301  1.00  0.00     0.200 A 
ATOM    102  F   UNL A   1      54.359  36.228  27.520  1.00  0.00    -0.200 F 
ATOM    103  F   UNL A   1      54.840  36.589  24.859  1.00  0.00    -0.200 F 
ENDBRANCH  70  93
ENDBRANCH  44  45
ENDBRANCH  37  39
ENDBRANCH  36  37
ENDBRANCH  35  36
ENDBRANCH  34  35
ENDBRANCH  33  34
ENDBRANCH  32  33
ENDBRANCH  31  32
ENDBRANCH  30  31
ENDBRANCH   1  30
TORSDOF 24
ENDMDL
