MODEL 1
REMARK VINA RESULT:     -11.8      0.000      0.000
REMARK SMILES Cc1cc(CNS(=O)(=O)c2ccc(C(=O)OCCOCCOC(=O)c3ccc(-c4c5nc(c(-c6c(F)c(F)c(F)c(F)c6F)c6ccc([nH]6)c(-c6c(F)c(F)c(F)c(F)c6F)c6nc(c(-c7c(F)c(F)c(F)c(F)c7F)c7ccc4[nH]7)C=C6)C=C5)cc3)cc2F)no1
REMARK SMILES IDX 18 1 17 2 16 3 14 4 15 5 13 6 10 7 11 8 89 9 12 10 88 11
REMARK SMILES IDX 90 12 7 13 8 14 9 15 6 16 5 18 4 19 1 20 2 21 3 22 92 23
REMARK SMILES IDX 91 24 19 25 20 26 21 27 22 28 23 29 24 30 25 31 26 32 87 33
REMARK SMILES IDX 27 34 86 35 28 36 29 37 30 38 80 39 31 40 85 41 79 42 81 43
REMARK SMILES IDX 32 44 84 45 78 46 77 47 33 49 65 50 45 51 64 52 46 53 49 54
REMARK SMILES IDX 63 55 82 56 47 57 48 58 62 60 83 61 50 62 34 63 35 64 43 65
REMARK SMILES IDX 36 66 37 67 41 68 44 69 38 70 39 71 42 72 40 73 66 74 67 75
REMARK SMILES IDX 75 76 68 77 69 78 73 79 76 80 70 81 71 82 74 83 72 84 51 85
REMARK SMILES IDX 52 86 60 87 53 88 54 89 58 90 61 91 55 92 56 93 59 94 57 95
REMARK H PARENT 6 17 81 48 49 59
REMARK Flexibility Score: inf
ROOT
ATOM      1  C   UNL A   1      40.887  19.702  26.125  1.00  0.00     0.202 C 
ENDROOT
BRANCH   1   2
ATOM      2  C   UNL A   1      40.115  21.003  26.366  1.00  0.00     0.261 C 
BRANCH   2   3
ATOM      3  O   UNL A   1      38.893  21.024  25.605  1.00  0.00    -0.460 OA
BRANCH   3   4
ATOM      4  C   UNL A   1      38.149  22.146  25.758  1.00  0.00     0.338 C 
ATOM      5  O   UNL A   1      38.542  23.242  26.119  1.00  0.00    -0.246 OA
BRANCH   4   6
ATOM      6  C   UNL A   1      36.766  21.923  25.274  1.00  0.00     0.063 A 
ATOM      7  C   UNL A   1      34.097  21.677  24.494  1.00  0.00     0.118 A 
ATOM      8  C   UNL A   1      34.680  22.946  24.568  1.00  0.00     0.026 A 
ATOM      9  C   UNL A   1      34.853  20.542  24.766  1.00  0.00     0.144 A 
ATOM     10  C   UNL A   1      36.010  23.065  24.967  1.00  0.00     0.017 A 
ATOM     11  C   UNL A   1      36.194  20.653  25.145  1.00  0.00     0.056 A 
ATOM     12  F   UNL A   1      34.309  19.320  24.688  1.00  0.00    -0.205 F 
BRANCH   7  13
ATOM     13  S   UNL A   1      32.361  21.543  24.200  1.00  0.00     0.243 S 
ATOM     14  O   UNL A   1      31.776  20.937  25.375  1.00  0.00    -0.207 OA
ATOM     15  O   UNL A   1      32.208  20.955  22.887  1.00  0.00    -0.207 OA
BRANCH  13  16
ATOM     16  N   UNL A   1      31.780  23.098  24.123  1.00  0.00    -0.205 NA
ATOM     17  H   UNL A   1      32.557  23.715  24.360  1.00  0.00     0.141 HD
BRANCH  16  18
ATOM     18  C   UNL A   1      30.655  23.493  24.960  1.00  0.00     0.158 C 
BRANCH  18  19
ATOM     19  C   UNL A   1      30.900  24.880  25.456  1.00  0.00     0.099 A 
ATOM     20  C   UNL A   1      31.441  28.506  25.612  1.00  0.00     0.091 C 
ATOM     21  C   UNL A   1      31.239  27.048  25.656  1.00  0.00     0.133 A 
ATOM     22  C   UNL A   1      31.029  26.076  24.710  1.00  0.00     0.073 A 
ATOM     23  O   UNL A   1      31.249  26.475  26.890  1.00  0.00    -0.361 OA
ATOM     24  N   UNL A   1      31.032  25.114  26.771  1.00  0.00    -0.083 NA
ENDBRANCH  18  19
ENDBRANCH  16  18
ENDBRANCH  13  16
ENDBRANCH   7  13
ENDBRANCH   4   6
ENDBRANCH   3   4
ENDBRANCH   2   3
ENDBRANCH   1   2
BRANCH   1  25
ATOM     25  O   UNL A   1      42.255  19.870  25.754  1.00  0.00    -0.374 OA
BRANCH  25  26
ATOM     26  C   UNL A   1      42.889  21.078  26.178  1.00  0.00     0.202 C 
BRANCH  26  27
ATOM     27  C   UNL A   1      43.638  21.841  25.080  1.00  0.00     0.261 C 
BRANCH  27  28
ATOM     28  O   UNL A   1      42.984  23.087  24.773  1.00  0.00    -0.460 OA
BRANCH  28  29
ATOM     29  C   UNL A   1      43.717  24.196  25.033  1.00  0.00     0.338 C 
ATOM     30  O   UNL A   1      44.764  24.531  24.506  1.00  0.00    -0.246 OA
BRANCH  29  31
ATOM     31  C   UNL A   1      42.980  25.079  25.958  1.00  0.00     0.060 A 
ATOM     32  C   UNL A   1      43.406  26.410  26.051  1.00  0.00     0.016 A 
ATOM     33  C   UNL A   1      41.940  24.610  26.763  1.00  0.00     0.016 A 
ATOM     34  C   UNL A   1      42.829  27.265  26.988  1.00  0.00     0.010 A 
ATOM     35  C   UNL A   1      41.366  25.467  27.709  1.00  0.00     0.010 A 
ATOM     36  C   UNL A   1      41.833  26.787  27.849  1.00  0.00    -0.014 A 
BRANCH  36  37
ATOM     37  C   UNL A   1      41.386  27.624  28.989  1.00  0.00     0.031 A 
ATOM     38  C   UNL A   1      42.157  27.569  30.278  1.00  0.00     0.074 A 
ATOM     39  C   UNL A   1      40.332  28.448  28.866  1.00  0.00     0.049 A 
ATOM     40  N   UNL A   1      41.926  28.185  31.409  1.00  0.00    -0.248 NA
ATOM     41  C   UNL A   1      43.349  26.706  30.294  1.00  0.00     0.031 C 
ATOM     42  C   UNL A   1      39.539  28.628  27.653  1.00  0.00     0.029 A 
ATOM     43  N   UNL A   1      39.748  29.290  29.779  1.00  0.00    -0.354 N 
ATOM     44  C   UNL A   1      42.941  27.786  32.269  1.00  0.00     0.074 A 
ATOM     45  C   UNL A   1      43.774  26.854  31.540  1.00  0.00     0.031 C 
ATOM     46  C   UNL A   1      38.566  29.521  27.898  1.00  0.00     0.029 A 
ATOM     47  C   UNL A   1      38.648  29.951  29.293  1.00  0.00     0.049 A 
ATOM     48  H   UNL A   1      40.086  29.408  30.697  1.00  0.00     0.167 HD
ATOM     49  C   UNL A   1      43.162  28.171  33.547  1.00  0.00     0.037 A 
ATOM     50  C   UNL A   1      37.796  30.793  29.910  1.00  0.00     0.037 A 
ATOM     51  C   UNL A   1      42.336  29.102  34.269  1.00  0.00     0.049 A 
ATOM     52  C   UNL A   1      38.015  31.142  31.359  1.00  0.00     0.074 A 
ATOM     53  C   UNL A   1      42.491  29.564  35.564  1.00  0.00     0.029 A 
ATOM     54  N   UNL A   1      41.201  29.710  33.757  1.00  0.00    -0.354 N 
ATOM     55  N   UNL A   1      38.979  30.764  32.163  1.00  0.00    -0.248 NA
ATOM     56  C   UNL A   1      37.026  32.029  31.988  1.00  0.00     0.031 C 
ATOM     57  C   UNL A   1      41.421  30.418  35.852  1.00  0.00     0.029 A 
ATOM     58  C   UNL A   1      40.629  30.524  34.721  1.00  0.00     0.049 A 
ATOM     59  H   UNL A   1      40.853  29.582  32.845  1.00  0.00     0.167 HD
ATOM     60  C   UNL A   1      38.726  31.382  33.381  1.00  0.00     0.074 A 
ATOM     61  C   UNL A   1      37.523  32.166  33.211  1.00  0.00     0.031 C 
ATOM     62  C   UNL A   1      39.431  31.303  34.536  1.00  0.00     0.037 A 
BRANCH  49  63
ATOM     63  C   UNL A   1      44.340  27.579  34.261  1.00  0.00     0.064 A 
ATOM     64  C   UNL A   1      45.592  28.208  34.206  1.00  0.00     0.173 A 
ATOM     65  C   UNL A   1      44.245  26.357  34.942  1.00  0.00     0.173 A 
ATOM     66  F   UNL A   1      45.735  29.377  33.564  1.00  0.00    -0.203 F 
ATOM     67  C   UNL A   1      46.711  27.626  34.795  1.00  0.00     0.198 A 
ATOM     68  C   UNL A   1      45.360  25.790  35.551  1.00  0.00     0.198 A 
ATOM     69  F   UNL A   1      43.065  25.726  35.033  1.00  0.00    -0.203 F 
ATOM     70  F   UNL A   1      47.904  28.230  34.707  1.00  0.00    -0.200 F 
ATOM     71  C   UNL A   1      46.594  26.420  35.469  1.00  0.00     0.200 A 
ATOM     72  F   UNL A   1      45.242  24.634  36.219  1.00  0.00    -0.200 F 
ATOM     73  F   UNL A   1      47.670  25.864  36.042  1.00  0.00    -0.200 F 
ENDBRANCH  49  63
BRANCH  50  74
ATOM     74  C   UNL A   1      36.649  31.359  29.156  1.00  0.00     0.064 A 
ATOM     75  C   UNL A   1      36.625  32.710  28.777  1.00  0.00     0.173 A 
ATOM     76  C   UNL A   1      35.548  30.565  28.812  1.00  0.00     0.173 A 
ATOM     77  F   UNL A   1      37.657  33.511  29.079  1.00  0.00    -0.203 F 
ATOM     78  C   UNL A   1      35.533  33.247  28.099  1.00  0.00     0.198 A 
ATOM     79  C   UNL A   1      34.467  31.098  28.113  1.00  0.00     0.198 A 
ATOM     80  F   UNL A   1      35.538  29.262  29.130  1.00  0.00    -0.203 F 
ATOM     81  F   UNL A   1      35.523  34.548  27.774  1.00  0.00    -0.200 F 
ATOM     82  C   UNL A   1      34.456  32.440  27.765  1.00  0.00     0.200 A 
ATOM     83  F   UNL A   1      33.438  30.310  27.771  1.00  0.00    -0.200 F 
ATOM     84  F   UNL A   1      33.411  32.956  27.104  1.00  0.00    -0.200 F 
ENDBRANCH  50  74
BRANCH  62  85
ATOM     85  C   UNL A   1      38.942  32.098  35.710  1.00  0.00     0.064 A 
ATOM     86  C   UNL A   1      39.324  33.439  35.869  1.00  0.00     0.173 A 
ATOM     87  C   UNL A   1      38.177  31.506  36.724  1.00  0.00     0.173 A 
ATOM     88  F   UNL A   1      40.064  34.048  34.930  1.00  0.00    -0.203 F 
ATOM     89  C   UNL A   1      38.971  34.152  37.011  1.00  0.00     0.198 A 
ATOM     90  C   UNL A   1      37.806  32.229  37.855  1.00  0.00     0.198 A 
ATOM     91  F   UNL A   1      37.780  30.229  36.612  1.00  0.00    -0.203 F 
ATOM     92  F   UNL A   1      39.378  35.421  37.159  1.00  0.00    -0.200 F 
ATOM     93  C   UNL A   1      38.212  33.548  38.002  1.00  0.00     0.200 A 
ATOM     94  F   UNL A   1      37.056  31.651  38.802  1.00  0.00    -0.200 F 
ATOM     95  F   UNL A   1      37.872  34.236  39.100  1.00  0.00    -0.200 F 
ENDBRANCH  62  85
ENDBRANCH  36  37
ENDBRANCH  29  31
ENDBRANCH  28  29
ENDBRANCH  27  28
ENDBRANCH  26  27
ENDBRANCH  25  26
ENDBRANCH   1  25
TORSDOF 18
ENDMDL
MODEL 2
REMARK VINA RESULT:     -11.6      2.961      8.274
REMARK SMILES Cc1cc(CNS(=O)(=O)c2ccc(C(=O)OCCOCCOC(=O)c3ccc(-c4c5nc(c(-c6c(F)c(F)c(F)c(F)c6F)c6ccc([nH]6)c(-c6c(F)c(F)c(F)c(F)c6F)c6nc(c(-c7c(F)c(F)c(F)c(F)c7F)c7ccc4[nH]7)C=C6)C=C5)cc3)cc2F)no1
REMARK SMILES IDX 18 1 17 2 16 3 14 4 15 5 13 6 10 7 11 8 89 9 12 10 88 11
REMARK SMILES IDX 90 12 7 13 8 14 9 15 6 16 5 18 4 19 1 20 2 21 3 22 92 23
REMARK SMILES IDX 91 24 19 25 20 26 21 27 22 28 23 29 24 30 25 31 26 32 87 33
REMARK SMILES IDX 27 34 86 35 28 36 29 37 30 38 80 39 31 40 85 41 79 42 81 43
REMARK SMILES IDX 32 44 84 45 78 46 77 47 33 49 65 50 45 51 64 52 46 53 49 54
REMARK SMILES IDX 63 55 82 56 47 57 48 58 62 60 83 61 50 62 34 63 35 64 43 65
REMARK SMILES IDX 36 66 37 67 41 68 44 69 38 70 39 71 42 72 40 73 66 74 67 75
REMARK SMILES IDX 75 76 68 77 69 78 73 79 76 80 70 81 71 82 74 83 72 84 51 85
REMARK SMILES IDX 52 86 60 87 53 88 54 89 58 90 61 91 55 92 56 93 59 94 57 95
REMARK H PARENT 6 17 81 48 49 59
REMARK Flexibility Score: inf
ROOT
ATOM      1  C   UNL A   1      31.350  28.574  22.719  1.00  0.00     0.202 C 
ENDROOT
BRANCH   1   2
ATOM      2  C   UNL A   1      31.187  27.095  22.355  1.00  0.00     0.261 C 
BRANCH   2   3
ATOM      3  O   UNL A   1      32.255  26.308  22.915  1.00  0.00    -0.460 OA
BRANCH   3   4
ATOM      4  C   UNL A   1      32.885  25.497  22.031  1.00  0.00     0.338 C 
ATOM      5  O   UNL A   1      33.279  25.796  20.916  1.00  0.00    -0.246 OA
BRANCH   4   6
ATOM      6  C   UNL A   1      33.191  24.188  22.651  1.00  0.00     0.063 A 
ATOM      7  C   UNL A   1      33.573  21.738  23.936  1.00  0.00     0.118 A 
ATOM      8  C   UNL A   1      32.313  22.057  23.420  1.00  0.00     0.026 A 
ATOM      9  C   UNL A   1      34.639  22.617  23.774  1.00  0.00     0.144 A 
ATOM     10  C   UNL A   1      32.124  23.285  22.787  1.00  0.00     0.017 A 
ATOM     11  C   UNL A   1      34.462  23.840  23.121  1.00  0.00     0.056 A 
ATOM     12  F   UNL A   1      35.854  22.316  24.254  1.00  0.00    -0.205 F 
BRANCH   7  13
ATOM     13  S   UNL A   1      33.756  20.285  24.922  1.00  0.00     0.243 S 
ATOM     14  O   UNL A   1      35.172  20.003  25.005  1.00  0.00    -0.207 OA
ATOM     15  O   UNL A   1      32.818  19.313  24.404  1.00  0.00    -0.207 OA
BRANCH  13  16
ATOM     16  N   UNL A   1      33.258  20.694  26.453  1.00  0.00    -0.205 NA
ATOM     17  H   UNL A   1      32.240  20.763  26.423  1.00  0.00     0.141 HD
BRANCH  16  18
ATOM     18  C   UNL A   1      33.748  21.920  27.071  1.00  0.00     0.158 C 
BRANCH  18  19
ATOM     19  C   UNL A   1      32.682  22.961  26.961  1.00  0.00     0.099 A 
ATOM     20  C   UNL A   1      30.840  26.022  26.124  1.00  0.00     0.091 C 
ATOM     21  C   UNL A   1      31.493  24.762  26.518  1.00  0.00     0.133 A 
ATOM     22  C   UNL A   1      32.738  24.219  26.315  1.00  0.00     0.073 A 
ATOM     23  O   UNL A   1      30.741  23.895  27.248  1.00  0.00    -0.361 OA
ATOM     24  N   UNL A   1      31.481  22.760  27.525  1.00  0.00    -0.083 NA
ENDBRANCH  18  19
ENDBRANCH  16  18
ENDBRANCH  13  16
ENDBRANCH   7  13
ENDBRANCH   4   6
ENDBRANCH   3   4
ENDBRANCH   2   3
ENDBRANCH   1   2
BRANCH   1  25
ATOM     25  O   UNL A   1      30.992  28.911  24.059  1.00  0.00    -0.374 OA
BRANCH  25  26
ATOM     26  C   UNL A   1      32.061  29.279  24.933  1.00  0.00     0.202 C 
BRANCH  26  27
ATOM     27  C   UNL A   1      31.780  30.487  25.833  1.00  0.00     0.261 C 
BRANCH  27  28
ATOM     28  O   UNL A   1      32.553  30.422  27.047  1.00  0.00    -0.460 OA
BRANCH  28  29
ATOM     29  C   UNL A   1      33.299  31.521  27.308  1.00  0.00     0.338 C 
ATOM     30  O   UNL A   1      32.928  32.683  27.320  1.00  0.00    -0.246 OA
BRANCH  29  31
ATOM     31  C   UNL A   1      34.645  31.119  27.761  1.00  0.00     0.060 A 
ATOM     32  C   UNL A   1      34.861  29.757  28.005  1.00  0.00     0.016 A 
ATOM     33  C   UNL A   1      35.657  32.051  28.003  1.00  0.00     0.016 A 
ATOM     34  C   UNL A   1      36.072  29.327  28.542  1.00  0.00     0.010 A 
ATOM     35  C   UNL A   1      36.869  31.619  28.552  1.00  0.00     0.010 A 
ATOM     36  C   UNL A   1      37.068  30.260  28.856  1.00  0.00    -0.014 A 
BRANCH  36  37
ATOM     37  C   UNL A   1      38.255  29.831  29.635  1.00  0.00     0.031 A 
ATOM     38  C   UNL A   1      38.456  30.381  31.019  1.00  0.00     0.074 A 
ATOM     39  C   UNL A   1      39.122  28.936  29.131  1.00  0.00     0.049 A 
ATOM     40  N   UNL A   1      39.435  30.173  31.861  1.00  0.00    -0.248 NA
ATOM     41  C   UNL A   1      37.410  31.286  31.523  1.00  0.00     0.031 C 
ATOM     42  C   UNL A   1      39.007  28.294  27.825  1.00  0.00     0.029 A 
ATOM     43  N   UNL A   1      40.275  28.415  29.663  1.00  0.00    -0.354 N 
ATOM     44  C   UNL A   1      39.125  30.917  32.990  1.00  0.00     0.074 A 
ATOM     45  C   UNL A   1      37.881  31.605  32.720  1.00  0.00     0.031 C 
ATOM     46  C   UNL A   1      40.052  27.467  27.653  1.00  0.00     0.029 A 
ATOM     47  C   UNL A   1      40.925  27.546  28.823  1.00  0.00     0.049 A 
ATOM     48  H   UNL A   1      40.605  28.643  30.563  1.00  0.00     0.167 HD
ATOM     49  C   UNL A   1      39.812  31.009  34.153  1.00  0.00     0.037 A 
ATOM     50  C   UNL A   1      42.100  26.904  28.976  1.00  0.00     0.037 A 
ATOM     51  C   UNL A   1      41.045  30.320  34.424  1.00  0.00     0.049 A 
ATOM     52  C   UNL A   1      42.888  27.088  30.246  1.00  0.00     0.074 A 
ATOM     53  C   UNL A   1      41.807  30.342  35.580  1.00  0.00     0.029 A 
ATOM     54  N   UNL A   1      41.698  29.490  33.527  1.00  0.00    -0.354 N 
ATOM     55  N   UNL A   1      42.586  27.789  31.311  1.00  0.00    -0.248 NA
ATOM     56  C   UNL A   1      44.182  26.396  30.334  1.00  0.00     0.031 C 
ATOM     57  C   UNL A   1      42.945  29.559  35.365  1.00  0.00     0.029 A 
ATOM     58  C   UNL A   1      42.868  29.013  34.094  1.00  0.00     0.049 A 
ATOM     59  H   UNL A   1      41.378  29.272  32.622  1.00  0.00     0.167 HD
ATOM     60  C   UNL A   1      43.637  27.608  32.201  1.00  0.00     0.074 A 
ATOM     61  C   UNL A   1      44.583  26.723  31.556  1.00  0.00     0.031 C 
ATOM     62  C   UNL A   1      43.800  28.129  33.441  1.00  0.00     0.037 A 
BRANCH  49  63
ATOM     63  C   UNL A   1      39.255  31.897  35.225  1.00  0.00     0.064 A 
ATOM     64  C   UNL A   1      39.555  33.266  35.239  1.00  0.00     0.173 A 
ATOM     65  C   UNL A   1      38.481  31.381  36.274  1.00  0.00     0.173 A 
ATOM     66  F   UNL A   1      40.295  33.806  34.259  1.00  0.00    -0.203 F 
ATOM     67  C   UNL A   1      39.112  34.086  36.273  1.00  0.00     0.198 A 
ATOM     68  C   UNL A   1      38.019  32.207  37.295  1.00  0.00     0.198 A 
ATOM     69  F   UNL A   1      38.156  30.079  36.296  1.00  0.00    -0.203 F 
ATOM     70  F   UNL A   1      39.435  35.386  36.282  1.00  0.00    -0.200 F 
ATOM     71  C   UNL A   1      38.343  33.556  37.298  1.00  0.00     0.200 A 
ATOM     72  F   UNL A   1      37.258  31.699  38.274  1.00  0.00    -0.200 F 
ATOM     73  F   UNL A   1      37.910  34.347  38.290  1.00  0.00    -0.200 F 
ENDBRANCH  49  63
BRANCH  50  74
ATOM     74  C   UNL A   1      42.604  26.028  27.888  1.00  0.00     0.064 A 
ATOM     75  C   UNL A   1      43.464  26.524  26.896  1.00  0.00     0.173 A 
ATOM     76  C   UNL A   1      42.225  24.681  27.810  1.00  0.00     0.173 A 
ATOM     77  F   UNL A   1      43.859  27.804  26.928  1.00  0.00    -0.203 F 
ATOM     78  C   UNL A   1      43.908  25.708  25.857  1.00  0.00     0.198 A 
ATOM     79  C   UNL A   1      42.689  23.862  26.784  1.00  0.00     0.198 A 
ATOM     80  F   UNL A   1      41.425  24.157  28.751  1.00  0.00    -0.203 F 
ATOM     81  F   UNL A   1      44.707  26.215  24.906  1.00  0.00    -0.200 F 
ATOM     82  C   UNL A   1      43.523  24.378  25.804  1.00  0.00     0.200 A 
ATOM     83  F   UNL A   1      42.334  22.570  26.749  1.00  0.00    -0.200 F 
ATOM     84  F   UNL A   1      43.959  23.591  24.810  1.00  0.00    -0.200 F 
ENDBRANCH  50  74
BRANCH  62  85
ATOM     85  C   UNL A   1      45.034  27.748  34.204  1.00  0.00     0.064 A 
ATOM     86  C   UNL A   1      46.216  28.490  34.060  1.00  0.00     0.173 A 
ATOM     87  C   UNL A   1      45.072  26.595  35.001  1.00  0.00     0.173 A 
ATOM     88  F   UNL A   1      46.231  29.596  33.301  1.00  0.00    -0.203 F 
ATOM     89  C   UNL A   1      47.397  28.081  34.673  1.00  0.00     0.198 A 
ATOM     90  C   UNL A   1      46.250  26.201  35.631  1.00  0.00     0.198 A 
ATOM     91  F   UNL A   1      43.964  25.859  35.177  1.00  0.00    -0.203 F 
ATOM     92  F   UNL A   1      48.523  28.785  34.491  1.00  0.00    -0.200 F 
ATOM     93  C   UNL A   1      47.412  26.938  35.458  1.00  0.00     0.200 A 
ATOM     94  F   UNL A   1      46.260  25.109  36.406  1.00  0.00    -0.200 F 
ATOM     95  F   UNL A   1      48.550  26.545  36.048  1.00  0.00    -0.200 F 
ENDBRANCH  62  85
ENDBRANCH  36  37
ENDBRANCH  29  31
ENDBRANCH  28  29
ENDBRANCH  27  28
ENDBRANCH  26  27
ENDBRANCH  25  26
ENDBRANCH   1  25
TORSDOF 18
ENDMDL
MODEL 3
REMARK VINA RESULT:     -11.5      2.899      8.061
REMARK SMILES Cc1cc(CNS(=O)(=O)c2ccc(C(=O)OCCOCCOC(=O)c3ccc(-c4c5nc(c(-c6c(F)c(F)c(F)c(F)c6F)c6ccc([nH]6)c(-c6c(F)c(F)c(F)c(F)c6F)c6nc(c(-c7c(F)c(F)c(F)c(F)c7F)c7ccc4[nH]7)C=C6)C=C5)cc3)cc2F)no1
REMARK SMILES IDX 18 1 17 2 16 3 14 4 15 5 13 6 10 7 11 8 89 9 12 10 88 11
REMARK SMILES IDX 90 12 7 13 8 14 9 15 6 16 5 18 4 19 1 20 2 21 3 22 92 23
REMARK SMILES IDX 91 24 19 25 20 26 21 27 22 28 23 29 24 30 25 31 26 32 87 33
REMARK SMILES IDX 27 34 86 35 28 36 29 37 30 38 80 39 31 40 85 41 79 42 81 43
REMARK SMILES IDX 32 44 84 45 78 46 77 47 33 49 65 50 45 51 64 52 46 53 49 54
REMARK SMILES IDX 63 55 82 56 47 57 48 58 62 60 83 61 50 62 34 63 35 64 43 65
REMARK SMILES IDX 36 66 37 67 41 68 44 69 38 70 39 71 42 72 40 73 66 74 67 75
REMARK SMILES IDX 75 76 68 77 69 78 73 79 76 80 70 81 71 82 74 83 72 84 51 85
REMARK SMILES IDX 52 86 60 87 53 88 54 89 58 90 61 91 55 92 56 93 59 94 57 95
REMARK H PARENT 6 17 81 48 49 59
REMARK Flexibility Score: inf
ROOT
ATOM      1  C   UNL A   1      32.245  28.724  23.161  1.00  0.00     0.202 C 
ENDROOT
BRANCH   1   2
ATOM      2  C   UNL A   1      33.185  27.567  22.809  1.00  0.00     0.261 C 
BRANCH   2   3
ATOM      3  O   UNL A   1      32.458  26.328  22.709  1.00  0.00    -0.460 OA
BRANCH   3   4
ATOM      4  C   UNL A   1      32.987  25.428  21.845  1.00  0.00     0.338 C 
ATOM      5  O   UNL A   1      33.167  25.580  20.649  1.00  0.00    -0.246 OA
BRANCH   4   6
ATOM      6  C   UNL A   1      33.482  24.237  22.573  1.00  0.00     0.063 A 
ATOM      7  C   UNL A   1      34.217  21.984  24.051  1.00  0.00     0.118 A 
ATOM      8  C   UNL A   1      32.947  22.044  23.469  1.00  0.00     0.026 A 
ATOM      9  C   UNL A   1      35.124  23.022  23.859  1.00  0.00     0.144 A 
ATOM     10  C   UNL A   1      32.580  23.174  22.739  1.00  0.00     0.017 A 
ATOM     11  C   UNL A   1      34.771  24.148  23.110  1.00  0.00     0.056 A 
ATOM     12  F   UNL A   1      36.348  22.970  24.402  1.00  0.00    -0.205 F 
BRANCH   7  13
ATOM     13  S   UNL A   1      34.599  20.656  25.148  1.00  0.00     0.243 S 
ATOM     14  O   UNL A   1      36.040  20.575  25.233  1.00  0.00    -0.207 OA
ATOM     15  O   UNL A   1      33.800  19.526  24.725  1.00  0.00    -0.207 OA
BRANCH  13  16
ATOM     16  N   UNL A   1      34.056  21.119  26.648  1.00  0.00    -0.205 NA
ATOM     17  H   UNL A   1      33.046  20.969  26.656  1.00  0.00     0.141 HD
BRANCH  16  18
ATOM     18  C   UNL A   1      34.284  22.482  27.112  1.00  0.00     0.158 C 
BRANCH  18  19
ATOM     19  C   UNL A   1      33.005  23.242  26.988  1.00  0.00     0.099 A 
ATOM     20  C   UNL A   1      30.483  25.739  26.053  1.00  0.00     0.091 C 
ATOM     21  C   UNL A   1      31.420  24.690  26.492  1.00  0.00     0.133 A 
ATOM     22  C   UNL A   1      32.750  24.433  26.268  1.00  0.00     0.073 A 
ATOM     23  O   UNL A   1      30.909  23.726  27.303  1.00  0.00    -0.361 OA
ATOM     24  N   UNL A   1      31.899  22.811  27.615  1.00  0.00    -0.083 NA
ENDBRANCH  18  19
ENDBRANCH  16  18
ENDBRANCH  13  16
ENDBRANCH   7  13
ENDBRANCH   4   6
ENDBRANCH   3   4
ENDBRANCH   2   3
ENDBRANCH   1   2
BRANCH   1  25
ATOM     25  O   UNL A   1      31.528  28.571  24.386  1.00  0.00    -0.374 OA
BRANCH  25  26
ATOM     26  C   UNL A   1      32.204  28.979  25.577  1.00  0.00     0.202 C 
BRANCH  26  27
ATOM     27  C   UNL A   1      32.069  30.464  25.926  1.00  0.00     0.261 C 
BRANCH  27  28
ATOM     28  O   UNL A   1      32.546  30.731  27.260  1.00  0.00    -0.460 OA
BRANCH  28  29
ATOM     29  C   UNL A   1      33.342  31.820  27.374  1.00  0.00     0.338 C 
ATOM     30  O   UNL A   1      33.026  32.988  27.220  1.00  0.00    -0.246 OA
BRANCH  29  31
ATOM     31  C   UNL A   1      34.665  31.423  27.895  1.00  0.00     0.060 A 
ATOM     32  C   UNL A   1      34.829  30.087  28.284  1.00  0.00     0.016 A 
ATOM     33  C   UNL A   1      35.704  32.342  28.061  1.00  0.00     0.016 A 
ATOM     34  C   UNL A   1      36.014  29.676  28.889  1.00  0.00     0.010 A 
ATOM     35  C   UNL A   1      36.891  31.929  28.678  1.00  0.00     0.010 A 
ATOM     36  C   UNL A   1      37.036  30.603  29.126  1.00  0.00    -0.014 A 
BRANCH  36  37
ATOM     37  C   UNL A   1      38.193  30.219  29.970  1.00  0.00     0.031 A 
ATOM     38  C   UNL A   1      39.224  29.281  29.409  1.00  0.00     0.074 A 
ATOM     39  C   UNL A   1      38.342  30.727  31.205  1.00  0.00     0.049 A 
ATOM     40  N   UNL A   1      40.293  28.785  29.979  1.00  0.00    -0.248 NA
ATOM     41  C   UNL A   1      39.027  28.845  28.017  1.00  0.00     0.031 C 
ATOM     42  C   UNL A   1      37.439  31.683  31.839  1.00  0.00     0.029 A 
ATOM     43  N   UNL A   1      39.314  30.504  32.149  1.00  0.00    -0.354 N 
ATOM     44  C   UNL A   1      40.893  27.982  29.019  1.00  0.00     0.074 A 
ATOM     45  C   UNL A   1      40.058  28.033  27.838  1.00  0.00     0.031 C 
ATOM     46  C   UNL A   1      37.895  31.963  33.071  1.00  0.00     0.029 A 
ATOM     47  C   UNL A   1      39.104  31.180  33.325  1.00  0.00     0.049 A 
ATOM     48  H   UNL A   1      40.088  29.914  31.997  1.00  0.00     0.167 HD
ATOM     49  C   UNL A   1      42.043  27.275  29.112  1.00  0.00     0.037 A 
ATOM     50  C   UNL A   1      39.799  31.155  34.479  1.00  0.00     0.037 A 
ATOM     51  C   UNL A   1      42.876  27.230  30.284  1.00  0.00     0.049 A 
ATOM     52  C   UNL A   1      41.030  30.294  34.585  1.00  0.00     0.074 A 
ATOM     53  C   UNL A   1      44.068  26.550  30.466  1.00  0.00     0.029 A 
ATOM     54  N   UNL A   1      42.600  27.887  31.472  1.00  0.00    -0.354 N 
ATOM     55  N   UNL A   1      41.594  29.541  33.673  1.00  0.00    -0.248 NA
ATOM     56  C   UNL A   1      41.719  30.274  35.884  1.00  0.00     0.031 C 
ATOM     57  C   UNL A   1      44.491  26.762  31.782  1.00  0.00     0.029 A 
ATOM     58  C   UNL A   1      43.588  27.609  32.403  1.00  0.00     0.049 A 
ATOM     59  H   UNL A   1      41.820  28.465  31.631  1.00  0.00     0.167 HD
ATOM     60  C   UNL A   1      42.711  28.977  34.276  1.00  0.00     0.074 A 
ATOM     61  C   UNL A   1      42.752  29.480  35.632  1.00  0.00     0.031 C 
ATOM     62  C   UNL A   1      43.619  28.120  33.749  1.00  0.00     0.037 A 
BRANCH  49  63
ATOM     63  C   UNL A   1      42.471  26.477  27.917  1.00  0.00     0.064 A 
ATOM     64  C   UNL A   1      43.274  27.060  26.925  1.00  0.00     0.173 A 
ATOM     65  C   UNL A   1      42.032  25.161  27.720  1.00  0.00     0.173 A 
ATOM     66  F   UNL A   1      43.716  28.318  27.066  1.00  0.00    -0.203 F 
ATOM     67  C   UNL A   1      43.610  26.356  25.772  1.00  0.00     0.198 A 
ATOM     68  C   UNL A   1      42.389  24.451  26.577  1.00  0.00     0.198 A 
ATOM     69  F   UNL A   1      41.274  24.557  28.648  1.00  0.00    -0.203 F 
ATOM     70  F   UNL A   1      44.354  26.942  24.825  1.00  0.00    -0.200 F 
ATOM     71  C   UNL A   1      43.169  25.052  25.600  1.00  0.00     0.200 A 
ATOM     72  F   UNL A   1      41.980  23.184  26.421  1.00  0.00    -0.200 F 
ATOM     73  F   UNL A   1      43.499  24.373  24.493  1.00  0.00    -0.200 F 
ENDBRANCH  49  63
BRANCH  50  74
ATOM     74  C   UNL A   1      39.339  31.970  35.631  1.00  0.00     0.064 A 
ATOM     75  C   UNL A   1      38.458  31.444  36.588  1.00  0.00     0.173 A 
ATOM     76  C   UNL A   1      39.759  33.297  35.790  1.00  0.00     0.173 A 
ATOM     77  F   UNL A   1      38.029  30.178  36.483  1.00  0.00    -0.203 F 
ATOM     78  C   UNL A   1      38.001  32.222  37.650  1.00  0.00     0.198 A 
ATOM     79  C   UNL A   1      39.319  34.067  36.865  1.00  0.00     0.198 A 
ATOM     80  F   UNL A   1      40.621  33.835  34.915  1.00  0.00    -0.203 F 
ATOM     81  F   UNL A   1      37.137  31.703  38.534  1.00  0.00    -0.200 F 
ATOM     82  C   UNL A   1      38.434  33.531  37.789  1.00  0.00     0.200 A 
ATOM     83  F   UNL A   1      39.759  35.324  37.010  1.00  0.00    -0.200 F 
ATOM     84  F   UNL A   1      38.002  34.276  38.816  1.00  0.00    -0.200 F 
ENDBRANCH  50  74
BRANCH  62  85
ATOM     85  C   UNL A   1      44.754  27.678  34.625  1.00  0.00     0.064 A 
ATOM     86  C   UNL A   1      44.627  26.537  35.431  1.00  0.00     0.173 A 
ATOM     87  C   UNL A   1      45.928  28.437  34.737  1.00  0.00     0.173 A 
ATOM     88  F   UNL A   1      43.519  25.783  35.366  1.00  0.00    -0.203 F 
ATOM     89  C   UNL A   1      45.627  26.182  36.331  1.00  0.00     0.198 A 
ATOM     90  C   UNL A   1      46.936  28.066  35.622  1.00  0.00     0.198 A 
ATOM     91  F   UNL A   1      46.099  29.531  33.979  1.00  0.00    -0.203 F 
ATOM     92  F   UNL A   1      45.468  25.108  37.118  1.00  0.00    -0.200 F 
ATOM     93  C   UNL A   1      46.781  26.945  36.425  1.00  0.00     0.200 A 
ATOM     94  F   UNL A   1      48.059  28.792  35.699  1.00  0.00    -0.200 F 
ATOM     95  F   UNL A   1      47.744  26.601  37.292  1.00  0.00    -0.200 F 
ENDBRANCH  62  85
ENDBRANCH  36  37
ENDBRANCH  29  31
ENDBRANCH  28  29
ENDBRANCH  27  28
ENDBRANCH  26  27
ENDBRANCH  25  26
ENDBRANCH   1  25
TORSDOF 18
ENDMDL
