MODEL 1
REMARK VINA RESULT:     -12.5      0.000      0.000
REMARK SMILES Cc1ccc(-c2cc(C[C@H]3CCCC3=O)ccc2[C@@H](C)C(=O)OCCOCCOC(=O)c2ccc(-c3c4nc(c(-c5c(F)c(F)c(F)c(F)c5F)c5ccc([nH]5)c(-c5c(F)c(F)c(F)c(F)c5F)c5nc(c(-c6c(F)c(F)c(F)c(F)c6F)c6ccc3[nH]6)C=C5)C=C4)cc2)cc1
REMARK SMILES IDX 25 1 24 2 23 3 21 4 22 5 19 6 20 7 18 8 6 9 7 10 8 11 17 12
REMARK SMILES IDX 16 13 5 14 1 15 2 16 3 17 96 18 4 19 95 20 9 21 10 22 11 23
REMARK SMILES IDX 14 24 12 25 13 26 15 27 26 28 27 29 28 30 29 31 30 32 31 33
REMARK SMILES IDX 32 34 33 35 94 36 34 37 93 38 35 39 36 40 37 41 87 42 38 43
REMARK SMILES IDX 92 44 86 45 88 46 39 47 91 48 85 49 84 50 40 52 72 53 52 54
REMARK SMILES IDX 71 55 53 56 56 57 70 58 89 59 54 60 55 61 69 63 90 64 57 65
REMARK SMILES IDX 41 66 42 67 50 68 43 69 44 70 48 71 51 72 45 73 46 74 49 75
REMARK SMILES IDX 47 76 73 77 74 78 82 79 75 80 76 81 80 82 83 83 77 84 78 85
REMARK SMILES IDX 81 86 79 87 58 88 59 89 67 90 60 91 61 92 65 93 68 94 62 95
REMARK SMILES IDX 63 96 66 97 64 98
REMARK H PARENT 88 51 56 62
REMARK Flexibility Score: inf
ROOT
ATOM      1  C   UNL A   1      39.243  21.528  26.058  1.00  0.00     0.202 C 
ENDROOT
BRANCH   1   2
ATOM      2  C   UNL A   1      37.975  21.459  25.269  1.00  0.00     0.261 C 
BRANCH   2   3
ATOM      3  O   UNL A   1      37.428  22.748  24.923  1.00  0.00    -0.463 OA
BRANCH   3   4
ATOM      4  C   UNL A   1      36.425  22.888  23.996  1.00  0.00     0.313 C 
ATOM      5  O   UNL A   1      36.539  22.741  22.796  1.00  0.00    -0.252 OA
BRANCH   4   6
ATOM      6  C   UNL A   1      35.119  23.243  24.722  1.00  0.00     0.127 C 
ATOM      7  C   UNL A   1      35.381  23.713  26.151  1.00  0.00     0.025 C 
BRANCH   6   8
ATOM      8  C   UNL A   1      34.175  22.036  24.614  1.00  0.00    -0.026 A 
ATOM      9  C   UNL A   1      33.047  22.049  23.763  1.00  0.00    -0.014 A 
ATOM     10  C   UNL A   1      32.408  20.818  23.479  1.00  0.00     0.012 A 
ATOM     11  C   UNL A   1      32.861  19.596  24.020  1.00  0.00    -0.047 A 
ATOM     12  C   UNL A   1      34.565  20.820  25.213  1.00  0.00     0.005 A 
ATOM     13  C   UNL A   1      33.942  19.620  24.898  1.00  0.00     0.004 A 
BRANCH   9  14
ATOM     14  C   UNL A   1      32.503  23.316  23.230  1.00  0.00    -0.018 A 
ATOM     15  C   UNL A   1      31.069  27.226  22.014  1.00  0.00     0.044 C 
ATOM     16  C   UNL A   1      31.537  25.858  22.414  1.00  0.00    -0.051 A 
ATOM     17  C   UNL A   1      32.729  25.349  21.895  1.00  0.00     0.004 A 
ATOM     18  C   UNL A   1      30.824  25.087  23.339  1.00  0.00     0.004 A 
ATOM     19  C   UNL A   1      33.207  24.098  22.303  1.00  0.00     0.009 A 
ATOM     20  C   UNL A   1      31.300  23.831  23.736  1.00  0.00     0.009 A 
ENDBRANCH   9  14
BRANCH  11  21
ATOM     21  C   UNL A   1      32.123  18.294  23.803  1.00  0.00     0.047 C 
BRANCH  21  22
ATOM     22  C   UNL A   1      32.904  16.975  23.748  1.00  0.00     0.060 C 
ATOM     23  C   UNL A   1      34.352  17.063  23.271  1.00  0.00     0.012 C 
ATOM     24  C   UNL A   1      32.999  16.212  25.048  1.00  0.00     0.136 C 
ATOM     25  C   UNL A   1      35.244  16.630  24.424  1.00  0.00     0.009 C 
ATOM     26  C   UNL A   1      34.405  15.812  25.390  1.00  0.00     0.076 C 
ATOM     27  O   UNL A   1      32.028  15.885  25.719  1.00  0.00    -0.299 OA
ENDBRANCH  21  22
ENDBRANCH  11  21
ENDBRANCH   6   8
ENDBRANCH   4   6
ENDBRANCH   3   4
ENDBRANCH   2   3
ENDBRANCH   1   2
BRANCH   1  28
ATOM     28  O   UNL A   1      39.904  20.300  25.820  1.00  0.00    -0.374 OA
BRANCH  28  29
ATOM     29  C   UNL A   1      40.912  19.957  26.744  1.00  0.00     0.202 C 
BRANCH  29  30
ATOM     30  C   UNL A   1      42.284  19.732  26.103  1.00  0.00     0.261 C 
BRANCH  30  31
ATOM     31  O   UNL A   1      43.169  20.831  26.399  1.00  0.00    -0.460 OA
BRANCH  31  32
ATOM     32  C   UNL A   1      43.439  21.659  25.355  1.00  0.00     0.338 C 
ATOM     33  O   UNL A   1      44.191  21.395  24.420  1.00  0.00    -0.246 OA
BRANCH  32  34
ATOM     34  C   UNL A   1      42.945  23.030  25.659  1.00  0.00     0.060 A 
ATOM     35  C   UNL A   1      43.278  24.109  24.816  1.00  0.00     0.016 A 
ATOM     36  C   UNL A   1      42.473  23.275  26.945  1.00  0.00     0.016 A 
ATOM     37  C   UNL A   1      43.298  25.417  25.323  1.00  0.00     0.010 A 
ATOM     38  C   UNL A   1      42.643  24.533  27.475  1.00  0.00     0.010 A 
ATOM     39  C   UNL A   1      43.077  25.611  26.683  1.00  0.00    -0.014 A 
BRANCH  39  40
ATOM     40  C   UNL A   1      43.305  26.842  27.448  1.00  0.00     0.031 A 
ATOM     41  C   UNL A   1      42.104  27.653  27.761  1.00  0.00     0.074 A 
ATOM     42  C   UNL A   1      44.474  27.079  28.102  1.00  0.00     0.049 A 
ATOM     43  N   UNL A   1      42.153  28.769  28.392  1.00  0.00    -0.248 NA
ATOM     44  C   UNL A   1      40.737  27.306  27.362  1.00  0.00     0.031 C 
ATOM     45  C   UNL A   1      44.697  27.889  29.306  1.00  0.00     0.029 A 
ATOM     46  N   UNL A   1      45.770  26.616  27.823  1.00  0.00    -0.354 N 
ATOM     47  C   UNL A   1      40.879  29.100  28.771  1.00  0.00     0.074 A 
ATOM     48  C   UNL A   1      40.024  28.237  28.003  1.00  0.00     0.031 C 
ATOM     49  C   UNL A   1      46.014  28.122  29.460  1.00  0.00     0.029 A 
ATOM     50  C   UNL A   1      46.682  27.572  28.294  1.00  0.00     0.049 A 
ATOM     51  H   UNL A   1      45.998  25.769  27.375  1.00  0.00     0.167 HD
ATOM     52  C   UNL A   1      40.745  29.999  29.782  1.00  0.00     0.037 A 
ATOM     53  C   UNL A   1      47.537  28.196  27.441  1.00  0.00     0.037 A 
ATOM     54  C   UNL A   1      42.044  30.627  30.066  1.00  0.00     0.049 A 
ATOM     55  C   UNL A   1      47.186  29.650  27.445  1.00  0.00     0.074 A 
ATOM     56  C   UNL A   1      42.956  30.526  31.101  1.00  0.00     0.029 A 
ATOM     57  N   UNL A   1      42.717  31.255  29.014  1.00  0.00    -0.354 N 
ATOM     58  N   UNL A   1      45.989  30.073  27.754  1.00  0.00    -0.248 NA
ATOM     59  C   UNL A   1      48.140  30.731  27.250  1.00  0.00     0.031 C 
ATOM     60  C   UNL A   1      44.210  31.015  30.618  1.00  0.00     0.029 A 
ATOM     61  C   UNL A   1      44.051  31.455  29.311  1.00  0.00     0.049 A 
ATOM     62  H   UNL A   1      42.293  31.522  28.167  1.00  0.00     0.167 HD
ATOM     63  C   UNL A   1      46.021  31.419  27.918  1.00  0.00     0.074 A 
ATOM     64  C   UNL A   1      47.374  31.796  27.543  1.00  0.00     0.031 C 
ATOM     65  C   UNL A   1      44.940  32.121  28.358  1.00  0.00     0.037 A 
BRANCH  52  66
ATOM     66  C   UNL A   1      39.496  30.228  30.606  1.00  0.00     0.064 A 
ATOM     67  C   UNL A   1      38.407  30.930  30.047  1.00  0.00     0.173 A 
ATOM     68  C   UNL A   1      39.330  29.878  31.965  1.00  0.00     0.173 A 
ATOM     69  F   UNL A   1      38.435  31.352  28.774  1.00  0.00    -0.203 F 
ATOM     70  C   UNL A   1      37.252  31.238  30.777  1.00  0.00     0.198 A 
ATOM     71  C   UNL A   1      38.156  30.141  32.679  1.00  0.00     0.198 A 
ATOM     72  F   UNL A   1      40.308  29.320  32.685  1.00  0.00    -0.203 F 
ATOM     73  F   UNL A   1      36.270  31.946  30.202  1.00  0.00    -0.200 F 
ATOM     74  C   UNL A   1      37.120  30.829  32.088  1.00  0.00     0.200 A 
ATOM     75  F   UNL A   1      38.052  29.741  33.954  1.00  0.00    -0.200 F 
ATOM     76  F   UNL A   1      36.011  31.112  32.784  1.00  0.00    -0.200 F 
ENDBRANCH  52  66
BRANCH  53  77
ATOM     77  C   UNL A   1      47.930  27.307  26.307  1.00  0.00     0.064 A 
ATOM     78  C   UNL A   1      47.383  27.620  25.040  1.00  0.00     0.173 A 
ATOM     79  C   UNL A   1      49.132  26.584  26.318  1.00  0.00     0.173 A 
ATOM     80  F   UNL A   1      46.245  28.330  24.962  1.00  0.00    -0.203 F 
ATOM     81  C   UNL A   1      48.082  27.370  23.858  1.00  0.00     0.198 A 
ATOM     82  C   UNL A   1      49.826  26.332  25.128  1.00  0.00     0.198 A 
ATOM     83  F   UNL A   1      49.714  26.258  27.480  1.00  0.00    -0.203 F 
ATOM     84  F   UNL A   1      47.620  27.845  22.692  1.00  0.00    -0.200 F 
ATOM     85  C   UNL A   1      49.327  26.768  23.909  1.00  0.00     0.200 A 
ATOM     86  F   UNL A   1      51.043  25.767  25.170  1.00  0.00    -0.200 F 
ATOM     87  F   UNL A   1      50.076  26.681  22.798  1.00  0.00    -0.200 F 
ENDBRANCH  53  77
BRANCH  65  88
ATOM     88  C   UNL A   1      44.685  33.541  27.939  1.00  0.00     0.064 A 
ATOM     89  C   UNL A   1      44.003  33.880  26.755  1.00  0.00     0.173 A 
ATOM     90  C   UNL A   1      44.952  34.614  28.817  1.00  0.00     0.173 A 
ATOM     91  F   UNL A   1      43.542  32.948  25.910  1.00  0.00    -0.203 F 
ATOM     92  C   UNL A   1      43.709  35.200  26.424  1.00  0.00     0.198 A 
ATOM     93  C   UNL A   1      44.578  35.921  28.520  1.00  0.00     0.198 A 
ATOM     94  F   UNL A   1      45.541  34.427  30.006  1.00  0.00    -0.203 F 
ATOM     95  F   UNL A   1      43.123  35.470  25.250  1.00  0.00    -0.200 F 
ATOM     96  C   UNL A   1      43.986  36.219  27.311  1.00  0.00     0.200 A 
ATOM     97  F   UNL A   1      44.777  36.888  29.428  1.00  0.00    -0.200 F 
ATOM     98  F   UNL A   1      43.657  37.482  27.013  1.00  0.00    -0.200 F 
ENDBRANCH  65  88
ENDBRANCH  39  40
ENDBRANCH  32  34
ENDBRANCH  31  32
ENDBRANCH  30  31
ENDBRANCH  29  30
ENDBRANCH  28  29
ENDBRANCH   1  28
TORSDOF 18
ENDMDL
MODEL 2
REMARK VINA RESULT:     -12.5      3.996      9.729
REMARK SMILES Cc1ccc(-c2cc(C[C@H]3CCCC3=O)ccc2[C@@H](C)C(=O)OCCOCCOC(=O)c2ccc(-c3c4nc(c(-c5c(F)c(F)c(F)c(F)c5F)c5ccc([nH]5)c(-c5c(F)c(F)c(F)c(F)c5F)c5nc(c(-c6c(F)c(F)c(F)c(F)c6F)c6ccc3[nH]6)C=C5)C=C4)cc2)cc1
REMARK SMILES IDX 25 1 24 2 23 3 21 4 22 5 19 6 20 7 18 8 6 9 7 10 8 11 17 12
REMARK SMILES IDX 16 13 5 14 1 15 2 16 3 17 96 18 4 19 95 20 9 21 10 22 11 23
REMARK SMILES IDX 14 24 12 25 13 26 15 27 26 28 27 29 28 30 29 31 30 32 31 33
REMARK SMILES IDX 32 34 33 35 94 36 34 37 93 38 35 39 36 40 37 41 87 42 38 43
REMARK SMILES IDX 92 44 86 45 88 46 39 47 91 48 85 49 84 50 40 52 72 53 52 54
REMARK SMILES IDX 71 55 53 56 56 57 70 58 89 59 54 60 55 61 69 63 90 64 57 65
REMARK SMILES IDX 41 66 42 67 50 68 43 69 44 70 48 71 51 72 45 73 46 74 49 75
REMARK SMILES IDX 47 76 73 77 74 78 82 79 75 80 76 81 80 82 83 83 77 84 78 85
REMARK SMILES IDX 81 86 79 87 58 88 59 89 67 90 60 91 61 92 65 93 68 94 62 95
REMARK SMILES IDX 63 96 66 97 64 98
REMARK H PARENT 88 51 56 62
REMARK Flexibility Score: inf
ROOT
ATOM      1  C   UNL A   1      31.333  28.726  24.818  1.00  0.00     0.202 C 
ENDROOT
BRANCH   1   2
ATOM      2  C   UNL A   1      31.169  27.242  24.903  1.00  0.00     0.261 C 
BRANCH   2   3
ATOM      3  O   UNL A   1      32.223  26.497  24.259  1.00  0.00    -0.463 OA
BRANCH   3   4
ATOM      4  C   UNL A   1      32.209  25.126  24.194  1.00  0.00     0.313 C 
ATOM      5  O   UNL A   1      31.551  24.386  24.899  1.00  0.00    -0.252 OA
BRANCH   4   6
ATOM      6  C   UNL A   1      33.148  24.668  23.068  1.00  0.00     0.127 C 
ATOM      7  C   UNL A   1      32.794  25.331  21.738  1.00  0.00     0.025 C 
BRANCH   6   8
ATOM      8  C   UNL A   1      33.134  23.132  23.036  1.00  0.00    -0.026 A 
ATOM      9  C   UNL A   1      33.969  22.364  23.878  1.00  0.00    -0.014 A 
ATOM     10  C   UNL A   1      33.690  20.983  24.019  1.00  0.00     0.012 A 
ATOM     11  C   UNL A   1      32.616  20.364  23.345  1.00  0.00    -0.047 A 
ATOM     12  C   UNL A   1      32.117  22.483  22.305  1.00  0.00     0.005 A 
ATOM     13  C   UNL A   1      31.842  21.134  22.480  1.00  0.00     0.004 A 
BRANCH   9  14
ATOM     14  C   UNL A   1      35.142  22.964  24.548  1.00  0.00    -0.018 A 
ATOM     15  C   UNL A   1      38.643  24.348  26.705  1.00  0.00     0.044 C 
ATOM     16  C   UNL A   1      37.419  23.905  25.958  1.00  0.00    -0.051 A 
ATOM     17  C   UNL A   1      37.528  23.478  24.632  1.00  0.00     0.004 A 
ATOM     18  C   UNL A   1      36.165  23.866  26.574  1.00  0.00     0.004 A 
ATOM     19  C   UNL A   1      36.405  23.009  23.940  1.00  0.00     0.009 A 
ATOM     20  C   UNL A   1      35.041  23.406  25.876  1.00  0.00     0.009 A 
ENDBRANCH   9  14
BRANCH  11  21
ATOM     21  C   UNL A   1      32.374  18.872  23.412  1.00  0.00     0.047 C 
BRANCH  21  22
ATOM     22  C   UNL A   1      33.243  17.998  24.323  1.00  0.00     0.060 C 
ATOM     23  C   UNL A   1      32.689  17.710  25.717  1.00  0.00     0.012 C 
ATOM     24  C   UNL A   1      33.592  16.630  23.786  1.00  0.00     0.136 C 
ATOM     25  C   UNL A   1      32.458  16.210  25.820  1.00  0.00     0.009 C 
ATOM     26  C   UNL A   1      33.306  15.527  24.763  1.00  0.00     0.076 C 
ATOM     27  O   UNL A   1      34.123  16.441  22.698  1.00  0.00    -0.299 OA
ENDBRANCH  21  22
ENDBRANCH  11  21
ENDBRANCH   6   8
ENDBRANCH   4   6
ENDBRANCH   3   4
ENDBRANCH   2   3
ENDBRANCH   1   2
BRANCH   1  28
ATOM     28  O   UNL A   1      31.886  29.117  26.060  1.00  0.00    -0.374 OA
BRANCH  28  29
ATOM     29  C   UNL A   1      33.066  29.885  25.993  1.00  0.00     0.202 C 
BRANCH  29  30
ATOM     30  C   UNL A   1      33.934  29.792  27.250  1.00  0.00     0.261 C 
BRANCH  30  31
ATOM     31  O   UNL A   1      34.848  30.904  27.321  1.00  0.00    -0.460 OA
BRANCH  31  32
ATOM     32  C   UNL A   1      34.640  31.765  28.352  1.00  0.00     0.338 C 
ATOM     33  O   UNL A   1      33.685  32.531  28.451  1.00  0.00    -0.246 OA
BRANCH  32  34
ATOM     34  C   UNL A   1      35.875  31.869  29.178  1.00  0.00     0.060 A 
ATOM     35  C   UNL A   1      36.976  32.620  28.718  1.00  0.00     0.016 A 
ATOM     36  C   UNL A   1      36.047  30.941  30.201  1.00  0.00     0.016 A 
ATOM     37  C   UNL A   1      38.270  32.317  29.168  1.00  0.00     0.010 A 
ATOM     38  C   UNL A   1      37.326  30.550  30.519  1.00  0.00     0.010 A 
ATOM     39  C   UNL A   1      38.449  31.212  29.994  1.00  0.00    -0.014 A 
BRANCH  39  40
ATOM     40  C   UNL A   1      39.722  30.581  30.360  1.00  0.00     0.031 A 
ATOM     41  C   UNL A   1      40.033  29.292  29.697  1.00  0.00     0.074 A 
ATOM     42  C   UNL A   1      40.702  31.262  31.014  1.00  0.00     0.049 A 
ATOM     43  N   UNL A   1      41.091  28.611  29.943  1.00  0.00    -0.248 NA
ATOM     44  C   UNL A   1      39.164  28.627  28.721  1.00  0.00     0.031 C 
ATOM     45  C   UNL A   1      42.153  31.041  30.966  1.00  0.00     0.029 A 
ATOM     46  N   UNL A   1      40.606  32.353  31.893  1.00  0.00    -0.354 N 
ATOM     47  C   UNL A   1      41.217  27.654  28.970  1.00  0.00     0.074 A 
ATOM     48  C   UNL A   1      39.939  27.618  28.314  1.00  0.00     0.031 C 
ATOM     49  C   UNL A   1      42.748  31.710  31.972  1.00  0.00     0.029 A 
ATOM     50  C   UNL A   1      41.691  32.290  32.780  1.00  0.00     0.049 A 
ATOM     51  H   UNL A   1      39.901  33.040  31.888  1.00  0.00     0.167 HD
ATOM     52  C   UNL A   1      42.449  27.105  28.794  1.00  0.00     0.037 A 
ATOM     53  C   UNL A   1      41.488  32.165  34.118  1.00  0.00     0.037 A 
ATOM     54  C   UNL A   1      43.330  27.491  29.906  1.00  0.00     0.049 A 
ATOM     55  C   UNL A   1      42.062  30.847  34.532  1.00  0.00     0.074 A 
ATOM     56  C   UNL A   1      44.408  28.350  30.027  1.00  0.00     0.029 A 
ATOM     57  N   UNL A   1      42.911  27.207  31.209  1.00  0.00    -0.354 N 
ATOM     58  N   UNL A   1      42.192  29.853  33.693  1.00  0.00    -0.248 NA
ATOM     59  C   UNL A   1      42.653  30.574  35.834  1.00  0.00     0.031 C 
ATOM     60  C   UNL A   1      44.564  28.651  31.417  1.00  0.00     0.029 A 
ATOM     61  C   UNL A   1      43.616  27.941  32.142  1.00  0.00     0.049 A 
ATOM     62  H   UNL A   1      42.201  26.563  31.434  1.00  0.00     0.167 HD
ATOM     63  C   UNL A   1      42.957  28.888  34.261  1.00  0.00     0.074 A 
ATOM     64  C   UNL A   1      43.180  29.356  35.620  1.00  0.00     0.031 C 
ATOM     65  C   UNL A   1      43.356  27.782  33.574  1.00  0.00     0.037 A 
BRANCH  52  66
ATOM     66  C   UNL A   1      42.911  26.336  27.575  1.00  0.00     0.064 A 
ATOM     67  C   UNL A   1      42.442  25.023  27.356  1.00  0.00     0.173 A 
ATOM     68  C   UNL A   1      43.874  26.777  26.639  1.00  0.00     0.173 A 
ATOM     69  F   UNL A   1      41.548  24.461  28.181  1.00  0.00    -0.203 F 
ATOM     70  C   UNL A   1      42.886  24.232  26.289  1.00  0.00     0.198 A 
ATOM     71  C   UNL A   1      44.278  26.005  25.544  1.00  0.00     0.198 A 
ATOM     72  F   UNL A   1      44.512  27.944  26.766  1.00  0.00    -0.203 F 
ATOM     73  F   UNL A   1      42.436  22.976  26.160  1.00  0.00    -0.200 F 
ATOM     74  C   UNL A   1      43.791  24.729  25.373  1.00  0.00     0.200 A 
ATOM     75  F   UNL A   1      45.164  26.506  24.672  1.00  0.00    -0.200 F 
ATOM     76  F   UNL A   1      44.207  23.978  24.345  1.00  0.00    -0.200 F 
ENDBRANCH  52  66
BRANCH  53  77
ATOM     77  C   UNL A   1      40.227  32.840  34.550  1.00  0.00     0.064 A 
ATOM     78  C   UNL A   1      39.227  32.010  35.111  1.00  0.00     0.173 A 
ATOM     79  C   UNL A   1      40.202  34.196  34.908  1.00  0.00     0.173 A 
ATOM     80  F   UNL A   1      39.211  30.698  34.825  1.00  0.00    -0.203 F 
ATOM     81  C   UNL A   1      38.357  32.478  36.098  1.00  0.00     0.198 A 
ATOM     82  C   UNL A   1      39.323  34.659  35.896  1.00  0.00     0.198 A 
ATOM     83  F   UNL A   1      41.123  35.040  34.424  1.00  0.00    -0.203 F 
ATOM     84  F   UNL A   1      37.547  31.621  36.738  1.00  0.00    -0.200 F 
ATOM     85  C   UNL A   1      38.440  33.792  36.523  1.00  0.00     0.200 A 
ATOM     86  F   UNL A   1      39.410  35.926  36.328  1.00  0.00    -0.200 F 
ATOM     87  F   UNL A   1      37.728  34.199  37.585  1.00  0.00    -0.200 F 
ENDBRANCH  53  77
BRANCH  65  88
ATOM     88  C   UNL A   1      43.584  26.459  34.249  1.00  0.00     0.064 A 
ATOM     89  C   UNL A   1      42.545  25.709  34.832  1.00  0.00     0.173 A 
ATOM     90  C   UNL A   1      44.834  25.808  34.165  1.00  0.00     0.173 A 
ATOM     91  F   UNL A   1      41.275  26.134  34.831  1.00  0.00    -0.203 F 
ATOM     92  C   UNL A   1      42.765  24.450  35.385  1.00  0.00     0.198 A 
ATOM     93  C   UNL A   1      45.026  24.515  34.641  1.00  0.00     0.198 A 
ATOM     94  F   UNL A   1      45.894  26.383  33.580  1.00  0.00    -0.203 F 
ATOM     95  F   UNL A   1      41.755  23.811  35.990  1.00  0.00    -0.200 F 
ATOM     96  C   UNL A   1      44.002  23.849  35.279  1.00  0.00     0.200 A 
ATOM     97  F   UNL A   1      46.209  23.911  34.455  1.00  0.00    -0.200 F 
ATOM     98  F   UNL A   1      44.198  22.617  35.766  1.00  0.00    -0.200 F 
ENDBRANCH  65  88
ENDBRANCH  39  40
ENDBRANCH  32  34
ENDBRANCH  31  32
ENDBRANCH  30  31
ENDBRANCH  29  30
ENDBRANCH  28  29
ENDBRANCH   1  28
TORSDOF 18
ENDMDL
MODEL 3
REMARK VINA RESULT:     -12.4      3.753      9.493
REMARK SMILES Cc1ccc(-c2cc(C[C@H]3CCCC3=O)ccc2[C@@H](C)C(=O)OCCOCCOC(=O)c2ccc(-c3c4nc(c(-c5c(F)c(F)c(F)c(F)c5F)c5ccc([nH]5)c(-c5c(F)c(F)c(F)c(F)c5F)c5nc(c(-c6c(F)c(F)c(F)c(F)c6F)c6ccc3[nH]6)C=C5)C=C4)cc2)cc1
REMARK SMILES IDX 25 1 24 2 23 3 21 4 22 5 19 6 20 7 18 8 6 9 7 10 8 11 17 12
REMARK SMILES IDX 16 13 5 14 1 15 2 16 3 17 96 18 4 19 95 20 9 21 10 22 11 23
REMARK SMILES IDX 14 24 12 25 13 26 15 27 26 28 27 29 28 30 29 31 30 32 31 33
REMARK SMILES IDX 32 34 33 35 94 36 34 37 93 38 35 39 36 40 37 41 87 42 38 43
REMARK SMILES IDX 92 44 86 45 88 46 39 47 91 48 85 49 84 50 40 52 72 53 52 54
REMARK SMILES IDX 71 55 53 56 56 57 70 58 89 59 54 60 55 61 69 63 90 64 57 65
REMARK SMILES IDX 41 66 42 67 50 68 43 69 44 70 48 71 51 72 45 73 46 74 49 75
REMARK SMILES IDX 47 76 73 77 74 78 82 79 75 80 76 81 80 82 83 83 77 84 78 85
REMARK SMILES IDX 81 86 79 87 58 88 59 89 67 90 60 91 61 92 65 93 68 94 62 95
REMARK SMILES IDX 63 96 66 97 64 98
REMARK H PARENT 88 51 56 62
REMARK Flexibility Score: inf
ROOT
ATOM      1  C   UNL A   1      32.692  27.926  26.167  1.00  0.00     0.202 C 
ENDROOT
BRANCH   1   2
ATOM      2  C   UNL A   1      33.966  27.201  25.872  1.00  0.00     0.261 C 
BRANCH   2   3
ATOM      3  O   UNL A   1      33.833  26.162  24.880  1.00  0.00    -0.463 OA
BRANCH   3   4
ATOM      4  C   UNL A   1      33.792  24.833  25.221  1.00  0.00     0.313 C 
ATOM      5  O   UNL A   1      33.339  24.376  26.252  1.00  0.00    -0.252 OA
BRANCH   4   6
ATOM      6  C   UNL A   1      34.394  24.003  24.077  1.00  0.00     0.127 C 
ATOM      7  C   UNL A   1      34.030  24.583  22.712  1.00  0.00     0.025 C 
BRANCH   6   8
ATOM      8  C   UNL A   1      33.970  22.541  24.280  1.00  0.00    -0.026 A 
ATOM      9  C   UNL A   1      34.771  21.629  25.004  1.00  0.00    -0.014 A 
ATOM     10  C   UNL A   1      34.189  20.405  25.412  1.00  0.00     0.012 A 
ATOM     11  C   UNL A   1      32.849  20.076  25.115  1.00  0.00    -0.047 A 
ATOM     12  C   UNL A   1      32.660  22.163  23.919  1.00  0.00     0.005 A 
ATOM     13  C   UNL A   1      32.099  20.970  24.354  1.00  0.00     0.004 A 
BRANCH   9  14
ATOM     14  C   UNL A   1      36.196  21.909  25.276  1.00  0.00    -0.018 A 
ATOM     15  C   UNL A   1      40.306  22.606  26.477  1.00  0.00     0.044 C 
ATOM     16  C   UNL A   1      38.889  22.392  26.035  1.00  0.00    -0.051 A 
ATOM     17  C   UNL A   1      38.534  21.208  25.383  1.00  0.00     0.004 A 
ATOM     18  C   UNL A   1      37.894  23.337  26.300  1.00  0.00     0.004 A 
ATOM     19  C   UNL A   1      37.204  20.970  25.015  1.00  0.00     0.009 A 
ATOM     20  C   UNL A   1      36.566  23.100  25.920  1.00  0.00     0.009 A 
ENDBRANCH   9  14
BRANCH  11  21
ATOM     21  C   UNL A   1      32.252  18.730  25.460  1.00  0.00     0.047 C 
BRANCH  21  22
ATOM     22  C   UNL A   1      32.375  17.565  24.471  1.00  0.00     0.060 C 
ATOM     23  C   UNL A   1      32.702  17.934  23.025  1.00  0.00     0.012 C 
ATOM     24  C   UNL A   1      33.403  16.514  24.815  1.00  0.00     0.136 C 
ATOM     25  C   UNL A   1      34.056  17.327  22.690  1.00  0.00     0.009 C 
ATOM     26  C   UNL A   1      34.326  16.202  23.673  1.00  0.00     0.076 C 
ATOM     27  O   UNL A   1      33.438  15.920  25.886  1.00  0.00    -0.299 OA
ENDBRANCH  21  22
ENDBRANCH  11  21
ENDBRANCH   6   8
ENDBRANCH   4   6
ENDBRANCH   3   4
ENDBRANCH   2   3
ENDBRANCH   1   2
BRANCH   1  28
ATOM     28  O   UNL A   1      32.863  29.224  25.633  1.00  0.00    -0.374 OA
BRANCH  28  29
ATOM     29  C   UNL A   1      32.066  30.235  26.210  1.00  0.00     0.202 C 
BRANCH  29  30
ATOM     30  C   UNL A   1      32.870  31.295  26.967  1.00  0.00     0.261 C 
BRANCH  30  31
ATOM     31  O   UNL A   1      33.780  30.675  27.896  1.00  0.00    -0.460 OA
BRANCH  31  32
ATOM     32  C   UNL A   1      35.019  31.232  27.959  1.00  0.00     0.338 C 
ATOM     33  O   UNL A   1      35.308  32.356  27.558  1.00  0.00    -0.246 OA
BRANCH  32  34
ATOM     34  C   UNL A   1      36.025  30.186  28.291  1.00  0.00     0.060 A 
ATOM     35  C   UNL A   1      36.079  29.640  29.590  1.00  0.00     0.016 A 
ATOM     36  C   UNL A   1      37.106  30.033  27.429  1.00  0.00     0.016 A 
ATOM     37  C   UNL A   1      37.278  29.094  30.073  1.00  0.00     0.010 A 
ATOM     38  C   UNL A   1      38.313  29.640  27.958  1.00  0.00     0.010 A 
ATOM     39  C   UNL A   1      38.422  29.189  29.285  1.00  0.00    -0.014 A 
BRANCH  39  40
ATOM     40  C   UNL A   1      39.803  28.921  29.699  1.00  0.00     0.031 A 
ATOM     41  C   UNL A   1      40.408  27.664  29.196  1.00  0.00     0.074 A 
ATOM     42  C   UNL A   1      40.594  29.886  30.241  1.00  0.00     0.049 A 
ATOM     43  N   UNL A   1      41.594  27.282  29.502  1.00  0.00    -0.248 NA
ATOM     44  C   UNL A   1      39.724  26.699  28.330  1.00  0.00     0.031 C 
ATOM     45  C   UNL A   1      42.057  30.001  30.189  1.00  0.00     0.029 A 
ATOM     46  N   UNL A   1      40.242  31.028  30.978  1.00  0.00    -0.354 N 
ATOM     47  C   UNL A   1      41.945  26.265  28.654  1.00  0.00     0.074 A 
ATOM     48  C   UNL A   1      40.715  25.852  28.035  1.00  0.00     0.031 C 
ATOM     49  C   UNL A   1      42.473  30.911  31.090  1.00  0.00     0.029 A 
ATOM     50  C   UNL A   1      41.304  31.330  31.842  1.00  0.00     0.049 A 
ATOM     51  H   UNL A   1      39.396  31.528  30.902  1.00  0.00     0.167 HD
ATOM     52  C   UNL A   1      43.271  25.996  28.521  1.00  0.00     0.037 A 
ATOM     53  C   UNL A   1      41.126  31.332  33.190  1.00  0.00     0.037 A 
ATOM     54  C   UNL A   1      44.031  26.712  29.557  1.00  0.00     0.049 A 
ATOM     55  C   UNL A   1      41.986  30.245  33.753  1.00  0.00     0.074 A 
ATOM     56  C   UNL A   1      44.880  27.804  29.546  1.00  0.00     0.029 A 
ATOM     57  N   UNL A   1      43.679  26.507  30.894  1.00  0.00    -0.354 N 
ATOM     58  N   UNL A   1      42.348  29.210  33.042  1.00  0.00    -0.248 NA
ATOM     59  C   UNL A   1      42.613  30.283  35.065  1.00  0.00     0.031 C 
ATOM     60  C   UNL A   1      44.952  28.307  30.883  1.00  0.00     0.029 A 
ATOM     61  C   UNL A   1      44.188  27.496  31.712  1.00  0.00     0.049 A 
ATOM     62  H   UNL A   1      43.136  25.750  31.213  1.00  0.00     0.167 HD
ATOM     63  C   UNL A   1      43.311  28.526  33.709  1.00  0.00     0.074 A 
ATOM     64  C   UNL A   1      43.409  29.202  34.994  1.00  0.00     0.031 C 
ATOM     65  C   UNL A   1      43.961  27.465  33.158  1.00  0.00     0.037 A 
BRANCH  52  66
ATOM     66  C   UNL A   1      43.909  25.206  27.399  1.00  0.00     0.064 A 
ATOM     67  C   UNL A   1      43.734  23.807  27.339  1.00  0.00     0.173 A 
ATOM     68  C   UNL A   1      44.771  25.730  26.409  1.00  0.00     0.173 A 
ATOM     69  F   UNL A   1      42.966  23.167  28.232  1.00  0.00    -0.203 F 
ATOM     70  C   UNL A   1      44.355  23.009  26.370  1.00  0.00     0.198 A 
ATOM     71  C   UNL A   1      45.350  24.939  25.410  1.00  0.00     0.198 A 
ATOM     72  F   UNL A   1      45.144  27.013  26.392  1.00  0.00    -0.203 F 
ATOM     73  F   UNL A   1      44.185  21.680  26.394  1.00  0.00    -0.200 F 
ATOM     74  C   UNL A   1      45.149  23.577  25.395  1.00  0.00     0.200 A 
ATOM     75  F   UNL A   1      46.125  25.511  24.478  1.00  0.00    -0.200 F 
ATOM     76  F   UNL A   1      45.734  22.817  24.461  1.00  0.00    -0.200 F 
ENDBRANCH  52  66
BRANCH  53  77
ATOM     77  C   UNL A   1      39.739  31.747  33.561  1.00  0.00     0.064 A 
ATOM     78  C   UNL A   1      39.457  33.132  33.497  1.00  0.00     0.173 A 
ATOM     79  C   UNL A   1      38.650  30.871  33.445  1.00  0.00     0.173 A 
ATOM     80  F   UNL A   1      40.459  34.022  33.579  1.00  0.00    -0.203 F 
ATOM     81  C   UNL A   1      38.184  33.605  33.170  1.00  0.00     0.198 A 
ATOM     82  C   UNL A   1      37.375  31.353  33.122  1.00  0.00     0.198 A 
ATOM     83  F   UNL A   1      38.842  29.546  33.489  1.00  0.00    -0.203 F 
ATOM     84  F   UNL A   1      37.995  34.912  32.935  1.00  0.00    -0.200 F 
ATOM     85  C   UNL A   1      37.156  32.710  32.936  1.00  0.00     0.200 A 
ATOM     86  F   UNL A   1      36.378  30.491  32.873  1.00  0.00    -0.200 F 
ATOM     87  F   UNL A   1      35.982  33.148  32.455  1.00  0.00    -0.200 F 
ENDBRANCH  53  77
BRANCH  65  88
ATOM     88  C   UNL A   1      44.482  26.326  33.988  1.00  0.00     0.064 A 
ATOM     89  C   UNL A   1      43.643  25.370  34.590  1.00  0.00     0.173 A 
ATOM     90  C   UNL A   1      45.865  26.048  34.049  1.00  0.00     0.173 A 
ATOM     91  F   UNL A   1      42.310  25.419  34.469  1.00  0.00    -0.203 F 
ATOM     92  C   UNL A   1      44.150  24.280  35.291  1.00  0.00     0.198 A 
ATOM     93  C   UNL A   1      46.363  24.911  34.676  1.00  0.00     0.198 A 
ATOM     94  F   UNL A   1      46.774  26.842  33.466  1.00  0.00    -0.203 F 
ATOM     95  F   UNL A   1      43.306  23.440  35.905  1.00  0.00    -0.200 F 
ATOM     96  C   UNL A   1      45.509  24.044  35.324  1.00  0.00     0.200 A 
ATOM     97  F   UNL A   1      47.677  24.650  34.627  1.00  0.00    -0.200 F 
ATOM     98  F   UNL A   1      45.992  22.967  35.956  1.00  0.00    -0.200 F 
ENDBRANCH  65  88
ENDBRANCH  39  40
ENDBRANCH  32  34
ENDBRANCH  31  32
ENDBRANCH  30  31
ENDBRANCH  29  30
ENDBRANCH  28  29
ENDBRANCH   1  28
TORSDOF 18
ENDMDL
