MODEL 1
REMARK VINA RESULT:     -10.9      0.000      0.000
REMARK SMILES Cc1cc(C(=O)Nc2nc(CC(=O)OCCOCCOC(=O)c3ccc(-c4c5nc(c(-c6c(F)c(F)c(F)c(F)c6F)c6ccc([nH]6)c(-c6c(F)c(F)c(F)c(F)c6F)c6nc(c(-c7c(F)c(F)c(F)c(F)c7F)c7ccc4[nH]7)C=C6)C=C5)cc3)cs2)sc1C
REMARK SMILES IDX 16 1 15 2 14 3 12 4 13 5 11 6 10 7 8 8 9 9 87 10 86 11 7 12
REMARK SMILES IDX 5 13 6 14 4 16 1 17 2 18 3 19 89 20 88 21 90 22 17 23 18 24
REMARK SMILES IDX 19 25 20 26 21 27 22 28 23 29 24 30 85 31 25 32 84 33 26 34
REMARK SMILES IDX 27 35 28 36 78 37 29 38 83 39 77 40 79 41 30 42 82 43 76 44
REMARK SMILES IDX 75 45 31 47 63 48 43 49 62 50 44 51 47 52 61 53 80 54 45 55
REMARK SMILES IDX 46 56 60 58 81 59 48 60 32 61 33 62 41 63 34 64 35 65 39 66
REMARK SMILES IDX 42 67 36 68 37 69 40 70 38 71 64 72 65 73 73 74 66 75 67 76
REMARK SMILES IDX 71 77 74 78 68 79 69 80 72 81 70 82 49 83 50 84 58 85 51 86
REMARK SMILES IDX 52 87 56 88 59 89 53 90 54 91 57 92 55 93
REMARK H PARENT 7 15 79 46 47 57
REMARK Flexibility Score: inf
ROOT
ATOM      1  C   UNL A   1      40.620  20.282  26.503  1.00  0.00     0.202 C 
ENDROOT
BRANCH   1   2
ATOM      2  C   UNL A   1      39.328  20.948  26.018  1.00  0.00     0.261 C 
BRANCH   2   3
ATOM      3  O   UNL A   1      39.361  22.376  26.212  1.00  0.00    -0.463 OA
BRANCH   3   4
ATOM      4  C   UNL A   1      38.187  23.028  26.001  1.00  0.00     0.311 C 
ATOM      5  O   UNL A   1      37.898  24.110  26.507  1.00  0.00    -0.252 OA
BRANCH   4   6
ATOM      6  C   UNL A   1      37.230  22.328  25.073  1.00  0.00     0.179 C 
BRANCH   6   7
ATOM      7  C   UNL A   1      35.771  22.381  25.397  1.00  0.00     0.065 A 
ATOM      8  C   UNL A   1      33.695  22.810  24.800  1.00  0.00     0.189 A 
ATOM      9  N   UNL A   1      34.946  23.080  24.527  1.00  0.00    -0.224 NA
ATOM     10  S   UNL A   1      33.397  22.001  26.265  1.00  0.00    -0.105 S 
ATOM     11  C   UNL A   1      35.076  21.639  26.339  1.00  0.00     0.093 A 
BRANCH   8  12
ATOM     12  N   UNL A   1      32.604  22.991  24.011  1.00  0.00    -0.297 N 
ATOM     13  C   UNL A   1      31.691  24.017  24.140  1.00  0.00     0.267 C 
ATOM     14  O   UNL A   1      30.591  23.844  23.604  1.00  0.00    -0.268 OA
ATOM     15  H   UNL A   1      32.451  22.337  23.290  1.00  0.00     0.172 HD
BRANCH  13  16
ATOM     16  C   UNL A   1      32.034  25.292  24.779  1.00  0.00     0.093 A 
ATOM     17  C   UNL A   1      31.566  27.876  27.490  1.00  0.00     0.045 C 
ATOM     18  C   UNL A   1      32.028  27.091  26.308  1.00  0.00    -0.037 A 
ATOM     19  C   UNL A   1      31.462  25.827  25.921  1.00  0.00     0.029 A 
ATOM     20  C   UNL A   1      33.056  27.445  25.452  1.00  0.00     0.005 A 
ATOM     21  S   UNL A   1      33.033  26.479  24.045  1.00  0.00    -0.135 S 
ATOM     22  C   UNL A   1      34.056  28.547  25.567  1.00  0.00     0.056 C 
ENDBRANCH  13  16
ENDBRANCH   8  12
ENDBRANCH   6   7
ENDBRANCH   4   6
ENDBRANCH   3   4
ENDBRANCH   2   3
ENDBRANCH   1   2
BRANCH   1  23
ATOM     23  O   UNL A   1      41.755  20.439  25.650  1.00  0.00    -0.374 OA
BRANCH  23  24
ATOM     24  C   UNL A   1      42.893  21.094  26.205  1.00  0.00     0.202 C 
BRANCH  24  25
ATOM     25  C   UNL A   1      43.476  22.229  25.354  1.00  0.00     0.261 C 
BRANCH  25  26
ATOM     26  O   UNL A   1      42.580  23.355  25.284  1.00  0.00    -0.460 OA
BRANCH  26  27
ATOM     27  C   UNL A   1      43.200  24.555  25.299  1.00  0.00     0.338 C 
ATOM     28  O   UNL A   1      44.114  24.926  24.569  1.00  0.00    -0.246 OA
BRANCH  27  29
ATOM     29  C   UNL A   1      42.521  25.489  26.212  1.00  0.00     0.060 A 
ATOM     30  C   UNL A   1      43.043  26.784  26.294  1.00  0.00     0.016 A 
ATOM     31  C   UNL A   1      41.490  25.083  27.064  1.00  0.00     0.016 A 
ATOM     32  C   UNL A   1      42.587  27.657  27.276  1.00  0.00     0.010 A 
ATOM     33  C   UNL A   1      41.033  25.966  28.055  1.00  0.00     0.010 A 
ATOM     34  C   UNL A   1      41.613  27.240  28.195  1.00  0.00    -0.014 A 
BRANCH  34  35
ATOM     35  C   UNL A   1      41.331  28.112  29.364  1.00  0.00     0.031 A 
ATOM     36  C   UNL A   1      40.141  29.034  29.330  1.00  0.00     0.074 A 
ATOM     37  C   UNL A   1      42.063  28.002  30.487  1.00  0.00     0.049 A 
ATOM     38  N   UNL A   1      39.631  29.768  30.287  1.00  0.00    -0.248 NA
ATOM     39  C   UNL A   1      39.424  29.136  28.049  1.00  0.00     0.031 C 
ATOM     40  C   UNL A   1      43.225  27.134  30.652  1.00  0.00     0.029 A 
ATOM     41  N   UNL A   1      41.918  28.611  31.709  1.00  0.00    -0.354 N 
ATOM     42  C   UNL A   1      38.531  30.406  29.731  1.00  0.00     0.074 A 
ATOM     43  C   UNL A   1      38.469  30.006  28.341  1.00  0.00     0.031 C 
ATOM     44  C   UNL A   1      43.682  27.252  31.911  1.00  0.00     0.029 A 
ATOM     45  C   UNL A   1      42.850  28.213  32.634  1.00  0.00     0.049 A 
ATOM     46  H   UNL A   1      41.212  29.270  31.903  1.00  0.00     0.167 HD
ATOM     47  C   UNL A   1      37.641  31.235  30.328  1.00  0.00     0.037 A 
ATOM     48  C   UNL A   1      43.008  28.575  33.921  1.00  0.00     0.037 A 
ATOM     49  C   UNL A   1      37.699  31.638  31.709  1.00  0.00     0.049 A 
ATOM     50  C   UNL A   1      42.028  29.532  34.548  1.00  0.00     0.074 A 
ATOM     51  C   UNL A   1      36.834  32.464  32.407  1.00  0.00     0.029 A 
ATOM     52  N   UNL A   1      38.686  31.248  32.602  1.00  0.00    -0.354 N 
ATOM     53  N   UNL A   1      40.964  30.091  34.026  1.00  0.00    -0.248 NA
ATOM     54  C   UNL A   1      42.265  29.894  35.954  1.00  0.00     0.031 C 
ATOM     55  C   UNL A   1      37.321  32.607  33.711  1.00  0.00     0.029 A 
ATOM     56  C   UNL A   1      38.463  31.834  33.838  1.00  0.00     0.049 A 
ATOM     57  H   UNL A   1      39.434  30.645  32.389  1.00  0.00     0.167 HD
ATOM     58  C   UNL A   1      40.396  30.853  35.038  1.00  0.00     0.074 A 
ATOM     59  C   UNL A   1      41.220  30.664  36.215  1.00  0.00     0.031 C 
ATOM     60  C   UNL A   1      39.294  31.642  34.999  1.00  0.00     0.037 A 
BRANCH  47  61
ATOM     61  C   UNL A   1      36.523  31.774  29.483  1.00  0.00     0.064 A 
ATOM     62  C   UNL A   1      35.464  30.958  29.059  1.00  0.00     0.173 A 
ATOM     63  C   UNL A   1      36.489  33.132  29.130  1.00  0.00     0.173 A 
ATOM     64  F   UNL A   1      35.458  29.650  29.361  1.00  0.00    -0.203 F 
ATOM     65  C   UNL A   1      34.421  31.475  28.296  1.00  0.00     0.198 A 
ATOM     66  C   UNL A   1      35.431  33.651  28.387  1.00  0.00     0.198 A 
ATOM     67  F   UNL A   1      37.474  33.956  29.513  1.00  0.00    -0.203 F 
ATOM     68  F   UNL A   1      33.439  30.669  27.870  1.00  0.00    -0.200 F 
ATOM     69  C   UNL A   1      34.402  32.822  27.966  1.00  0.00     0.200 A 
ATOM     70  F   UNL A   1      35.409  34.954  28.077  1.00  0.00    -0.200 F 
ATOM     71  F   UNL A   1      33.394  33.322  27.237  1.00  0.00    -0.200 F 
ENDBRANCH  47  61
BRANCH  48  72
ATOM     72  C   UNL A   1      44.135  28.020  34.716  1.00  0.00     0.064 A 
ATOM     73  C   UNL A   1      45.367  28.681  34.788  1.00  0.00     0.173 A 
ATOM     74  C   UNL A   1      44.005  26.802  35.399  1.00  0.00     0.173 A 
ATOM     75  F   UNL A   1      45.548  29.836  34.129  1.00  0.00    -0.203 F 
ATOM     76  C   UNL A   1      46.435  28.137  35.500  1.00  0.00     0.198 A 
ATOM     77  C   UNL A   1      45.065  26.272  36.132  1.00  0.00     0.198 A 
ATOM     78  F   UNL A   1      42.846  26.129  35.357  1.00  0.00    -0.203 F 
ATOM     79  F   UNL A   1      47.617  28.766  35.514  1.00  0.00    -0.200 F 
ATOM     80  C   UNL A   1      46.281  26.936  36.175  1.00  0.00     0.200 A 
ATOM     81  F   UNL A   1      44.908  25.115  36.790  1.00  0.00    -0.200 F 
ATOM     82  F   UNL A   1      47.308  26.412  36.859  1.00  0.00    -0.200 F 
ENDBRANCH  48  72
BRANCH  60  83
ATOM     83  C   UNL A   1      38.909  32.343  36.269  1.00  0.00     0.064 A 
ATOM     84  C   UNL A   1      39.330  33.655  36.539  1.00  0.00     0.173 A 
ATOM     85  C   UNL A   1      38.102  31.703  37.222  1.00  0.00     0.173 A 
ATOM     86  F   UNL A   1      40.114  34.305  35.667  1.00  0.00    -0.203 F 
ATOM     87  C   UNL A   1      38.985  34.285  37.732  1.00  0.00     0.198 A 
ATOM     88  C   UNL A   1      37.737  32.347  38.401  1.00  0.00     0.198 A 
ATOM     89  F   UNL A   1      37.667  30.452  37.009  1.00  0.00    -0.203 F 
ATOM     90  F   UNL A   1      39.446  35.517  37.994  1.00  0.00    -0.200 F 
ATOM     91  C   UNL A   1      38.186  33.633  38.659  1.00  0.00     0.200 A 
ATOM     92  F   UNL A   1      36.955  31.720  39.291  1.00  0.00    -0.200 F 
ATOM     93  F   UNL A   1      37.859  34.241  39.809  1.00  0.00    -0.200 F 
ENDBRANCH  60  83
ENDBRANCH  34  35
ENDBRANCH  27  29
ENDBRANCH  26  27
ENDBRANCH  25  26
ENDBRANCH  24  25
ENDBRANCH  23  24
ENDBRANCH   1  23
TORSDOF 17
ENDMDL
MODEL 2
REMARK VINA RESULT:     -10.8      5.709     10.841
REMARK SMILES Cc1cc(C(=O)Nc2nc(CC(=O)OCCOCCOC(=O)c3ccc(-c4c5nc(c(-c6c(F)c(F)c(F)c(F)c6F)c6ccc([nH]6)c(-c6c(F)c(F)c(F)c(F)c6F)c6nc(c(-c7c(F)c(F)c(F)c(F)c7F)c7ccc4[nH]7)C=C6)C=C5)cc3)cs2)sc1C
REMARK SMILES IDX 16 1 15 2 14 3 12 4 13 5 11 6 10 7 8 8 9 9 87 10 86 11 7 12
REMARK SMILES IDX 5 13 6 14 4 16 1 17 2 18 3 19 89 20 88 21 90 22 17 23 18 24
REMARK SMILES IDX 19 25 20 26 21 27 22 28 23 29 24 30 85 31 25 32 84 33 26 34
REMARK SMILES IDX 27 35 28 36 78 37 29 38 83 39 77 40 79 41 30 42 82 43 76 44
REMARK SMILES IDX 75 45 31 47 63 48 43 49 62 50 44 51 47 52 61 53 80 54 45 55
REMARK SMILES IDX 46 56 60 58 81 59 48 60 32 61 33 62 41 63 34 64 35 65 39 66
REMARK SMILES IDX 42 67 36 68 37 69 40 70 38 71 64 72 65 73 73 74 66 75 67 76
REMARK SMILES IDX 71 77 74 78 68 79 69 80 72 81 70 82 49 83 50 84 58 85 51 86
REMARK SMILES IDX 52 87 56 88 59 89 53 90 54 91 57 92 55 93
REMARK H PARENT 7 15 79 46 47 57
REMARK Flexibility Score: inf
ROOT
ATOM      1  C   UNL A   1      34.483  34.079  30.241  1.00  0.00     0.202 C 
ENDROOT
BRANCH   1   2
ATOM      2  C   UNL A   1      34.447  33.328  28.906  1.00  0.00     0.261 C 
BRANCH   2   3
ATOM      3  O   UNL A   1      34.880  31.960  29.054  1.00  0.00    -0.463 OA
BRANCH   3   4
ATOM      4  C   UNL A   1      34.637  31.146  27.993  1.00  0.00     0.311 C 
ATOM      5  O   UNL A   1      35.474  30.403  27.488  1.00  0.00    -0.252 OA
BRANCH   4   6
ATOM      6  C   UNL A   1      33.229  31.200  27.462  1.00  0.00     0.179 C 
BRANCH   6   7
ATOM      7  C   UNL A   1      32.674  29.971  26.815  1.00  0.00     0.065 A 
ATOM      8  C   UNL A   1      32.444  28.681  25.044  1.00  0.00     0.189 A 
ATOM      9  N   UNL A   1      32.713  29.902  25.429  1.00  0.00    -0.224 NA
ATOM     10  S   UNL A   1      31.820  27.634  26.229  1.00  0.00    -0.105 S 
ATOM     11  C   UNL A   1      32.319  28.774  27.416  1.00  0.00     0.093 A 
BRANCH   8  12
ATOM     12  N   UNL A   1      32.704  28.101  23.843  1.00  0.00    -0.297 N 
ATOM     13  C   UNL A   1      31.754  27.744  22.911  1.00  0.00     0.267 C 
ATOM     14  O   UNL A   1      32.103  26.919  22.060  1.00  0.00    -0.268 OA
ATOM     15  H   UNL A   1      33.647  27.919  23.622  1.00  0.00     0.172 HD
BRANCH  13  16
ATOM     16  C   UNL A   1      30.435  28.384  22.855  1.00  0.00     0.093 A 
ATOM     17  C   UNL A   1      26.706  28.358  23.441  1.00  0.00     0.045 C 
ATOM     18  C   UNL A   1      28.111  28.724  23.095  1.00  0.00    -0.037 A 
ATOM     19  C   UNL A   1      29.230  27.838  23.264  1.00  0.00     0.029 A 
ATOM     20  C   UNL A   1      28.530  29.945  22.598  1.00  0.00     0.005 A 
ATOM     21  S   UNL A   1      30.127  29.843  22.005  1.00  0.00    -0.135 S 
ATOM     22  C   UNL A   1      27.776  31.225  22.452  1.00  0.00     0.056 C 
ENDBRANCH  13  16
ENDBRANCH   8  12
ENDBRANCH   6   7
ENDBRANCH   4   6
ENDBRANCH   3   4
ENDBRANCH   2   3
ENDBRANCH   1   2
BRANCH   1  23
ATOM     23  O   UNL A   1      35.737  34.066  30.924  1.00  0.00    -0.374 OA
BRANCH  23  24
ATOM     24  C   UNL A   1      35.750  34.577  32.255  1.00  0.00     0.202 C 
BRANCH  24  25
ATOM     25  C   UNL A   1      35.086  33.682  33.308  1.00  0.00     0.261 C 
BRANCH  25  26
ATOM     26  O   UNL A   1      35.475  32.304  33.155  1.00  0.00    -0.460 OA
BRANCH  26  27
ATOM     27  C   UNL A   1      36.674  32.004  33.700  1.00  0.00     0.338 C 
ATOM     28  O   UNL A   1      37.026  32.187  34.862  1.00  0.00    -0.246 OA
BRANCH  27  29
ATOM     29  C   UNL A   1      37.507  31.240  32.758  1.00  0.00     0.060 A 
ATOM     30  C   UNL A   1      38.761  30.824  33.217  1.00  0.00     0.016 A 
ATOM     31  C   UNL A   1      37.138  31.045  31.424  1.00  0.00     0.016 A 
ATOM     32  C   UNL A   1      39.681  30.277  32.328  1.00  0.00     0.010 A 
ATOM     33  C   UNL A   1      38.069  30.494  30.530  1.00  0.00     0.010 A 
ATOM     34  C   UNL A   1      39.361  30.151  30.968  1.00  0.00    -0.014 A 
BRANCH  34  35
ATOM     35  C   UNL A   1      40.446  29.791  30.022  1.00  0.00     0.031 A 
ATOM     36  C   UNL A   1      41.534  30.790  29.728  1.00  0.00     0.074 A 
ATOM     37  C   UNL A   1      40.524  28.547  29.516  1.00  0.00     0.049 A 
ATOM     38  N   UNL A   1      42.645  30.635  29.052  1.00  0.00    -0.248 NA
ATOM     39  C   UNL A   1      41.349  32.143  30.275  1.00  0.00     0.031 C 
ATOM     40  C   UNL A   1      39.547  27.485  29.741  1.00  0.00     0.029 A 
ATOM     41  N   UNL A   1      41.484  27.964  28.727  1.00  0.00    -0.354 N 
ATOM     42  C   UNL A   1      43.295  31.860  29.103  1.00  0.00     0.074 A 
ATOM     43  C   UNL A   1      42.438  32.763  29.842  1.00  0.00     0.031 C 
ATOM     44  C   UNL A   1      39.965  26.371  29.116  1.00  0.00     0.029 A 
ATOM     45  C   UNL A   1      41.231  26.645  28.440  1.00  0.00     0.049 A 
ATOM     46  H   UNL A   1      42.278  28.444  28.398  1.00  0.00     0.167 HD
ATOM     47  C   UNL A   1      44.507  32.198  28.599  1.00  0.00     0.037 A 
ATOM     48  C   UNL A   1      41.946  25.759  27.721  1.00  0.00     0.037 A 
ATOM     49  C   UNL A   1      45.363  31.306  27.862  1.00  0.00     0.049 A 
ATOM     50  C   UNL A   1      43.270  26.174  27.136  1.00  0.00     0.074 A 
ATOM     51  C   UNL A   1      46.614  31.554  27.324  1.00  0.00     0.029 A 
ATOM     52  N   UNL A   1      45.050  29.991  27.554  1.00  0.00    -0.354 N 
ATOM     53  N   UNL A   1      43.896  27.321  27.232  1.00  0.00    -0.248 NA
ATOM     54  C   UNL A   1      43.993  25.161  26.352  1.00  0.00     0.031 C 
ATOM     55  C   UNL A   1      47.040  30.402  26.653  1.00  0.00     0.029 A 
ATOM     56  C   UNL A   1      46.074  29.422  26.813  1.00  0.00     0.049 A 
ATOM     57  H   UNL A   1      44.223  29.529  27.820  1.00  0.00     0.167 HD
ATOM     58  C   UNL A   1      45.091  27.163  26.542  1.00  0.00     0.074 A 
ATOM     59  C   UNL A   1      45.114  25.800  26.052  1.00  0.00     0.031 C 
ATOM     60  C   UNL A   1      46.081  28.066  26.328  1.00  0.00     0.037 A 
BRANCH  47  61
ATOM     61  C   UNL A   1      44.979  33.606  28.820  1.00  0.00     0.064 A 
ATOM     62  C   UNL A   1      45.704  33.965  29.966  1.00  0.00     0.173 A 
ATOM     63  C   UNL A   1      44.742  34.596  27.855  1.00  0.00     0.173 A 
ATOM     64  F   UNL A   1      45.945  33.057  30.924  1.00  0.00    -0.203 F 
ATOM     65  C   UNL A   1      46.157  35.269  30.148  1.00  0.00     0.198 A 
ATOM     66  C   UNL A   1      45.218  35.893  28.029  1.00  0.00     0.198 A 
ATOM     67  F   UNL A   1      44.058  34.304  26.739  1.00  0.00    -0.203 F 
ATOM     68  F   UNL A   1      46.815  35.599  31.268  1.00  0.00    -0.200 F 
ATOM     69  C   UNL A   1      45.921  36.230  29.177  1.00  0.00     0.200 A 
ATOM     70  F   UNL A   1      44.997  36.819  27.085  1.00  0.00    -0.200 F 
ATOM     71  F   UNL A   1      46.363  37.483  29.349  1.00  0.00    -0.200 F 
ENDBRANCH  47  61
BRANCH  48  72
ATOM     72  C   UNL A   1      41.433  24.378  27.524  1.00  0.00     0.064 A 
ATOM     73  C   UNL A   1      42.061  23.278  28.121  1.00  0.00     0.173 A 
ATOM     74  C   UNL A   1      40.316  24.132  26.711  1.00  0.00     0.173 A 
ATOM     75  F   UNL A   1      43.148  23.461  28.885  1.00  0.00    -0.203 F 
ATOM     76  C   UNL A   1      41.602  21.980  27.900  1.00  0.00     0.198 A 
ATOM     77  C   UNL A   1      39.842  22.837  26.513  1.00  0.00     0.198 A 
ATOM     78  F   UNL A   1      39.683  25.152  26.115  1.00  0.00    -0.203 F 
ATOM     79  F   UNL A   1      42.249  20.942  28.446  1.00  0.00    -0.200 F 
ATOM     80  C   UNL A   1      40.491  21.762  27.101  1.00  0.00     0.200 A 
ATOM     81  F   UNL A   1      38.762  22.632  25.747  1.00  0.00    -0.200 F 
ATOM     82  F   UNL A   1      40.050  20.514  26.888  1.00  0.00    -0.200 F 
ENDBRANCH  48  72
BRANCH  60  83
ATOM     83  C   UNL A   1      47.275  27.599  25.546  1.00  0.00     0.064 A 
ATOM     84  C   UNL A   1      47.344  27.753  24.153  1.00  0.00     0.173 A 
ATOM     85  C   UNL A   1      48.365  27.003  26.197  1.00  0.00     0.173 A 
ATOM     86  F   UNL A   1      46.321  28.304  23.483  1.00  0.00    -0.203 F 
ATOM     87  C   UNL A   1      48.447  27.294  23.437  1.00  0.00     0.198 A 
ATOM     88  C   UNL A   1      49.478  26.571  25.480  1.00  0.00     0.198 A 
ATOM     89  F   UNL A   1      48.353  26.839  27.528  1.00  0.00    -0.203 F 
ATOM     90  F   UNL A   1      48.466  27.400  22.100  1.00  0.00    -0.200 F 
ATOM     91  C   UNL A   1      49.514  26.708  24.101  1.00  0.00     0.200 A 
ATOM     92  F   UNL A   1      50.514  26.015  26.124  1.00  0.00    -0.200 F 
ATOM     93  F   UNL A   1      50.573  26.264  23.409  1.00  0.00    -0.200 F 
ENDBRANCH  60  83
ENDBRANCH  34  35
ENDBRANCH  27  29
ENDBRANCH  26  27
ENDBRANCH  25  26
ENDBRANCH  24  25
ENDBRANCH  23  24
ENDBRANCH   1  23
TORSDOF 17
ENDMDL
MODEL 3
REMARK VINA RESULT:     -10.8      1.184      7.457
REMARK SMILES Cc1cc(C(=O)Nc2nc(CC(=O)OCCOCCOC(=O)c3ccc(-c4c5nc(c(-c6c(F)c(F)c(F)c(F)c6F)c6ccc([nH]6)c(-c6c(F)c(F)c(F)c(F)c6F)c6nc(c(-c7c(F)c(F)c(F)c(F)c7F)c7ccc4[nH]7)C=C6)C=C5)cc3)cs2)sc1C
REMARK SMILES IDX 16 1 15 2 14 3 12 4 13 5 11 6 10 7 8 8 9 9 87 10 86 11 7 12
REMARK SMILES IDX 5 13 6 14 4 16 1 17 2 18 3 19 89 20 88 21 90 22 17 23 18 24
REMARK SMILES IDX 19 25 20 26 21 27 22 28 23 29 24 30 85 31 25 32 84 33 26 34
REMARK SMILES IDX 27 35 28 36 78 37 29 38 83 39 77 40 79 41 30 42 82 43 76 44
REMARK SMILES IDX 75 45 31 47 63 48 43 49 62 50 44 51 47 52 61 53 80 54 45 55
REMARK SMILES IDX 46 56 60 58 81 59 48 60 32 61 33 62 41 63 34 64 35 65 39 66
REMARK SMILES IDX 42 67 36 68 37 69 40 70 38 71 64 72 65 73 73 74 66 75 67 76
REMARK SMILES IDX 71 77 74 78 68 79 69 80 72 81 70 82 49 83 50 84 58 85 51 86
REMARK SMILES IDX 52 87 56 88 59 89 53 90 54 91 57 92 55 93
REMARK H PARENT 7 15 79 46 47 57
REMARK Flexibility Score: inf
ROOT
ATOM      1  C   UNL A   1      40.663  21.861  27.392  1.00  0.00     0.202 C 
ENDROOT
BRANCH   1   2
ATOM      2  C   UNL A   1      39.819  21.846  26.115  1.00  0.00     0.261 C 
BRANCH   2   3
ATOM      3  O   UNL A   1      38.548  22.501  26.309  1.00  0.00    -0.463 OA
BRANCH   3   4
ATOM      4  C   UNL A   1      37.558  22.133  25.454  1.00  0.00     0.311 C 
ATOM      5  O   UNL A   1      37.518  21.054  24.868  1.00  0.00    -0.252 OA
BRANCH   4   6
ATOM      6  C   UNL A   1      36.467  23.155  25.269  1.00  0.00     0.179 C 
BRANCH   6   7
ATOM      7  C   UNL A   1      35.104  22.666  24.893  1.00  0.00     0.065 A 
ATOM      8  C   UNL A   1      33.043  22.134  25.457  1.00  0.00     0.189 A 
ATOM      9  N   UNL A   1      34.257  22.276  25.921  1.00  0.00    -0.224 NA
ATOM     10  S   UNL A   1      32.875  22.127  23.765  1.00  0.00    -0.105 S 
ATOM     11  C   UNL A   1      34.473  22.752  23.663  1.00  0.00     0.093 A 
BRANCH   8  12
ATOM     12  N   UNL A   1      31.874  22.106  26.150  1.00  0.00    -0.297 N 
ATOM     13  C   UNL A   1      31.273  23.198  26.739  1.00  0.00     0.267 C 
ATOM     14  O   UNL A   1      30.438  22.957  27.618  1.00  0.00    -0.268 OA
ATOM     15  H   UNL A   1      31.422  21.235  26.241  1.00  0.00     0.172 HD
BRANCH  13  16
ATOM     16  C   UNL A   1      31.521  24.569  26.281  1.00  0.00     0.093 A 
ATOM     17  C   UNL A   1      33.722  27.620  25.977  1.00  0.00     0.045 C 
ATOM     18  C   UNL A   1      32.615  26.624  25.887  1.00  0.00    -0.037 A 
ATOM     19  C   UNL A   1      32.672  25.312  26.473  1.00  0.00     0.029 A 
ATOM     20  C   UNL A   1      31.415  26.805  25.222  1.00  0.00     0.005 A 
ATOM     21  S   UNL A   1      30.294  25.591  25.651  1.00  0.00    -0.135 S 
ATOM     22  C   UNL A   1      30.988  27.904  24.307  1.00  0.00     0.056 C 
ENDBRANCH  13  16
ENDBRANCH   8  12
ENDBRANCH   6   7
ENDBRANCH   4   6
ENDBRANCH   3   4
ENDBRANCH   2   3
ENDBRANCH   1   2
BRANCH   1  23
ATOM     23  O   UNL A   1      41.890  21.131  27.332  1.00  0.00    -0.374 OA
BRANCH  23  24
ATOM     24  C   UNL A   1      42.512  21.023  26.053  1.00  0.00     0.202 C 
BRANCH  24  25
ATOM     25  C   UNL A   1      43.618  22.047  25.773  1.00  0.00     0.261 C 
BRANCH  25  26
ATOM     26  O   UNL A   1      43.168  23.084  24.880  1.00  0.00    -0.460 OA
BRANCH  26  27
ATOM     27  C   UNL A   1      43.857  24.241  24.985  1.00  0.00     0.338 C 
ATOM     28  O   UNL A   1      44.862  24.565  24.358  1.00  0.00    -0.246 OA
BRANCH  27  29
ATOM     29  C   UNL A   1      43.151  25.200  25.850  1.00  0.00     0.060 A 
ATOM     30  C   UNL A   1      43.942  26.104  26.568  1.00  0.00     0.016 A 
ATOM     31  C   UNL A   1      41.771  25.140  26.061  1.00  0.00     0.016 A 
ATOM     32  C   UNL A   1      43.367  26.901  27.553  1.00  0.00     0.010 A 
ATOM     33  C   UNL A   1      41.195  25.944  27.056  1.00  0.00     0.010 A 
ATOM     34  C   UNL A   1      41.998  26.794  27.838  1.00  0.00    -0.014 A 
BRANCH  34  35
ATOM     35  C   UNL A   1      41.478  27.481  29.047  1.00  0.00     0.031 A 
ATOM     36  C   UNL A   1      42.226  27.357  30.349  1.00  0.00     0.074 A 
ATOM     37  C   UNL A   1      40.413  28.298  28.962  1.00  0.00     0.049 A 
ATOM     38  N   UNL A   1      42.032  27.984  31.482  1.00  0.00    -0.248 NA
ATOM     39  C   UNL A   1      43.347  26.405  30.374  1.00  0.00     0.031 C 
ATOM     40  C   UNL A   1      39.617  28.518  27.758  1.00  0.00     0.029 A 
ATOM     41  N   UNL A   1      39.834  29.111  29.905  1.00  0.00    -0.354 N 
ATOM     42  C   UNL A   1      43.011  27.515  32.348  1.00  0.00     0.074 A 
ATOM     43  C   UNL A   1      43.773  26.520  31.624  1.00  0.00     0.031 C 
ATOM     44  C   UNL A   1      38.659  29.422  28.028  1.00  0.00     0.029 A 
ATOM     45  C   UNL A   1      38.769  29.833  29.427  1.00  0.00     0.049 A 
ATOM     46  H   UNL A   1      40.152  29.170  30.835  1.00  0.00     0.167 HD
ATOM     47  C   UNL A   1      43.265  27.893  33.624  1.00  0.00     0.037 A 
ATOM     48  C   UNL A   1      37.980  30.732  30.045  1.00  0.00     0.037 A 
ATOM     49  C   UNL A   1      42.508  28.879  34.350  1.00  0.00     0.049 A 
ATOM     50  C   UNL A   1      38.259  31.102  31.478  1.00  0.00     0.074 A 
ATOM     51  C   UNL A   1      42.699  29.338  35.642  1.00  0.00     0.029 A 
ATOM     52  N   UNL A   1      41.408  29.556  33.845  1.00  0.00    -0.354 N 
ATOM     53  N   UNL A   1      39.216  30.687  32.272  1.00  0.00    -0.248 NA
ATOM     54  C   UNL A   1      37.351  32.081  32.097  1.00  0.00     0.031 C 
ATOM     55  C   UNL A   1      41.689  30.261  35.934  1.00  0.00     0.029 A 
ATOM     56  C   UNL A   1      40.897  30.412  34.808  1.00  0.00     0.049 A 
ATOM     57  H   UNL A   1      41.044  29.445  32.937  1.00  0.00     0.167 HD
ATOM     58  C   UNL A   1      39.040  31.365  33.471  1.00  0.00     0.074 A 
ATOM     59  C   UNL A   1      37.898  32.238  33.293  1.00  0.00     0.031 C 
ATOM     60  C   UNL A   1      39.756  31.271  34.619  1.00  0.00     0.037 A 
BRANCH  47  61
ATOM     61  C   UNL A   1      44.410  27.225  34.328  1.00  0.00     0.064 A 
ATOM     62  C   UNL A   1      45.698  27.781  34.323  1.00  0.00     0.173 A 
ATOM     63  C   UNL A   1      44.208  26.040  35.051  1.00  0.00     0.173 A 
ATOM     64  F   UNL A   1      45.945  28.906  33.636  1.00  0.00    -0.203 F 
ATOM     65  C   UNL A   1      46.747  27.164  35.000  1.00  0.00     0.198 A 
ATOM     66  C   UNL A   1      45.255  25.439  35.746  1.00  0.00     0.198 A 
ATOM     67  F   UNL A   1      42.995  25.470  35.091  1.00  0.00    -0.203 F 
ATOM     68  F   UNL A   1      47.978  27.693  34.950  1.00  0.00    -0.200 F 
ATOM     69  C   UNL A   1      46.524  25.998  35.716  1.00  0.00     0.200 A 
ATOM     70  F   UNL A   1      45.035  24.317  36.446  1.00  0.00    -0.200 F 
ATOM     71  F   UNL A   1      47.532  25.409  36.374  1.00  0.00    -0.200 F 
ENDBRANCH  47  61
BRANCH  48  72
ATOM     72  C   UNL A   1      36.853  31.361  29.309  1.00  0.00     0.064 A 
ATOM     73  C   UNL A   1      36.882  32.716  28.957  1.00  0.00     0.173 A 
ATOM     74  C   UNL A   1      35.713  30.619  28.964  1.00  0.00     0.173 A 
ATOM     75  F   UNL A   1      37.939  33.472  29.290  1.00  0.00    -0.203 F 
ATOM     76  C   UNL A   1      35.805  33.313  28.304  1.00  0.00     0.198 A 
ATOM     77  C   UNL A   1      34.649  31.211  28.286  1.00  0.00     0.198 A 
ATOM     78  F   UNL A   1      35.636  29.319  29.282  1.00  0.00    -0.203 F 
ATOM     79  F   UNL A   1      35.838  34.622  28.021  1.00  0.00    -0.200 F 
ATOM     80  C   UNL A   1      34.692  32.559  27.964  1.00  0.00     0.200 A 
ATOM     81  F   UNL A   1      33.579  30.475  27.953  1.00  0.00    -0.200 F 
ATOM     82  F   UNL A   1      33.657  33.132  27.336  1.00  0.00    -0.200 F 
ENDBRANCH  48  72
BRANCH  60  83
ATOM     83  C   UNL A   1      39.333  32.148  35.762  1.00  0.00     0.064 A 
ATOM     84  C   UNL A   1      38.400  31.712  36.714  1.00  0.00     0.173 A 
ATOM     85  C   UNL A   1      39.875  33.433  35.913  1.00  0.00     0.173 A 
ATOM     86  F   UNL A   1      37.843  30.496  36.606  1.00  0.00    -0.203 F 
ATOM     87  C   UNL A   1      37.999  32.544  37.756  1.00  0.00     0.198 A 
ATOM     88  C   UNL A   1      39.492  34.252  36.972  1.00  0.00     0.198 A 
ATOM     89  F   UNL A   1      40.776  33.896  35.035  1.00  0.00    -0.203 F 
ATOM     90  F   UNL A   1      37.063  32.126  38.622  1.00  0.00    -0.200 F 
ATOM     91  C   UNL A   1      38.547  33.810  37.887  1.00  0.00     0.200 A 
ATOM     92  F   UNL A   1      40.031  35.472  37.104  1.00  0.00    -0.200 F 
ATOM     93  F   UNL A   1      38.157  34.611  38.889  1.00  0.00    -0.200 F 
ENDBRANCH  60  83
ENDBRANCH  34  35
ENDBRANCH  27  29
ENDBRANCH  26  27
ENDBRANCH  25  26
ENDBRANCH  24  25
ENDBRANCH  23  24
ENDBRANCH   1  23
TORSDOF 17
ENDMDL
