MODEL 1
REMARK VINA RESULT:     -11.3      0.000      0.000
REMARK SMILES CN(C(=O)N1CCC(C(=O)OCCOCCOC(=O)c2ccc(-c3c4nc(c(-c5c(F)c(F)c(F)c(F)c5F)c5ccc([nH]5)c(-c5c(F)c(F)c(F)c(F)c5F)c5nc(c(-c6c(F)c(F)c(F)c(F)c6F)c6ccc3[nH]6)C=C5)C=C4)cc2)CC1)[C@H]1CCSC1
REMARK SMILES IDX 14 1 13 2 12 3 11 4 9 5 10 6 8 7 3 8 4 9 5 10 6 11 84 12
REMARK SMILES IDX 7 13 83 14 2 15 1 16 85 17 86 18 89 19 87 20 88 21 15 22
REMARK SMILES IDX 16 23 17 24 18 25 19 26 20 27 21 28 82 29 22 30 81 31 23 32
REMARK SMILES IDX 24 33 25 34 75 35 26 36 80 37 74 38 76 39 27 40 79 41 73 42
REMARK SMILES IDX 72 43 28 45 60 46 40 47 59 48 41 49 44 50 58 51 77 52 42 53
REMARK SMILES IDX 43 54 57 56 78 57 45 58 29 59 30 60 38 61 31 62 32 63 36 64
REMARK SMILES IDX 39 65 33 66 34 67 37 68 35 69 61 70 62 71 70 72 63 73 64 74
REMARK SMILES IDX 68 75 71 76 65 77 66 78 69 79 67 80 46 81 47 82 55 83 48 84
REMARK SMILES IDX 49 85 53 86 56 87 50 88 51 89 54 90 52 91
REMARK H PARENT 76 44 44 55
REMARK Flexibility Score: inf
ROOT
ATOM      1  O   UNL A   1      40.466  21.719  26.349  1.00  0.00    -0.374 OA
ENDROOT
BRANCH   1   2
ATOM      2  C   UNL A   1      39.270  21.223  25.752  1.00  0.00     0.202 C 
BRANCH   2   3
ATOM      3  C   UNL A   1      38.083  22.186  25.700  1.00  0.00     0.261 C 
BRANCH   3   4
ATOM      4  O   UNL A   1      37.187  21.872  24.619  1.00  0.00    -0.463 OA
BRANCH   4   5
ATOM      5  C   UNL A   1      35.883  21.740  24.965  1.00  0.00     0.309 C 
ATOM      6  O   UNL A   1      35.466  21.063  25.900  1.00  0.00    -0.252 OA
BRANCH   5   7
ATOM      7  C   UNL A   1      34.941  22.497  24.056  1.00  0.00     0.103 C 
ATOM      8  C   UNL A   1      31.594  24.820  23.550  1.00  0.00     0.320 C 
ATOM      9  O   UNL A   1      30.692  24.191  24.099  1.00  0.00    -0.248 OA
ATOM     10  N   UNL A   1      32.780  24.194  23.223  1.00  0.00    -0.325 N 
ATOM     11  C   UNL A   1      32.756  22.777  22.880  1.00  0.00     0.122 C 
ATOM     12  C   UNL A   1      34.087  24.783  23.507  1.00  0.00     0.122 C 
ATOM     13  C   UNL A   1      33.529  21.927  23.888  1.00  0.00     0.037 C 
ATOM     14  C   UNL A   1      34.854  23.948  24.527  1.00  0.00     0.037 C 
BRANCH   8  15
ATOM     15  N   UNL A   1      31.474  26.162  23.212  1.00  0.00    -0.324 N 
ATOM     16  C   UNL A   1      31.393  26.644  21.838  1.00  0.00     0.149 C 
BRANCH  15  17
ATOM     17  C   UNL A   1      31.289  27.183  24.255  1.00  0.00     0.097 C 
ATOM     18  C   UNL A   1      31.953  26.886  25.603  1.00  0.00     0.037 C 
ATOM     19  C   UNL A   1      31.763  28.577  23.844  1.00  0.00     0.094 C 
ATOM     20  C   UNL A   1      31.651  28.087  26.487  1.00  0.00     0.072 C 
ATOM     21  S   UNL A   1      31.754  29.536  25.391  1.00  0.00    -0.160 SA
ENDBRANCH  15  17
ENDBRANCH   8  15
ENDBRANCH   5   7
ENDBRANCH   4   5
ENDBRANCH   3   4
ENDBRANCH   2   3
ENDBRANCH   1   2
BRANCH   1  22
ATOM     22  C   UNL A   1      41.661  20.965  26.150  1.00  0.00     0.202 C 
BRANCH  22  23
ATOM     23  C   UNL A   1      42.911  21.757  25.744  1.00  0.00     0.261 C 
BRANCH  23  24
ATOM     24  O   UNL A   1      42.592  22.911  24.943  1.00  0.00    -0.460 OA
BRANCH  24  25
ATOM     25  C   UNL A   1      43.411  23.974  25.118  1.00  0.00     0.338 C 
ATOM     26  O   UNL A   1      44.432  24.237  24.493  1.00  0.00    -0.246 OA
BRANCH  25  27
ATOM     27  C   UNL A   1      42.816  24.924  26.074  1.00  0.00     0.060 A 
ATOM     28  C   UNL A   1      43.515  26.110  26.330  1.00  0.00     0.016 A 
ATOM     29  C   UNL A   1      41.637  24.633  26.763  1.00  0.00     0.016 A 
ATOM     30  C   UNL A   1      43.052  27.001  27.297  1.00  0.00     0.010 A 
ATOM     31  C   UNL A   1      41.181  25.521  27.744  1.00  0.00     0.010 A 
ATOM     32  C   UNL A   1      41.898  26.697  28.032  1.00  0.00    -0.014 A 
BRANCH  32  33
ATOM     33  C   UNL A   1      41.498  27.567  29.166  1.00  0.00     0.031 A 
ATOM     34  C   UNL A   1      42.262  27.494  30.458  1.00  0.00     0.074 A 
ATOM     35  C   UNL A   1      40.474  28.429  29.035  1.00  0.00     0.049 A 
ATOM     36  N   UNL A   1      42.060  28.140  31.579  1.00  0.00    -0.248 NA
ATOM     37  C   UNL A   1      43.409  26.574  30.494  1.00  0.00     0.031 C 
ATOM     38  C   UNL A   1      39.684  28.620  27.821  1.00  0.00     0.029 A 
ATOM     39  N   UNL A   1      39.920  29.301  29.938  1.00  0.00    -0.354 N 
ATOM     40  C   UNL A   1      43.046  27.701  32.453  1.00  0.00     0.074 A 
ATOM     41  C   UNL A   1      43.836  26.720  31.740  1.00  0.00     0.031 C 
ATOM     42  C   UNL A   1      38.737  29.544  28.057  1.00  0.00     0.029 A 
ATOM     43  C   UNL A   1      38.834  29.983  29.449  1.00  0.00     0.049 A 
ATOM     44  H   UNL A   1      40.268  29.425  30.851  1.00  0.00     0.167 HD
ATOM     45  C   UNL A   1      43.273  28.086  33.730  1.00  0.00     0.037 A 
ATOM     46  C   UNL A   1      37.998  30.843  30.063  1.00  0.00     0.037 A 
ATOM     47  C   UNL A   1      42.491  29.070  34.435  1.00  0.00     0.049 A 
ATOM     48  C   UNL A   1      38.224  31.186  31.513  1.00  0.00     0.074 A 
ATOM     49  C   UNL A   1      42.679  29.564  35.714  1.00  0.00     0.029 A 
ATOM     50  N   UNL A   1      41.366  29.697  33.925  1.00  0.00    -0.354 N 
ATOM     51  N   UNL A   1      39.186  30.802  32.316  1.00  0.00    -0.248 NA
ATOM     52  C   UNL A   1      37.240  32.079  32.143  1.00  0.00     0.031 C 
ATOM     53  C   UNL A   1      41.634  30.450  35.998  1.00  0.00     0.029 A 
ATOM     54  C   UNL A   1      40.824  30.544  34.878  1.00  0.00     0.049 A 
ATOM     55  H   UNL A   1      41.005  29.561  33.019  1.00  0.00     0.167 HD
ATOM     56  C   UNL A   1      38.937  31.421  33.534  1.00  0.00     0.074 A 
ATOM     57  C   UNL A   1      37.742  32.220  33.361  1.00  0.00     0.031 C 
ATOM     58  C   UNL A   1      39.634  31.334  34.693  1.00  0.00     0.037 A 
BRANCH  45  59
ATOM     59  C   UNL A   1      44.400  27.430  34.469  1.00  0.00     0.064 A 
ATOM     60  C   UNL A   1      45.682  27.994  34.509  1.00  0.00     0.173 A 
ATOM     61  C   UNL A   1      44.174  26.255  35.203  1.00  0.00     0.173 A 
ATOM     62  F   UNL A   1      45.951  29.111  33.817  1.00  0.00    -0.203 F 
ATOM     63  C   UNL A   1      46.704  27.397  35.245  1.00  0.00     0.198 A 
ATOM     64  C   UNL A   1      45.190  25.674  35.956  1.00  0.00     0.198 A 
ATOM     65  F   UNL A   1      42.962  25.679  35.201  1.00  0.00    -0.203 F 
ATOM     66  F   UNL A   1      47.929  27.937  35.248  1.00  0.00    -0.200 F 
ATOM     67  C   UNL A   1      46.454  26.244  35.975  1.00  0.00     0.200 A 
ATOM     68  F   UNL A   1      44.944  24.566  36.669  1.00  0.00    -0.200 F 
ATOM     69  F   UNL A   1      47.434  25.679  36.694  1.00  0.00    -0.200 F 
ENDBRANCH  45  59
BRANCH  46  70
ATOM     70  C   UNL A   1      36.849  31.426  29.322  1.00  0.00     0.064 A 
ATOM     71  C   UNL A   1      36.827  32.783  28.975  1.00  0.00     0.173 A 
ATOM     72  C   UNL A   1      35.734  30.646  28.979  1.00  0.00     0.173 A 
ATOM     73  F   UNL A   1      37.857  33.576  29.308  1.00  0.00    -0.203 F 
ATOM     74  C   UNL A   1      35.726  33.343  28.331  1.00  0.00     0.198 A 
ATOM     75  C   UNL A   1      34.646  31.201  28.309  1.00  0.00     0.198 A 
ATOM     76  F   UNL A   1      35.703  29.343  29.295  1.00  0.00    -0.203 F 
ATOM     77  F   UNL A   1      35.708  34.654  28.056  1.00  0.00    -0.200 F 
ATOM     78  C   UNL A   1      34.638  32.551  27.994  1.00  0.00     0.200 A 
ATOM     79  F   UNL A   1      33.602  30.429  27.979  1.00  0.00    -0.200 F 
ATOM     80  F   UNL A   1      33.579  33.090  27.376  1.00  0.00    -0.200 F 
ENDBRANCH  46  70
BRANCH  58  81
ATOM     81  C   UNL A   1      39.136  32.136  35.859  1.00  0.00     0.064 A 
ATOM     82  C   UNL A   1      38.250  31.590  36.799  1.00  0.00     0.173 A 
ATOM     83  C   UNL A   1      39.583  33.451  36.064  1.00  0.00     0.173 A 
ATOM     84  F   UNL A   1      37.782  30.342  36.639  1.00  0.00    -0.203 F 
ATOM     85  C   UNL A   1      37.812  32.338  37.888  1.00  0.00     0.198 A 
ATOM     86  C   UNL A   1      39.164  34.186  37.169  1.00  0.00     0.198 A 
ATOM     87  F   UNL A   1      40.436  34.018  35.198  1.00  0.00    -0.203 F 
ATOM     88  F   UNL A   1      36.930  31.810  38.749  1.00  0.00    -0.200 F 
ATOM     89  C   UNL A   1      38.275  33.631  38.076  1.00  0.00     0.200 A 
ATOM     90  F   UNL A   1      39.622  35.431  37.357  1.00  0.00    -0.200 F 
ATOM     91  F   UNL A   1      37.856  34.347  39.130  1.00  0.00    -0.200 F 
ENDBRANCH  58  81
ENDBRANCH  32  33
ENDBRANCH  25  27
ENDBRANCH  24  25
ENDBRANCH  23  24
ENDBRANCH  22  23
ENDBRANCH   1  22
TORSDOF 16
ENDMDL
MODEL 2
REMARK VINA RESULT:     -11.3      4.387      6.676
REMARK SMILES CN(C(=O)N1CCC(C(=O)OCCOCCOC(=O)c2ccc(-c3c4nc(c(-c5c(F)c(F)c(F)c(F)c5F)c5ccc([nH]5)c(-c5c(F)c(F)c(F)c(F)c5F)c5nc(c(-c6c(F)c(F)c(F)c(F)c6F)c6ccc3[nH]6)C=C5)C=C4)cc2)CC1)[C@H]1CCSC1
REMARK SMILES IDX 14 1 13 2 12 3 11 4 9 5 10 6 8 7 3 8 4 9 5 10 6 11 84 12
REMARK SMILES IDX 7 13 83 14 2 15 1 16 85 17 86 18 89 19 87 20 88 21 15 22
REMARK SMILES IDX 16 23 17 24 18 25 19 26 20 27 21 28 82 29 22 30 81 31 23 32
REMARK SMILES IDX 24 33 25 34 75 35 26 36 80 37 74 38 76 39 27 40 79 41 73 42
REMARK SMILES IDX 72 43 28 45 60 46 40 47 59 48 41 49 44 50 58 51 77 52 42 53
REMARK SMILES IDX 43 54 57 56 78 57 45 58 29 59 30 60 38 61 31 62 32 63 36 64
REMARK SMILES IDX 39 65 33 66 34 67 37 68 35 69 61 70 62 71 70 72 63 73 64 74
REMARK SMILES IDX 68 75 71 76 65 77 66 78 69 79 67 80 46 81 47 82 55 83 48 84
REMARK SMILES IDX 49 85 53 86 56 87 50 88 51 89 54 90 52 91
REMARK H PARENT 76 44 44 55
REMARK Flexibility Score: inf
ROOT
ATOM      1  O   UNL A   1      35.472  18.717  24.627  1.00  0.00    -0.374 OA
ENDROOT
BRANCH   1   2
ATOM      2  C   UNL A   1      34.053  18.755  24.502  1.00  0.00     0.202 C 
BRANCH   2   3
ATOM      3  C   UNL A   1      33.394  20.130  24.625  1.00  0.00     0.261 C 
BRANCH   3   4
ATOM      4  O   UNL A   1      32.892  20.364  25.953  1.00  0.00    -0.463 OA
BRANCH   4   5
ATOM      5  C   UNL A   1      33.322  21.507  26.542  1.00  0.00     0.309 C 
ATOM      6  O   UNL A   1      34.022  21.562  27.548  1.00  0.00    -0.252 OA
BRANCH   5   7
ATOM      7  C   UNL A   1      32.827  22.760  25.855  1.00  0.00     0.103 C 
ATOM      8  C   UNL A   1      31.547  26.656  26.061  1.00  0.00     0.320 C 
ATOM      9  O   UNL A   1      30.627  26.639  26.876  1.00  0.00    -0.248 OA
ATOM     10  N   UNL A   1      31.988  25.481  25.485  1.00  0.00    -0.325 N 
ATOM     11  C   UNL A   1      31.034  24.399  25.275  1.00  0.00     0.122 C 
ATOM     12  C   UNL A   1      33.406  25.144  25.368  1.00  0.00     0.122 C 
ATOM     13  C   UNL A   1      31.371  23.164  26.109  1.00  0.00     0.037 C 
ATOM     14  C   UNL A   1      33.750  23.923  26.215  1.00  0.00     0.037 C 
BRANCH   8  15
ATOM     15  N   UNL A   1      32.172  27.830  25.661  1.00  0.00    -0.324 N 
ATOM     16  C   UNL A   1      32.062  28.384  24.316  1.00  0.00     0.149 C 
BRANCH  15  17
ATOM     17  C   UNL A   1      32.893  28.664  26.634  1.00  0.00     0.097 C 
ATOM     18  C   UNL A   1      34.420  28.654  26.519  1.00  0.00     0.037 C 
ATOM     19  C   UNL A   1      32.474  30.134  26.617  1.00  0.00     0.094 C 
ATOM     20  C   UNL A   1      34.924  29.604  27.595  1.00  0.00     0.072 C 
ATOM     21  S   UNL A   1      33.731  30.978  27.627  1.00  0.00    -0.160 SA
ENDBRANCH  15  17
ENDBRANCH   8  15
ENDBRANCH   5   7
ENDBRANCH   4   5
ENDBRANCH   3   4
ENDBRANCH   2   3
ENDBRANCH   1   2
BRANCH   1  22
ATOM     22  C   UNL A   1      36.139  19.945  24.914  1.00  0.00     0.202 C 
BRANCH  22  23
ATOM     23  C   UNL A   1      37.672  19.891  24.987  1.00  0.00     0.261 C 
BRANCH  23  24
ATOM     24  O   UNL A   1      38.241  21.122  25.471  1.00  0.00    -0.460 OA
BRANCH  24  25
ATOM     25  C   UNL A   1      39.418  20.990  26.127  1.00  0.00     0.338 C 
ATOM     26  O   UNL A   1      40.128  19.993  26.185  1.00  0.00    -0.246 OA
BRANCH  25  27
ATOM     27  C   UNL A   1      39.863  22.296  26.644  1.00  0.00     0.060 A 
ATOM     28  C   UNL A   1      39.241  23.442  26.135  1.00  0.00     0.016 A 
ATOM     29  C   UNL A   1      40.916  22.405  27.554  1.00  0.00     0.016 A 
ATOM     30  C   UNL A   1      39.687  24.708  26.512  1.00  0.00     0.010 A 
ATOM     31  C   UNL A   1      41.373  23.677  27.921  1.00  0.00     0.010 A 
ATOM     32  C   UNL A   1      40.776  24.833  27.385  1.00  0.00    -0.014 A 
BRANCH  32  33
ATOM     33  C   UNL A   1      41.348  26.175  27.660  1.00  0.00     0.031 A 
ATOM     34  C   UNL A   1      42.745  26.490  27.205  1.00  0.00     0.074 A 
ATOM     35  C   UNL A   1      40.616  27.110  28.292  1.00  0.00     0.049 A 
ATOM     36  N   UNL A   1      43.445  27.585  27.370  1.00  0.00    -0.248 NA
ATOM     37  C   UNL A   1      43.449  25.433  26.462  1.00  0.00     0.031 C 
ATOM     38  C   UNL A   1      39.238  26.938  28.744  1.00  0.00     0.029 A 
ATOM     39  N   UNL A   1      40.937  28.391  28.667  1.00  0.00    -0.354 N 
ATOM     40  C   UNL A   1      44.669  27.347  26.761  1.00  0.00     0.074 A 
ATOM     41  C   UNL A   1      44.626  25.998  26.237  1.00  0.00     0.031 C 
ATOM     42  C   UNL A   1      38.833  28.068  29.348  1.00  0.00     0.029 A 
ATOM     43  C   UNL A   1      39.935  29.029  29.355  1.00  0.00     0.049 A 
ATOM     44  H   UNL A   1      41.804  28.811  28.464  1.00  0.00     0.167 HD
ATOM     45  C   UNL A   1      45.729  28.181  26.645  1.00  0.00     0.037 A 
ATOM     46  C   UNL A   1      39.920  30.240  29.945  1.00  0.00     0.037 A 
ATOM     47  C   UNL A   1      45.766  29.526  27.159  1.00  0.00     0.049 A 
ATOM     48  C   UNL A   1      41.147  31.112  29.875  1.00  0.00     0.074 A 
ATOM     49  C   UNL A   1      46.776  30.465  27.042  1.00  0.00     0.029 A 
ATOM     50  N   UNL A   1      44.754  30.117  27.897  1.00  0.00    -0.354 N 
ATOM     51  N   UNL A   1      42.282  30.898  29.255  1.00  0.00    -0.248 NA
ATOM     52  C   UNL A   1      41.090  32.394  30.593  1.00  0.00     0.031 C 
ATOM     53  C   UNL A   1      46.397  31.606  27.758  1.00  0.00     0.029 A 
ATOM     54  C   UNL A   1      45.131  31.395  28.279  1.00  0.00     0.049 A 
ATOM     55  H   UNL A   1      43.893  29.692  28.118  1.00  0.00     0.167 HD
ATOM     56  C   UNL A   1      43.064  32.023  29.490  1.00  0.00     0.074 A 
ATOM     57  C   UNL A   1      42.267  32.925  30.294  1.00  0.00     0.031 C 
ATOM     58  C   UNL A   1      44.328  32.283  29.079  1.00  0.00     0.037 A 
BRANCH  45  59
ATOM     59  C   UNL A   1      46.954  27.663  25.955  1.00  0.00     0.064 A 
ATOM     60  C   UNL A   1      47.099  27.727  24.562  1.00  0.00     0.173 A 
ATOM     61  C   UNL A   1      48.027  27.157  26.706  1.00  0.00     0.173 A 
ATOM     62  F   UNL A   1      46.098  28.193  23.800  1.00  0.00    -0.203 F 
ATOM     63  C   UNL A   1      48.268  27.289  23.943  1.00  0.00     0.198 A 
ATOM     64  C   UNL A   1      49.203  26.743  26.086  1.00  0.00     0.198 A 
ATOM     65  F   UNL A   1      47.940  27.080  28.043  1.00  0.00    -0.203 F 
ATOM     66  F   UNL A   1      48.375  27.333  22.609  1.00  0.00    -0.200 F 
ATOM     67  C   UNL A   1      49.321  26.807  24.706  1.00  0.00     0.200 A 
ATOM     68  F   UNL A   1      50.224  26.288  26.826  1.00  0.00    -0.200 F 
ATOM     69  F   UNL A   1      50.451  26.400  24.110  1.00  0.00    -0.200 F 
ENDBRANCH  45  59
BRANCH  46  70
ATOM     70  C   UNL A   1      38.712  30.698  30.679  1.00  0.00     0.064 A 
ATOM     71  C   UNL A   1      37.656  31.331  30.010  1.00  0.00     0.173 A 
ATOM     72  C   UNL A   1      38.607  30.548  32.070  1.00  0.00     0.173 A 
ATOM     73  F   UNL A   1      37.725  31.525  28.684  1.00  0.00    -0.203 F 
ATOM     74  C   UNL A   1      36.549  31.812  30.705  1.00  0.00     0.198 A 
ATOM     75  C   UNL A   1      37.486  31.003  32.760  1.00  0.00     0.198 A 
ATOM     76  F   UNL A   1      39.594  29.956  32.759  1.00  0.00    -0.203 F 
ATOM     77  F   UNL A   1      35.577  32.458  30.048  1.00  0.00    -0.200 F 
ATOM     78  C   UNL A   1      36.462  31.643  32.080  1.00  0.00     0.200 A 
ATOM     79  F   UNL A   1      37.403  30.831  34.087  1.00  0.00    -0.200 F 
ATOM     80  F   UNL A   1      35.398  32.108  32.748  1.00  0.00    -0.200 F 
ENDBRANCH  46  70
BRANCH  58  81
ATOM     81  C   UNL A   1      44.924  33.603  29.473  1.00  0.00     0.064 A 
ATOM     82  C   UNL A   1      44.737  34.752  28.691  1.00  0.00     0.173 A 
ATOM     83  C   UNL A   1      45.653  33.730  30.666  1.00  0.00     0.173 A 
ATOM     84  F   UNL A   1      44.061  34.679  27.534  1.00  0.00    -0.203 F 
ATOM     85  C   UNL A   1      45.278  35.976  29.077  1.00  0.00     0.198 A 
ATOM     86  C   UNL A   1      46.168  34.961  31.062  1.00  0.00     0.198 A 
ATOM     87  F   UNL A   1      45.854  32.662  31.452  1.00  0.00    -0.203 F 
ATOM     88  F   UNL A   1      45.125  37.052  28.292  1.00  0.00    -0.200 F 
ATOM     89  C   UNL A   1      45.985  36.080  30.266  1.00  0.00     0.200 A 
ATOM     90  F   UNL A   1      46.840  35.063  32.217  1.00  0.00    -0.200 F 
ATOM     91  F   UNL A   1      46.498  37.261  30.639  1.00  0.00    -0.200 F 
ENDBRANCH  58  81
ENDBRANCH  32  33
ENDBRANCH  25  27
ENDBRANCH  24  25
ENDBRANCH  23  24
ENDBRANCH  22  23
ENDBRANCH   1  22
TORSDOF 16
ENDMDL
MODEL 3
REMARK VINA RESULT:     -11.2      3.478      8.593
REMARK SMILES CN(C(=O)N1CCC(C(=O)OCCOCCOC(=O)c2ccc(-c3c4nc(c(-c5c(F)c(F)c(F)c(F)c5F)c5ccc([nH]5)c(-c5c(F)c(F)c(F)c(F)c5F)c5nc(c(-c6c(F)c(F)c(F)c(F)c6F)c6ccc3[nH]6)C=C5)C=C4)cc2)CC1)[C@H]1CCSC1
REMARK SMILES IDX 14 1 13 2 12 3 11 4 9 5 10 6 8 7 3 8 4 9 5 10 6 11 84 12
REMARK SMILES IDX 7 13 83 14 2 15 1 16 85 17 86 18 89 19 87 20 88 21 15 22
REMARK SMILES IDX 16 23 17 24 18 25 19 26 20 27 21 28 82 29 22 30 81 31 23 32
REMARK SMILES IDX 24 33 25 34 75 35 26 36 80 37 74 38 76 39 27 40 79 41 73 42
REMARK SMILES IDX 72 43 28 45 60 46 40 47 59 48 41 49 44 50 58 51 77 52 42 53
REMARK SMILES IDX 43 54 57 56 78 57 45 58 29 59 30 60 38 61 31 62 32 63 36 64
REMARK SMILES IDX 39 65 33 66 34 67 37 68 35 69 61 70 62 71 70 72 63 73 64 74
REMARK SMILES IDX 68 75 71 76 65 77 66 78 69 79 67 80 46 81 47 82 55 83 48 84
REMARK SMILES IDX 49 85 53 86 56 87 50 88 51 89 54 90 52 91
REMARK H PARENT 76 44 44 55
REMARK Flexibility Score: inf
ROOT
ATOM      1  O   UNL A   1      30.613  29.819  24.427  1.00  0.00    -0.374 OA
ENDROOT
BRANCH   1   2
ATOM      2  C   UNL A   1      29.628  30.173  23.459  1.00  0.00     0.202 C 
BRANCH   2   3
ATOM      3  C   UNL A   1      28.836  29.020  22.839  1.00  0.00     0.261 C 
BRANCH   3   4
ATOM      4  O   UNL A   1      29.634  27.829  22.718  1.00  0.00    -0.463 OA
BRANCH   4   5
ATOM      5  C   UNL A   1      29.383  26.867  23.640  1.00  0.00     0.309 C 
ATOM      6  O   UNL A   1      28.276  26.405  23.895  1.00  0.00    -0.252 OA
BRANCH   5   7
ATOM      7  C   UNL A   1      30.619  26.409  24.381  1.00  0.00     0.103 C 
ATOM      8  C   UNL A   1      32.596  23.552  26.569  1.00  0.00     0.320 C 
ATOM      9  O   UNL A   1      31.839  23.297  27.503  1.00  0.00    -0.248 OA
ATOM     10  N   UNL A   1      32.421  24.702  25.826  1.00  0.00    -0.325 N 
ATOM     11  C   UNL A   1      31.869  25.884  26.478  1.00  0.00     0.122 C 
ATOM     12  C   UNL A   1      32.454  24.710  24.364  1.00  0.00     0.122 C 
ATOM     13  C   UNL A   1      30.510  26.278  25.903  1.00  0.00     0.037 C 
ATOM     14  C   UNL A   1      31.093  25.084  23.787  1.00  0.00     0.037 C 
BRANCH   8  15
ATOM     15  N   UNL A   1      33.662  22.732  26.222  1.00  0.00    -0.324 N 
ATOM     16  C   UNL A   1      35.060  23.131  26.342  1.00  0.00     0.149 C 
BRANCH  15  17
ATOM     17  C   UNL A   1      33.433  21.335  25.823  1.00  0.00     0.097 C 
ATOM     18  C   UNL A   1      32.345  21.112  24.769  1.00  0.00     0.037 C 
ATOM     19  C   UNL A   1      34.684  20.629  25.300  1.00  0.00     0.094 C 
ATOM     20  C   UNL A   1      32.323  19.614  24.505  1.00  0.00     0.072 C 
ATOM     21  S   UNL A   1      34.063  19.084  24.565  1.00  0.00    -0.160 SA
ENDBRANCH  15  17
ENDBRANCH   8  15
ENDBRANCH   5   7
ENDBRANCH   4   5
ENDBRANCH   3   4
ENDBRANCH   2   3
ENDBRANCH   1   2
BRANCH   1  22
ATOM     22  C   UNL A   1      31.010  30.826  25.357  1.00  0.00     0.202 C 
BRANCH  22  23
ATOM     23  C   UNL A   1      31.798  30.350  26.586  1.00  0.00     0.261 C 
BRANCH  23  24
ATOM     24  O   UNL A   1      33.212  30.590  26.457  1.00  0.00    -0.460 OA
BRANCH  24  25
ATOM     25  C   UNL A   1      33.694  31.597  27.224  1.00  0.00     0.338 C 
ATOM     26  O   UNL A   1      33.114  32.627  27.548  1.00  0.00    -0.246 OA
BRANCH  25  27
ATOM     27  C   UNL A   1      34.995  31.219  27.802  1.00  0.00     0.060 A 
ATOM     28  C   UNL A   1      35.162  29.891  28.213  1.00  0.00     0.016 A 
ATOM     29  C   UNL A   1      36.008  32.158  28.008  1.00  0.00     0.016 A 
ATOM     30  C   UNL A   1      36.335  29.499  28.857  1.00  0.00     0.010 A 
ATOM     31  C   UNL A   1      37.179  31.766  28.668  1.00  0.00     0.010 A 
ATOM     32  C   UNL A   1      37.338  30.442  29.116  1.00  0.00    -0.014 A 
BRANCH  32  33
ATOM     33  C   UNL A   1      38.512  30.059  29.939  1.00  0.00     0.031 A 
ATOM     34  C   UNL A   1      39.515  29.085  29.388  1.00  0.00     0.074 A 
ATOM     35  C   UNL A   1      38.691  30.593  31.161  1.00  0.00     0.049 A 
ATOM     36  N   UNL A   1      40.590  28.593  29.951  1.00  0.00    -0.248 NA
ATOM     37  C   UNL A   1      39.279  28.602  28.019  1.00  0.00     0.031 C 
ATOM     38  C   UNL A   1      37.810  31.577  31.787  1.00  0.00     0.029 A 
ATOM     39  N   UNL A   1      39.672  30.376  32.096  1.00  0.00    -0.354 N 
ATOM     40  C   UNL A   1      41.153  27.740  29.012  1.00  0.00     0.074 A 
ATOM     41  C   UNL A   1      40.293  27.766  27.848  1.00  0.00     0.031 C 
ATOM     42  C   UNL A   1      38.285  31.871  33.009  1.00  0.00     0.029 A 
ATOM     43  C   UNL A   1      39.482  31.071  33.264  1.00  0.00     0.049 A 
ATOM     44  H   UNL A   1      40.439  29.778  31.943  1.00  0.00     0.167 HD
ATOM     45  C   UNL A   1      42.287  27.008  29.110  1.00  0.00     0.037 A 
ATOM     46  C   UNL A   1      40.180  31.042  34.416  1.00  0.00     0.037 A 
ATOM     47  C   UNL A   1      43.148  26.991  30.265  1.00  0.00     0.049 A 
ATOM     48  C   UNL A   1      41.388  30.150  34.527  1.00  0.00     0.074 A 
ATOM     49  C   UNL A   1      44.347  26.321  30.437  1.00  0.00     0.029 A 
ATOM     50  N   UNL A   1      42.892  27.664  31.449  1.00  0.00    -0.354 N 
ATOM     51  N   UNL A   1      41.940  29.384  33.617  1.00  0.00    -0.248 NA
ATOM     52  C   UNL A   1      42.069  30.115  35.830  1.00  0.00     0.031 C 
ATOM     53  C   UNL A   1      44.789  26.546  31.745  1.00  0.00     0.029 A 
ATOM     54  C   UNL A   1      43.890  27.394  32.372  1.00  0.00     0.049 A 
ATOM     55  H   UNL A   1      42.116  28.248  31.611  1.00  0.00     0.167 HD
ATOM     56  C   UNL A   1      43.039  28.795  34.229  1.00  0.00     0.074 A 
ATOM     57  C   UNL A   1      43.088  29.305  35.583  1.00  0.00     0.031 C 
ATOM     58  C   UNL A   1      43.927  27.908  33.716  1.00  0.00     0.037 A 
BRANCH  45  59
ATOM     59  C   UNL A   1      42.662  26.139  27.948  1.00  0.00     0.064 A 
ATOM     60  C   UNL A   1      42.120  24.857  27.781  1.00  0.00     0.173 A 
ATOM     61  C   UNL A   1      43.525  26.624  26.953  1.00  0.00     0.173 A 
ATOM     62  F   UNL A   1      41.298  24.345  28.708  1.00  0.00    -0.203 F 
ATOM     63  C   UNL A   1      42.440  24.085  26.666  1.00  0.00     0.198 A 
ATOM     64  C   UNL A   1      43.824  25.860  25.829  1.00  0.00     0.198 A 
ATOM     65  F   UNL A   1      44.066  27.847  27.065  1.00  0.00    -0.203 F 
ATOM     66  F   UNL A   1      41.933  22.852  26.538  1.00  0.00    -0.200 F 
ATOM     67  C   UNL A   1      43.284  24.591  25.687  1.00  0.00     0.200 A 
ATOM     68  F   UNL A   1      44.630  26.354  24.879  1.00  0.00    -0.200 F 
ATOM     69  F   UNL A   1      43.579  23.852  24.608  1.00  0.00    -0.200 F 
ENDBRANCH  45  59
BRANCH  46  70
ATOM     70  C   UNL A   1      39.743  31.865  35.574  1.00  0.00     0.064 A 
ATOM     71  C   UNL A   1      38.687  31.453  36.397  1.00  0.00     0.173 A 
ATOM     72  C   UNL A   1      40.349  33.099  35.858  1.00  0.00     0.173 A 
ATOM     73  F   UNL A   1      38.056  30.295  36.146  1.00  0.00    -0.203 F 
ATOM     74  C   UNL A   1      38.240  32.250  37.448  1.00  0.00     0.198 A 
ATOM     75  C   UNL A   1      39.920  33.882  36.927  1.00  0.00     0.198 A 
ATOM     76  F   UNL A   1      41.360  33.542  35.096  1.00  0.00    -0.203 F 
ATOM     77  F   UNL A   1      37.195  31.856  38.188  1.00  0.00    -0.200 F 
ATOM     78  C   UNL A   1      38.860  33.462  37.716  1.00  0.00     0.200 A 
ATOM     79  F   UNL A   1      40.528  35.047  37.187  1.00  0.00    -0.200 F 
ATOM     80  F   UNL A   1      38.428  34.229  38.726  1.00  0.00    -0.200 F 
ENDBRANCH  46  70
BRANCH  58  81
ATOM     81  C   UNL A   1      45.039  27.449  34.613  1.00  0.00     0.064 A 
ATOM     82  C   UNL A   1      46.239  28.166  34.718  1.00  0.00     0.173 A 
ATOM     83  C   UNL A   1      44.887  26.302  35.408  1.00  0.00     0.173 A 
ATOM     84  F   UNL A   1      46.439  29.260  33.967  1.00  0.00    -0.203 F 
ATOM     85  C   UNL A   1      47.255  27.740  35.569  1.00  0.00     0.198 A 
ATOM     86  C   UNL A   1      45.894  25.895  36.278  1.00  0.00     0.198 A 
ATOM     87  F   UNL A   1      43.755  25.583  35.349  1.00  0.00    -0.203 F 
ATOM     88  F   UNL A   1      48.412  28.417  35.620  1.00  0.00    -0.200 F 
ATOM     89  C   UNL A   1      47.079  26.610  36.353  1.00  0.00     0.200 A 
ATOM     90  F   UNL A   1      45.718  24.810  37.045  1.00  0.00    -0.200 F 
ATOM     91  F   UNL A   1      48.057  26.207  37.176  1.00  0.00    -0.200 F 
ENDBRANCH  58  81
ENDBRANCH  32  33
ENDBRANCH  25  27
ENDBRANCH  24  25
ENDBRANCH  23  24
ENDBRANCH  22  23
ENDBRANCH   1  22
TORSDOF 16
ENDMDL
