MODEL 1
REMARK VINA RESULT:     -12.0      0.000      0.000
REMARK SMILES CC1(C)CCC[C@H]1NC(=O)N[C@@H]1COC[C@@]1(C)C(=O)OCCOCCOC(=O)c1ccc(-c2c3nc(c(-c4c(F)c(F)c(F)c(F)c4F)c4ccc([nH]4)c(-c4c(F)c(F)c(F)c(F)c4F)c4nc(c(-c5c(F)c(F)c(F)c(F)c5F)c5ccc2[nH]5)C=C4)C=C3)cc1
REMARK SMILES IDX 23 1 22 2 21 3 20 4 18 5 19 6 16 7 12 8 13 9 14 10 15 11
REMARK SMILES IDX 17 12 11 13 8 14 9 15 10 17 7 19 1 20 2 21 3 22 4 23 5 24
REMARK SMILES IDX 6 25 24 26 25 27 26 28 27 29 28 30 29 31 30 32 91 33 31 34
REMARK SMILES IDX 90 35 32 36 33 37 34 38 84 39 35 40 89 41 83 42 85 43 36 44
REMARK SMILES IDX 88 45 82 46 81 47 37 49 69 50 49 51 68 52 50 53 53 54 67 55
REMARK SMILES IDX 86 56 51 57 52 58 66 60 87 61 54 62 38 63 39 64 47 65 40 66
REMARK SMILES IDX 41 67 45 68 48 69 42 70 43 71 46 72 44 73 70 74 71 75 79 76
REMARK SMILES IDX 72 77 73 78 77 79 80 80 74 81 75 82 78 83 76 84 55 85 56 86
REMARK SMILES IDX 64 87 57 88 58 89 62 90 65 91 59 92 60 93 63 94 61 95
REMARK H PARENT 8 16 11 18 85 48 53 59
REMARK Flexibility Score: inf
ROOT
ATOM      1  O   UNL A   1      36.076  22.902  24.386  1.00  0.00    -0.374 OA
ENDROOT
BRANCH   1   2
ATOM      2  C   UNL A   1      35.300  23.964  24.950  1.00  0.00     0.202 C 
BRANCH   2   3
ATOM      3  C   UNL A   1      34.827  23.686  26.391  1.00  0.00     0.261 C 
BRANCH   3   4
ATOM      4  O   UNL A   1      33.441  24.068  26.491  1.00  0.00    -0.463 OA
BRANCH   4   5
ATOM      5  C   UNL A   1      32.539  23.136  26.900  1.00  0.00     0.316 C 
ATOM      6  O   UNL A   1      32.547  22.616  28.006  1.00  0.00    -0.251 OA
BRANCH   5   7
ATOM      7  C   UNL A   1      31.456  22.927  25.829  1.00  0.00     0.111 C 
ATOM      8  C   UNL A   1      31.492  23.947  24.686  1.00  0.00     0.129 C 
ATOM      9  C   UNL A   1      31.925  23.186  23.441  1.00  0.00     0.186 C 
ATOM     10  O   UNL A   1      31.781  21.793  23.710  1.00  0.00    -0.378 OA
ATOM     11  C   UNL A   1      31.799  21.602  25.129  1.00  0.00     0.181 C 
ATOM     12  C   UNL A   1      30.097  22.920  26.530  1.00  0.00     0.028 C 
BRANCH   8  13
ATOM     13  N   UNL A   1      30.287  24.787  24.473  1.00  0.00    -0.332 N 
ATOM     14  N   UNL A   1      30.478  27.114  25.021  1.00  0.00    -0.335 N 
ATOM     15  C   UNL A   1      29.837  26.037  24.570  1.00  0.00     0.315 C 
ATOM     16  H   UNL A   1      29.971  27.936  24.827  1.00  0.00     0.165 HD
ATOM     17  O   UNL A   1      28.685  26.223  24.156  1.00  0.00    -0.249 OA
ATOM     18  H   UNL A   1      29.559  24.214  24.138  1.00  0.00     0.165 HD
BRANCH  14  19
ATOM     19  C   UNL A   1      31.724  27.417  25.723  1.00  0.00     0.089 C 
ATOM     20  C   UNL A   1      32.403  28.789  23.536  1.00  0.00     0.013 C 
ATOM     21  C   UNL A   1      32.626  28.512  25.034  1.00  0.00    -0.015 C 
ATOM     22  C   UNL A   1      34.117  28.150  25.227  1.00  0.00     0.013 C 
ATOM     23  C   UNL A   1      32.291  29.786  25.822  1.00  0.00     0.008 C 
ATOM     24  C   UNL A   1      32.125  29.312  27.251  1.00  0.00     0.003 C 
ATOM     25  C   UNL A   1      31.405  27.974  27.128  1.00  0.00     0.025 C 
ENDBRANCH  14  19
ENDBRANCH   8  13
ENDBRANCH   5   7
ENDBRANCH   4   5
ENDBRANCH   3   4
ENDBRANCH   2   3
ENDBRANCH   1   2
BRANCH   1  26
ATOM     26  C   UNL A   1      35.844  21.582  24.875  1.00  0.00     0.202 C 
BRANCH  26  27
ATOM     27  C   UNL A   1      37.089  20.730  25.185  1.00  0.00     0.261 C 
BRANCH  27  28
ATOM     28  O   UNL A   1      38.323  21.457  25.046  1.00  0.00    -0.460 OA
BRANCH  28  29
ATOM     29  C   UNL A   1      39.260  21.126  25.969  1.00  0.00     0.338 C 
ATOM     30  O   UNL A   1      39.794  20.039  26.110  1.00  0.00    -0.246 OA
BRANCH  29  31
ATOM     31  C   UNL A   1      39.701  22.303  26.746  1.00  0.00     0.060 A 
ATOM     32  C   UNL A   1      39.104  23.523  26.412  1.00  0.00     0.016 A 
ATOM     33  C   UNL A   1      40.744  22.263  27.677  1.00  0.00     0.016 A 
ATOM     34  C   UNL A   1      39.593  24.712  26.943  1.00  0.00     0.010 A 
ATOM     35  C   UNL A   1      41.232  23.465  28.218  1.00  0.00     0.010 A 
ATOM     36  C   UNL A   1      40.691  24.699  27.814  1.00  0.00    -0.014 A 
BRANCH  36  37
ATOM     37  C   UNL A   1      41.328  26.000  28.151  1.00  0.00     0.031 A 
ATOM     38  C   UNL A   1      42.710  26.306  27.637  1.00  0.00     0.074 A 
ATOM     39  C   UNL A   1      40.632  26.954  28.797  1.00  0.00     0.049 A 
ATOM     40  N   UNL A   1      43.386  27.428  27.680  1.00  0.00    -0.248 NA
ATOM     41  C   UNL A   1      43.425  25.201  26.977  1.00  0.00     0.031 C 
ATOM     42  C   UNL A   1      39.279  26.798  29.324  1.00  0.00     0.029 A 
ATOM     43  N   UNL A   1      40.962  28.253  29.096  1.00  0.00    -0.354 N 
ATOM     44  C   UNL A   1      44.595  27.167  27.048  1.00  0.00     0.074 A 
ATOM     45  C   UNL A   1      44.582  25.770  26.672  1.00  0.00     0.031 C 
ATOM     46  C   UNL A   1      38.884  27.963  29.866  1.00  0.00     0.029 A 
ATOM     47  C   UNL A   1      39.963  28.941  29.738  1.00  0.00     0.049 A 
ATOM     48  H   UNL A   1      41.834  28.653  28.873  1.00  0.00     0.167 HD
ATOM     49  C   UNL A   1      45.618  28.018  26.787  1.00  0.00     0.037 A 
ATOM     50  C   UNL A   1      39.919  30.219  30.168  1.00  0.00     0.037 A 
ATOM     51  C   UNL A   1      45.637  29.409  27.157  1.00  0.00     0.049 A 
ATOM     52  C   UNL A   1      41.090  31.131  29.908  1.00  0.00     0.074 A 
ATOM     53  C   UNL A   1      46.622  30.354  26.922  1.00  0.00     0.029 A 
ATOM     54  N   UNL A   1      44.623  30.056  27.849  1.00  0.00    -0.354 N 
ATOM     55  N   UNL A   1      42.207  30.885  29.269  1.00  0.00    -0.248 NA
ATOM     56  C   UNL A   1      40.981  32.506  30.417  1.00  0.00     0.031 C 
ATOM     57  C   UNL A   1      46.227  31.557  27.514  1.00  0.00     0.029 A 
ATOM     58  C   UNL A   1      44.970  31.379  28.069  1.00  0.00     0.049 A 
ATOM     59  H   UNL A   1      43.781  29.636  28.140  1.00  0.00     0.167 HD
ATOM     60  C   UNL A   1      42.920  32.079  29.272  1.00  0.00     0.074 A 
ATOM     61  C   UNL A   1      42.100  33.051  29.962  1.00  0.00     0.031 C 
ATOM     62  C   UNL A   1      44.143  32.344  28.750  1.00  0.00     0.037 A 
BRANCH  49  63
ATOM     63  C   UNL A   1      46.816  27.460  26.073  1.00  0.00     0.064 A 
ATOM     64  C   UNL A   1      46.976  27.596  24.686  1.00  0.00     0.173 A 
ATOM     65  C   UNL A   1      47.831  26.811  26.791  1.00  0.00     0.173 A 
ATOM     66  F   UNL A   1      46.028  28.196  23.952  1.00  0.00    -0.203 F 
ATOM     67  C   UNL A   1      48.097  27.078  24.040  1.00  0.00     0.198 A 
ATOM     68  C   UNL A   1      48.964  26.320  26.147  1.00  0.00     0.198 A 
ATOM     69  F   UNL A   1      47.731  26.659  28.120  1.00  0.00    -0.203 F 
ATOM     70  F   UNL A   1      48.206  27.177  22.708  1.00  0.00    -0.200 F 
ATOM     71  C   UNL A   1      49.093  26.447  24.772  1.00  0.00     0.200 A 
ATOM     72  F   UNL A   1      49.931  25.722  26.856  1.00  0.00    -0.200 F 
ATOM     73  F   UNL A   1      50.173  25.955  24.149  1.00  0.00    -0.200 F 
ENDBRANCH  49  63
BRANCH  50  74
ATOM     74  C   UNL A   1      38.714  30.720  30.880  1.00  0.00     0.064 A 
ATOM     75  C   UNL A   1      37.618  31.239  30.178  1.00  0.00     0.173 A 
ATOM     76  C   UNL A   1      38.648  30.715  32.280  1.00  0.00     0.173 A 
ATOM     77  F   UNL A   1      37.644  31.291  28.837  1.00  0.00    -0.203 F 
ATOM     78  C   UNL A   1      36.510  31.752  30.850  1.00  0.00     0.198 A 
ATOM     79  C   UNL A   1      37.528  31.200  32.951  1.00  0.00     0.198 A 
ATOM     80  F   UNL A   1      39.672  30.231  32.999  1.00  0.00    -0.203 F 
ATOM     81  F   UNL A   1      35.497  32.289  30.155  1.00  0.00    -0.200 F 
ATOM     82  C   UNL A   1      36.464  31.727  32.235  1.00  0.00     0.200 A 
ATOM     83  F   UNL A   1      37.483  31.164  34.290  1.00  0.00    -0.200 F 
ATOM     84  F   UNL A   1      35.398  32.220  32.882  1.00  0.00    -0.200 F 
ENDBRANCH  50  74
BRANCH  62  85
ATOM     85  C   UNL A   1      44.655  33.752  28.869  1.00  0.00     0.064 A 
ATOM     86  C   UNL A   1      45.439  34.164  29.957  1.00  0.00     0.173 A 
ATOM     87  C   UNL A   1      44.377  34.694  27.867  1.00  0.00     0.173 A 
ATOM     88  F   UNL A   1      45.723  33.306  30.948  1.00  0.00    -0.203 F 
ATOM     89  C   UNL A   1      45.895  35.477  30.054  1.00  0.00     0.198 A 
ATOM     90  C   UNL A   1      44.862  35.997  27.952  1.00  0.00     0.198 A 
ATOM     91  F   UNL A   1      43.640  34.350  26.800  1.00  0.00    -0.203 F 
ATOM     92  F   UNL A   1      46.595  35.863  31.130  1.00  0.00    -0.200 F 
ATOM     93  C   UNL A   1      45.612  36.390  29.049  1.00  0.00     0.200 A 
ATOM     94  F   UNL A   1      44.598  36.874  26.972  1.00  0.00    -0.200 F 
ATOM     95  F   UNL A   1      46.053  37.652  29.144  1.00  0.00    -0.200 F 
ENDBRANCH  62  85
ENDBRANCH  36  37
ENDBRANCH  29  31
ENDBRANCH  28  29
ENDBRANCH  27  28
ENDBRANCH  26  27
ENDBRANCH   1  26
TORSDOF 16
ENDMDL
MODEL 2
REMARK VINA RESULT:     -12.0      4.131      9.821
REMARK SMILES CC1(C)CCC[C@H]1NC(=O)N[C@@H]1COC[C@@]1(C)C(=O)OCCOCCOC(=O)c1ccc(-c2c3nc(c(-c4c(F)c(F)c(F)c(F)c4F)c4ccc([nH]4)c(-c4c(F)c(F)c(F)c(F)c4F)c4nc(c(-c5c(F)c(F)c(F)c(F)c5F)c5ccc2[nH]5)C=C4)C=C3)cc1
REMARK SMILES IDX 23 1 22 2 21 3 20 4 18 5 19 6 16 7 12 8 13 9 14 10 15 11
REMARK SMILES IDX 17 12 11 13 8 14 9 15 10 17 7 19 1 20 2 21 3 22 4 23 5 24
REMARK SMILES IDX 6 25 24 26 25 27 26 28 27 29 28 30 29 31 30 32 91 33 31 34
REMARK SMILES IDX 90 35 32 36 33 37 34 38 84 39 35 40 89 41 83 42 85 43 36 44
REMARK SMILES IDX 88 45 82 46 81 47 37 49 69 50 49 51 68 52 50 53 53 54 67 55
REMARK SMILES IDX 86 56 51 57 52 58 66 60 87 61 54 62 38 63 39 64 47 65 40 66
REMARK SMILES IDX 41 67 45 68 48 69 42 70 43 71 46 72 44 73 70 74 71 75 79 76
REMARK SMILES IDX 72 77 73 78 77 79 80 80 74 81 75 82 78 83 76 84 55 85 56 86
REMARK SMILES IDX 64 87 57 88 58 89 62 90 65 91 59 92 60 93 63 94 61 95
REMARK H PARENT 8 16 11 18 85 48 53 59
REMARK Flexibility Score: inf
ROOT
ATOM      1  O   UNL A   1      31.001  29.801  24.455  1.00  0.00    -0.374 OA
ENDROOT
BRANCH   1   2
ATOM      2  C   UNL A   1      31.383  28.804  23.501  1.00  0.00     0.202 C 
BRANCH   2   3
ATOM      3  C   UNL A   1      30.575  27.496  23.617  1.00  0.00     0.261 C 
BRANCH   3   4
ATOM      4  O   UNL A   1      31.444  26.478  24.152  1.00  0.00    -0.463 OA
BRANCH   4   5
ATOM      5  C   UNL A   1      31.135  25.174  23.921  1.00  0.00     0.316 C 
ATOM      6  O   UNL A   1      30.086  24.799  23.417  1.00  0.00    -0.251 OA
BRANCH   5   7
ATOM      7  C   UNL A   1      32.326  24.268  24.268  1.00  0.00     0.111 C 
ATOM      8  C   UNL A   1      31.937  22.914  24.870  1.00  0.00     0.129 C 
ATOM      9  C   UNL A   1      32.297  21.859  23.833  1.00  0.00     0.186 C 
ATOM     10  O   UNL A   1      33.169  22.465  22.881  1.00  0.00    -0.378 OA
ATOM     11  C   UNL A   1      32.975  23.883  22.928  1.00  0.00     0.181 C 
ATOM     12  C   UNL A   1      33.254  25.048  25.200  1.00  0.00     0.028 C 
BRANCH   8  13
ATOM     13  N   UNL A   1      32.436  22.594  26.230  1.00  0.00    -0.332 N 
ATOM     14  N   UNL A   1      34.734  21.927  26.410  1.00  0.00    -0.335 N 
ATOM     15  C   UNL A   1      33.528  22.218  26.896  1.00  0.00     0.315 C 
ATOM     16  H   UNL A   1      35.397  21.843  27.133  1.00  0.00     0.165 HD
ATOM     17  O   UNL A   1      33.411  22.168  28.127  1.00  0.00    -0.249 OA
ATOM     18  H   UNL A   1      31.695  22.697  26.871  1.00  0.00     0.165 HD
BRANCH  14  19
ATOM     19  C   UNL A   1      35.348  21.697  25.103  1.00  0.00     0.089 C 
ATOM     20  C   UNL A   1      36.825  23.858  25.627  1.00  0.00     0.013 C 
ATOM     21  C   UNL A   1      36.627  22.570  24.807  1.00  0.00    -0.015 C 
ATOM     22  C   UNL A   1      36.655  22.957  23.310  1.00  0.00     0.013 C 
ATOM     23  C   UNL A   1      37.784  21.610  25.120  1.00  0.00     0.008 C 
ATOM     24  C   UNL A   1      37.297  20.262  24.629  1.00  0.00     0.003 C 
ATOM     25  C   UNL A   1      35.820  20.230  25.004  1.00  0.00     0.025 C 
ENDBRANCH  14  19
ENDBRANCH   8  13
ENDBRANCH   5   7
ENDBRANCH   4   5
ENDBRANCH   3   4
ENDBRANCH   2   3
ENDBRANCH   1   2
BRANCH   1  26
ATOM     26  C   UNL A   1      31.694  29.823  25.701  1.00  0.00     0.202 C 
BRANCH  26  27
ATOM     27  C   UNL A   1      31.759  31.177  26.433  1.00  0.00     0.261 C 
BRANCH  27  28
ATOM     28  O   UNL A   1      32.625  31.158  27.583  1.00  0.00    -0.460 OA
BRANCH  28  29
ATOM     29  C   UNL A   1      33.459  32.226  27.658  1.00  0.00     0.338 C 
ATOM     30  O   UNL A   1      33.141  33.403  27.625  1.00  0.00    -0.246 OA
BRANCH  29  31
ATOM     31  C   UNL A   1      34.850  31.814  27.933  1.00  0.00     0.060 A 
ATOM     32  C   UNL A   1      35.051  30.456  28.200  1.00  0.00     0.016 A 
ATOM     33  C   UNL A   1      35.911  32.718  28.055  1.00  0.00     0.016 A 
ATOM     34  C   UNL A   1      36.283  30.007  28.666  1.00  0.00     0.010 A 
ATOM     35  C   UNL A   1      37.156  32.262  28.518  1.00  0.00     0.010 A 
ATOM     36  C   UNL A   1      37.333  30.912  28.874  1.00  0.00    -0.014 A 
BRANCH  36  37
ATOM     37  C   UNL A   1      38.536  30.428  29.603  1.00  0.00     0.031 A 
ATOM     38  C   UNL A   1      38.741  30.825  31.042  1.00  0.00     0.074 A 
ATOM     39  C   UNL A   1      39.368  29.538  29.033  1.00  0.00     0.049 A 
ATOM     40  N   UNL A   1      39.629  30.396  31.905  1.00  0.00    -0.248 NA
ATOM     41  C   UNL A   1      37.818  31.834  31.584  1.00  0.00     0.031 C 
ATOM     42  C   UNL A   1      39.267  29.051  27.659  1.00  0.00     0.029 A 
ATOM     43  N   UNL A   1      40.448  28.865  29.550  1.00  0.00    -0.354 N 
ATOM     44  C   UNL A   1      39.365  31.074  33.089  1.00  0.00     0.074 A 
ATOM     45  C   UNL A   1      38.266  31.976  32.822  1.00  0.00     0.031 C 
ATOM     46  C   UNL A   1      40.233  28.142  27.445  1.00  0.00     0.029 A 
ATOM     47  C   UNL A   1      41.031  27.995  28.662  1.00  0.00     0.049 A 
ATOM     48  H   UNL A   1      40.774  28.995  30.470  1.00  0.00     0.167 HD
ATOM     49  C   UNL A   1      39.971  30.944  34.295  1.00  0.00     0.037 A 
ATOM     50  C   UNL A   1      42.084  27.167  28.816  1.00  0.00     0.037 A 
ATOM     51  C   UNL A   1      41.064  30.047  34.567  1.00  0.00     0.049 A 
ATOM     52  C   UNL A   1      42.770  27.077  30.154  1.00  0.00     0.074 A 
ATOM     53  C   UNL A   1      41.732  29.835  35.761  1.00  0.00     0.029 A 
ATOM     54  N   UNL A   1      41.656  29.216  33.626  1.00  0.00    -0.354 N 
ATOM     55  N   UNL A   1      42.482  27.688  31.277  1.00  0.00    -0.248 NA
ATOM     56  C   UNL A   1      43.921  26.166  30.246  1.00  0.00     0.031 C 
ATOM     57  C   UNL A   1      42.759  28.914  35.532  1.00  0.00     0.029 A 
ATOM     58  C   UNL A   1      42.696  28.509  34.209  1.00  0.00     0.049 A 
ATOM     59  H   UNL A   1      41.379  29.141  32.685  1.00  0.00     0.167 HD
ATOM     60  C   UNL A   1      43.393  27.214  32.214  1.00  0.00     0.074 A 
ATOM     61  C   UNL A   1      44.232  26.253  31.531  1.00  0.00     0.031 C 
ATOM     62  C   UNL A   1      43.521  27.546  33.523  1.00  0.00     0.037 A 
BRANCH  49  63
ATOM     63  C   UNL A   1      39.469  31.807  35.416  1.00  0.00     0.064 A 
ATOM     64  C   UNL A   1      38.529  31.337  36.344  1.00  0.00     0.173 A 
ATOM     65  C   UNL A   1      39.961  33.111  35.583  1.00  0.00     0.173 A 
ATOM     66  F   UNL A   1      38.017  30.103  36.221  1.00  0.00    -0.203 F 
ATOM     67  C   UNL A   1      38.078  32.149  37.383  1.00  0.00     0.198 A 
ATOM     68  C   UNL A   1      39.531  33.909  36.640  1.00  0.00     0.198 A 
ATOM     69  F   UNL A   1      40.866  33.608  34.728  1.00  0.00    -0.203 F 
ATOM     70  F   UNL A   1      37.143  31.695  38.230  1.00  0.00    -0.200 F 
ATOM     71  C   UNL A   1      38.585  33.431  37.534  1.00  0.00     0.200 A 
ATOM     72  F   UNL A   1      40.030  35.143  36.791  1.00  0.00    -0.200 F 
ATOM     73  F   UNL A   1      38.154  34.209  38.537  1.00  0.00    -0.200 F 
ENDBRANCH  49  63
BRANCH  50  74
ATOM     74  C   UNL A   1      42.550  26.340  27.671  1.00  0.00     0.064 A 
ATOM     75  C   UNL A   1      43.557  26.796  26.808  1.00  0.00     0.173 A 
ATOM     76  C   UNL A   1      41.977  25.090  27.402  1.00  0.00     0.173 A 
ATOM     77  F   UNL A   1      44.118  27.998  27.008  1.00  0.00    -0.203 F 
ATOM     78  C   UNL A   1      43.958  26.039  25.708  1.00  0.00     0.198 A 
ATOM     79  C   UNL A   1      42.399  24.321  26.319  1.00  0.00     0.198 A 
ATOM     80  F   UNL A   1      41.008  24.610  28.195  1.00  0.00    -0.203 F 
ATOM     81  F   UNL A   1      44.887  26.521  24.870  1.00  0.00    -0.200 F 
ATOM     82  C   UNL A   1      43.383  24.801  25.468  1.00  0.00     0.200 A 
ATOM     83  F   UNL A   1      41.847  23.120  26.097  1.00  0.00    -0.200 F 
ATOM     84  F   UNL A   1      43.768  24.074  24.410  1.00  0.00    -0.200 F 
ENDBRANCH  50  74
BRANCH  62  85
ATOM     85  C   UNL A   1      44.583  26.837  34.315  1.00  0.00     0.064 A 
ATOM     86  C   UNL A   1      44.335  25.613  34.953  1.00  0.00     0.173 A 
ATOM     87  C   UNL A   1      45.873  27.379  34.417  1.00  0.00     0.173 A 
ATOM     88  F   UNL A   1      43.116  25.057  34.897  1.00  0.00    -0.203 F 
ATOM     89  C   UNL A   1      45.329  24.975  35.692  1.00  0.00     0.198 A 
ATOM     90  C   UNL A   1      46.874  26.724  35.130  1.00  0.00     0.198 A 
ATOM     91  F   UNL A   1      46.167  28.544  33.819  1.00  0.00    -0.203 F 
ATOM     92  F   UNL A   1      45.054  23.834  36.339  1.00  0.00    -0.200 F 
ATOM     93  C   UNL A   1      46.599  25.528  35.774  1.00  0.00     0.200 A 
ATOM     94  F   UNL A   1      48.104  27.253  35.196  1.00  0.00    -0.200 F 
ATOM     95  F   UNL A   1      47.555  24.913  36.484  1.00  0.00    -0.200 F 
ENDBRANCH  62  85
ENDBRANCH  36  37
ENDBRANCH  29  31
ENDBRANCH  28  29
ENDBRANCH  27  28
ENDBRANCH  26  27
ENDBRANCH   1  26
TORSDOF 16
ENDMDL
MODEL 3
REMARK VINA RESULT:     -11.7      4.209      9.865
REMARK SMILES CC1(C)CCC[C@H]1NC(=O)N[C@@H]1COC[C@@]1(C)C(=O)OCCOCCOC(=O)c1ccc(-c2c3nc(c(-c4c(F)c(F)c(F)c(F)c4F)c4ccc([nH]4)c(-c4c(F)c(F)c(F)c(F)c4F)c4nc(c(-c5c(F)c(F)c(F)c(F)c5F)c5ccc2[nH]5)C=C4)C=C3)cc1
REMARK SMILES IDX 23 1 22 2 21 3 20 4 18 5 19 6 16 7 12 8 13 9 14 10 15 11
REMARK SMILES IDX 17 12 11 13 8 14 9 15 10 17 7 19 1 20 2 21 3 22 4 23 5 24
REMARK SMILES IDX 6 25 24 26 25 27 26 28 27 29 28 30 29 31 30 32 91 33 31 34
REMARK SMILES IDX 90 35 32 36 33 37 34 38 84 39 35 40 89 41 83 42 85 43 36 44
REMARK SMILES IDX 88 45 82 46 81 47 37 49 69 50 49 51 68 52 50 53 53 54 67 55
REMARK SMILES IDX 86 56 51 57 52 58 66 60 87 61 54 62 38 63 39 64 47 65 40 66
REMARK SMILES IDX 41 67 45 68 48 69 42 70 43 71 46 72 44 73 70 74 71 75 79 76
REMARK SMILES IDX 72 77 73 78 77 79 80 80 74 81 75 82 78 83 76 84 55 85 56 86
REMARK SMILES IDX 64 87 57 88 58 89 62 90 65 91 59 92 60 93 63 94 61 95
REMARK H PARENT 8 16 11 18 85 48 53 59
REMARK Flexibility Score: inf
ROOT
ATOM      1  O   UNL A   1      31.791  29.439  26.285  1.00  0.00    -0.374 OA
ENDROOT
BRANCH   1   2
ATOM      2  C   UNL A   1      31.235  28.261  25.691  1.00  0.00     0.202 C 
BRANCH   2   3
ATOM      3  C   UNL A   1      31.052  28.367  24.164  1.00  0.00     0.261 C 
BRANCH   3   4
ATOM      4  O   UNL A   1      32.174  27.720  23.531  1.00  0.00    -0.463 OA
BRANCH   4   5
ATOM      5  C   UNL A   1      31.938  26.636  22.743  1.00  0.00     0.316 C 
ATOM      6  O   UNL A   1      31.406  26.693  21.645  1.00  0.00    -0.251 OA
BRANCH   5   7
ATOM      7  C   UNL A   1      32.539  25.370  23.374  1.00  0.00     0.111 C 
ATOM      8  C   UNL A   1      31.509  24.425  23.999  1.00  0.00     0.129 C 
ATOM      9  C   UNL A   1      31.488  23.174  23.131  1.00  0.00     0.186 C 
ATOM     10  O   UNL A   1      32.654  23.193  22.311  1.00  0.00    -0.378 OA
ATOM     11  C   UNL A   1      33.114  24.545  22.210  1.00  0.00     0.181 C 
ATOM     12  C   UNL A   1      33.590  25.808  24.396  1.00  0.00     0.028 C 
BRANCH   8  13
ATOM     13  N   UNL A   1      31.631  24.132  25.449  1.00  0.00    -0.332 N 
ATOM     14  N   UNL A   1      33.539  22.852  26.137  1.00  0.00    -0.335 N 
ATOM     15  C   UNL A   1      32.415  23.534  26.346  1.00  0.00     0.315 C 
ATOM     16  H   UNL A   1      34.002  22.663  26.986  1.00  0.00     0.165 HD
ATOM     17  O   UNL A   1      32.066  23.662  27.526  1.00  0.00    -0.249 OA
ATOM     18  H   UNL A   1      30.854  24.519  25.915  1.00  0.00     0.165 HD
BRANCH  14  19
ATOM     19  C   UNL A   1      34.279  22.305  25.001  1.00  0.00     0.089 C 
ATOM     20  C   UNL A   1      36.276  23.898  25.775  1.00  0.00     0.013 C 
ATOM     21  C   UNL A   1      35.812  22.673  24.966  1.00  0.00    -0.015 C 
ATOM     22  C   UNL A   1      36.261  22.880  23.501  1.00  0.00     0.013 C 
ATOM     23  C   UNL A   1      36.484  21.421  25.547  1.00  0.00     0.008 C 
ATOM     24  C   UNL A   1      35.669  20.268  24.997  1.00  0.00     0.003 C 
ATOM     25  C   UNL A   1      34.228  20.762  25.044  1.00  0.00     0.025 C 
ENDBRANCH  14  19
ENDBRANCH   8  13
ENDBRANCH   5   7
ENDBRANCH   4   5
ENDBRANCH   3   4
ENDBRANCH   2   3
ENDBRANCH   1   2
BRANCH   1  26
ATOM     26  C   UNL A   1      31.400  30.700  25.745  1.00  0.00     0.202 C 
BRANCH  26  27
ATOM     27  C   UNL A   1      31.783  31.950  26.558  1.00  0.00     0.261 C 
BRANCH  27  28
ATOM     28  O   UNL A   1      32.749  31.681  27.591  1.00  0.00    -0.460 OA
BRANCH  28  29
ATOM     29  C   UNL A   1      33.598  32.711  27.829  1.00  0.00     0.338 C 
ATOM     30  O   UNL A   1      33.304  33.890  27.934  1.00  0.00    -0.246 OA
BRANCH  29  31
ATOM     31  C   UNL A   1      34.971  32.237  28.097  1.00  0.00     0.060 A 
ATOM     32  C   UNL A   1      35.114  30.868  28.345  1.00  0.00     0.016 A 
ATOM     33  C   UNL A   1      36.069  33.094  28.232  1.00  0.00     0.016 A 
ATOM     34  C   UNL A   1      36.326  30.360  28.804  1.00  0.00     0.010 A 
ATOM     35  C   UNL A   1      37.294  32.579  28.688  1.00  0.00     0.010 A 
ATOM     36  C   UNL A   1      37.414  31.217  29.024  1.00  0.00    -0.014 A 
BRANCH  36  37
ATOM     37  C   UNL A   1      38.595  30.673  29.746  1.00  0.00     0.031 A 
ATOM     38  C   UNL A   1      38.809  31.028  31.194  1.00  0.00     0.074 A 
ATOM     39  C   UNL A   1      39.396  29.766  29.157  1.00  0.00     0.049 A 
ATOM     40  N   UNL A   1      39.677  30.548  32.049  1.00  0.00    -0.248 NA
ATOM     41  C   UNL A   1      37.920  32.058  31.756  1.00  0.00     0.031 C 
ATOM     42  C   UNL A   1      39.283  29.315  27.773  1.00  0.00     0.029 A 
ATOM     43  N   UNL A   1      40.448  29.042  29.663  1.00  0.00    -0.354 N 
ATOM     44  C   UNL A   1      39.433  31.207  33.248  1.00  0.00     0.074 A 
ATOM     45  C   UNL A   1      38.369  32.155  32.999  1.00  0.00     0.031 C 
ATOM     46  C   UNL A   1      40.216  28.376  27.541  1.00  0.00     0.029 A 
ATOM     47  C   UNL A   1      41.002  28.171  28.757  1.00  0.00     0.049 A 
ATOM     48  H   UNL A   1      40.775  29.139  30.586  1.00  0.00     0.167 HD
ATOM     49  C   UNL A   1      40.028  31.026  34.453  1.00  0.00     0.037 A 
ATOM     50  C   UNL A   1      42.024  27.302  28.894  1.00  0.00     0.037 A 
ATOM     51  C   UNL A   1      41.087  30.084  34.707  1.00  0.00     0.049 A 
ATOM     52  C   UNL A   1      42.701  27.156  30.232  1.00  0.00     0.074 A 
ATOM     53  C   UNL A   1      41.741  29.820  35.898  1.00  0.00     0.029 A 
ATOM     54  N   UNL A   1      41.651  29.254  33.750  1.00  0.00    -0.354 N 
ATOM     55  N   UNL A   1      42.431  27.751  31.368  1.00  0.00    -0.248 NA
ATOM     56  C   UNL A   1      43.816  26.201  30.307  1.00  0.00     0.031 C 
ATOM     57  C   UNL A   1      42.735  28.867  35.652  1.00  0.00     0.029 A 
ATOM     58  C   UNL A   1      42.662  28.495  34.319  1.00  0.00     0.049 A 
ATOM     59  H   UNL A   1      41.376  29.210  32.806  1.00  0.00     0.167 HD
ATOM     60  C   UNL A   1      43.319  27.222  32.297  1.00  0.00     0.074 A 
ATOM     61  C   UNL A   1      44.125  26.247  31.595  1.00  0.00     0.031 C 
ATOM     62  C   UNL A   1      43.454  27.519  33.614  1.00  0.00     0.037 A 
BRANCH  49  63
ATOM     63  C   UNL A   1      39.554  31.882  35.592  1.00  0.00     0.064 A 
ATOM     64  C   UNL A   1      40.088  33.158  35.827  1.00  0.00     0.173 A 
ATOM     65  C   UNL A   1      38.530  31.432  36.440  1.00  0.00     0.173 A 
ATOM     66  F   UNL A   1      41.078  33.628  35.055  1.00  0.00    -0.203 F 
ATOM     67  C   UNL A   1      39.633  33.941  36.885  1.00  0.00     0.198 A 
ATOM     68  C   UNL A   1      38.057  32.230  37.478  1.00  0.00     0.198 A 
ATOM     69  F   UNL A   1      37.981  30.223  36.256  1.00  0.00    -0.203 F 
ATOM     70  F   UNL A   1      40.190  35.137  37.120  1.00  0.00    -0.200 F 
ATOM     71  C   UNL A   1      38.613  33.480  37.705  1.00  0.00     0.200 A 
ATOM     72  F   UNL A   1      37.064  31.788  38.262  1.00  0.00    -0.200 F 
ATOM     73  F   UNL A   1      38.173  34.238  38.719  1.00  0.00    -0.200 F 
ENDBRANCH  49  63
BRANCH  50  74
ATOM     74  C   UNL A   1      42.463  26.486  27.732  1.00  0.00     0.064 A 
ATOM     75  C   UNL A   1      41.896  25.231  27.468  1.00  0.00     0.173 A 
ATOM     76  C   UNL A   1      43.480  26.934  26.878  1.00  0.00     0.173 A 
ATOM     77  F   UNL A   1      40.939  24.746  28.273  1.00  0.00    -0.203 F 
ATOM     78  C   UNL A   1      42.345  24.448  26.406  1.00  0.00     0.198 A 
ATOM     79  C   UNL A   1      43.907  26.164  25.798  1.00  0.00     0.198 A 
ATOM     80  F   UNL A   1      44.057  28.127  27.088  1.00  0.00    -0.203 F 
ATOM     81  F   UNL A   1      41.820  23.231  26.207  1.00  0.00    -0.200 F 
ATOM     82  C   UNL A   1      43.345  24.917  25.569  1.00  0.00     0.200 A 
ATOM     83  F   UNL A   1      44.867  26.626  24.985  1.00  0.00    -0.200 F 
ATOM     84  F   UNL A   1      43.775  24.164  24.547  1.00  0.00    -0.200 F 
ENDBRANCH  50  74
BRANCH  62  85
ATOM     85  C   UNL A   1      44.486  26.753  34.393  1.00  0.00     0.064 A 
ATOM     86  C   UNL A   1      44.188  25.528  35.008  1.00  0.00     0.173 A 
ATOM     87  C   UNL A   1      45.797  27.241  34.505  1.00  0.00     0.173 A 
ATOM     88  F   UNL A   1      42.947  25.023  34.942  1.00  0.00    -0.203 F 
ATOM     89  C   UNL A   1      45.155  24.838  35.735  1.00  0.00     0.198 A 
ATOM     90  C   UNL A   1      46.770  26.532  35.205  1.00  0.00     0.198 A 
ATOM     91  F   UNL A   1      46.138  28.403  33.928  1.00  0.00    -0.203 F 
ATOM     92  F   UNL A   1      44.834  23.697  36.361  1.00  0.00    -0.200 F 
ATOM     93  C   UNL A   1      46.446  25.336  35.828  1.00  0.00     0.200 A 
ATOM     94  F   UNL A   1      48.020  27.010  35.281  1.00  0.00    -0.200 F 
ATOM     95  F   UNL A   1      47.376  24.670  36.526  1.00  0.00    -0.200 F 
ENDBRANCH  62  85
ENDBRANCH  36  37
ENDBRANCH  29  31
ENDBRANCH  28  29
ENDBRANCH  27  28
ENDBRANCH  26  27
ENDBRANCH   1  26
TORSDOF 16
ENDMDL
