MODEL 1
REMARK VINA RESULT:      -9.9      0.000      0.000
REMARK SMILES CO[C@@H]1C[NH2+][C@@H](O[C@@H]2C[C@@H](C(=O)OCCOCCOC(=O)c3ccc(-c4c5nc(c(-c6c(F)c(F)c(F)c(F)c6F)c6ccc([nH]6)c(-c6c(F)c(F)c(F)c(F)c6F)c6nc(c(-c7c(F)c(F)c(F)c(F)c7F)c7ccc4[nH]7)C=C6)C=C5)cc3)N(C(=O)OC(C)(C)C)C2)c2cc(Cl)ccc21
REMARK SMILES IDX 15 1 14 2 13 3 11 4 12 5 10 6 8 7 9 8 93 9 85 10 7 11 6 12
REMARK SMILES IDX 3 13 4 14 100 15 5 16 94 17 99 18 95 21 98 22 96 23 97 24
REMARK SMILES IDX 2 25 1 26 86 27 87 28 88 29 89 30 90 31 91 32 92 33 16 34
REMARK SMILES IDX 17 35 18 36 19 37 20 38 21 39 22 40 23 41 84 42 24 43 83 44
REMARK SMILES IDX 25 45 26 46 27 47 77 48 28 49 82 50 76 51 78 52 29 53 81 54
REMARK SMILES IDX 75 55 74 56 30 58 62 59 42 60 61 61 43 62 46 63 60 64 79 65
REMARK SMILES IDX 44 66 45 67 59 69 80 70 47 71 31 72 32 73 40 74 33 75 34 76
REMARK SMILES IDX 38 77 41 78 35 79 36 80 39 81 37 82 63 83 64 84 72 85 65 86
REMARK SMILES IDX 66 87 70 88 73 89 67 90 68 91 71 92 69 93 48 94 49 95 57 96
REMARK SMILES IDX 50 97 51 98 55 99 58 100 52 101 53 102 56 103 54 104
REMARK H PARENT 5 19 5 20 78 57 46 68
REMARK Flexibility Score: inf
ROOT
ATOM      1  C   UNL A   1      43.963  21.660  25.706  1.00  0.00     0.202 C 
ENDROOT
BRANCH   1   2
ATOM      2  C   UNL A   1      42.499  22.078  25.758  1.00  0.00     0.261 C 
BRANCH   2   3
ATOM      3  O   UNL A   1      41.947  22.252  27.078  1.00  0.00    -0.462 OA
BRANCH   3   4
ATOM      4  C   UNL A   1      40.828  21.584  27.507  1.00  0.00     0.329 C 
ATOM      5  O   UNL A   1      40.795  20.451  27.954  1.00  0.00    -0.250 OA
BRANCH   4   6
ATOM      6  C   UNL A   1      39.646  22.543  27.314  1.00  0.00     0.201 C 
ATOM      7  C   UNL A   1      38.020  23.315  25.709  1.00  0.00     0.147 C 
ATOM      8  C   UNL A   1      38.949  22.154  26.002  1.00  0.00     0.071 C 
ATOM      9  C   UNL A   1      38.783  24.521  26.252  1.00  0.00     0.156 C 
ATOM     10  N   UNL A   1      39.735  23.998  27.228  1.00  0.00    -0.292 N 
BRANCH   7  11
ATOM     11  O   UNL A   1      36.652  23.193  26.062  1.00  0.00    -0.320 OA
BRANCH  11  12
ATOM     12  C   UNL A   1      35.496  23.306  25.241  1.00  0.00     0.354 C 
ATOM     13  C   UNL A   1      32.657  23.724  26.036  1.00  0.00     0.203 C 
ATOM     14  C   UNL A   1      33.716  24.860  25.971  1.00  0.00     0.300 C 
ATOM     15  C   UNL A   1      33.144  22.371  25.545  1.00  0.00    -0.002 A 
ATOM     16  N   UNL A   1      34.929  24.635  25.199  1.00  0.00    -0.315 N 
ATOM     17  C   UNL A   1      34.499  22.168  25.219  1.00  0.00     0.046 A 
ATOM     18  C   UNL A   1      32.261  21.276  25.523  1.00  0.00     0.009 A 
ATOM     19  H   UNL A   1      35.637  25.284  25.544  1.00  0.00     0.349 HD
ATOM     20  H   UNL A   1      34.654  24.774  24.227  1.00  0.00     0.349 HD
ATOM     21  C   UNL A   1      34.929  20.883  24.833  1.00  0.00     0.033 A 
ATOM     22  C   UNL A   1      32.707  20.001  25.172  1.00  0.00     0.021 A 
ATOM     23  C   UNL A   1      34.040  19.811  24.823  1.00  0.00     0.041 A 
ATOM     24  Cl  UNL A   1      34.596  18.240  24.397  1.00  0.00    -0.084 Cl
BRANCH  13  25
ATOM     25  O   UNL A   1      31.453  24.100  25.359  1.00  0.00    -0.371 OA
ATOM     26  C   UNL A   1      31.709  25.075  24.350  1.00  0.00     0.196 C 
ENDBRANCH  13  25
ENDBRANCH  11  12
ENDBRANCH   7  11
BRANCH  10  27
ATOM     27  C   UNL A   1      40.254  24.902  28.128  1.00  0.00     0.411 C 
ATOM     28  O   UNL A   1      41.419  24.820  28.505  1.00  0.00    -0.224 OA
BRANCH  27  29
ATOM     29  O   UNL A   1      39.405  25.901  28.496  1.00  0.00    -0.444 OA
BRANCH  29  30
ATOM     30  C   UNL A   1      39.894  27.277  28.383  1.00  0.00     0.106 C 
ATOM     31  C   UNL A   1      40.821  27.615  29.560  1.00  0.00     0.056 C 
ATOM     32  C   UNL A   1      40.557  27.570  27.027  1.00  0.00     0.056 C 
ATOM     33  C   UNL A   1      38.667  28.193  28.475  1.00  0.00     0.056 C 
ENDBRANCH  29  30
ENDBRANCH  27  29
ENDBRANCH  10  27
ENDBRANCH   4   6
ENDBRANCH   3   4
ENDBRANCH   2   3
ENDBRANCH   1   2
BRANCH   1  34
ATOM     34  O   UNL A   1      44.457  21.460  24.380  1.00  0.00    -0.374 OA
BRANCH  34  35
ATOM     35  C   UNL A   1      44.866  22.638  23.683  1.00  0.00     0.202 C 
BRANCH  35  36
ATOM     36  C   UNL A   1      45.944  23.438  24.419  1.00  0.00     0.261 C 
BRANCH  36  37
ATOM     37  O   UNL A   1      45.464  24.765  24.689  1.00  0.00    -0.460 OA
BRANCH  37  38
ATOM     38  C   UNL A   1      46.413  25.717  24.841  1.00  0.00     0.338 C 
ATOM     39  O   UNL A   1      47.446  25.843  24.213  1.00  0.00    -0.246 OA
BRANCH  38  40
ATOM     40  C   UNL A   1      45.893  26.741  25.768  1.00  0.00     0.060 A 
ATOM     41  C   UNL A   1      44.533  27.038  25.854  1.00  0.00     0.016 A 
ATOM     42  C   UNL A   1      46.821  27.413  26.573  1.00  0.00     0.016 A 
ATOM     43  C   UNL A   1      44.096  27.999  26.772  1.00  0.00     0.010 A 
ATOM     44  C   UNL A   1      46.383  28.372  27.485  1.00  0.00     0.010 A 
ATOM     45  C   UNL A   1      45.015  28.654  27.612  1.00  0.00    -0.014 A 
BRANCH  45  46
ATOM     46  C   UNL A   1      44.556  29.496  28.745  1.00  0.00     0.031 A 
ATOM     47  C   UNL A   1      44.431  30.986  28.632  1.00  0.00     0.074 A 
ATOM     48  C   UNL A   1      44.340  28.889  29.928  1.00  0.00     0.049 A 
ATOM     49  N   UNL A   1      44.097  31.856  29.552  1.00  0.00    -0.248 NA
ATOM     50  C   UNL A   1      44.733  31.579  27.322  1.00  0.00     0.031 C 
ATOM     51  C   UNL A   1      44.476  27.451  30.167  1.00  0.00     0.029 A 
ATOM     52  N   UNL A   1      43.980  29.398  31.151  1.00  0.00    -0.354 N 
ATOM     53  C   UNL A   1      44.133  33.098  28.934  1.00  0.00     0.074 A 
ATOM     54  C   UNL A   1      44.565  32.873  27.570  1.00  0.00     0.031 C 
ATOM     55  C   UNL A   1      44.189  27.190  31.450  1.00  0.00     0.029 A 
ATOM     56  C   UNL A   1      43.882  28.443  32.133  1.00  0.00     0.049 A 
ATOM     57  H   UNL A   1      43.808  30.354  31.308  1.00  0.00     0.167 HD
ATOM     58  C   UNL A   1      43.817  34.308  29.459  1.00  0.00     0.037 A 
ATOM     59  C   UNL A   1      43.586  28.562  33.441  1.00  0.00     0.037 A 
ATOM     60  C   UNL A   1      43.402  34.522  30.825  1.00  0.00     0.049 A 
ATOM     61  C   UNL A   1      43.283  29.919  34.006  1.00  0.00     0.074 A 
ATOM     62  C   UNL A   1      43.026  35.706  31.436  1.00  0.00     0.029 A 
ATOM     63  N   UNL A   1      43.320  33.532  31.795  1.00  0.00    -0.354 N 
ATOM     64  N   UNL A   1      43.252  31.079  33.395  1.00  0.00    -0.248 NA
ATOM     65  C   UNL A   1      42.967  29.987  35.439  1.00  0.00     0.031 C 
ATOM     66  C   UNL A   1      42.766  35.443  32.785  1.00  0.00     0.029 A 
ATOM     67  C   UNL A   1      42.926  34.084  33.005  1.00  0.00     0.049 A 
ATOM     68  H   UNL A   1      43.513  32.578  31.646  1.00  0.00     0.167 HD
ATOM     69  C   UNL A   1      42.893  32.008  34.359  1.00  0.00     0.074 A 
ATOM     70  C   UNL A   1      42.702  31.277  35.595  1.00  0.00     0.031 C 
ATOM     71  C   UNL A   1      42.737  33.348  34.230  1.00  0.00     0.037 A 
BRANCH  58  72
ATOM     72  C   UNL A   1      43.890  35.508  28.559  1.00  0.00     0.064 A 
ATOM     73  C   UNL A   1      42.743  36.019  27.933  1.00  0.00     0.173 A 
ATOM     74  C   UNL A   1      45.093  36.213  28.395  1.00  0.00     0.173 A 
ATOM     75  F   UNL A   1      41.567  35.385  28.056  1.00  0.00    -0.203 F 
ATOM     76  C   UNL A   1      42.799  37.181  27.166  1.00  0.00     0.198 A 
ATOM     77  C   UNL A   1      45.141  37.389  27.649  1.00  0.00     0.198 A 
ATOM     78  F   UNL A   1      46.217  35.777  28.982  1.00  0.00    -0.203 F 
ATOM     79  F   UNL A   1      41.696  37.633  26.555  1.00  0.00    -0.200 F 
ATOM     80  C   UNL A   1      43.996  37.869  27.033  1.00  0.00     0.200 A 
ATOM     81  F   UNL A   1      46.294  38.063  27.536  1.00  0.00    -0.200 F 
ATOM     82  F   UNL A   1      44.045  38.996  26.309  1.00  0.00    -0.200 F 
ENDBRANCH  58  72
BRANCH  59  83
ATOM     83  C   UNL A   1      43.520  27.342  34.286  1.00  0.00     0.064 A 
ATOM     84  C   UNL A   1      42.294  26.710  34.529  1.00  0.00     0.173 A 
ATOM     85  C   UNL A   1      44.676  26.760  34.827  1.00  0.00     0.173 A 
ATOM     86  F   UNL A   1      41.161  27.241  34.048  1.00  0.00    -0.203 F 
ATOM     87  C   UNL A   1      42.225  25.543  35.287  1.00  0.00     0.198 A 
ATOM     88  C   UNL A   1      44.608  25.578  35.561  1.00  0.00     0.198 A 
ATOM     89  F   UNL A   1      45.874  27.324  34.616  1.00  0.00    -0.203 F 
ATOM     90  F   UNL A   1      41.036  24.974  35.529  1.00  0.00    -0.200 F 
ATOM     91  C   UNL A   1      43.383  24.973  35.794  1.00  0.00     0.200 A 
ATOM     92  F   UNL A   1      45.731  25.020  36.035  1.00  0.00    -0.200 F 
ATOM     93  F   UNL A   1      43.317  23.842  36.509  1.00  0.00    -0.200 F 
ENDBRANCH  59  83
BRANCH  71  94
ATOM     94  C   UNL A   1      42.321  34.120  35.448  1.00  0.00     0.064 A 
ATOM     95  C   UNL A   1      40.971  34.253  35.806  1.00  0.00     0.173 A 
ATOM     96  C   UNL A   1      43.286  34.676  36.302  1.00  0.00     0.173 A 
ATOM     97  F   UNL A   1      40.011  33.754  35.015  1.00  0.00    -0.203 F 
ATOM     98  C   UNL A   1      40.603  34.923  36.970  1.00  0.00     0.198 A 
ATOM     99  C   UNL A   1      42.916  35.320  37.479  1.00  0.00     0.198 A 
ATOM    100  F   UNL A   1      44.590  34.572  36.007  1.00  0.00    -0.203 F 
ATOM    101  F   UNL A   1      39.307  35.066  37.277  1.00  0.00    -0.200 F 
ATOM    102  C   UNL A   1      41.575  35.447  37.811  1.00  0.00     0.200 A 
ATOM    103  F   UNL A   1      43.857  35.812  38.297  1.00  0.00    -0.200 F 
ATOM    104  F   UNL A   1      41.220  36.074  38.940  1.00  0.00    -0.200 F 
ENDBRANCH  71  94
ENDBRANCH  45  46
ENDBRANCH  38  40
ENDBRANCH  37  38
ENDBRANCH  36  37
ENDBRANCH  35  36
ENDBRANCH  34  35
ENDBRANCH   1  34
TORSDOF 20
ENDMDL
MODEL 2
REMARK VINA RESULT:      -9.8      5.556      8.473
REMARK SMILES CO[C@@H]1C[NH2+][C@@H](O[C@@H]2C[C@@H](C(=O)OCCOCCOC(=O)c3ccc(-c4c5nc(c(-c6c(F)c(F)c(F)c(F)c6F)c6ccc([nH]6)c(-c6c(F)c(F)c(F)c(F)c6F)c6nc(c(-c7c(F)c(F)c(F)c(F)c7F)c7ccc4[nH]7)C=C6)C=C5)cc3)N(C(=O)OC(C)(C)C)C2)c2cc(Cl)ccc21
REMARK SMILES IDX 15 1 14 2 13 3 11 4 12 5 10 6 8 7 9 8 93 9 85 10 7 11 6 12
REMARK SMILES IDX 3 13 4 14 100 15 5 16 94 17 99 18 95 21 98 22 96 23 97 24
REMARK SMILES IDX 2 25 1 26 86 27 87 28 88 29 89 30 90 31 91 32 92 33 16 34
REMARK SMILES IDX 17 35 18 36 19 37 20 38 21 39 22 40 23 41 84 42 24 43 83 44
REMARK SMILES IDX 25 45 26 46 27 47 77 48 28 49 82 50 76 51 78 52 29 53 81 54
REMARK SMILES IDX 75 55 74 56 30 58 62 59 42 60 61 61 43 62 46 63 60 64 79 65
REMARK SMILES IDX 44 66 45 67 59 69 80 70 47 71 31 72 32 73 40 74 33 75 34 76
REMARK SMILES IDX 38 77 41 78 35 79 36 80 39 81 37 82 63 83 64 84 72 85 65 86
REMARK SMILES IDX 66 87 70 88 73 89 67 90 68 91 71 92 69 93 48 94 49 95 57 96
REMARK SMILES IDX 50 97 51 98 55 99 58 100 52 101 53 102 56 103 54 104
REMARK H PARENT 5 19 5 20 78 57 46 68
REMARK Flexibility Score: inf
ROOT
ATOM      1  C   UNL A   1      33.613  30.557  27.136  1.00  0.00     0.202 C 
ENDROOT
BRANCH   1   2
ATOM      2  C   UNL A   1      33.646  29.124  26.619  1.00  0.00     0.261 C 
BRANCH   2   3
ATOM      3  O   UNL A   1      32.580  28.760  25.720  1.00  0.00    -0.462 OA
BRANCH   3   4
ATOM      4  C   UNL A   1      31.894  27.577  25.825  1.00  0.00     0.329 C 
ATOM      5  O   UNL A   1      31.365  27.139  26.832  1.00  0.00    -0.250 OA
BRANCH   4   6
ATOM      6  C   UNL A   1      31.925  26.930  24.435  1.00  0.00     0.201 C 
ATOM      7  C   UNL A   1      33.289  26.629  22.468  1.00  0.00     0.147 C 
ATOM      8  C   UNL A   1      33.379  26.971  23.942  1.00  0.00     0.071 C 
ATOM      9  C   UNL A   1      31.951  27.235  22.049  1.00  0.00     0.156 C 
ATOM     10  N   UNL A   1      31.163  27.375  23.271  1.00  0.00    -0.292 N 
BRANCH   7  11
ATOM     11  O   UNL A   1      33.559  25.296  22.064  1.00  0.00    -0.320 OA
BRANCH  11  12
ATOM     12  C   UNL A   1      33.250  24.075  22.723  1.00  0.00     0.354 C 
ATOM     13  C   UNL A   1      31.530  23.608  25.109  1.00  0.00     0.203 C 
ATOM     14  C   UNL A   1      30.979  23.823  23.671  1.00  0.00     0.300 C 
ATOM     15  C   UNL A   1      33.044  23.534  25.207  1.00  0.00    -0.002 A 
ATOM     16  N   UNL A   1      31.884  23.637  22.546  1.00  0.00    -0.315 N 
ATOM     17  C   UNL A   1      33.853  23.806  24.086  1.00  0.00     0.046 A 
ATOM     18  C   UNL A   1      33.654  23.305  26.454  1.00  0.00     0.009 A 
ATOM     19  H   UNL A   1      31.497  24.147  21.753  1.00  0.00     0.349 HD
ATOM     20  H   UNL A   1      31.945  22.627  22.420  1.00  0.00     0.349 HD
ATOM     21  C   UNL A   1      35.254  23.795  24.229  1.00  0.00     0.033 A 
ATOM     22  C   UNL A   1      35.042  23.331  26.589  1.00  0.00     0.021 A 
ATOM     23  C   UNL A   1      35.838  23.571  25.474  1.00  0.00     0.041 A 
ATOM     24  Cl  UNL A   1      37.550  23.612  25.637  1.00  0.00    -0.084 Cl
BRANCH  13  25
ATOM     25  O   UNL A   1      30.930  22.464  25.726  1.00  0.00    -0.371 OA
ATOM     26  C   UNL A   1      30.080  22.845  26.806  1.00  0.00     0.196 C 
ENDBRANCH  13  25
ENDBRANCH  11  12
ENDBRANCH   7  11
BRANCH  10  27
ATOM     27  C   UNL A   1      29.803  27.524  23.113  1.00  0.00     0.411 C 
ATOM     28  O   UNL A   1      29.015  26.932  23.844  1.00  0.00    -0.224 OA
BRANCH  27  29
ATOM     29  O   UNL A   1      29.429  28.411  22.150  1.00  0.00    -0.444 OA
BRANCH  29  30
ATOM     30  C   UNL A   1      28.668  29.587  22.576  1.00  0.00     0.106 C 
ATOM     31  C   UNL A   1      27.282  29.173  23.092  1.00  0.00     0.056 C 
ATOM     32  C   UNL A   1      29.425  30.455  23.596  1.00  0.00     0.056 C 
ATOM     33  C   UNL A   1      28.464  30.458  21.330  1.00  0.00     0.056 C 
ENDBRANCH  29  30
ENDBRANCH  27  29
ENDBRANCH  10  27
ENDBRANCH   4   6
ENDBRANCH   3   4
ENDBRANCH   2   3
ENDBRANCH   1   2
BRANCH   1  34
ATOM     34  O   UNL A   1      34.884  31.038  27.576  1.00  0.00    -0.374 OA
BRANCH  34  35
ATOM     35  C   UNL A   1      35.917  30.057  27.688  1.00  0.00     0.202 C 
BRANCH  35  36
ATOM     36  C   UNL A   1      37.219  30.607  28.278  1.00  0.00     0.261 C 
BRANCH  36  37
ATOM     37  O   UNL A   1      37.702  29.717  29.297  1.00  0.00    -0.460 OA
BRANCH  37  38
ATOM     38  C   UNL A   1      37.188  29.903  30.535  1.00  0.00     0.338 C 
ATOM     39  O   UNL A   1      36.280  29.291  31.061  1.00  0.00    -0.246 OA
BRANCH  38  40
ATOM     40  C   UNL A   1      38.062  30.845  31.260  1.00  0.00     0.060 A 
ATOM     41  C   UNL A   1      39.318  30.470  31.738  1.00  0.00     0.016 A 
ATOM     42  C   UNL A   1      37.587  32.148  31.451  1.00  0.00     0.016 A 
ATOM     43  C   UNL A   1      40.114  31.416  32.393  1.00  0.00     0.010 A 
ATOM     44  C   UNL A   1      38.381  33.088  32.106  1.00  0.00     0.010 A 
ATOM     45  C   UNL A   1      39.662  32.738  32.559  1.00  0.00    -0.014 A 
BRANCH  45  46
ATOM     46  C   UNL A   1      40.575  33.808  33.035  1.00  0.00     0.031 A 
ATOM     47  C   UNL A   1      41.570  34.467  32.127  1.00  0.00     0.074 A 
ATOM     48  C   UNL A   1      40.553  34.113  34.347  1.00  0.00     0.049 A 
ATOM     49  N   UNL A   1      42.468  35.376  32.413  1.00  0.00    -0.248 NA
ATOM     50  C   UNL A   1      41.567  34.044  30.719  1.00  0.00     0.031 C 
ATOM     51  C   UNL A   1      39.659  33.502  35.331  1.00  0.00     0.029 A 
ATOM     52  N   UNL A   1      41.307  34.994  35.081  1.00  0.00    -0.354 N 
ATOM     53  C   UNL A   1      43.130  35.647  31.223  1.00  0.00     0.074 A 
ATOM     54  C   UNL A   1      42.559  34.772  30.219  1.00  0.00     0.031 C 
ATOM     55  C   UNL A   1      39.904  34.035  36.537  1.00  0.00     0.029 A 
ATOM     56  C   UNL A   1      40.994  34.999  36.418  1.00  0.00     0.049 A 
ATOM     57  H   UNL A   1      42.004  35.566  34.687  1.00  0.00     0.167 HD
ATOM     58  C   UNL A   1      44.112  36.554  30.995  1.00  0.00     0.037 A 
ATOM     59  C   UNL A   1      41.528  35.696  37.438  1.00  0.00     0.037 A 
ATOM     60  C   UNL A   1      44.685  37.409  32.006  1.00  0.00     0.049 A 
ATOM     61  C   UNL A   1      42.643  36.663  37.163  1.00  0.00     0.074 A 
ATOM     62  C   UNL A   1      45.657  38.385  31.861  1.00  0.00     0.029 A 
ATOM     63  N   UNL A   1      44.347  37.384  33.353  1.00  0.00    -0.354 N 
ATOM     64  N   UNL A   1      43.214  36.961  36.021  1.00  0.00    -0.248 NA
ATOM     65  C   UNL A   1      43.188  37.395  38.315  1.00  0.00     0.031 C 
ATOM     66  C   UNL A   1      45.943  38.913  33.124  1.00  0.00     0.029 A 
ATOM     67  C   UNL A   1      45.112  38.307  34.051  1.00  0.00     0.049 A 
ATOM     68  H   UNL A   1      43.666  36.797  33.753  1.00  0.00     0.167 HD
ATOM     69  C   UNL A   1      44.165  37.928  36.311  1.00  0.00     0.074 A 
ATOM     70  C   UNL A   1      44.086  38.178  37.735  1.00  0.00     0.031 C 
ATOM     71  C   UNL A   1      45.025  38.550  35.470  1.00  0.00     0.037 A 
BRANCH  58  72
ATOM     72  C   UNL A   1      44.633  36.691  29.592  1.00  0.00     0.064 A 
ATOM     73  C   UNL A   1      44.046  37.583  28.682  1.00  0.00     0.173 A 
ATOM     74  C   UNL A   1      45.784  36.001  29.181  1.00  0.00     0.173 A 
ATOM     75  F   UNL A   1      42.944  38.268  29.023  1.00  0.00    -0.203 F 
ATOM     76  C   UNL A   1      44.583  37.769  27.410  1.00  0.00     0.198 A 
ATOM     77  C   UNL A   1      46.334  36.208  27.918  1.00  0.00     0.198 A 
ATOM     78  F   UNL A   1      46.393  35.145  30.016  1.00  0.00    -0.203 F 
ATOM     79  F   UNL A   1      43.988  38.605  26.548  1.00  0.00    -0.200 F 
ATOM     80  C   UNL A   1      45.731  37.089  27.033  1.00  0.00     0.200 A 
ATOM     81  F   UNL A   1      47.453  35.564  27.561  1.00  0.00    -0.200 F 
ATOM     82  F   UNL A   1      46.256  37.281  25.815  1.00  0.00    -0.200 F 
ENDBRANCH  58  72
BRANCH  59  83
ATOM     83  C   UNL A   1      40.971  35.529  38.805  1.00  0.00     0.064 A 
ATOM     84  C   UNL A   1      41.549  34.621  39.702  1.00  0.00     0.173 A 
ATOM     85  C   UNL A   1      39.890  36.299  39.257  1.00  0.00     0.173 A 
ATOM     86  F   UNL A   1      42.573  33.851  39.308  1.00  0.00    -0.203 F 
ATOM     87  C   UNL A   1      41.061  34.485  41.000  1.00  0.00     0.198 A 
ATOM     88  C   UNL A   1      39.421  36.181  40.563  1.00  0.00     0.198 A 
ATOM     89  F   UNL A   1      39.308  37.187  38.437  1.00  0.00    -0.203 F 
ATOM     90  F   UNL A   1      41.612  33.588  41.829  1.00  0.00    -0.200 F 
ATOM     91  C   UNL A   1      40.004  35.271  41.432  1.00  0.00     0.200 A 
ATOM     92  F   UNL A   1      38.411  36.956  40.983  1.00  0.00    -0.200 F 
ATOM     93  F   UNL A   1      39.546  35.151  42.686  1.00  0.00    -0.200 F 
ENDBRANCH  59  83
BRANCH  71  94
ATOM     94  C   UNL A   1      45.946  39.581  36.055  1.00  0.00     0.064 A 
ATOM     95  C   UNL A   1      47.234  39.246  36.499  1.00  0.00     0.173 A 
ATOM     96  C   UNL A   1      45.562  40.930  36.110  1.00  0.00     0.173 A 
ATOM     97  F   UNL A   1      47.642  37.969  36.482  1.00  0.00    -0.203 F 
ATOM     98  C   UNL A   1      48.099  40.223  36.986  1.00  0.00     0.198 A 
ATOM     99  C   UNL A   1      46.440  41.908  36.571  1.00  0.00     0.198 A 
ATOM    100  F   UNL A   1      44.343  41.303  35.693  1.00  0.00    -0.203 F 
ATOM    101  F   UNL A   1      49.313  39.876  37.435  1.00  0.00    -0.200 F 
ATOM    102  C   UNL A   1      47.705  41.553  37.012  1.00  0.00     0.200 A 
ATOM    103  F   UNL A   1      46.063  43.194  36.581  1.00  0.00    -0.200 F 
ATOM    104  F   UNL A   1      48.546  42.494  37.463  1.00  0.00    -0.200 F 
ENDBRANCH  71  94
ENDBRANCH  45  46
ENDBRANCH  38  40
ENDBRANCH  37  38
ENDBRANCH  36  37
ENDBRANCH  35  36
ENDBRANCH  34  35
ENDBRANCH   1  34
TORSDOF 20
ENDMDL
MODEL 3
REMARK VINA RESULT:      -9.6      5.982     10.506
REMARK SMILES CO[C@@H]1C[NH2+][C@@H](O[C@@H]2C[C@@H](C(=O)OCCOCCOC(=O)c3ccc(-c4c5nc(c(-c6c(F)c(F)c(F)c(F)c6F)c6ccc([nH]6)c(-c6c(F)c(F)c(F)c(F)c6F)c6nc(c(-c7c(F)c(F)c(F)c(F)c7F)c7ccc4[nH]7)C=C6)C=C5)cc3)N(C(=O)OC(C)(C)C)C2)c2cc(Cl)ccc21
REMARK SMILES IDX 15 1 14 2 13 3 11 4 12 5 10 6 8 7 9 8 93 9 85 10 7 11 6 12
REMARK SMILES IDX 3 13 4 14 100 15 5 16 94 17 99 18 95 21 98 22 96 23 97 24
REMARK SMILES IDX 2 25 1 26 86 27 87 28 88 29 89 30 90 31 91 32 92 33 16 34
REMARK SMILES IDX 17 35 18 36 19 37 20 38 21 39 22 40 23 41 84 42 24 43 83 44
REMARK SMILES IDX 25 45 26 46 27 47 77 48 28 49 82 50 76 51 78 52 29 53 81 54
REMARK SMILES IDX 75 55 74 56 30 58 62 59 42 60 61 61 43 62 46 63 60 64 79 65
REMARK SMILES IDX 44 66 45 67 59 69 80 70 47 71 31 72 32 73 40 74 33 75 34 76
REMARK SMILES IDX 38 77 41 78 35 79 36 80 39 81 37 82 63 83 64 84 72 85 65 86
REMARK SMILES IDX 66 87 70 88 73 89 67 90 68 91 71 92 69 93 48 94 49 95 57 96
REMARK SMILES IDX 50 97 51 98 55 99 58 100 52 101 53 102 56 103 54 104
REMARK H PARENT 5 19 5 20 78 57 46 68
REMARK Flexibility Score: inf
ROOT
ATOM      1  C   UNL A   1      33.480  30.617  26.957  1.00  0.00     0.202 C 
ENDROOT
BRANCH   1   2
ATOM      2  C   UNL A   1      33.490  29.289  26.210  1.00  0.00     0.261 C 
BRANCH   2   3
ATOM      3  O   UNL A   1      32.206  28.821  25.753  1.00  0.00    -0.462 OA
BRANCH   3   4
ATOM      4  C   UNL A   1      31.808  27.514  25.874  1.00  0.00     0.329 C 
ATOM      5  O   UNL A   1      31.470  26.958  26.905  1.00  0.00    -0.250 OA
BRANCH   4   6
ATOM      6  C   UNL A   1      31.872  26.905  24.468  1.00  0.00     0.201 C 
ATOM      7  C   UNL A   1      33.318  26.567  22.567  1.00  0.00     0.147 C 
ATOM      8  C   UNL A   1      33.350  26.861  24.053  1.00  0.00     0.071 C 
ATOM      9  C   UNL A   1      32.047  27.274  22.098  1.00  0.00     0.156 C 
ATOM     10  N   UNL A   1      31.206  27.433  23.280  1.00  0.00    -0.292 N 
BRANCH   7  11
ATOM     11  O   UNL A   1      33.521  25.232  22.136  1.00  0.00    -0.320 OA
BRANCH  11  12
ATOM     12  C   UNL A   1      33.219  24.014  22.805  1.00  0.00     0.354 C 
ATOM     13  C   UNL A   1      31.505  23.556  25.196  1.00  0.00     0.203 C 
ATOM     14  C   UNL A   1      30.951  23.758  23.758  1.00  0.00     0.300 C 
ATOM     15  C   UNL A   1      33.019  23.489  25.292  1.00  0.00    -0.002 A 
ATOM     16  N   UNL A   1      31.854  23.568  22.633  1.00  0.00    -0.315 N 
ATOM     17  C   UNL A   1      33.825  23.757  24.167  1.00  0.00     0.046 A 
ATOM     18  C   UNL A   1      33.632  23.271  26.539  1.00  0.00     0.009 A 
ATOM     19  H   UNL A   1      31.463  24.071  21.837  1.00  0.00     0.349 HD
ATOM     20  H   UNL A   1      31.919  22.557  22.514  1.00  0.00     0.349 HD
ATOM     21  C   UNL A   1      35.227  23.753  24.308  1.00  0.00     0.033 A 
ATOM     22  C   UNL A   1      35.021  23.305  26.672  1.00  0.00     0.021 A 
ATOM     23  C   UNL A   1      35.814  23.540  25.554  1.00  0.00     0.041 A 
ATOM     24  Cl  UNL A   1      37.526  23.590  25.713  1.00  0.00    -0.084 Cl
BRANCH  13  25
ATOM     25  O   UNL A   1      30.911  22.414  25.822  1.00  0.00    -0.371 OA
ATOM     26  C   UNL A   1      29.971  22.801  26.823  1.00  0.00     0.196 C 
ENDBRANCH  13  25
ENDBRANCH  11  12
ENDBRANCH   7  11
BRANCH  10  27
ATOM     27  C   UNL A   1      29.869  27.678  23.057  1.00  0.00     0.411 C 
ATOM     28  O   UNL A   1      29.005  27.113  23.720  1.00  0.00    -0.224 OA
BRANCH  27  29
ATOM     29  O   UNL A   1      29.607  28.623  22.112  1.00  0.00    -0.444 OA
BRANCH  29  30
ATOM     30  C   UNL A   1      28.689  29.704  22.476  1.00  0.00     0.106 C 
ATOM     31  C   UNL A   1      29.315  30.598  23.557  1.00  0.00     0.056 C 
ATOM     32  C   UNL A   1      28.210  30.521  21.264  1.00  0.00     0.056 C 
ATOM     33  C   UNL A   1      27.442  29.044  23.077  1.00  0.00     0.056 C 
ENDBRANCH  29  30
ENDBRANCH  27  29
ENDBRANCH  10  27
ENDBRANCH   4   6
ENDBRANCH   3   4
ENDBRANCH   2   3
ENDBRANCH   1   2
BRANCH   1  34
ATOM     34  O   UNL A   1      34.655  30.846  27.737  1.00  0.00    -0.374 OA
BRANCH  34  35
ATOM     35  C   UNL A   1      34.709  32.094  28.430  1.00  0.00     0.202 C 
BRANCH  35  36
ATOM     36  C   UNL A   1      35.136  31.960  29.895  1.00  0.00     0.261 C 
BRANCH  36  37
ATOM     37  O   UNL A   1      36.042  33.022  30.234  1.00  0.00    -0.460 OA
BRANCH  37  38
ATOM     38  C   UNL A   1      35.660  33.818  31.260  1.00  0.00     0.338 C 
ATOM     39  O   UNL A   1      34.592  34.378  31.408  1.00  0.00    -0.246 OA
BRANCH  38  40
ATOM     40  C   UNL A   1      36.688  33.731  32.316  1.00  0.00     0.060 A 
ATOM     41  C   UNL A   1      36.412  33.193  33.573  1.00  0.00     0.016 A 
ATOM     42  C   UNL A   1      37.967  34.210  32.011  1.00  0.00     0.016 A 
ATOM     43  C   UNL A   1      37.435  33.111  34.525  1.00  0.00     0.010 A 
ATOM     44  C   UNL A   1      38.984  34.129  32.961  1.00  0.00     0.010 A 
ATOM     45  C   UNL A   1      38.734  33.555  34.217  1.00  0.00    -0.014 A 
BRANCH  45  46
ATOM     46  C   UNL A   1      39.879  33.264  35.116  1.00  0.00     0.031 A 
ATOM     47  C   UNL A   1      40.580  31.939  35.109  1.00  0.00     0.074 A 
ATOM     48  C   UNL A   1      40.218  34.203  36.021  1.00  0.00     0.049 A 
ATOM     49  N   UNL A   1      41.557  31.521  35.874  1.00  0.00    -0.248 NA
ATOM     50  C   UNL A   1      40.118  30.948  34.127  1.00  0.00     0.031 C 
ATOM     51  C   UNL A   1      39.575  35.511  36.150  1.00  0.00     0.029 A 
ATOM     52  N   UNL A   1      41.171  34.200  37.009  1.00  0.00    -0.354 N 
ATOM     53  C   UNL A   1      41.840  30.227  35.461  1.00  0.00     0.074 A 
ATOM     54  C   UNL A   1      40.899  29.911  34.405  1.00  0.00     0.031 C 
ATOM     55  C   UNL A   1      40.157  36.190  37.148  1.00  0.00     0.029 A 
ATOM     56  C   UNL A   1      41.192  35.355  37.751  1.00  0.00     0.049 A 
ATOM     57  H   UNL A   1      41.779  33.443  37.171  1.00  0.00     0.167 HD
ATOM     58  C   UNL A   1      42.807  29.391  35.914  1.00  0.00     0.037 A 
ATOM     59  C   UNL A   1      41.954  35.703  38.805  1.00  0.00     0.037 A 
ATOM     60  C   UNL A   1      43.729  29.711  36.978  1.00  0.00     0.049 A 
ATOM     61  C   UNL A   1      42.988  34.742  39.314  1.00  0.00     0.074 A 
ATOM     62  C   UNL A   1      44.766  28.943  37.480  1.00  0.00     0.029 A 
ATOM     63  N   UNL A   1      43.719  30.890  37.711  1.00  0.00    -0.354 N 
ATOM     64  N   UNL A   1      43.293  33.547  38.870  1.00  0.00    -0.248 NA
ATOM     65  C   UNL A   1      43.789  35.176  40.467  1.00  0.00     0.031 C 
ATOM     66  C   UNL A   1      45.349  29.633  38.547  1.00  0.00     0.029 A 
ATOM     67  C   UNL A   1      44.712  30.856  38.678  1.00  0.00     0.049 A 
ATOM     68  H   UNL A   1      43.097  31.639  37.567  1.00  0.00     0.167 HD
ATOM     69  C   UNL A   1      44.333  33.096  39.669  1.00  0.00     0.074 A 
ATOM     70  C   UNL A   1      44.617  34.152  40.619  1.00  0.00     0.031 C 
ATOM     71  C   UNL A   1      44.990  31.913  39.619  1.00  0.00     0.037 A 
BRANCH  58  72
ATOM     72  C   UNL A   1      42.941  28.046  35.260  1.00  0.00     0.064 A 
ATOM     73  C   UNL A   1      43.835  27.838  34.199  1.00  0.00     0.173 A 
ATOM     74  C   UNL A   1      42.245  26.932  35.756  1.00  0.00     0.173 A 
ATOM     75  F   UNL A   1      44.525  28.868  33.686  1.00  0.00    -0.203 F 
ATOM     76  C   UNL A   1      44.017  26.571  33.649  1.00  0.00     0.198 A 
ATOM     77  C   UNL A   1      42.449  25.661  35.222  1.00  0.00     0.198 A 
ATOM     78  F   UNL A   1      41.388  27.071  36.778  1.00  0.00    -0.203 F 
ATOM     79  F   UNL A   1      44.855  26.403  32.617  1.00  0.00    -0.200 F 
ATOM     80  C   UNL A   1      43.332  25.483  34.168  1.00  0.00     0.200 A 
ATOM     81  F   UNL A   1      41.799  24.608  35.735  1.00  0.00    -0.200 F 
ATOM     82  F   UNL A   1      43.520  24.261  33.650  1.00  0.00    -0.200 F 
ENDBRANCH  58  72
BRANCH  59  83
ATOM     83  C   UNL A   1      41.787  37.049  39.411  1.00  0.00     0.064 A 
ATOM     84  C   UNL A   1      42.662  38.092  39.081  1.00  0.00     0.173 A 
ATOM     85  C   UNL A   1      40.731  37.333  40.290  1.00  0.00     0.173 A 
ATOM     86  F   UNL A   1      43.696  37.863  38.260  1.00  0.00    -0.203 F 
ATOM     87  C   UNL A   1      42.491  39.368  39.613  1.00  0.00     0.198 A 
ATOM     88  C   UNL A   1      40.545  38.617  40.798  1.00  0.00     0.198 A 
ATOM     89  F   UNL A   1      39.862  36.369  40.630  1.00  0.00    -0.203 F 
ATOM     90  F   UNL A   1      43.360  40.341  39.304  1.00  0.00    -0.200 F 
ATOM     91  C   UNL A   1      41.428  39.632  40.463  1.00  0.00     0.200 A 
ATOM     92  F   UNL A   1      39.506  38.872  41.606  1.00  0.00    -0.200 F 
ATOM     93  F   UNL A   1      41.254  40.864  40.960  1.00  0.00    -0.200 F 
ENDBRANCH  59  83
BRANCH  71  94
ATOM     94  C   UNL A   1      46.099  31.691  40.606  1.00  0.00     0.064 A 
ATOM     95  C   UNL A   1      45.871  31.055  41.834  1.00  0.00     0.173 A 
ATOM     96  C   UNL A   1      47.417  32.058  40.290  1.00  0.00     0.173 A 
ATOM     97  F   UNL A   1      44.627  30.699  42.189  1.00  0.00    -0.203 F 
ATOM     98  C   UNL A   1      46.920  30.804  42.715  1.00  0.00     0.198 A 
ATOM     99  C   UNL A   1      48.467  31.781  41.161  1.00  0.00     0.198 A 
ATOM    100  F   UNL A   1      47.688  32.666  39.126  1.00  0.00    -0.203 F 
ATOM    101  F   UNL A   1      46.674  30.224  43.898  1.00  0.00    -0.200 F 
ATOM    102  C   UNL A   1      48.217  31.157  42.374  1.00  0.00     0.200 A 
ATOM    103  F   UNL A   1      49.721  32.109  40.822  1.00  0.00    -0.200 F 
ATOM    104  F   UNL A   1      49.227  30.898  43.215  1.00  0.00    -0.200 F 
ENDBRANCH  71  94
ENDBRANCH  45  46
ENDBRANCH  38  40
ENDBRANCH  37  38
ENDBRANCH  36  37
ENDBRANCH  35  36
ENDBRANCH  34  35
ENDBRANCH   1  34
TORSDOF 20
ENDMDL
