MODEL 1
REMARK VINA RESULT:     -11.7      0.000      0.000
REMARK SMILES C/C(=C\C(=O)c1c(O)n(C)c2ccccc2c1=O)Nc1ccc(C(=O)OCCOCCOC(=O)c2ccc(-c3c4nc(c(-c5c(F)c(F)c(F)c(F)c5F)c5ccc([nH]5)c(-c5c(F)c(F)c(F)c(F)c5F)c5nc(c(-c6c(F)c(F)c(F)c(F)c6F)c6ccc3[nH]6)C=C5)C=C4)cc2)cc1
REMARK SMILES IDX 27 1 26 2 24 3 25 4 23 5 20 6 21 7 99 8 22 9 98 10 19 11
REMARK SMILES IDX 2 13 1 14 3 15 4 16 5 17 6 18 7 19 17 20 9 21 16 22 18 23
REMARK SMILES IDX 10 24 11 25 15 26 12 27 14 28 13 29 8 30 28 32 29 33 30 34
REMARK SMILES IDX 31 35 32 36 33 37 34 38 35 39 36 40 97 41 37 42 96 43 38 44
REMARK SMILES IDX 39 45 40 46 90 47 41 48 95 49 89 50 91 51 42 52 94 53 88 54
REMARK SMILES IDX 87 55 43 57 75 58 55 59 74 60 56 61 59 62 73 63 92 64 57 65
REMARK SMILES IDX 58 66 72 68 93 69 60 70 44 71 45 72 53 73 46 74 47 75 51 76
REMARK SMILES IDX 54 77 48 78 49 79 52 80 50 81 76 82 77 83 85 84 78 85 79 86
REMARK SMILES IDX 83 87 86 88 80 89 81 90 84 91 82 92 61 93 62 94 70 95 63 96
REMARK SMILES IDX 64 97 68 98 71 99 65 100 66 101 69 102 67 103
REMARK H PARENT 19 12 8 31 91 56 59 67
REMARK Flexibility Score: inf
ROOT
ATOM      1  C   UNL A   1      35.867  32.475  28.435  1.00  0.00     0.261 C 
ENDROOT
BRANCH   1   2
ATOM      2  O   UNL A   1      35.031  31.350  28.747  1.00  0.00    -0.460 OA
BRANCH   2   3
ATOM      3  C   UNL A   1      35.360  30.212  28.086  1.00  0.00     0.338 C 
ATOM      4  O   UNL A   1      36.365  29.540  28.258  1.00  0.00    -0.246 OA
BRANCH   3   5
ATOM      5  C   UNL A   1      34.251  29.764  27.207  1.00  0.00     0.060 A 
ATOM      6  C   UNL A   1      32.208  28.675  25.583  1.00  0.00     0.038 A 
ATOM      7  C   UNL A   1      33.466  28.076  25.661  1.00  0.00     0.027 A 
ATOM      8  C   UNL A   1      32.009  29.873  26.291  1.00  0.00     0.027 A 
ATOM      9  C   UNL A   1      34.469  28.594  26.479  1.00  0.00     0.018 A 
ATOM     10  C   UNL A   1      33.020  30.420  27.099  1.00  0.00     0.018 A 
BRANCH   6  11
ATOM     11  N   UNL A   1      31.128  28.074  24.905  1.00  0.00    -0.359 N 
ATOM     12  H   UNL A   1      30.241  28.455  25.096  1.00  0.00     0.166 HD
BRANCH  11  13
ATOM     13  C   UNL A   1      31.147  27.005  23.996  1.00  0.00     0.016 C 
ATOM     14  C   UNL A   1      31.480  27.318  22.551  1.00  0.00     0.064 C 
ATOM     15  C   UNL A   1      30.943  25.744  24.449  1.00  0.00     0.074 C 
BRANCH  15  16
ATOM     16  C   UNL A   1      31.108  24.388  23.809  1.00  0.00     0.196 C 
ATOM     17  O   UNL A   1      30.210  23.953  23.092  1.00  0.00    -0.289 OA
BRANCH  16  18
ATOM     18  C   UNL A   1      32.249  23.536  24.204  1.00  0.00     0.130 A 
ATOM     19  C   UNL A   1      32.209  22.853  25.366  1.00  0.00     0.206 A 
ATOM     20  C   UNL A   1      33.521  23.598  23.449  1.00  0.00     0.204 A 
ATOM     21  N   UNL A   1      33.345  22.348  25.993  1.00  0.00    -0.315 N 
ATOM     22  C   UNL A   1      34.709  22.955  24.056  1.00  0.00     0.047 A 
ATOM     23  O   UNL A   1      33.614  24.208  22.389  1.00  0.00    -0.288 OA
ATOM     24  C   UNL A   1      33.351  22.025  27.425  1.00  0.00     0.153 C 
ATOM     25  C   UNL A   1      34.603  22.382  25.338  1.00  0.00     0.055 A 
ATOM     26  C   UNL A   1      35.933  23.005  23.369  1.00  0.00     0.014 A 
ATOM     27  C   UNL A   1      35.783  21.873  25.908  1.00  0.00     0.027 A 
ATOM     28  C   UNL A   1      37.082  22.490  23.960  1.00  0.00     0.001 A 
ATOM     29  C   UNL A   1      37.008  21.931  25.231  1.00  0.00     0.002 A 
BRANCH  19  30
ATOM     30  O   UNL A   1      31.029  22.698  26.074  1.00  0.00    -0.494 OA
ATOM     31  H   UNL A   1      30.558  23.451  26.371  1.00  0.00     0.295 HD
ENDBRANCH  19  30
ENDBRANCH  16  18
ENDBRANCH  15  16
ENDBRANCH  11  13
ENDBRANCH   6  11
ENDBRANCH   3   5
ENDBRANCH   2   3
ENDBRANCH   1   2
BRANCH   1  32
ATOM     32  C   UNL A   1      35.053  33.693  27.989  1.00  0.00     0.202 C 
BRANCH  32  33
ATOM     33  O   UNL A   1      34.195  34.298  28.953  1.00  0.00    -0.374 OA
BRANCH  33  34
ATOM     34  C   UNL A   1      33.774  35.643  28.721  1.00  0.00     0.202 C 
BRANCH  34  35
ATOM     35  C   UNL A   1      32.941  36.321  29.818  1.00  0.00     0.261 C 
BRANCH  35  36
ATOM     36  O   UNL A   1      32.482  35.397  30.820  1.00  0.00    -0.460 OA
BRANCH  36  37
ATOM     37  C   UNL A   1      32.731  35.758  32.105  1.00  0.00     0.338 C 
ATOM     38  O   UNL A   1      32.030  36.442  32.833  1.00  0.00    -0.246 OA
BRANCH  37  39
ATOM     39  C   UNL A   1      33.914  35.018  32.585  1.00  0.00     0.060 A 
ATOM     40  C   UNL A   1      33.787  33.761  33.178  1.00  0.00     0.016 A 
ATOM     41  C   UNL A   1      35.177  35.605  32.431  1.00  0.00     0.016 A 
ATOM     42  C   UNL A   1      34.932  33.092  33.615  1.00  0.00     0.010 A 
ATOM     43  C   UNL A   1      36.321  34.933  32.866  1.00  0.00     0.010 A 
ATOM     44  C   UNL A   1      36.207  33.668  33.457  1.00  0.00    -0.014 A 
BRANCH  44  45
ATOM     45  C   UNL A   1      37.416  32.897  33.849  1.00  0.00     0.031 A 
ATOM     46  C   UNL A   1      38.008  31.861  32.941  1.00  0.00     0.074 A 
ATOM     47  C   UNL A   1      37.993  33.161  35.036  1.00  0.00     0.049 A 
ATOM     48  N   UNL A   1      39.125  31.190  33.077  1.00  0.00    -0.248 NA
ATOM     49  C   UNL A   1      37.251  31.527  31.726  1.00  0.00     0.031 C 
ATOM     50  C   UNL A   1      37.483  34.116  36.020  1.00  0.00     0.029 A 
ATOM     51  N   UNL A   1      39.139  32.669  35.609  1.00  0.00    -0.354 N 
ATOM     52  C   UNL A   1      39.219  30.377  31.957  1.00  0.00     0.074 A 
ATOM     53  C   UNL A   1      38.016  30.589  31.181  1.00  0.00     0.031 C 
ATOM     54  C   UNL A   1      38.335  34.174  37.056  1.00  0.00     0.029 A 
ATOM     55  C   UNL A   1      39.436  33.242  36.822  1.00  0.00     0.049 A 
ATOM     56  H   UNL A   1      39.695  31.972  35.191  1.00  0.00     0.167 HD
ATOM     57  C   UNL A   1      40.232  29.551  31.600  1.00  0.00     0.037 A 
ATOM     58  C   UNL A   1      40.481  33.046  37.649  1.00  0.00     0.037 A 
ATOM     59  C   UNL A   1      41.424  29.338  32.381  1.00  0.00     0.049 A 
ATOM     60  C   UNL A   1      41.563  32.079  37.253  1.00  0.00     0.074 A 
ATOM     61  C   UNL A   1      42.526  28.561  32.075  1.00  0.00     0.029 A 
ATOM     62  N   UNL A   1      41.661  29.892  33.631  1.00  0.00    -0.354 N 
ATOM     63  N   UNL A   1      41.694  31.395  36.143  1.00  0.00    -0.248 NA
ATOM     64  C   UNL A   1      42.645  31.856  38.223  1.00  0.00     0.031 C 
ATOM     65  C   UNL A   1      43.403  28.595  33.161  1.00  0.00     0.029 A 
ATOM     66  C   UNL A   1      42.874  29.437  34.126  1.00  0.00     0.049 A 
ATOM     67  H   UNL A   1      41.059  30.516  34.097  1.00  0.00     0.167 HD
ATOM     68  C   UNL A   1      42.870  30.670  36.276  1.00  0.00     0.074 A 
ATOM     69  C   UNL A   1      43.434  31.020  37.563  1.00  0.00     0.031 C 
ATOM     70  C   UNL A   1      43.426  29.786  35.411  1.00  0.00     0.037 A 
BRANCH  57  71
ATOM     71  C   UNL A   1      40.118  28.824  30.291  1.00  0.00     0.064 A 
ATOM     72  C   UNL A   1      40.710  29.332  29.124  1.00  0.00     0.173 A 
ATOM     73  C   UNL A   1      39.496  27.568  30.218  1.00  0.00     0.173 A 
ATOM     74  F   UNL A   1      41.314  30.529  29.139  1.00  0.00    -0.203 F 
ATOM     75  C   UNL A   1      40.668  28.617  27.929  1.00  0.00     0.198 A 
ATOM     76  C   UNL A   1      39.481  26.844  29.029  1.00  0.00     0.198 A 
ATOM     77  F   UNL A   1      38.925  27.032  31.307  1.00  0.00    -0.203 F 
ATOM     78  F   UNL A   1      41.213  29.136  26.821  1.00  0.00    -0.200 F 
ATOM     79  C   UNL A   1      40.063  27.370  27.885  1.00  0.00     0.200 A 
ATOM     80  F   UNL A   1      38.912  25.631  28.992  1.00  0.00    -0.200 F 
ATOM     81  F   UNL A   1      40.041  26.674  26.739  1.00  0.00    -0.200 F 
ENDBRANCH  57  71
BRANCH  58  82
ATOM     82  C   UNL A   1      40.567  33.812  38.920  1.00  0.00     0.064 A 
ATOM     83  C   UNL A   1      39.917  33.362  40.077  1.00  0.00     0.173 A 
ATOM     84  C   UNL A   1      41.314  34.997  39.010  1.00  0.00     0.173 A 
ATOM     85  F   UNL A   1      39.174  32.246  40.036  1.00  0.00    -0.203 F 
ATOM     86  C   UNL A   1      40.002  34.073  41.272  1.00  0.00     0.198 A 
ATOM     87  C   UNL A   1      41.423  35.690  40.214  1.00  0.00     0.198 A 
ATOM     88  F   UNL A   1      41.957  35.468  37.932  1.00  0.00    -0.203 F 
ATOM     89  F   UNL A   1      39.341  33.641  42.354  1.00  0.00    -0.200 F 
ATOM     90  C   UNL A   1      40.762  35.230  41.342  1.00  0.00     0.200 A 
ATOM     91  F   UNL A   1      42.172  36.798  40.279  1.00  0.00    -0.200 F 
ATOM     92  F   UNL A   1      40.855  35.906  42.495  1.00  0.00    -0.200 F 
ENDBRANCH  58  82
BRANCH  70  93
ATOM     93  C   UNL A   1      44.702  29.111  35.821  1.00  0.00     0.064 A 
ATOM     94  C   UNL A   1      44.687  27.878  36.491  1.00  0.00     0.173 A 
ATOM     95  C   UNL A   1      45.947  29.642  35.451  1.00  0.00     0.173 A 
ATOM     96  F   UNL A   1      43.523  27.335  36.880  1.00  0.00    -0.203 F 
ATOM     97  C   UNL A   1      45.871  27.203  36.776  1.00  0.00     0.198 A 
ATOM     98  C   UNL A   1      47.127  28.949  35.711  1.00  0.00     0.198 A 
ATOM     99  F   UNL A   1      46.017  30.814  34.803  1.00  0.00    -0.203 F 
ATOM    100  F   UNL A   1      45.833  26.037  37.436  1.00  0.00    -0.200 F 
ATOM    101  C   UNL A   1      47.088  27.731  36.372  1.00  0.00     0.200 A 
ATOM    102  F   UNL A   1      48.301  29.452  35.304  1.00  0.00    -0.200 F 
ATOM    103  F   UNL A   1      48.224  27.066  36.621  1.00  0.00    -0.200 F 
ENDBRANCH  70  93
ENDBRANCH  44  45
ENDBRANCH  37  39
ENDBRANCH  36  37
ENDBRANCH  35  36
ENDBRANCH  34  35
ENDBRANCH  33  34
ENDBRANCH  32  33
ENDBRANCH   1  32
TORSDOF 19
ENDMDL
MODEL 2
REMARK VINA RESULT:     -11.5      3.399      9.984
REMARK SMILES C/C(=C\C(=O)c1c(O)n(C)c2ccccc2c1=O)Nc1ccc(C(=O)OCCOCCOC(=O)c2ccc(-c3c4nc(c(-c5c(F)c(F)c(F)c(F)c5F)c5ccc([nH]5)c(-c5c(F)c(F)c(F)c(F)c5F)c5nc(c(-c6c(F)c(F)c(F)c(F)c6F)c6ccc3[nH]6)C=C5)C=C4)cc2)cc1
REMARK SMILES IDX 27 1 26 2 24 3 25 4 23 5 20 6 21 7 99 8 22 9 98 10 19 11
REMARK SMILES IDX 2 13 1 14 3 15 4 16 5 17 6 18 7 19 17 20 9 21 16 22 18 23
REMARK SMILES IDX 10 24 11 25 15 26 12 27 14 28 13 29 8 30 28 32 29 33 30 34
REMARK SMILES IDX 31 35 32 36 33 37 34 38 35 39 36 40 97 41 37 42 96 43 38 44
REMARK SMILES IDX 39 45 40 46 90 47 41 48 95 49 89 50 91 51 42 52 94 53 88 54
REMARK SMILES IDX 87 55 43 57 75 58 55 59 74 60 56 61 59 62 73 63 92 64 57 65
REMARK SMILES IDX 58 66 72 68 93 69 60 70 44 71 45 72 53 73 46 74 47 75 51 76
REMARK SMILES IDX 54 77 48 78 49 79 52 80 50 81 76 82 77 83 85 84 78 85 79 86
REMARK SMILES IDX 83 87 86 88 80 89 81 90 84 91 82 92 61 93 62 94 70 95 63 96
REMARK SMILES IDX 64 97 68 98 71 99 65 100 66 101 69 102 67 103
REMARK H PARENT 19 12 8 31 91 56 59 67
REMARK Flexibility Score: inf
ROOT
ATOM      1  C   UNL A   1      40.950  21.988  25.964  1.00  0.00     0.261 C 
ENDROOT
BRANCH   1   2
ATOM      2  O   UNL A   1      39.683  21.588  26.508  1.00  0.00    -0.460 OA
BRANCH   2   3
ATOM      3  C   UNL A   1      38.981  20.739  25.716  1.00  0.00     0.338 C 
ATOM      4  O   UNL A   1      39.341  19.633  25.342  1.00  0.00    -0.246 OA
BRANCH   3   5
ATOM      5  C   UNL A   1      37.608  21.246  25.471  1.00  0.00     0.060 A 
ATOM      6  C   UNL A   1      35.096  22.428  24.932  1.00  0.00     0.038 A 
ATOM      7  C   UNL A   1      36.150  23.177  25.458  1.00  0.00     0.027 A 
ATOM      8  C   UNL A   1      35.306  21.052  24.735  1.00  0.00     0.027 A 
ATOM      9  C   UNL A   1      37.397  22.606  25.703  1.00  0.00     0.018 A 
ATOM     10  C   UNL A   1      36.551  20.458  25.002  1.00  0.00     0.018 A 
BRANCH   6  11
ATOM     11  N   UNL A   1      33.887  23.019  24.512  1.00  0.00    -0.359 N 
ATOM     12  H   UNL A   1      33.092  22.785  25.042  1.00  0.00     0.166 HD
BRANCH  11  13
ATOM     13  C   UNL A   1      33.665  23.896  23.438  1.00  0.00     0.016 C 
ATOM     14  C   UNL A   1      33.265  23.292  22.108  1.00  0.00     0.064 C 
ATOM     15  C   UNL A   1      33.745  25.234  23.647  1.00  0.00     0.074 C 
BRANCH  15  16
ATOM     16  C   UNL A   1      33.364  26.425  22.803  1.00  0.00     0.196 C 
ATOM     17  O   UNL A   1      33.976  26.638  21.760  1.00  0.00    -0.289 OA
BRANCH  16  18
ATOM     18  C   UNL A   1      32.400  27.409  23.336  1.00  0.00     0.130 A 
ATOM     19  C   UNL A   1      31.316  27.752  22.609  1.00  0.00     0.206 A 
ATOM     20  C   UNL A   1      32.722  28.184  24.556  1.00  0.00     0.204 A 
ATOM     21  N   UNL A   1      30.580  28.911  22.839  1.00  0.00    -0.315 N 
ATOM     22  C   UNL A   1      31.865  29.349  24.873  1.00  0.00     0.047 A 
ATOM     23  O   UNL A   1      33.696  27.918  25.252  1.00  0.00    -0.288 OA
ATOM     24  C   UNL A   1      29.721  29.492  21.800  1.00  0.00     0.153 C 
ATOM     25  C   UNL A   1      30.838  29.712  23.981  1.00  0.00     0.055 A 
ATOM     26  C   UNL A   1      32.150  30.110  26.018  1.00  0.00     0.014 A 
ATOM     27  C   UNL A   1      30.118  30.883  24.280  1.00  0.00     0.027 A 
ATOM     28  C   UNL A   1      31.418  31.262  26.287  1.00  0.00     0.001 A 
ATOM     29  C   UNL A   1      30.408  31.651  25.415  1.00  0.00     0.002 A 
BRANCH  19  30
ATOM     30  O   UNL A   1      30.924  27.016  21.504  1.00  0.00    -0.494 OA
ATOM     31  H   UNL A   1      31.385  27.105  20.693  1.00  0.00     0.295 HD
ENDBRANCH  19  30
ENDBRANCH  16  18
ENDBRANCH  15  16
ENDBRANCH  11  13
ENDBRANCH   6  11
ENDBRANCH   3   5
ENDBRANCH   2   3
ENDBRANCH   1   2
BRANCH   1  32
ATOM     32  C   UNL A   1      42.084  21.054  26.396  1.00  0.00     0.202 C 
BRANCH  32  33
ATOM     33  O   UNL A   1      43.087  20.749  25.430  1.00  0.00    -0.374 OA
BRANCH  33  34
ATOM     34  C   UNL A   1      44.258  21.565  25.403  1.00  0.00     0.202 C 
BRANCH  34  35
ATOM     35  C   UNL A   1      44.348  22.635  24.305  1.00  0.00     0.261 C 
BRANCH  35  36
ATOM     36  O   UNL A   1      43.759  23.887  24.698  1.00  0.00    -0.460 OA
BRANCH  36  37
ATOM     37  C   UNL A   1      44.625  24.810  25.189  1.00  0.00     0.338 C 
ATOM     38  O   UNL A   1      45.693  25.154  24.711  1.00  0.00    -0.246 OA
BRANCH  37  39
ATOM     39  C   UNL A   1      43.981  25.512  26.316  1.00  0.00     0.060 A 
ATOM     40  C   UNL A   1      43.039  24.872  27.122  1.00  0.00     0.016 A 
ATOM     41  C   UNL A   1      44.338  26.845  26.564  1.00  0.00     0.016 A 
ATOM     42  C   UNL A   1      42.457  25.572  28.181  1.00  0.00     0.010 A 
ATOM     43  C   UNL A   1      43.757  27.541  27.625  1.00  0.00     0.010 A 
ATOM     44  C   UNL A   1      42.815  26.907  28.447  1.00  0.00    -0.014 A 
BRANCH  44  45
ATOM     45  C   UNL A   1      42.248  27.600  29.632  1.00  0.00     0.031 A 
ATOM     46  C   UNL A   1      42.928  27.543  30.968  1.00  0.00     0.074 A 
ATOM     47  C   UNL A   1      41.112  28.307  29.485  1.00  0.00     0.049 A 
ATOM     48  N   UNL A   1      42.633  28.189  32.068  1.00  0.00    -0.248 NA
ATOM     49  C   UNL A   1      44.084  26.644  31.090  1.00  0.00     0.031 C 
ATOM     50  C   UNL A   1      40.339  28.400  28.247  1.00  0.00     0.029 A 
ATOM     51  N   UNL A   1      40.421  29.094  30.371  1.00  0.00    -0.354 N 
ATOM     52  C   UNL A   1      43.580  27.797  33.004  1.00  0.00     0.074 A 
ATOM     53  C   UNL A   1      44.421  26.809  32.363  1.00  0.00     0.031 C 
ATOM     54  C   UNL A   1      39.305  29.234  28.438  1.00  0.00     0.029 A 
ATOM     55  C   UNL A   1      39.326  29.713  29.818  1.00  0.00     0.049 A 
ATOM     56  H   UNL A   1      40.684  29.206  31.314  1.00  0.00     0.167 HD
ATOM     57  C   UNL A   1      43.744  28.244  34.272  1.00  0.00     0.037 A 
ATOM     58  C   UNL A   1      38.443  30.575  30.357  1.00  0.00     0.037 A 
ATOM     59  C   UNL A   1      42.898  29.222  34.907  1.00  0.00     0.049 A 
ATOM     60  C   UNL A   1      38.617  31.011  31.787  1.00  0.00     0.074 A 
ATOM     61  C   UNL A   1      43.020  29.775  36.170  1.00  0.00     0.029 A 
ATOM     62  N   UNL A   1      41.766  29.783  34.334  1.00  0.00    -0.354 N 
ATOM     63  N   UNL A   1      39.576  30.714  32.630  1.00  0.00    -0.248 NA
ATOM     64  C   UNL A   1      37.587  31.901  32.343  1.00  0.00     0.031 C 
ATOM     65  C   UNL A   1      41.930  30.622  36.385  1.00  0.00     0.029 A 
ATOM     66  C   UNL A   1      41.156  30.640  35.236  1.00  0.00     0.049 A 
ATOM     67  H   UNL A   1      41.443  29.599  33.422  1.00  0.00     0.167 HD
ATOM     68  C   UNL A   1      39.273  31.385  33.806  1.00  0.00     0.074 A 
ATOM     69  C   UNL A   1      38.055  32.130  33.562  1.00  0.00     0.031 C 
ATOM     70  C   UNL A   1      39.941  31.374  34.986  1.00  0.00     0.037 A 
BRANCH  57  71
ATOM     71  C   UNL A   1      44.899  27.702  35.065  1.00  0.00     0.064 A 
ATOM     72  C   UNL A   1      46.155  28.328  35.040  1.00  0.00     0.173 A 
ATOM     73  C   UNL A   1      44.728  26.608  35.927  1.00  0.00     0.173 A 
ATOM     74  F   UNL A   1      46.372  29.376  34.231  1.00  0.00    -0.203 F 
ATOM     75  C   UNL A   1      47.201  27.867  35.836  1.00  0.00     0.198 A 
ATOM     76  C   UNL A   1      45.769  26.169  36.742  1.00  0.00     0.198 A 
ATOM     77  F   UNL A   1      43.545  25.981  35.998  1.00  0.00    -0.203 F 
ATOM     78  F   UNL A   1      48.400  28.463  35.772  1.00  0.00    -0.200 F 
ATOM     79  C   UNL A   1      47.005  26.796  36.693  1.00  0.00     0.200 A 
ATOM     80  F   UNL A   1      45.572  25.144  37.584  1.00  0.00    -0.200 F 
ATOM     81  F   UNL A   1      48.007  26.367  37.473  1.00  0.00    -0.200 F 
ENDBRANCH  57  71
BRANCH  58  82
ATOM     82  C   UNL A   1      37.334  31.110  29.525  1.00  0.00     0.064 A 
ATOM     83  C   UNL A   1      36.235  30.308  29.188  1.00  0.00     0.173 A 
ATOM     84  C   UNL A   1      37.339  32.436  29.065  1.00  0.00     0.173 A 
ATOM     85  F   UNL A   1      36.194  29.028  29.587  1.00  0.00    -0.203 F 
ATOM     86  C   UNL A   1      35.190  30.808  28.415  1.00  0.00     0.198 A 
ATOM     87  C   UNL A   1      36.278  32.943  28.318  1.00  0.00     0.198 A 
ATOM     88  F   UNL A   1      38.366  33.246  29.362  1.00  0.00    -0.203 F 
ATOM     89  F   UNL A   1      34.169  30.009  28.076  1.00  0.00    -0.200 F 
ATOM     90  C   UNL A   1      35.207  32.127  27.989  1.00  0.00     0.200 A 
ATOM     91  F   UNL A   1      36.293  34.223  27.923  1.00  0.00    -0.200 F 
ATOM     92  F   UNL A   1      34.195  32.611  27.256  1.00  0.00    -0.200 F 
ENDBRANCH  58  82
BRANCH  70  93
ATOM     93  C   UNL A   1      39.370  32.174  36.122  1.00  0.00     0.064 A 
ATOM     94  C   UNL A   1      38.388  31.635  36.967  1.00  0.00     0.173 A 
ATOM     95  C   UNL A   1      39.882  33.442  36.435  1.00  0.00     0.173 A 
ATOM     96  F   UNL A   1      37.857  30.432  36.702  1.00  0.00    -0.203 F 
ATOM     97  C   UNL A   1      37.938  32.337  38.081  1.00  0.00     0.198 A 
ATOM     98  C   UNL A   1      39.451  34.128  37.568  1.00  0.00     0.198 A 
ATOM     99  F   UNL A   1      40.827  34.000  35.665  1.00  0.00    -0.203 F 
ATOM    100  F   UNL A   1      36.984  31.811  38.861  1.00  0.00    -0.200 F 
ATOM    101  C   UNL A   1      38.481  33.576  38.390  1.00  0.00     0.200 A 
ATOM    102  F   UNL A   1      39.989  35.318  37.875  1.00  0.00    -0.200 F 
ATOM    103  F   UNL A   1      38.067  34.237  39.480  1.00  0.00    -0.200 F 
ENDBRANCH  70  93
ENDBRANCH  44  45
ENDBRANCH  37  39
ENDBRANCH  36  37
ENDBRANCH  35  36
ENDBRANCH  34  35
ENDBRANCH  33  34
ENDBRANCH  32  33
ENDBRANCH   1  32
TORSDOF 19
ENDMDL
MODEL 3
REMARK VINA RESULT:     -11.5      5.247      8.234
REMARK SMILES C/C(=C\C(=O)c1c(O)n(C)c2ccccc2c1=O)Nc1ccc(C(=O)OCCOCCOC(=O)c2ccc(-c3c4nc(c(-c5c(F)c(F)c(F)c(F)c5F)c5ccc([nH]5)c(-c5c(F)c(F)c(F)c(F)c5F)c5nc(c(-c6c(F)c(F)c(F)c(F)c6F)c6ccc3[nH]6)C=C5)C=C4)cc2)cc1
REMARK SMILES IDX 27 1 26 2 24 3 25 4 23 5 20 6 21 7 99 8 22 9 98 10 19 11
REMARK SMILES IDX 2 13 1 14 3 15 4 16 5 17 6 18 7 19 17 20 9 21 16 22 18 23
REMARK SMILES IDX 10 24 11 25 15 26 12 27 14 28 13 29 8 30 28 32 29 33 30 34
REMARK SMILES IDX 31 35 32 36 33 37 34 38 35 39 36 40 97 41 37 42 96 43 38 44
REMARK SMILES IDX 39 45 40 46 90 47 41 48 95 49 89 50 91 51 42 52 94 53 88 54
REMARK SMILES IDX 87 55 43 57 75 58 55 59 74 60 56 61 59 62 73 63 92 64 57 65
REMARK SMILES IDX 58 66 72 68 93 69 60 70 44 71 45 72 53 73 46 74 47 75 51 76
REMARK SMILES IDX 54 77 48 78 49 79 52 80 50 81 76 82 77 83 85 84 78 85 79 86
REMARK SMILES IDX 83 87 86 88 80 89 81 90 84 91 82 92 61 93 62 94 70 95 63 96
REMARK SMILES IDX 64 97 68 98 71 99 65 100 66 101 69 102 67 103
REMARK H PARENT 19 12 8 31 91 56 59 67
REMARK Flexibility Score: inf
ROOT
ATOM      1  C   UNL A   1      33.067  36.616  30.310  1.00  0.00     0.261 C 
ENDROOT
BRANCH   1   2
ATOM      2  O   UNL A   1      32.830  35.380  29.617  1.00  0.00    -0.460 OA
BRANCH   2   3
ATOM      3  C   UNL A   1      33.643  35.175  28.550  1.00  0.00     0.338 C 
ATOM      4  O   UNL A   1      34.374  36.003  28.028  1.00  0.00    -0.246 OA
BRANCH   3   5
ATOM      5  C   UNL A   1      33.674  33.742  28.167  1.00  0.00     0.060 A 
ATOM      6  C   UNL A   1      33.866  30.970  27.644  1.00  0.00     0.038 A 
ATOM      7  C   UNL A   1      34.924  31.671  28.227  1.00  0.00     0.027 A 
ATOM      8  C   UNL A   1      32.724  31.699  27.271  1.00  0.00     0.027 A 
ATOM      9  C   UNL A   1      34.826  33.032  28.509  1.00  0.00     0.018 A 
ATOM     10  C   UNL A   1      32.623  33.078  27.527  1.00  0.00     0.018 A 
BRANCH   6  11
ATOM     11  N   UNL A   1      33.874  29.566  27.513  1.00  0.00    -0.359 N 
ATOM     12  H   UNL A   1      34.612  29.100  27.968  1.00  0.00     0.166 HD
BRANCH  11  13
ATOM     13  C   UNL A   1      32.972  28.744  26.820  1.00  0.00     0.016 C 
ATOM     14  C   UNL A   1      31.783  28.203  27.586  1.00  0.00     0.064 C 
ATOM     15  C   UNL A   1      33.155  28.527  25.494  1.00  0.00     0.074 C 
BRANCH  15  16
ATOM     16  C   UNL A   1      32.288  27.900  24.430  1.00  0.00     0.196 C 
ATOM     17  O   UNL A   1      31.219  28.433  24.141  1.00  0.00    -0.289 OA
BRANCH  16  18
ATOM     18  C   UNL A   1      32.647  26.570  23.897  1.00  0.00     0.130 A 
ATOM     19  C   UNL A   1      32.992  26.436  22.600  1.00  0.00     0.206 A 
ATOM     20  C   UNL A   1      32.420  25.354  24.711  1.00  0.00     0.204 A 
ATOM     21  N   UNL A   1      32.972  25.216  21.929  1.00  0.00    -0.315 N 
ATOM     22  C   UNL A   1      32.519  24.045  24.027  1.00  0.00     0.047 A 
ATOM     23  O   UNL A   1      32.102  25.419  25.894  1.00  0.00    -0.288 OA
ATOM     24  C   UNL A   1      32.902  25.148  20.464  1.00  0.00     0.153 C 
ATOM     25  C   UNL A   1      32.749  24.008  22.638  1.00  0.00     0.055 A 
ATOM     26  C   UNL A   1      32.300  22.873  24.769  1.00  0.00     0.014 A 
ATOM     27  C   UNL A   1      32.736  22.743  22.023  1.00  0.00     0.027 A 
ATOM     28  C   UNL A   1      32.295  21.637  24.130  1.00  0.00     0.001 A 
ATOM     29  C   UNL A   1      32.507  21.574  22.758  1.00  0.00     0.002 A 
BRANCH  19  30
ATOM     30  O   UNL A   1      33.290  27.535  21.812  1.00  0.00    -0.494 OA
ATOM     31  H   UNL A   1      34.151  27.902  21.827  1.00  0.00     0.295 HD
ENDBRANCH  19  30
ENDBRANCH  16  18
ENDBRANCH  15  16
ENDBRANCH  11  13
ENDBRANCH   6  11
ENDBRANCH   3   5
ENDBRANCH   2   3
ENDBRANCH   1   2
BRANCH   1  32
ATOM     32  C   UNL A   1      33.401  36.394  31.788  1.00  0.00     0.202 C 
BRANCH  32  33
ATOM     33  O   UNL A   1      32.892  35.216  32.407  1.00  0.00    -0.374 OA
BRANCH  33  34
ATOM     34  C   UNL A   1      33.833  34.267  32.910  1.00  0.00     0.202 C 
BRANCH  34  35
ATOM     35  C   UNL A   1      35.315  34.501  32.585  1.00  0.00     0.261 C 
BRANCH  35  36
ATOM     36  O   UNL A   1      35.900  33.417  31.843  1.00  0.00    -0.460 OA
BRANCH  36  37
ATOM     37  C   UNL A   1      36.438  32.421  32.593  1.00  0.00     0.338 C 
ATOM     38  O   UNL A   1      35.996  31.949  33.627  1.00  0.00    -0.246 OA
BRANCH  37  39
ATOM     39  C   UNL A   1      37.569  31.827  31.853  1.00  0.00     0.060 A 
ATOM     40  C   UNL A   1      37.621  31.870  30.459  1.00  0.00     0.016 A 
ATOM     41  C   UNL A   1      38.597  31.217  32.583  1.00  0.00     0.016 A 
ATOM     42  C   UNL A   1      38.711  31.300  29.798  1.00  0.00     0.010 A 
ATOM     43  C   UNL A   1      39.687  30.650  31.920  1.00  0.00     0.010 A 
ATOM     44  C   UNL A   1      39.755  30.692  30.521  1.00  0.00    -0.014 A 
BRANCH  44  45
ATOM     45  C   UNL A   1      40.945  30.173  29.798  1.00  0.00     0.031 A 
ATOM     46  C   UNL A   1      40.988  28.768  29.276  1.00  0.00     0.074 A 
ATOM     47  C   UNL A   1      41.989  30.999  29.596  1.00  0.00     0.049 A 
ATOM     48  N   UNL A   1      41.895  28.199  28.522  1.00  0.00    -0.248 NA
ATOM     49  C   UNL A   1      39.877  27.882  29.652  1.00  0.00     0.031 C 
ATOM     50  C   UNL A   1      42.079  32.371  30.094  1.00  0.00     0.029 A 
ATOM     51  N   UNL A   1      43.161  30.815  28.906  1.00  0.00    -0.354 N 
ATOM     52  C   UNL A   1      41.453  26.901  28.309  1.00  0.00     0.074 A 
ATOM     53  C   UNL A   1      40.229  26.745  29.065  1.00  0.00     0.031 C 
ATOM     54  C   UNL A   1      43.222  32.922  29.656  1.00  0.00     0.029 A 
ATOM     55  C   UNL A   1      43.959  31.934  28.871  1.00  0.00     0.049 A 
ATOM     56  H   UNL A   1      43.408  29.964  28.477  1.00  0.00     0.167 HD
ATOM     57  C   UNL A   1      42.006  25.941  27.530  1.00  0.00     0.037 A 
ATOM     58  C   UNL A   1      45.144  32.144  28.267  1.00  0.00     0.037 A 
ATOM     59  C   UNL A   1      43.229  26.101  26.785  1.00  0.00     0.049 A 
ATOM     60  C   UNL A   1      45.764  31.039  27.455  1.00  0.00     0.074 A 
ATOM     61  C   UNL A   1      43.838  25.202  25.928  1.00  0.00     0.029 A 
ATOM     62  N   UNL A   1      44.037  27.227  26.820  1.00  0.00    -0.354 N 
ATOM     63  N   UNL A   1      45.285  29.852  27.175  1.00  0.00    -0.248 NA
ATOM     64  C   UNL A   1      47.089  31.302  26.874  1.00  0.00     0.031 C 
ATOM     65  C   UNL A   1      45.043  25.758  25.492  1.00  0.00     0.029 A 
ATOM     66  C   UNL A   1      45.161  27.027  26.035  1.00  0.00     0.049 A 
ATOM     67  H   UNL A   1      43.842  28.049  27.328  1.00  0.00     0.167 HD
ATOM     68  C   UNL A   1      46.240  29.231  26.382  1.00  0.00     0.074 A 
ATOM     69  C   UNL A   1      47.315  30.184  26.198  1.00  0.00     0.031 C 
ATOM     70  C   UNL A   1      46.229  27.979  25.862  1.00  0.00     0.037 A 
BRANCH  57  71
ATOM     71  C   UNL A   1      41.287  24.628  27.415  1.00  0.00     0.064 A 
ATOM     72  C   UNL A   1      40.128  24.499  26.633  1.00  0.00     0.173 A 
ATOM     73  C   UNL A   1      41.807  23.469  28.012  1.00  0.00     0.173 A 
ATOM     74  F   UNL A   1      39.588  25.576  26.044  1.00  0.00    -0.203 F 
ATOM     75  C   UNL A   1      39.509  23.263  26.468  1.00  0.00     0.198 A 
ATOM     76  C   UNL A   1      41.201  22.230  27.820  1.00  0.00     0.198 A 
ATOM     77  F   UNL A   1      42.919  23.533  28.759  1.00  0.00    -0.203 F 
ATOM     78  F   UNL A   1      38.386  23.171  25.742  1.00  0.00    -0.200 F 
ATOM     79  C   UNL A   1      40.050  22.128  27.052  1.00  0.00     0.200 A 
ATOM     80  F   UNL A   1      41.736  21.131  28.370  1.00  0.00    -0.200 F 
ATOM     81  F   UNL A   1      39.464  20.936  26.875  1.00  0.00    -0.200 F 
ENDBRANCH  57  71
BRANCH  58  82
ATOM     82  C   UNL A   1      45.804  33.471  28.383  1.00  0.00     0.064 A 
ATOM     83  C   UNL A   1      46.626  33.774  29.476  1.00  0.00     0.173 A 
ATOM     84  C   UNL A   1      45.641  34.456  27.396  1.00  0.00     0.173 A 
ATOM     85  F   UNL A   1      46.797  32.872  30.455  1.00  0.00    -0.203 F 
ATOM     86  C   UNL A   1      47.253  35.013  29.583  1.00  0.00     0.198 A 
ATOM     87  C   UNL A   1      46.293  35.684  27.490  1.00  0.00     0.198 A 
ATOM     88  F   UNL A   1      44.866  34.215  26.328  1.00  0.00    -0.203 F 
ATOM     89  F   UNL A   1      48.005  35.290  30.657  1.00  0.00    -0.200 F 
ATOM     90  C   UNL A   1      47.094  35.963  28.586  1.00  0.00     0.200 A 
ATOM     91  F   UNL A   1      46.148  36.591  26.515  1.00  0.00    -0.200 F 
ATOM     92  F   UNL A   1      47.707  37.150  28.683  1.00  0.00    -0.200 F 
ENDBRANCH  58  82
BRANCH  70  93
ATOM     93  C   UNL A   1      47.419  27.544  25.056  1.00  0.00     0.064 A 
ATOM     94  C   UNL A   1      47.476  27.763  23.671  1.00  0.00     0.173 A 
ATOM     95  C   UNL A   1      48.552  27.004  25.682  1.00  0.00     0.173 A 
ATOM     96  F   UNL A   1      46.413  28.264  23.023  1.00  0.00    -0.203 F 
ATOM     97  C   UNL A   1      48.622  27.456  22.943  1.00  0.00     0.198 A 
ATOM     98  C   UNL A   1      49.708  26.726  24.956  1.00  0.00     0.198 A 
ATOM     99  F   UNL A   1      48.553  26.781  27.004  1.00  0.00    -0.203 F 
ATOM    100  F   UNL A   1      48.645  27.653  21.618  1.00  0.00    -0.200 F 
ATOM    101  C   UNL A   1      49.742  26.952  23.588  1.00  0.00     0.200 A 
ATOM    102  F   UNL A   1      50.795  26.256  25.584  1.00  0.00    -0.200 F 
ATOM    103  F   UNL A   1      50.855  26.684  22.891  1.00  0.00    -0.200 F 
ENDBRANCH  70  93
ENDBRANCH  44  45
ENDBRANCH  37  39
ENDBRANCH  36  37
ENDBRANCH  35  36
ENDBRANCH  34  35
ENDBRANCH  33  34
ENDBRANCH  32  33
ENDBRANCH   1  32
TORSDOF 19
ENDMDL
