MODEL 1
REMARK VINA RESULT:     -12.2      0.000      0.000
REMARK SMILES CC(C)(C)c1cc2c(cc1Cl)C=C(C(=O)OCCOCCOC(=O)c1ccc(-c3c4nc(c(-c5c(F)c(F)c(F)c(F)c5F)c5ccc([nH]5)c(-c5c(F)c(F)c(F)c(F)c5F)c5nc(c(-c6c(F)c(F)c(F)c(F)c6F)c6ccc3[nH]6)C=C5)C=C4)cc1)[C@@H](C(F)(F)F)O2
REMARK SMILES IDX 20 1 19 2 18 3 17 4 16 5 14 6 15 7 13 8 5 9 6 10 10 11 7 12
REMARK SMILES IDX 9 13 11 14 8 15 93 16 12 17 88 18 2 19 1 20 3 21 4 22 89 23
REMARK SMILES IDX 90 24 91 25 92 26 21 27 22 28 23 29 24 30 25 31 26 32 87 33
REMARK SMILES IDX 27 34 86 35 28 36 29 37 30 38 80 39 31 40 85 41 79 42 81 43
REMARK SMILES IDX 32 44 84 45 78 46 77 47 33 49 65 50 45 51 64 52 46 53 49 54
REMARK SMILES IDX 63 55 82 56 47 57 48 58 62 60 83 61 50 62 34 63 35 64 43 65
REMARK SMILES IDX 36 66 37 67 41 68 44 69 38 70 39 71 42 72 40 73 66 74 67 75
REMARK SMILES IDX 75 76 68 77 69 78 73 79 76 80 70 81 71 82 74 83 72 84 51 85
REMARK SMILES IDX 52 86 60 87 53 88 54 89 58 90 61 91 55 92 56 93 59 94 57 95
REMARK H PARENT 81 48 49 59
REMARK Flexibility Score: inf
ROOT
ATOM      1  C   UNL A   1      31.398  29.245  24.974  1.00  0.00     0.202 C 
ENDROOT
BRANCH   1   2
ATOM      2  O   UNL A   1      31.723  29.271  23.585  1.00  0.00    -0.374 OA
BRANCH   2   3
ATOM      3  C   UNL A   1      32.755  28.415  23.107  1.00  0.00     0.202 C 
BRANCH   3   4
ATOM      4  C   UNL A   1      33.902  28.068  24.059  1.00  0.00     0.261 C 
BRANCH   4   5
ATOM      5  O   UNL A   1      34.001  26.657  24.302  1.00  0.00    -0.460 OA
BRANCH   5   6
ATOM      6  C   UNL A   1      33.609  26.282  25.544  1.00  0.00     0.338 C 
ATOM      7  O   UNL A   1      33.409  27.014  26.500  1.00  0.00    -0.246 OA
BRANCH   6   8
ATOM      8  C   UNL A   1      33.317  24.838  25.565  1.00  0.00     0.087 C 
ATOM      9  C   UNL A   1      33.733  19.870  24.772  1.00  0.00    -0.020 A 
ATOM     10  C   UNL A   1      32.667  20.772  25.037  1.00  0.00     0.053 A 
ATOM     11  C   UNL A   1      35.033  20.383  24.969  1.00  0.00     0.045 A 
ATOM     12  C   UNL A   1      32.875  22.123  25.328  1.00  0.00     0.128 A 
ATOM     13  C   UNL A   1      35.239  21.743  25.255  1.00  0.00     0.032 A 
ATOM     14  Cl  UNL A   1      36.485  19.448  24.939  1.00  0.00    -0.084 Cl
ATOM     15  C   UNL A   1      34.166  22.619  25.390  1.00  0.00     0.019 A 
ATOM     16  O   UNL A   1      31.760  22.887  25.528  1.00  0.00    -0.475 OA
ATOM     17  C   UNL A   1      34.393  24.041  25.532  1.00  0.00     0.027 C 
ATOM     18  C   UNL A   1      31.900  24.336  25.580  1.00  0.00     0.316 C 
BRANCH   9  19
ATOM     19  C   UNL A   1      33.380  18.430  24.320  1.00  0.00    -0.012 C 
ATOM     20  C   UNL A   1      34.583  17.532  23.943  1.00  0.00     0.016 C 
ATOM     21  C   UNL A   1      32.494  18.437  23.041  1.00  0.00     0.016 C 
ATOM     22  C   UNL A   1      32.594  17.747  25.454  1.00  0.00     0.016 C 
ENDBRANCH   9  19
BRANCH  18  23
ATOM     23  C   UNL A   1      31.046  24.943  24.457  1.00  0.00     0.430 C 
ATOM     24  F   UNL A   1      31.755  25.051  23.307  1.00  0.00    -0.167 F 
ATOM     25  F   UNL A   1      29.970  24.171  24.172  1.00  0.00    -0.167 F 
ATOM     26  F   UNL A   1      30.591  26.175  24.773  1.00  0.00    -0.167 F 
ENDBRANCH  18  23
ENDBRANCH   6   8
ENDBRANCH   5   6
ENDBRANCH   4   5
ENDBRANCH   3   4
ENDBRANCH   2   3
ENDBRANCH   1   2
BRANCH   1  27
ATOM     27  C   UNL A   1      31.776  30.454  25.840  1.00  0.00     0.261 C 
BRANCH  27  28
ATOM     28  O   UNL A   1      33.171  30.486  26.189  1.00  0.00    -0.460 OA
BRANCH  28  29
ATOM     29  C   UNL A   1      33.513  31.446  27.084  1.00  0.00     0.338 C 
ATOM     30  O   UNL A   1      32.818  32.364  27.491  1.00  0.00    -0.246 OA
BRANCH  29  31
ATOM     31  C   UNL A   1      34.820  31.111  27.676  1.00  0.00     0.060 A 
ATOM     32  C   UNL A   1      35.754  32.105  27.966  1.00  0.00     0.016 A 
ATOM     33  C   UNL A   1      35.086  29.768  27.982  1.00  0.00     0.016 A 
ATOM     34  C   UNL A   1      36.956  31.751  28.585  1.00  0.00     0.010 A 
ATOM     35  C   UNL A   1      36.286  29.418  28.599  1.00  0.00     0.010 A 
ATOM     36  C   UNL A   1      37.222  30.409  28.921  1.00  0.00    -0.014 A 
BRANCH  36  37
ATOM     37  C   UNL A   1      38.428  30.070  29.717  1.00  0.00     0.031 A 
ATOM     38  C   UNL A   1      38.635  30.616  31.096  1.00  0.00     0.074 A 
ATOM     39  C   UNL A   1      39.349  29.256  29.166  1.00  0.00     0.049 A 
ATOM     40  N   UNL A   1      39.596  30.355  31.948  1.00  0.00    -0.248 NA
ATOM     41  C   UNL A   1      37.644  31.585  31.584  1.00  0.00     0.031 C 
ATOM     42  C   UNL A   1      39.272  28.699  27.817  1.00  0.00     0.029 A 
ATOM     43  N   UNL A   1      40.518  28.748  29.673  1.00  0.00    -0.354 N 
ATOM     44  C   UNL A   1      39.314  31.107  33.080  1.00  0.00     0.074 A 
ATOM     45  C   UNL A   1      38.123  31.877  32.787  1.00  0.00     0.031 C 
ATOM     46  C   UNL A   1      40.327  27.894  27.614  1.00  0.00     0.029 A 
ATOM     47  C   UNL A   1      41.170  27.906  28.806  1.00  0.00     0.049 A 
ATOM     48  H   UNL A   1      40.858  28.967  30.571  1.00  0.00     0.167 HD
ATOM     49  C   UNL A   1      39.977  31.127  34.261  1.00  0.00     0.037 A 
ATOM     50  C   UNL A   1      42.315  27.214  28.956  1.00  0.00     0.037 A 
ATOM     51  C   UNL A   1      41.170  30.367  34.538  1.00  0.00     0.049 A 
ATOM     52  C   UNL A   1      43.059  27.297  30.261  1.00  0.00     0.074 A 
ATOM     53  C   UNL A   1      41.892  30.297  35.718  1.00  0.00     0.029 A 
ATOM     54  N   UNL A   1      41.826  29.555  33.623  1.00  0.00    -0.354 N 
ATOM     55  N   UNL A   1      42.739  27.946  31.354  1.00  0.00    -0.248 NA
ATOM     56  C   UNL A   1      44.321  26.548  30.355  1.00  0.00     0.031 C 
ATOM     57  C   UNL A   1      43.014  29.494  35.501  1.00  0.00     0.029 A 
ATOM     58  C   UNL A   1      42.962  29.009  34.203  1.00  0.00     0.049 A 
ATOM     59  H   UNL A   1      41.530  29.391  32.699  1.00  0.00     0.167 HD
ATOM     60  C   UNL A   1      43.744  27.668  32.271  1.00  0.00     0.074 A 
ATOM     61  C   UNL A   1      44.673  26.773  31.614  1.00  0.00     0.031 C 
ATOM     62  C   UNL A   1      43.882  28.118  33.542  1.00  0.00     0.037 A 
BRANCH  49  63
ATOM     63  C   UNL A   1      39.425  31.987  35.362  1.00  0.00     0.064 A 
ATOM     64  C   UNL A   1      38.557  31.462  36.331  1.00  0.00     0.173 A 
ATOM     65  C   UNL A   1      39.838  33.320  35.507  1.00  0.00     0.173 A 
ATOM     66  F   UNL A   1      38.128  30.194  36.238  1.00  0.00    -0.203 F 
ATOM     67  C   UNL A   1      38.112  32.243  37.395  1.00  0.00     0.198 A 
ATOM     68  C   UNL A   1      39.415  34.090  36.587  1.00  0.00     0.198 A 
ATOM     69  F   UNL A   1      40.675  33.870  34.614  1.00  0.00    -0.203 F 
ATOM     70  F   UNL A   1      37.259  31.728  38.291  1.00  0.00    -0.200 F 
ATOM     71  C   UNL A   1      38.549  33.552  37.528  1.00  0.00     0.200 A 
ATOM     72  F   UNL A   1      39.853  35.349  36.725  1.00  0.00    -0.200 F 
ATOM     73  F   UNL A   1      38.136  34.296  38.564  1.00  0.00    -0.200 F 
ENDBRANCH  49  63
BRANCH  50  74
ATOM     74  C   UNL A   1      42.802  26.350  27.849  1.00  0.00     0.064 A 
ATOM     75  C   UNL A   1      43.671  26.855  26.872  1.00  0.00     0.173 A 
ATOM     76  C   UNL A   1      42.429  25.001  27.755  1.00  0.00     0.173 A 
ATOM     77  F   UNL A   1      44.042  28.144  26.908  1.00  0.00    -0.203 F 
ATOM     78  C   UNL A   1      44.142  26.047  25.840  1.00  0.00     0.198 A 
ATOM     79  C   UNL A   1      42.926  24.186  26.741  1.00  0.00     0.198 A 
ATOM     80  F   UNL A   1      41.603  24.468  28.668  1.00  0.00    -0.203 F 
ATOM     81  F   UNL A   1      44.943  26.565  24.899  1.00  0.00    -0.200 F 
ATOM     82  C   UNL A   1      43.776  24.711  25.780  1.00  0.00     0.200 A 
ATOM     83  F   UNL A   1      42.583  22.891  26.697  1.00  0.00    -0.200 F 
ATOM     84  F   UNL A   1      44.239  23.930  24.795  1.00  0.00    -0.200 F 
ENDBRANCH  50  74
BRANCH  62  85
ATOM     85  C   UNL A   1      45.078  27.649  34.322  1.00  0.00     0.064 A 
ATOM     86  C   UNL A   1      46.268  28.390  34.360  1.00  0.00     0.173 A 
ATOM     87  C   UNL A   1      45.008  26.484  35.102  1.00  0.00     0.173 A 
ATOM     88  F   UNL A   1      46.393  29.504  33.622  1.00  0.00    -0.203 F 
ATOM     89  C   UNL A   1      47.347  27.975  35.135  1.00  0.00     0.198 A 
ATOM     90  C   UNL A   1      46.077  26.090  35.903  1.00  0.00     0.198 A 
ATOM     91  F   UNL A   1      43.891  25.740  35.109  1.00  0.00    -0.203 F 
ATOM     92  F   UNL A   1      48.488  28.680  35.125  1.00  0.00    -0.200 F 
ATOM     93  C   UNL A   1      47.246  26.833  35.916  1.00  0.00     0.200 A 
ATOM     94  F   UNL A   1      45.970  24.996  36.670  1.00  0.00    -0.200 F 
ATOM     95  F   UNL A   1      48.279  26.447  36.678  1.00  0.00    -0.200 F 
ENDBRANCH  62  85
ENDBRANCH  36  37
ENDBRANCH  29  31
ENDBRANCH  28  29
ENDBRANCH  27  28
ENDBRANCH   1  27
TORSDOF 16
ENDMDL
MODEL 2
REMARK VINA RESULT:     -12.1      4.909     10.173
REMARK SMILES CC(C)(C)c1cc2c(cc1Cl)C=C(C(=O)OCCOCCOC(=O)c1ccc(-c3c4nc(c(-c5c(F)c(F)c(F)c(F)c5F)c5ccc([nH]5)c(-c5c(F)c(F)c(F)c(F)c5F)c5nc(c(-c6c(F)c(F)c(F)c(F)c6F)c6ccc3[nH]6)C=C5)C=C4)cc1)[C@@H](C(F)(F)F)O2
REMARK SMILES IDX 20 1 19 2 18 3 17 4 16 5 14 6 15 7 13 8 5 9 6 10 10 11 7 12
REMARK SMILES IDX 9 13 11 14 8 15 93 16 12 17 88 18 2 19 1 20 3 21 4 22 89 23
REMARK SMILES IDX 90 24 91 25 92 26 21 27 22 28 23 29 24 30 25 31 26 32 87 33
REMARK SMILES IDX 27 34 86 35 28 36 29 37 30 38 80 39 31 40 85 41 79 42 81 43
REMARK SMILES IDX 32 44 84 45 78 46 77 47 33 49 65 50 45 51 64 52 46 53 49 54
REMARK SMILES IDX 63 55 82 56 47 57 48 58 62 60 83 61 50 62 34 63 35 64 43 65
REMARK SMILES IDX 36 66 37 67 41 68 44 69 38 70 39 71 42 72 40 73 66 74 67 75
REMARK SMILES IDX 75 76 68 77 69 78 73 79 76 80 70 81 71 82 74 83 72 84 51 85
REMARK SMILES IDX 52 86 60 87 53 88 54 89 58 90 61 91 55 92 56 93 59 94 57 95
REMARK H PARENT 81 48 49 59
REMARK Flexibility Score: inf
ROOT
ATOM      1  C   UNL A   1      39.500  21.141  26.039  1.00  0.00     0.202 C 
ENDROOT
BRANCH   1   2
ATOM      2  O   UNL A   1      38.276  21.529  25.418  1.00  0.00    -0.374 OA
BRANCH   2   3
ATOM      3  C   UNL A   1      37.492  20.535  24.767  1.00  0.00     0.202 C 
BRANCH   3   4
ATOM      4  C   UNL A   1      35.990  20.495  25.062  1.00  0.00     0.261 C 
BRANCH   4   5
ATOM      5  O   UNL A   1      35.262  21.484  24.320  1.00  0.00    -0.460 OA
BRANCH   5   6
ATOM      6  C   UNL A   1      33.916  21.368  24.419  1.00  0.00     0.338 C 
ATOM      7  O   UNL A   1      33.256  20.351  24.276  1.00  0.00    -0.246 OA
BRANCH   6   8
ATOM      8  C   UNL A   1      33.333  22.645  24.867  1.00  0.00     0.087 C 
ATOM      9  C   UNL A   1      32.661  27.597  25.584  1.00  0.00    -0.020 A 
ATOM     10  C   UNL A   1      32.267  26.409  26.257  1.00  0.00     0.053 A 
ATOM     11  C   UNL A   1      33.193  27.419  24.288  1.00  0.00     0.045 A 
ATOM     12  C   UNL A   1      32.518  25.132  25.747  1.00  0.00     0.128 A 
ATOM     13  C   UNL A   1      33.451  26.135  23.782  1.00  0.00     0.032 A 
ATOM     14  Cl  UNL A   1      33.537  28.693  23.173  1.00  0.00    -0.084 Cl
ATOM     15  C   UNL A   1      33.156  24.996  24.526  1.00  0.00     0.019 A 
ATOM     16  O   UNL A   1      32.116  24.075  26.513  1.00  0.00    -0.475 OA
ATOM     17  C   UNL A   1      33.566  23.689  24.061  1.00  0.00     0.027 C 
ATOM     18  C   UNL A   1      32.575  22.737  26.161  1.00  0.00     0.316 C 
BRANCH   9  19
ATOM     19  C   UNL A   1      32.459  28.952  26.308  1.00  0.00    -0.012 C 
ATOM     20  C   UNL A   1      33.753  29.719  26.669  1.00  0.00     0.016 C 
ATOM     21  C   UNL A   1      31.736  28.764  27.674  1.00  0.00     0.016 C 
ATOM     22  C   UNL A   1      31.587  29.853  25.415  1.00  0.00     0.016 C 
ENDBRANCH   9  19
BRANCH  18  23
ATOM     23  C   UNL A   1      33.365  22.172  27.351  1.00  0.00     0.430 C 
ATOM     24  F   UNL A   1      33.426  20.819  27.301  1.00  0.00    -0.167 F 
ATOM     25  F   UNL A   1      34.646  22.613  27.359  1.00  0.00    -0.167 F 
ATOM     26  F   UNL A   1      32.811  22.511  28.536  1.00  0.00    -0.167 F 
ENDBRANCH  18  23
ENDBRANCH   6   8
ENDBRANCH   5   6
ENDBRANCH   4   5
ENDBRANCH   3   4
ENDBRANCH   2   3
ENDBRANCH   1   2
BRANCH   1  27
ATOM     27  C   UNL A   1      39.865  19.651  26.078  1.00  0.00     0.261 C 
BRANCH  27  28
ATOM     28  O   UNL A   1      41.050  19.340  25.325  1.00  0.00    -0.460 OA
BRANCH  28  29
ATOM     29  C   UNL A   1      42.171  19.171  26.071  1.00  0.00     0.338 C 
ATOM     30  O   UNL A   1      42.753  18.124  26.310  1.00  0.00    -0.246 OA
BRANCH  29  31
ATOM     31  C   UNL A   1      42.732  20.491  26.406  1.00  0.00     0.060 A 
ATOM     32  C   UNL A   1      43.292  21.305  25.422  1.00  0.00     0.016 A 
ATOM     33  C   UNL A   1      42.652  20.929  27.736  1.00  0.00     0.016 A 
ATOM     34  C   UNL A   1      43.755  22.576  25.771  1.00  0.00     0.010 A 
ATOM     35  C   UNL A   1      43.116  22.197  28.082  1.00  0.00     0.010 A 
ATOM     36  C   UNL A   1      43.655  23.037  27.098  1.00  0.00    -0.014 A 
BRANCH  36  37
ATOM     37  C   UNL A   1      44.005  24.442  27.424  1.00  0.00     0.031 A 
ATOM     38  C   UNL A   1      45.420  24.930  27.360  1.00  0.00     0.074 A 
ATOM     39  C   UNL A   1      43.016  25.280  27.790  1.00  0.00     0.049 A 
ATOM     40  N   UNL A   1      45.879  26.144  27.541  1.00  0.00    -0.248 NA
ATOM     41  C   UNL A   1      46.457  23.932  27.064  1.00  0.00     0.031 C 
ATOM     42  C   UNL A   1      41.610  24.904  27.926  1.00  0.00     0.029 A 
ATOM     43  N   UNL A   1      43.038  26.616  28.100  1.00  0.00    -0.354 N 
ATOM     44  C   UNL A   1      47.252  26.062  27.357  1.00  0.00     0.074 A 
ATOM     45  C   UNL A   1      47.559  24.669  27.106  1.00  0.00     0.031 C 
ATOM     46  C   UNL A   1      40.895  25.991  28.254  1.00  0.00     0.029 A 
ATOM     47  C   UNL A   1      41.797  27.131  28.384  1.00  0.00     0.049 A 
ATOM     48  H   UNL A   1      43.863  27.153  28.119  1.00  0.00     0.167 HD
ATOM     49  C   UNL A   1      48.163  27.065  27.370  1.00  0.00     0.037 A 
ATOM     50  C   UNL A   1      41.426  28.385  28.706  1.00  0.00     0.037 A 
ATOM     51  C   UNL A   1      47.849  28.446  27.635  1.00  0.00     0.049 A 
ATOM     52  C   UNL A   1      42.468  29.468  28.767  1.00  0.00     0.074 A 
ATOM     53  C   UNL A   1      48.701  29.537  27.637  1.00  0.00     0.029 A 
ATOM     54  N   UNL A   1      46.588  28.927  27.959  1.00  0.00    -0.354 N 
ATOM     55  N   UNL A   1      43.751  29.395  28.509  1.00  0.00    -0.248 NA
ATOM     56  C   UNL A   1      42.009  30.809  29.157  1.00  0.00     0.031 C 
ATOM     57  C   UNL A   1      47.971  30.666  28.019  1.00  0.00     0.029 A 
ATOM     58  C   UNL A   1      46.648  30.292  28.195  1.00  0.00     0.049 A 
ATOM     59  H   UNL A   1      45.772  28.380  28.014  1.00  0.00     0.167 HD
ATOM     60  C   UNL A   1      44.249  30.679  28.684  1.00  0.00     0.074 A 
ATOM     61  C   UNL A   1      43.126  31.517  29.049  1.00  0.00     0.031 C 
ATOM     62  C   UNL A   1      45.525  31.120  28.557  1.00  0.00     0.037 A 
BRANCH  49  63
ATOM     63  C   UNL A   1      49.595  26.717  27.076  1.00  0.00     0.064 A 
ATOM     64  C   UNL A   1      50.094  26.738  25.765  1.00  0.00     0.173 A 
ATOM     65  C   UNL A   1      50.498  26.453  28.116  1.00  0.00     0.173 A 
ATOM     66  F   UNL A   1      49.272  26.981  24.732  1.00  0.00    -0.203 F 
ATOM     67  C   UNL A   1      51.441  26.493  25.506  1.00  0.00     0.198 A 
ATOM     68  C   UNL A   1      51.849  26.238  27.857  1.00  0.00     0.198 A 
ATOM     69  F   UNL A   1      50.076  26.431  29.390  1.00  0.00    -0.203 F 
ATOM     70  F   UNL A   1      51.888  26.489  24.242  1.00  0.00    -0.200 F 
ATOM     71  C   UNL A   1      52.319  26.254  26.552  1.00  0.00     0.200 A 
ATOM     72  F   UNL A   1      52.700  26.026  28.871  1.00  0.00    -0.200 F 
ATOM     73  F   UNL A   1      53.618  26.040  26.303  1.00  0.00    -0.200 F 
ENDBRANCH  49  63
BRANCH  50  74
ATOM     74  C   UNL A   1      39.991  28.684  28.957  1.00  0.00     0.064 A 
ATOM     75  C   UNL A   1      39.165  29.156  27.928  1.00  0.00     0.173 A 
ATOM     76  C   UNL A   1      39.413  28.484  30.219  1.00  0.00     0.173 A 
ATOM     77  F   UNL A   1      39.676  29.380  26.709  1.00  0.00    -0.203 F 
ATOM     78  C   UNL A   1      37.817  29.425  28.154  1.00  0.00     0.198 A 
ATOM     79  C   UNL A   1      38.058  28.723  30.435  1.00  0.00     0.198 A 
ATOM     80  F   UNL A   1      40.160  28.030  31.236  1.00  0.00    -0.203 F 
ATOM     81  F   UNL A   1      37.057  29.909  27.161  1.00  0.00    -0.200 F 
ATOM     82  C   UNL A   1      37.262  29.200  29.405  1.00  0.00     0.200 A 
ATOM     83  F   UNL A   1      37.523  28.488  31.641  1.00  0.00    -0.200 F 
ATOM     84  F   UNL A   1      35.962  29.445  29.618  1.00  0.00    -0.200 F 
ENDBRANCH  50  74
BRANCH  62  85
ATOM     85  C   UNL A   1      45.786  32.580  28.803  1.00  0.00     0.064 A 
ATOM     86  C   UNL A   1      46.176  33.054  30.065  1.00  0.00     0.173 A 
ATOM     87  C   UNL A   1      45.719  33.503  27.749  1.00  0.00     0.173 A 
ATOM     88  F   UNL A   1      46.242  32.215  31.110  1.00  0.00    -0.203 F 
ATOM     89  C   UNL A   1      46.475  34.399  30.264  1.00  0.00     0.198 A 
ATOM     90  C   UNL A   1      46.051  34.842  27.944  1.00  0.00     0.198 A 
ATOM     91  F   UNL A   1      45.358  33.103  26.520  1.00  0.00    -0.203 F 
ATOM     92  F   UNL A   1      46.809  34.835  31.487  1.00  0.00    -0.200 F 
ATOM     93  C   UNL A   1      46.424  35.289  29.202  1.00  0.00     0.200 A 
ATOM     94  F   UNL A   1      46.019  35.696  26.912  1.00  0.00    -0.200 F 
ATOM     95  F   UNL A   1      46.732  36.579  29.391  1.00  0.00    -0.200 F 
ENDBRANCH  62  85
ENDBRANCH  36  37
ENDBRANCH  29  31
ENDBRANCH  28  29
ENDBRANCH  27  28
ENDBRANCH   1  27
TORSDOF 16
ENDMDL
MODEL 3
REMARK VINA RESULT:     -12.1      4.285      9.804
REMARK SMILES CC(C)(C)c1cc2c(cc1Cl)C=C(C(=O)OCCOCCOC(=O)c1ccc(-c3c4nc(c(-c5c(F)c(F)c(F)c(F)c5F)c5ccc([nH]5)c(-c5c(F)c(F)c(F)c(F)c5F)c5nc(c(-c6c(F)c(F)c(F)c(F)c6F)c6ccc3[nH]6)C=C5)C=C4)cc1)[C@@H](C(F)(F)F)O2
REMARK SMILES IDX 20 1 19 2 18 3 17 4 16 5 14 6 15 7 13 8 5 9 6 10 10 11 7 12
REMARK SMILES IDX 9 13 11 14 8 15 93 16 12 17 88 18 2 19 1 20 3 21 4 22 89 23
REMARK SMILES IDX 90 24 91 25 92 26 21 27 22 28 23 29 24 30 25 31 26 32 87 33
REMARK SMILES IDX 27 34 86 35 28 36 29 37 30 38 80 39 31 40 85 41 79 42 81 43
REMARK SMILES IDX 32 44 84 45 78 46 77 47 33 49 65 50 45 51 64 52 46 53 49 54
REMARK SMILES IDX 63 55 82 56 47 57 48 58 62 60 83 61 50 62 34 63 35 64 43 65
REMARK SMILES IDX 36 66 37 67 41 68 44 69 38 70 39 71 42 72 40 73 66 74 67 75
REMARK SMILES IDX 75 76 68 77 69 78 73 79 76 80 70 81 71 82 74 83 72 84 51 85
REMARK SMILES IDX 52 86 60 87 53 88 54 89 58 90 61 91 55 92 56 93 59 94 57 95
REMARK H PARENT 81 48 49 59
REMARK Flexibility Score: inf
ROOT
ATOM      1  C   UNL A   1      35.702  20.235  25.001  1.00  0.00     0.202 C 
ENDROOT
BRANCH   1   2
ATOM      2  O   UNL A   1      34.675  21.222  24.915  1.00  0.00    -0.374 OA
BRANCH   2   3
ATOM      3  C   UNL A   1      34.016  21.631  26.109  1.00  0.00     0.202 C 
BRANCH   3   4
ATOM      4  C   UNL A   1      34.537  22.880  26.827  1.00  0.00     0.261 C 
BRANCH   4   5
ATOM      5  O   UNL A   1      33.953  24.087  26.314  1.00  0.00    -0.460 OA
BRANCH   5   6
ATOM      6  C   UNL A   1      34.636  24.633  25.279  1.00  0.00     0.338 C 
ATOM      7  O   UNL A   1      35.757  24.331  24.901  1.00  0.00    -0.246 OA
BRANCH   6   8
ATOM      8  C   UNL A   1      33.775  25.585  24.555  1.00  0.00     0.087 C 
ATOM      9  C   UNL A   1      30.469  29.288  23.637  1.00  0.00    -0.020 A 
ATOM     10  C   UNL A   1      30.927  28.138  22.940  1.00  0.00     0.053 A 
ATOM     11  C   UNL A   1      31.225  29.659  24.770  1.00  0.00     0.045 A 
ATOM     12  C   UNL A   1      31.963  27.329  23.415  1.00  0.00     0.128 A 
ATOM     13  C   UNL A   1      32.262  28.841  25.249  1.00  0.00     0.032 A 
ATOM     14  Cl  UNL A   1      31.028  31.128  25.658  1.00  0.00    -0.084 Cl
ATOM     15  C   UNL A   1      32.600  27.657  24.599  1.00  0.00     0.019 A 
ATOM     16  O   UNL A   1      32.281  26.233  22.663  1.00  0.00    -0.475 OA
ATOM     17  C   UNL A   1      33.562  26.748  25.184  1.00  0.00     0.027 C 
ATOM     18  C   UNL A   1      33.166  25.223  23.230  1.00  0.00     0.316 C 
BRANCH   9  19
ATOM     19  C   UNL A   1      29.221  30.027  23.092  1.00  0.00    -0.012 C 
ATOM     20  C   UNL A   1      28.795  31.292  23.876  1.00  0.00     0.016 C 
ATOM     21  C   UNL A   1      27.960  29.115  23.126  1.00  0.00     0.016 C 
ATOM     22  C   UNL A   1      29.495  30.426  21.631  1.00  0.00     0.016 C 
ENDBRANCH   9  19
BRANCH  18  23
ATOM     23  C   UNL A   1      32.408  23.888  23.272  1.00  0.00     0.430 C 
ATOM     24  F   UNL A   1      31.403  23.867  22.364  1.00  0.00    -0.167 F 
ATOM     25  F   UNL A   1      33.215  22.842  22.976  1.00  0.00    -0.167 F 
ATOM     26  F   UNL A   1      31.864  23.652  24.487  1.00  0.00    -0.167 F 
ENDBRANCH  18  23
ENDBRANCH   6   8
ENDBRANCH   5   6
ENDBRANCH   4   5
ENDBRANCH   3   4
ENDBRANCH   2   3
ENDBRANCH   1   2
BRANCH   1  27
ATOM     27  C   UNL A   1      37.155  20.663  24.754  1.00  0.00     0.261 C 
BRANCH  27  28
ATOM     28  O   UNL A   1      37.653  21.571  25.752  1.00  0.00    -0.460 OA
BRANCH  28  29
ATOM     29  C   UNL A   1      38.940  21.357  26.126  1.00  0.00     0.338 C 
ATOM     30  O   UNL A   1      39.612  20.356  25.934  1.00  0.00    -0.246 OA
BRANCH  29  31
ATOM     31  C   UNL A   1      39.509  22.615  26.640  1.00  0.00     0.060 A 
ATOM     32  C   UNL A   1      40.533  22.607  27.586  1.00  0.00     0.016 A 
ATOM     33  C   UNL A   1      39.023  23.825  26.124  1.00  0.00     0.016 A 
ATOM     34  C   UNL A   1      41.088  23.820  28.001  1.00  0.00     0.010 A 
ATOM     35  C   UNL A   1      39.577  25.034  26.539  1.00  0.00     0.010 A 
ATOM     36  C   UNL A   1      40.627  25.040  27.468  1.00  0.00    -0.014 A 
BRANCH  36  37
ATOM     37  C   UNL A   1      41.328  26.306  27.798  1.00  0.00     0.031 A 
ATOM     38  C   UNL A   1      42.740  26.553  27.365  1.00  0.00     0.074 A 
ATOM     39  C   UNL A   1      40.664  27.237  28.509  1.00  0.00     0.049 A 
ATOM     40  N   UNL A   1      43.465  27.635  27.509  1.00  0.00    -0.248 NA
ATOM     41  C   UNL A   1      43.435  25.447  26.692  1.00  0.00     0.031 C 
ATOM     42  C   UNL A   1      39.301  27.087  29.017  1.00  0.00     0.029 A 
ATOM     43  N   UNL A   1      41.037  28.493  28.915  1.00  0.00    -0.354 N 
ATOM     44  C   UNL A   1      44.691  27.350  26.924  1.00  0.00     0.074 A 
ATOM     45  C   UNL A   1      44.632  25.975  26.474  1.00  0.00     0.031 C 
ATOM     46  C   UNL A   1      38.937  28.222  29.634  1.00  0.00     0.029 A 
ATOM     47  C   UNL A   1      40.050  29.165  29.593  1.00  0.00     0.049 A 
ATOM     48  H   UNL A   1      41.927  28.876  28.738  1.00  0.00     0.167 HD
ATOM     49  C   UNL A   1      45.754  28.174  26.758  1.00  0.00     0.037 A 
ATOM     50  C   UNL A   1      40.040  30.405  30.118  1.00  0.00     0.037 A 
ATOM     51  C   UNL A   1      45.808  29.537  27.223  1.00  0.00     0.049 A 
ATOM     52  C   UNL A   1      41.255  31.278  29.965  1.00  0.00     0.074 A 
ATOM     53  C   UNL A   1      46.831  30.458  27.070  1.00  0.00     0.029 A 
ATOM     54  N   UNL A   1      44.806  30.172  27.942  1.00  0.00    -0.354 N 
ATOM     55  N   UNL A   1      42.379  31.028  29.338  1.00  0.00    -0.248 NA
ATOM     56  C   UNL A   1      41.199  32.609  30.588  1.00  0.00     0.031 C 
ATOM     57  C   UNL A   1      46.474  31.628  27.746  1.00  0.00     0.029 A 
ATOM     58  C   UNL A   1      45.201  31.461  28.269  1.00  0.00     0.049 A 
ATOM     59  H   UNL A   1      43.943  29.768  28.186  1.00  0.00     0.167 HD
ATOM     60  C   UNL A   1      43.153  32.172  29.470  1.00  0.00     0.074 A 
ATOM     61  C   UNL A   1      42.363  33.127  30.219  1.00  0.00     0.031 C 
ATOM     62  C   UNL A   1      44.409  32.406  29.014  1.00  0.00     0.037 A 
BRANCH  49  63
ATOM     63  C   UNL A   1      46.952  27.636  26.028  1.00  0.00     0.064 A 
ATOM     64  C   UNL A   1      47.052  27.720  24.631  1.00  0.00     0.173 A 
ATOM     65  C   UNL A   1      48.050  27.118  26.732  1.00  0.00     0.173 A 
ATOM     66  F   UNL A   1      46.029  28.203  23.908  1.00  0.00    -0.203 F 
ATOM     67  C   UNL A   1      48.199  27.293  23.966  1.00  0.00     0.198 A 
ATOM     68  C   UNL A   1      49.206  26.719  26.068  1.00  0.00     0.198 A 
ATOM     69  F   UNL A   1      48.012  27.025  28.070  1.00  0.00    -0.203 F 
ATOM     70  F   UNL A   1      48.258  27.355  22.628  1.00  0.00    -0.200 F 
ATOM     71  C   UNL A   1      49.279  26.803  24.685  1.00  0.00     0.200 A 
ATOM     72  F   UNL A   1      50.256  26.264  26.765  1.00  0.00    -0.200 F 
ATOM     73  F   UNL A   1      50.389  26.412  24.046  1.00  0.00    -0.200 F 
ENDBRANCH  49  63
BRANCH  50  74
ATOM     74  C   UNL A   1      38.818  30.903  30.803  1.00  0.00     0.064 A 
ATOM     75  C   UNL A   1      38.671  30.780  32.191  1.00  0.00     0.173 A 
ATOM     76  C   UNL A   1      37.785  31.530  30.090  1.00  0.00     0.173 A 
ATOM     77  F   UNL A   1      39.623  30.170  32.913  1.00  0.00    -0.203 F 
ATOM     78  C   UNL A   1      37.534  31.256  32.839  1.00  0.00     0.198 A 
ATOM     79  C   UNL A   1      36.664  32.035  30.743  1.00  0.00     0.198 A 
ATOM     80  F   UNL A   1      37.880  31.677  28.760  1.00  0.00    -0.203 F 
ATOM     81  F   UNL A   1      37.402  31.093  34.163  1.00  0.00    -0.200 F 
ATOM     82  C   UNL A   1      36.535  31.892  32.116  1.00  0.00     0.200 A 
ATOM     83  F   UNL A   1      35.710  32.664  30.043  1.00  0.00    -0.200 F 
ATOM     84  F   UNL A   1      35.448  32.363  32.742  1.00  0.00    -0.200 F 
ENDBRANCH  50  74
BRANCH  62  85
ATOM     85  C   UNL A   1      45.015  33.752  29.299  1.00  0.00     0.064 A 
ATOM     86  C   UNL A   1      44.832  34.839  28.432  1.00  0.00     0.173 A 
ATOM     87  C   UNL A   1      45.722  33.977  30.491  1.00  0.00     0.173 A 
ATOM     88  F   UNL A   1      44.176  34.674  27.273  1.00  0.00    -0.203 F 
ATOM     89  C   UNL A   1      45.347  36.095  28.738  1.00  0.00     0.198 A 
ATOM     90  C   UNL A   1      46.207  35.243  30.810  1.00  0.00     0.198 A 
ATOM     91  F   UNL A   1      45.920  32.974  31.361  1.00  0.00    -0.203 F 
ATOM     92  F   UNL A   1      45.193  37.109  27.875  1.00  0.00    -0.200 F 
ATOM     93  C   UNL A   1      46.023  36.299  29.932  1.00  0.00     0.200 A 
ATOM     94  F   UNL A   1      46.843  35.441  31.973  1.00  0.00    -0.200 F 
ATOM     95  F   UNL A   1      46.500  37.514  30.234  1.00  0.00    -0.200 F 
ENDBRANCH  62  85
ENDBRANCH  36  37
ENDBRANCH  29  31
ENDBRANCH  28  29
ENDBRANCH  27  28
ENDBRANCH   1  27
TORSDOF 16
ENDMDL
