MODEL 1
REMARK VINA RESULT:     -10.5      0.000      0.000
REMARK SMILES C#CCN(CC(=O)OCCOCCOC(=O)c1ccc(-c2c3nc(c(-c4c(F)c(F)c(F)c(F)c4F)c4ccc([nH]4)c(-c4c(F)c(F)c(F)c(F)c4F)c4nc(c(-c5c(F)c(F)c(F)c(F)c5F)c5ccc2[nH]5)C=C4)C=C3)cc1)S(=O)(=O)c1ccc(C(C)(C)C)cc1
REMARK SMILES IDX 10 1 9 2 8 3 6 4 7 5 5 6 4 7 3 8 2 9 1 10 80 11 81 12 82 13
REMARK SMILES IDX 83 14 84 15 92 16 85 17 91 18 86 19 87 20 88 21 89 22 90 23
REMARK SMILES IDX 11 24 12 25 13 26 14 27 15 28 16 29 17 30 18 31 79 32 19 33
REMARK SMILES IDX 78 34 20 35 21 36 22 37 72 38 23 39 77 40 71 41 73 42 24 43
REMARK SMILES IDX 76 44 70 45 69 46 25 48 57 49 37 50 56 51 38 52 41 53 55 54
REMARK SMILES IDX 74 55 39 56 40 57 54 59 75 60 42 61 26 62 27 63 35 64 28 65
REMARK SMILES IDX 29 66 33 67 36 68 30 69 31 70 34 71 32 72 58 73 59 74 67 75
REMARK SMILES IDX 60 76 61 77 65 78 68 79 62 80 63 81 66 82 64 83 43 84 44 85
REMARK SMILES IDX 52 86 45 87 46 88 50 89 53 90 47 91 48 92 51 93 49 94
REMARK H PARENT 73 47 41 58
REMARK Flexibility Score: inf
ROOT
ATOM      1  C   UNL A   1      37.294  21.360  24.560  1.00  0.00     0.202 C 
ENDROOT
BRANCH   1   2
ATOM      2  C   UNL A   1      35.851  21.858  24.418  1.00  0.00     0.261 C 
BRANCH   2   3
ATOM      3  O   UNL A   1      35.800  23.279  24.625  1.00  0.00    -0.462 OA
BRANCH   3   4
ATOM      4  C   UNL A   1      35.122  23.710  25.723  1.00  0.00     0.321 C 
ATOM      5  O   UNL A   1      35.181  23.178  26.825  1.00  0.00    -0.251 OA
BRANCH   4   6
ATOM      6  C   UNL A   1      34.352  24.995  25.469  1.00  0.00     0.226 C 
BRANCH   6   7
ATOM      7  N   UNL A   1      32.861  24.921  25.578  1.00  0.00    -0.175 NA
BRANCH   7   8
ATOM      8  C   UNL A   1      32.338  26.208  26.190  1.00  0.00     0.192 C 
BRANCH   8   9
ATOM      9  C   UNL A   1      32.920  27.460  25.554  1.00  0.00    -0.090 C 
ATOM     10  C   UNL A   1      33.419  28.534  25.008  1.00  0.00     0.005 C 
ENDBRANCH   8   9
ENDBRANCH   7   8
BRANCH   7  11
ATOM     11  S   UNL A   1      32.038  24.458  24.147  1.00  0.00     0.244 S 
ATOM     12  O   UNL A   1      30.663  24.908  24.249  1.00  0.00    -0.207 OA
ATOM     13  O   UNL A   1      32.880  24.854  23.037  1.00  0.00    -0.207 OA
BRANCH  11  14
ATOM     14  C   UNL A   1      31.941  22.683  24.106  1.00  0.00     0.082 A 
ATOM     15  C   UNL A   1      32.059  21.986  25.306  1.00  0.00     0.022 A 
ATOM     16  C   UNL A   1      32.067  22.007  22.889  1.00  0.00     0.022 A 
ATOM     17  C   UNL A   1      32.329  20.619  25.288  1.00  0.00     0.005 A 
ATOM     18  C   UNL A   1      32.350  20.637  22.879  1.00  0.00     0.005 A 
ATOM     19  C   UNL A   1      32.525  19.923  24.078  1.00  0.00    -0.043 A 
BRANCH  19  20
ATOM     20  C   UNL A   1      33.002  18.461  24.117  1.00  0.00    -0.013 C 
ATOM     21  C   UNL A   1      32.708  17.798  22.750  1.00  0.00     0.016 C 
ATOM     22  C   UNL A   1      34.519  18.415  24.391  1.00  0.00     0.016 C 
ATOM     23  C   UNL A   1      32.307  17.597  25.192  1.00  0.00     0.016 C 
ENDBRANCH  19  20
ENDBRANCH  11  14
ENDBRANCH   7  11
ENDBRANCH   6   7
ENDBRANCH   4   6
ENDBRANCH   3   4
ENDBRANCH   2   3
ENDBRANCH   1   2
BRANCH   1  24
ATOM     24  O   UNL A   1      38.156  22.167  25.365  1.00  0.00    -0.374 OA
BRANCH  24  25
ATOM     25  C   UNL A   1      39.198  21.519  26.093  1.00  0.00     0.202 C 
BRANCH  25  26
ATOM     26  C   UNL A   1      39.550  20.088  25.672  1.00  0.00     0.261 C 
BRANCH  26  27
ATOM     27  O   UNL A   1      40.419  19.416  26.600  1.00  0.00    -0.460 OA
BRANCH  27  28
ATOM     28  C   UNL A   1      41.703  19.308  26.184  1.00  0.00     0.338 C 
ATOM     29  O   UNL A   1      42.215  18.386  25.570  1.00  0.00    -0.246 OA
BRANCH  28  30
ATOM     30  C   UNL A   1      42.439  20.553  26.450  1.00  0.00     0.060 A 
ATOM     31  C   UNL A   1      42.444  21.035  27.765  1.00  0.00     0.016 A 
ATOM     32  C   UNL A   1      42.969  21.317  25.409  1.00  0.00     0.016 A 
ATOM     33  C   UNL A   1      42.933  22.312  28.037  1.00  0.00     0.010 A 
ATOM     34  C   UNL A   1      43.455  22.600  25.683  1.00  0.00     0.010 A 
ATOM     35  C   UNL A   1      43.401  23.119  26.991  1.00  0.00    -0.014 A 
BRANCH  35  36
ATOM     36  C   UNL A   1      43.689  24.553  27.247  1.00  0.00     0.031 A 
ATOM     37  C   UNL A   1      45.079  25.076  27.001  1.00  0.00     0.074 A 
ATOM     38  C   UNL A   1      42.717  25.390  27.651  1.00  0.00     0.049 A 
ATOM     39  N   UNL A   1      45.562  26.279  27.194  1.00  0.00    -0.248 NA
ATOM     40  C   UNL A   1      46.054  24.117  26.457  1.00  0.00     0.031 C 
ATOM     41  C   UNL A   1      41.321  25.018  27.867  1.00  0.00     0.029 A 
ATOM     42  N   UNL A   1      42.762  26.728  27.954  1.00  0.00    -0.354 N 
ATOM     43  C   UNL A   1      46.893  26.219  26.798  1.00  0.00     0.074 A 
ATOM     44  C   UNL A   1      47.150  24.858  26.380  1.00  0.00     0.031 C 
ATOM     45  C   UNL A   1      40.640  26.102  28.278  1.00  0.00     0.029 A 
ATOM     46  C   UNL A   1      41.560  27.234  28.386  1.00  0.00     0.049 A 
ATOM     47  H   UNL A   1      43.577  27.273  27.869  1.00  0.00     0.167 HD
ATOM     48  C   UNL A   1      47.813  27.213  26.776  1.00  0.00     0.037 A 
ATOM     49  C   UNL A   1      41.247  28.465  28.837  1.00  0.00     0.037 A 
ATOM     50  C   UNL A   1      47.559  28.566  27.196  1.00  0.00     0.049 A 
ATOM     51  C   UNL A   1      42.315  29.528  28.887  1.00  0.00     0.074 A 
ATOM     52  C   UNL A   1      48.431  29.640  27.227  1.00  0.00     0.029 A 
ATOM     53  N   UNL A   1      46.337  29.030  27.658  1.00  0.00    -0.354 N 
ATOM     54  N   UNL A   1      43.568  29.464  28.509  1.00  0.00    -0.248 NA
ATOM     55  C   UNL A   1      41.919  30.839  29.426  1.00  0.00     0.031 C 
ATOM     56  C   UNL A   1      47.749  30.745  27.746  1.00  0.00     0.029 A 
ATOM     57  C   UNL A   1      46.437  30.372  27.990  1.00  0.00     0.049 A 
ATOM     58  H   UNL A   1      45.520  28.488  27.738  1.00  0.00     0.167 HD
ATOM     59  C   UNL A   1      44.098  30.730  28.726  1.00  0.00     0.074 A 
ATOM     60  C   UNL A   1      43.030  31.544  29.265  1.00  0.00     0.031 C 
ATOM     61  C   UNL A   1      45.357  31.178  28.496  1.00  0.00     0.037 A 
BRANCH  48  62
ATOM     62  C   UNL A   1      49.193  26.871  26.298  1.00  0.00     0.064 A 
ATOM     63  C   UNL A   1      49.579  27.075  24.965  1.00  0.00     0.173 A 
ATOM     64  C   UNL A   1      50.156  26.379  27.193  1.00  0.00     0.173 A 
ATOM     65  F   UNL A   1      48.692  27.532  24.068  1.00  0.00    -0.203 F 
ATOM     66  C   UNL A   1      50.873  26.782  24.541  1.00  0.00     0.198 A 
ATOM     67  C   UNL A   1      51.455  26.113  26.771  1.00  0.00     0.198 A 
ATOM     68  F   UNL A   1      49.839  26.172  28.480  1.00  0.00    -0.203 F 
ATOM     69  F   UNL A   1      51.209  26.952  23.254  1.00  0.00    -0.200 F 
ATOM     70  C   UNL A   1      51.811  26.309  25.446  1.00  0.00     0.200 A 
ATOM     71  F   UNL A   1      52.365  25.668  27.650  1.00  0.00    -0.200 F 
ATOM     72  F   UNL A   1      53.059  26.039  25.039  1.00  0.00    -0.200 F 
ENDBRANCH  48  62
BRANCH  49  73
ATOM     73  C   UNL A   1      39.865  28.763  29.295  1.00  0.00     0.064 A 
ATOM     74  C   UNL A   1      39.465  28.490  30.611  1.00  0.00     0.173 A 
ATOM     75  C   UNL A   1      38.907  29.293  28.419  1.00  0.00     0.173 A 
ATOM     76  F   UNL A   1      40.338  27.958  31.479  1.00  0.00    -0.203 F 
ATOM     77  C   UNL A   1      38.153  28.712  31.024  1.00  0.00     0.198 A 
ATOM     78  C   UNL A   1      37.604  29.542  28.842  1.00  0.00     0.198 A 
ATOM     79  F   UNL A   1      39.238  29.570  27.149  1.00  0.00    -0.203 F 
ATOM     80  F   UNL A   1      37.783  28.390  32.272  1.00  0.00    -0.200 F 
ATOM     81  C   UNL A   1      37.224  29.242  30.141  1.00  0.00     0.200 A 
ATOM     82  F   UNL A   1      36.712  30.064  27.988  1.00  0.00    -0.200 F 
ATOM     83  F   UNL A   1      35.962  29.453  30.539  1.00  0.00    -0.200 F 
ENDBRANCH  49  73
BRANCH  61  84
ATOM     84  C   UNL A   1      45.638  32.627  28.762  1.00  0.00     0.064 A 
ATOM     85  C   UNL A   1      45.434  33.612  27.785  1.00  0.00     0.173 A 
ATOM     86  C   UNL A   1      46.067  33.040  30.033  1.00  0.00     0.173 A 
ATOM     87  F   UNL A   1      45.039  33.266  26.551  1.00  0.00    -0.203 F 
ATOM     88  C   UNL A   1      45.667  34.956  28.066  1.00  0.00     0.198 A 
ATOM     89  C   UNL A   1      46.272  34.387  30.318  1.00  0.00     0.198 A 
ATOM     90  F   UNL A   1      46.270  32.138  31.004  1.00  0.00    -0.203 F 
ATOM     91  F   UNL A   1      45.504  35.876  27.106  1.00  0.00    -0.200 F 
ATOM     92  C   UNL A   1      46.078  35.343  29.333  1.00  0.00     0.200 A 
ATOM     93  F   UNL A   1      46.656  34.759  31.547  1.00  0.00    -0.200 F 
ATOM     94  F   UNL A   1      46.291  36.638  29.604  1.00  0.00    -0.200 F 
ENDBRANCH  61  84
ENDBRANCH  35  36
ENDBRANCH  28  30
ENDBRANCH  27  28
ENDBRANCH  26  27
ENDBRANCH  25  26
ENDBRANCH  24  25
ENDBRANCH   1  24
TORSDOF 20
ENDMDL
MODEL 2
REMARK VINA RESULT:     -10.4      1.728      3.615
REMARK SMILES C#CCN(CC(=O)OCCOCCOC(=O)c1ccc(-c2c3nc(c(-c4c(F)c(F)c(F)c(F)c4F)c4ccc([nH]4)c(-c4c(F)c(F)c(F)c(F)c4F)c4nc(c(-c5c(F)c(F)c(F)c(F)c5F)c5ccc2[nH]5)C=C4)C=C3)cc1)S(=O)(=O)c1ccc(C(C)(C)C)cc1
REMARK SMILES IDX 10 1 9 2 8 3 6 4 7 5 5 6 4 7 3 8 2 9 1 10 80 11 81 12 82 13
REMARK SMILES IDX 83 14 84 15 92 16 85 17 91 18 86 19 87 20 88 21 89 22 90 23
REMARK SMILES IDX 11 24 12 25 13 26 14 27 15 28 16 29 17 30 18 31 79 32 19 33
REMARK SMILES IDX 78 34 20 35 21 36 22 37 72 38 23 39 77 40 71 41 73 42 24 43
REMARK SMILES IDX 76 44 70 45 69 46 25 48 57 49 37 50 56 51 38 52 41 53 55 54
REMARK SMILES IDX 74 55 39 56 40 57 54 59 75 60 42 61 26 62 27 63 35 64 28 65
REMARK SMILES IDX 29 66 33 67 36 68 30 69 31 70 34 71 32 72 58 73 59 74 67 75
REMARK SMILES IDX 60 76 61 77 65 78 68 79 62 80 63 81 66 82 64 83 43 84 44 85
REMARK SMILES IDX 52 86 45 87 46 88 50 89 53 90 47 91 48 92 51 93 49 94
REMARK H PARENT 73 47 41 58
REMARK Flexibility Score: inf
ROOT
ATOM      1  C   UNL A   1      35.340  20.518  24.971  1.00  0.00     0.202 C 
ENDROOT
BRANCH   1   2
ATOM      2  C   UNL A   1      34.178  19.531  24.806  1.00  0.00     0.261 C 
BRANCH   2   3
ATOM      3  O   UNL A   1      32.925  20.218  24.954  1.00  0.00    -0.462 OA
BRANCH   3   4
ATOM      4  C   UNL A   1      32.503  20.949  23.888  1.00  0.00     0.321 C 
ATOM      5  O   UNL A   1      32.157  20.470  22.814  1.00  0.00    -0.251 OA
BRANCH   4   6
ATOM      6  C   UNL A   1      32.405  22.433  24.197  1.00  0.00     0.226 C 
BRANCH   6   7
ATOM      7  N   UNL A   1      32.136  23.347  23.042  1.00  0.00    -0.175 NA
BRANCH   7   8
ATOM      8  C   UNL A   1      30.899  24.175  23.335  1.00  0.00     0.192 C 
BRANCH   8   9
ATOM      9  C   UNL A   1      30.694  24.454  24.815  1.00  0.00    -0.090 C 
ATOM     10  C   UNL A   1      30.518  24.694  26.084  1.00  0.00     0.005 C 
ENDBRANCH   8   9
ENDBRANCH   7   8
BRANCH   7  11
ATOM     11  S   UNL A   1      33.474  24.278  22.511  1.00  0.00     0.244 S 
ATOM     12  O   UNL A   1      34.684  23.520  22.766  1.00  0.00    -0.207 OA
ATOM     13  O   UNL A   1      33.148  24.753  21.182  1.00  0.00    -0.207 OA
BRANCH  11  14
ATOM     14  C   UNL A   1      33.603  25.717  23.549  1.00  0.00     0.082 A 
ATOM     15  C   UNL A   1      34.027  25.546  24.866  1.00  0.00     0.022 A 
ATOM     16  C   UNL A   1      32.996  26.913  23.159  1.00  0.00     0.022 A 
ATOM     17  C   UNL A   1      33.820  26.563  25.795  1.00  0.00     0.005 A 
ATOM     18  C   UNL A   1      32.780  27.925  24.101  1.00  0.00     0.005 A 
ATOM     19  C   UNL A   1      33.153  27.755  25.447  1.00  0.00    -0.043 A 
BRANCH  19  20
ATOM     20  C   UNL A   1      32.785  28.764  26.549  1.00  0.00    -0.013 C 
ATOM     21  C   UNL A   1      34.075  29.197  27.286  1.00  0.00     0.016 C 
ATOM     22  C   UNL A   1      32.115  30.002  25.920  1.00  0.00     0.016 C 
ATOM     23  C   UNL A   1      31.823  28.207  27.621  1.00  0.00     0.016 C 
ENDBRANCH  19  20
ENDBRANCH  11  14
ENDBRANCH   7  11
ENDBRANCH   6   7
ENDBRANCH   4   6
ENDBRANCH   3   4
ENDBRANCH   2   3
ENDBRANCH   1   2
BRANCH   1  24
ATOM     24  O   UNL A   1      36.647  19.941  25.005  1.00  0.00    -0.374 OA
BRANCH  24  25
ATOM     25  C   UNL A   1      37.771  20.821  24.970  1.00  0.00     0.202 C 
BRANCH  25  26
ATOM     26  C   UNL A   1      38.775  20.708  26.123  1.00  0.00     0.261 C 
BRANCH  26  27
ATOM     27  O   UNL A   1      39.986  20.023  25.761  1.00  0.00    -0.460 OA
BRANCH  27  28
ATOM     28  C   UNL A   1      41.013  20.212  26.622  1.00  0.00     0.338 C 
ATOM     29  O   UNL A   1      41.875  19.411  26.946  1.00  0.00    -0.246 OA
BRANCH  28  30
ATOM     30  C   UNL A   1      41.067  21.615  27.061  1.00  0.00     0.060 A 
ATOM     31  C   UNL A   1      40.671  22.596  26.144  1.00  0.00     0.016 A 
ATOM     32  C   UNL A   1      41.647  21.970  28.280  1.00  0.00     0.016 A 
ATOM     33  C   UNL A   1      40.904  23.942  26.420  1.00  0.00     0.010 A 
ATOM     34  C   UNL A   1      41.885  23.322  28.553  1.00  0.00     0.010 A 
ATOM     35  C   UNL A   1      41.552  24.311  27.607  1.00  0.00    -0.014 A 
BRANCH  35  36
ATOM     36  C   UNL A   1      42.015  25.711  27.784  1.00  0.00     0.031 A 
ATOM     37  C   UNL A   1      43.357  26.113  27.234  1.00  0.00     0.074 A 
ATOM     38  C   UNL A   1      41.233  26.624  28.385  1.00  0.00     0.049 A 
ATOM     39  N   UNL A   1      43.975  27.266  27.308  1.00  0.00    -0.248 NA
ATOM     40  C   UNL A   1      44.100  25.079  26.496  1.00  0.00     0.031 C 
ATOM     41  C   UNL A   1      39.891  26.374  28.906  1.00  0.00     0.029 A 
ATOM     42  N   UNL A   1      41.461  27.949  28.662  1.00  0.00    -0.354 N 
ATOM     43  C   UNL A   1      45.176  27.095  26.630  1.00  0.00     0.074 A 
ATOM     44  C   UNL A   1      45.214  25.722  26.175  1.00  0.00     0.031 C 
ATOM     45  C   UNL A   1      39.415  27.509  29.448  1.00  0.00     0.029 A 
ATOM     46  C   UNL A   1      40.433  28.553  29.344  1.00  0.00     0.049 A 
ATOM     47  H   UNL A   1      42.283  28.422  28.396  1.00  0.00     0.167 HD
ATOM     48  C   UNL A   1      46.153  28.004  26.399  1.00  0.00     0.037 A 
ATOM     49  C   UNL A   1      40.337  29.801  29.844  1.00  0.00     0.037 A 
ATOM     50  C   UNL A   1      46.118  29.369  26.855  1.00  0.00     0.049 A 
ATOM     51  C   UNL A   1      41.479  30.766  29.651  1.00  0.00     0.074 A 
ATOM     52  C   UNL A   1      47.067  30.361  26.686  1.00  0.00     0.029 A 
ATOM     53  N   UNL A   1      45.073  29.932  27.571  1.00  0.00    -0.354 N 
ATOM     54  N   UNL A   1      42.608  30.597  29.008  1.00  0.00    -0.248 NA
ATOM     55  C   UNL A   1      41.329  32.099  30.254  1.00  0.00     0.031 C 
ATOM     56  C   UNL A   1      46.616  31.515  27.335  1.00  0.00     0.029 A 
ATOM     57  C   UNL A   1      45.362  31.256  27.864  1.00  0.00     0.049 A 
ATOM     58  H   UNL A   1      44.249  29.463  27.833  1.00  0.00     0.167 HD
ATOM     59  C   UNL A   1      43.283  31.808  29.094  1.00  0.00     0.074 A 
ATOM     60  C   UNL A   1      42.436  32.707  29.848  1.00  0.00     0.031 C 
ATOM     61  C   UNL A   1      44.495  32.147  28.589  1.00  0.00     0.037 A 
BRANCH  48  62
ATOM     62  C   UNL A   1      47.359  27.548  25.632  1.00  0.00     0.064 A 
ATOM     63  C   UNL A   1      47.440  27.696  24.239  1.00  0.00     0.173 A 
ATOM     64  C   UNL A   1      48.465  27.003  26.301  1.00  0.00     0.173 A 
ATOM     65  F   UNL A   1      46.405  28.202  23.553  1.00  0.00    -0.203 F 
ATOM     66  C   UNL A   1      48.578  27.297  23.543  1.00  0.00     0.198 A 
ATOM     67  C   UNL A   1      49.610  26.629  25.605  1.00  0.00     0.198 A 
ATOM     68  F   UNL A   1      48.439  26.846  27.633  1.00  0.00    -0.203 F 
ATOM     69  F   UNL A   1      48.621  27.415  22.208  1.00  0.00    -0.200 F 
ATOM     70  C   UNL A   1      49.664  26.772  24.226  1.00  0.00     0.200 A 
ATOM     71  F   UNL A   1      50.665  26.133  26.268  1.00  0.00    -0.200 F 
ATOM     72  F   UNL A   1      50.763  26.399  23.556  1.00  0.00    -0.200 F 
ENDBRANCH  48  62
BRANCH  49  73
ATOM     73  C   UNL A   1      39.121  30.214  30.593  1.00  0.00     0.064 A 
ATOM     74  C   UNL A   1      39.028  30.027  31.980  1.00  0.00     0.173 A 
ATOM     75  C   UNL A   1      38.014  30.768  29.934  1.00  0.00     0.173 A 
ATOM     76  F   UNL A   1      40.050  29.476  32.651  1.00  0.00    -0.203 F 
ATOM     77  C   UNL A   1      37.865  30.357  32.673  1.00  0.00     0.198 A 
ATOM     78  C   UNL A   1      36.864  31.125  30.633  1.00  0.00     0.198 A 
ATOM     79  F   UNL A   1      38.051  30.965  28.608  1.00  0.00    -0.203 F 
ATOM     80  F   UNL A   1      37.783  30.118  33.989  1.00  0.00    -0.200 F 
ATOM     81  C   UNL A   1      36.785  30.910  32.000  1.00  0.00     0.200 A 
ATOM     82  F   UNL A   1      35.827  31.668  29.980  1.00  0.00    -0.200 F 
ATOM     83  F   UNL A   1      35.667  31.225  32.667  1.00  0.00    -0.200 F 
ENDBRANCH  49  73
BRANCH  61  84
ATOM     84  C   UNL A   1      44.954  33.563  28.777  1.00  0.00     0.064 A 
ATOM     85  C   UNL A   1      44.643  34.571  27.854  1.00  0.00     0.173 A 
ATOM     86  C   UNL A   1      45.672  33.924  29.929  1.00  0.00     0.173 A 
ATOM     87  F   UNL A   1      43.973  34.273  26.731  1.00  0.00    -0.203 F 
ATOM     88  C   UNL A   1      45.050  35.885  28.067  1.00  0.00     0.198 A 
ATOM     89  C   UNL A   1      46.053  35.244  30.151  1.00  0.00     0.198 A 
ATOM     90  F   UNL A   1      45.988  32.998  30.846  1.00  0.00    -0.203 F 
ATOM     91  F   UNL A   1      44.776  36.825  27.152  1.00  0.00    -0.200 F 
ATOM     92  C   UNL A   1      45.747  36.222  29.218  1.00  0.00     0.200 A 
ATOM     93  F   UNL A   1      46.714  35.569  31.271  1.00  0.00    -0.200 F 
ATOM     94  F   UNL A   1      46.127  37.490  29.426  1.00  0.00    -0.200 F 
ENDBRANCH  61  84
ENDBRANCH  35  36
ENDBRANCH  28  30
ENDBRANCH  27  28
ENDBRANCH  26  27
ENDBRANCH  25  26
ENDBRANCH  24  25
ENDBRANCH   1  24
TORSDOF 20
ENDMDL
MODEL 3
REMARK VINA RESULT:     -10.4      4.752      7.513
REMARK SMILES C#CCN(CC(=O)OCCOCCOC(=O)c1ccc(-c2c3nc(c(-c4c(F)c(F)c(F)c(F)c4F)c4ccc([nH]4)c(-c4c(F)c(F)c(F)c(F)c4F)c4nc(c(-c5c(F)c(F)c(F)c(F)c5F)c5ccc2[nH]5)C=C4)C=C3)cc1)S(=O)(=O)c1ccc(C(C)(C)C)cc1
REMARK SMILES IDX 10 1 9 2 8 3 6 4 7 5 5 6 4 7 3 8 2 9 1 10 80 11 81 12 82 13
REMARK SMILES IDX 83 14 84 15 92 16 85 17 91 18 86 19 87 20 88 21 89 22 90 23
REMARK SMILES IDX 11 24 12 25 13 26 14 27 15 28 16 29 17 30 18 31 79 32 19 33
REMARK SMILES IDX 78 34 20 35 21 36 22 37 72 38 23 39 77 40 71 41 73 42 24 43
REMARK SMILES IDX 76 44 70 45 69 46 25 48 57 49 37 50 56 51 38 52 41 53 55 54
REMARK SMILES IDX 74 55 39 56 40 57 54 59 75 60 42 61 26 62 27 63 35 64 28 65
REMARK SMILES IDX 29 66 33 67 36 68 30 69 31 70 34 71 32 72 58 73 59 74 67 75
REMARK SMILES IDX 60 76 61 77 65 78 68 79 62 80 63 81 66 82 64 83 43 84 44 85
REMARK SMILES IDX 52 86 45 87 46 88 50 89 53 90 47 91 48 92 51 93 49 94
REMARK H PARENT 73 47 41 58
REMARK Flexibility Score: inf
ROOT
ATOM      1  C   UNL A   1      41.252  21.545  27.200  1.00  0.00     0.202 C 
ENDROOT
BRANCH   1   2
ATOM      2  C   UNL A   1      40.409  20.478  26.494  1.00  0.00     0.261 C 
BRANCH   2   3
ATOM      3  O   UNL A   1      39.162  21.044  26.060  1.00  0.00    -0.462 OA
BRANCH   3   4
ATOM      4  C   UNL A   1      38.385  20.265  25.261  1.00  0.00     0.321 C 
ATOM      5  O   UNL A   1      38.617  19.089  25.004  1.00  0.00    -0.251 OA
BRANCH   4   6
ATOM      6  C   UNL A   1      37.127  20.977  24.792  1.00  0.00     0.226 C 
BRANCH   6   7
ATOM      7  N   UNL A   1      36.657  22.131  25.621  1.00  0.00    -0.175 NA
BRANCH   7   8
ATOM      8  C   UNL A   1      37.402  23.385  25.204  1.00  0.00     0.192 C 
BRANCH   8   9
ATOM      9  C   UNL A   1      38.042  24.124  26.369  1.00  0.00    -0.090 C 
ATOM     10  C   UNL A   1      38.591  24.757  27.367  1.00  0.00     0.005 C 
ENDBRANCH   8   9
ENDBRANCH   7   8
BRANCH   7  11
ATOM     11  S   UNL A   1      34.956  22.339  25.700  1.00  0.00     0.244 S 
ATOM     12  O   UNL A   1      34.337  21.323  24.870  1.00  0.00    -0.207 OA
ATOM     13  O   UNL A   1      34.619  22.476  27.101  1.00  0.00    -0.207 OA
BRANCH  11  14
ATOM     14  C   UNL A   1      34.544  23.884  24.922  1.00  0.00     0.082 A 
ATOM     15  C   UNL A   1      34.167  24.952  25.732  1.00  0.00     0.022 A 
ATOM     16  C   UNL A   1      34.296  23.926  23.548  1.00  0.00     0.022 A 
ATOM     17  C   UNL A   1      33.519  26.051  25.170  1.00  0.00     0.005 A 
ATOM     18  C   UNL A   1      33.635  25.027  22.992  1.00  0.00     0.005 A 
ATOM     19  C   UNL A   1      33.198  26.094  23.798  1.00  0.00    -0.043 A 
BRANCH  19  20
ATOM     20  C   UNL A   1      32.321  27.240  23.264  1.00  0.00    -0.013 C 
ATOM     21  C   UNL A   1      31.572  26.754  22.001  1.00  0.00     0.016 C 
ATOM     22  C   UNL A   1      31.297  27.657  24.338  1.00  0.00     0.016 C 
ATOM     23  C   UNL A   1      33.111  28.504  22.857  1.00  0.00     0.016 C 
ENDBRANCH  19  20
ENDBRANCH  11  14
ENDBRANCH   7  11
ENDBRANCH   6   7
ENDBRANCH   4   6
ENDBRANCH   3   4
ENDBRANCH   2   3
ENDBRANCH   1   2
BRANCH   1  24
ATOM     24  O   UNL A   1      42.668  21.414  27.059  1.00  0.00    -0.374 OA
BRANCH  24  25
ATOM     25  C   UNL A   1      43.191  21.128  25.761  1.00  0.00     0.202 C 
BRANCH  25  26
ATOM     26  C   UNL A   1      44.114  22.183  25.139  1.00  0.00     0.261 C 
BRANCH  26  27
ATOM     27  O   UNL A   1      43.429  23.387  24.757  1.00  0.00    -0.460 OA
BRANCH  27  28
ATOM     28  C   UNL A   1      44.093  24.527  25.061  1.00  0.00     0.338 C 
ATOM     29  O   UNL A   1      45.168  24.906  24.624  1.00  0.00    -0.246 OA
BRANCH  28  30
ATOM     30  C   UNL A   1      43.274  25.385  25.930  1.00  0.00     0.060 A 
ATOM     31  C   UNL A   1      43.667  26.721  26.079  1.00  0.00     0.016 A 
ATOM     32  C   UNL A   1      42.245  24.853  26.709  1.00  0.00     0.016 A 
ATOM     33  C   UNL A   1      43.066  27.519  27.051  1.00  0.00     0.010 A 
ATOM     34  C   UNL A   1      41.647  25.655  27.688  1.00  0.00     0.010 A 
ATOM     35  C   UNL A   1      42.083  26.979  27.891  1.00  0.00    -0.014 A 
BRANCH  35  36
ATOM     36  C   UNL A   1      41.625  27.752  29.073  1.00  0.00     0.031 A 
ATOM     37  C   UNL A   1      42.389  27.635  30.365  1.00  0.00     0.074 A 
ATOM     38  C   UNL A   1      40.570  28.581  28.988  1.00  0.00     0.049 A 
ATOM     39  N   UNL A   1      42.146  28.186  31.528  1.00  0.00    -0.248 NA
ATOM     40  C   UNL A   1      43.593  26.789  30.340  1.00  0.00     0.031 C 
ATOM     41  C   UNL A   1      39.785  28.826  27.781  1.00  0.00     0.029 A 
ATOM     42  N   UNL A   1      39.977  29.369  29.943  1.00  0.00    -0.354 N 
ATOM     43  C   UNL A   1      43.162  27.753  32.371  1.00  0.00     0.074 A 
ATOM     44  C   UNL A   1      44.010  26.873  31.595  1.00  0.00     0.031 C 
ATOM     45  C   UNL A   1      38.805  29.700  28.068  1.00  0.00     0.029 A 
ATOM     46  C   UNL A   1      38.873  30.048  29.487  1.00  0.00     0.049 A 
ATOM     47  H   UNL A   1      40.311  29.442  30.866  1.00  0.00     0.167 HD
ATOM     48  C   UNL A   1      43.375  28.070  33.671  1.00  0.00     0.037 A 
ATOM     49  C   UNL A   1      38.006  30.841  30.147  1.00  0.00     0.037 A 
ATOM     50  C   UNL A   1      42.530  28.941  34.444  1.00  0.00     0.049 A 
ATOM     51  C   UNL A   1      38.216  31.104  31.617  1.00  0.00     0.074 A 
ATOM     52  C   UNL A   1      42.653  29.309  35.773  1.00  0.00     0.029 A 
ATOM     53  N   UNL A   1      41.403  29.583  33.954  1.00  0.00    -0.354 N 
ATOM     54  N   UNL A   1      39.179  30.693  32.404  1.00  0.00    -0.248 NA
ATOM     55  C   UNL A   1      37.214  31.946  32.288  1.00  0.00     0.031 C 
ATOM     56  C   UNL A   1      41.577  30.142  36.098  1.00  0.00     0.029 A 
ATOM     57  C   UNL A   1      40.814  30.333  34.959  1.00  0.00     0.049 A 
ATOM     58  H   UNL A   1      41.071  29.516  33.030  1.00  0.00     0.167 HD
ATOM     59  C   UNL A   1      38.924  31.256  33.648  1.00  0.00     0.074 A 
ATOM     60  C   UNL A   1      37.716  32.041  33.512  1.00  0.00     0.031 C 
ATOM     61  C   UNL A   1      39.629  31.135  34.800  1.00  0.00     0.037 A 
BRANCH  48  62
ATOM     62  C   UNL A   1      44.562  27.453  34.351  1.00  0.00     0.064 A 
ATOM     63  C   UNL A   1      45.806  28.102  34.385  1.00  0.00     0.173 A 
ATOM     64  C   UNL A   1      44.443  26.224  35.017  1.00  0.00     0.173 A 
ATOM     65  F   UNL A   1      45.973  29.274  33.754  1.00  0.00    -0.203 F 
ATOM     66  C   UNL A   1      46.891  27.533  35.046  1.00  0.00     0.198 A 
ATOM     67  C   UNL A   1      45.523  25.672  35.699  1.00  0.00     0.198 A 
ATOM     68  F   UNL A   1      43.274  25.567  35.018  1.00  0.00    -0.203 F 
ATOM     69  F   UNL A   1      48.080  28.154  35.036  1.00  0.00    -0.200 F 
ATOM     70  C   UNL A   1      46.747  26.324  35.708  1.00  0.00     0.200 A 
ATOM     71  F   UNL A   1      45.379  24.508  36.349  1.00  0.00    -0.200 F 
ATOM     72  F   UNL A   1      47.790  25.783  36.354  1.00  0.00    -0.200 F 
ENDBRANCH  48  62
BRANCH  49  73
ATOM     73  C   UNL A   1      36.847  31.437  29.434  1.00  0.00     0.064 A 
ATOM     74  C   UNL A   1      35.762  30.645  29.029  1.00  0.00     0.173 A 
ATOM     75  C   UNL A   1      36.815  32.801  29.109  1.00  0.00     0.173 A 
ATOM     76  F   UNL A   1      35.758  29.331  29.293  1.00  0.00    -0.203 F 
ATOM     77  C   UNL A   1      34.704  31.191  28.306  1.00  0.00     0.198 A 
ATOM     78  C   UNL A   1      35.742  33.351  28.412  1.00  0.00     0.198 A 
ATOM     79  F   UNL A   1      37.829  33.601  29.470  1.00  0.00    -0.203 F 
ATOM     80  F   UNL A   1      33.706  30.401  27.885  1.00  0.00    -0.200 F 
ATOM     81  C   UNL A   1      34.691  32.544  28.002  1.00  0.00     0.200 A 
ATOM     82  F   UNL A   1      35.730  34.661  28.129  1.00  0.00    -0.200 F 
ATOM     83  F   UNL A   1      33.674  33.068  27.305  1.00  0.00    -0.200 F 
ENDBRANCH  49  73
BRANCH  61  84
ATOM     84  C   UNL A   1      39.155  31.917  35.989  1.00  0.00     0.064 A 
ATOM     85  C   UNL A   1      39.579  33.232  36.228  1.00  0.00     0.173 A 
ATOM     86  C   UNL A   1      38.219  31.357  36.874  1.00  0.00     0.173 A 
ATOM     87  F   UNL A   1      40.483  33.805  35.420  1.00  0.00    -0.203 F 
ATOM     88  C   UNL A   1      39.098  33.951  37.319  1.00  0.00     0.198 A 
ATOM     89  C   UNL A   1      37.720  32.089  37.947  1.00  0.00     0.198 A 
ATOM     90  F   UNL A   1      37.777  30.105  36.685  1.00  0.00    -0.203 F 
ATOM     91  F   UNL A   1      39.547  35.192  37.550  1.00  0.00    -0.200 F 
ATOM     92  C   UNL A   1      38.164  33.383  38.172  1.00  0.00     0.200 A 
ATOM     93  F   UNL A   1      36.808  31.542  38.763  1.00  0.00    -0.200 F 
ATOM     94  F   UNL A   1      37.695  34.081  39.215  1.00  0.00    -0.200 F 
ENDBRANCH  61  84
ENDBRANCH  35  36
ENDBRANCH  28  30
ENDBRANCH  27  28
ENDBRANCH  26  27
ENDBRANCH  25  26
ENDBRANCH  24  25
ENDBRANCH   1  24
TORSDOF 20
ENDMDL
