MODEL 1
REMARK VINA RESULT:     -12.3      0.000      0.000
REMARK SMILES Cc1ccc(C(=O)OCCOCCOC(=O)c2ccc(-c3c4nc(c(-c5c(F)c(F)c(F)c(F)c5F)c5ccc([nH]5)c(-c5c(F)c(F)c(F)c(F)c5F)c5nc(c(-c6c(F)c(F)c(F)c(F)c6F)c6ccc3[nH]6)C=C5)C=C4)cc2)cc1NC(=O)c1ccc(Br)o1
REMARK SMILES IDX 11 1 10 2 9 3 8 4 6 5 7 6 5 7 1 8 2 9 3 10 81 11 4 12 80 13
REMARK SMILES IDX 82 14 83 15 84 17 85 18 86 19 90 20 87 21 88 22 89 23 12 24
REMARK SMILES IDX 13 25 14 26 15 27 16 28 17 29 18 30 79 31 19 32 78 33 20 34
REMARK SMILES IDX 21 35 22 36 72 37 23 38 77 39 71 40 73 41 24 42 76 43 70 44
REMARK SMILES IDX 69 45 25 47 57 48 37 49 56 50 38 51 41 52 55 53 74 54 39 55
REMARK SMILES IDX 40 56 54 58 75 59 42 60 26 61 27 62 35 63 28 64 29 65 33 66
REMARK SMILES IDX 36 67 30 68 31 69 34 70 32 71 58 72 59 73 67 74 60 75 61 76
REMARK SMILES IDX 65 77 68 78 62 79 63 80 66 81 64 82 43 83 44 84 52 85 45 86
REMARK SMILES IDX 46 87 50 88 53 89 47 90 48 91 51 92 49 93
REMARK H PARENT 82 16 73 46 41 57
REMARK Flexibility Score: inf
ROOT
ATOM      1  O   UNL A   1      42.098  19.542  27.218  1.00  0.00    -0.374 OA
ENDROOT
BRANCH   1   2
ATOM      2  C   UNL A   1      40.892  20.260  27.410  1.00  0.00     0.202 C 
BRANCH   2   3
ATOM      3  C   UNL A   1      40.548  20.845  26.080  1.00  0.00     0.261 C 
BRANCH   3   4
ATOM      4  O   UNL A   1      39.144  20.894  25.850  1.00  0.00    -0.460 OA
BRANCH   4   5
ATOM      5  C   UNL A   1      38.561  22.125  25.924  1.00  0.00     0.338 C 
ATOM      6  O   UNL A   1      39.066  23.159  26.299  1.00  0.00    -0.246 OA
BRANCH   5   7
ATOM      7  C   UNL A   1      37.167  21.967  25.436  1.00  0.00     0.062 A 
ATOM      8  C   UNL A   1      33.254  21.492  23.742  1.00  0.00     0.046 C 
ATOM      9  C   UNL A   1      34.640  21.727  24.280  1.00  0.00    -0.027 A 
ATOM     10  C   UNL A   1      35.241  20.640  24.963  1.00  0.00     0.006 A 
ATOM     11  C   UNL A   1      35.319  22.958  24.194  1.00  0.00     0.045 A 
ATOM     12  C   UNL A   1      36.529  20.739  25.486  1.00  0.00     0.016 A 
ATOM     13  C   UNL A   1      36.493  23.075  24.909  1.00  0.00     0.042 A 
BRANCH  11  14
ATOM     14  N   UNL A   1      34.858  23.992  23.354  1.00  0.00    -0.319 N 
ATOM     15  C   UNL A   1      34.007  25.080  23.483  1.00  0.00     0.291 C 
ATOM     16  H   UNL A   1      35.235  23.924  22.447  1.00  0.00     0.170 HD
ATOM     17  O   UNL A   1      33.939  25.808  22.488  1.00  0.00    -0.265 OA
BRANCH  15  18
ATOM     18  C   UNL A   1      33.211  25.354  24.659  1.00  0.00     0.193 A 
ATOM     19  C   UNL A   1      32.519  24.576  25.573  1.00  0.00     0.057 A 
ATOM     20  O   UNL A   1      33.121  26.670  25.044  1.00  0.00    -0.444 OA
ATOM     21  C   UNL A   1      31.851  25.476  26.440  1.00  0.00     0.059 A 
ATOM     22  C   UNL A   1      32.296  26.732  26.119  1.00  0.00     0.170 A 
ATOM     23  Br  UNL A   1      31.819  28.299  27.007  1.00  0.00    -0.008 Br
ENDBRANCH  15  18
ENDBRANCH  11  14
ENDBRANCH   5   7
ENDBRANCH   4   5
ENDBRANCH   3   4
ENDBRANCH   2   3
ENDBRANCH   1   2
BRANCH   1  24
ATOM     24  C   UNL A   1      42.277  19.016  25.916  1.00  0.00     0.202 C 
BRANCH  24  25
ATOM     25  C   UNL A   1      43.754  18.877  25.517  1.00  0.00     0.261 C 
BRANCH  25  26
ATOM     26  O   UNL A   1      44.097  19.940  24.599  1.00  0.00    -0.460 OA
BRANCH  26  27
ATOM     27  C   UNL A   1      44.913  20.921  25.074  1.00  0.00     0.338 C 
ATOM     28  O   UNL A   1      46.060  20.764  25.460  1.00  0.00    -0.246 OA
BRANCH  27  29
ATOM     29  C   UNL A   1      44.110  22.149  25.359  1.00  0.00     0.060 A 
ATOM     30  C   UNL A   1      44.029  23.180  24.402  1.00  0.00     0.016 A 
ATOM     31  C   UNL A   1      43.754  22.410  26.679  1.00  0.00     0.016 A 
ATOM     32  C   UNL A   1      43.772  24.500  24.804  1.00  0.00     0.010 A 
ATOM     33  C   UNL A   1      43.621  23.723  27.080  1.00  0.00     0.010 A 
ATOM     34  C   UNL A   1      43.680  24.788  26.159  1.00  0.00    -0.014 A 
BRANCH  34  35
ATOM     35  C   UNL A   1      43.791  26.119  26.784  1.00  0.00     0.031 A 
ATOM     36  C   UNL A   1      42.527  26.865  27.015  1.00  0.00     0.074 A 
ATOM     37  C   UNL A   1      44.915  26.471  27.465  1.00  0.00     0.049 A 
ATOM     38  N   UNL A   1      42.445  28.009  27.596  1.00  0.00    -0.248 NA
ATOM     39  C   UNL A   1      41.220  26.383  26.563  1.00  0.00     0.031 C 
ATOM     40  C   UNL A   1      45.006  27.303  28.672  1.00  0.00     0.029 A 
ATOM     41  N   UNL A   1      46.262  26.122  27.244  1.00  0.00    -0.354 N 
ATOM     42  C   UNL A   1      41.123  28.228  27.915  1.00  0.00     0.074 A 
ATOM     43  C   UNL A   1      40.396  27.266  27.132  1.00  0.00     0.031 C 
ATOM     44  C   UNL A   1      46.290  27.635  28.904  1.00  0.00     0.029 A 
ATOM     45  C   UNL A   1      47.053  27.171  27.757  1.00  0.00     0.049 A 
ATOM     46  H   UNL A   1      46.591  25.300  26.812  1.00  0.00     0.167 HD
ATOM     47  C   UNL A   1      40.848  29.114  28.916  1.00  0.00     0.037 A 
ATOM     48  C   UNL A   1      47.883  27.903  26.964  1.00  0.00     0.037 A 
ATOM     49  C   UNL A   1      42.082  29.814  29.312  1.00  0.00     0.049 A 
ATOM     50  C   UNL A   1      47.453  29.328  27.066  1.00  0.00     0.074 A 
ATOM     51  C   UNL A   1      42.912  29.724  30.415  1.00  0.00     0.029 A 
ATOM     52  N   UNL A   1      42.791  30.531  28.347  1.00  0.00    -0.354 N 
ATOM     53  N   UNL A   1      46.204  29.653  27.255  1.00  0.00    -0.248 NA
ATOM     54  C   UNL A   1      48.366  30.461  27.118  1.00  0.00     0.031 C 
ATOM     55  C   UNL A   1      44.156  30.330  30.072  1.00  0.00     0.029 A 
ATOM     56  C   UNL A   1      44.074  30.814  28.773  1.00  0.00     0.049 A 
ATOM     57  H   UNL A   1      42.425  30.801  27.473  1.00  0.00     0.167 HD
ATOM     58  C   UNL A   1      46.150  30.971  27.568  1.00  0.00     0.074 A 
ATOM     59  C   UNL A   1      47.509  31.457  27.407  1.00  0.00     0.031 C 
ATOM     60  C   UNL A   1      44.995  31.579  27.942  1.00  0.00     0.037 A 
BRANCH  47  61
ATOM     61  C   UNL A   1      39.544  29.229  29.701  1.00  0.00     0.064 A 
ATOM     62  C   UNL A   1      38.426  29.871  29.116  1.00  0.00     0.173 A 
ATOM     63  C   UNL A   1      39.327  28.816  31.034  1.00  0.00     0.173 A 
ATOM     64  F   UNL A   1      38.451  30.297  27.846  1.00  0.00    -0.203 F 
ATOM     65  C   UNL A   1      37.232  30.110  29.811  1.00  0.00     0.198 A 
ATOM     66  C   UNL A   1      38.127  29.038  31.721  1.00  0.00     0.198 A 
ATOM     67  F   UNL A   1      40.254  28.189  31.755  1.00  0.00    -0.203 F 
ATOM     68  F   UNL A   1      36.227  30.759  29.204  1.00  0.00    -0.200 F 
ATOM     69  C   UNL A   1      37.083  29.695  31.116  1.00  0.00     0.200 A 
ATOM     70  F   UNL A   1      38.004  28.614  32.989  1.00  0.00    -0.200 F 
ATOM     71  F   UNL A   1      35.945  29.924  31.784  1.00  0.00    -0.200 F 
ENDBRANCH  47  61
BRANCH  48  72
ATOM     72  C   UNL A   1      48.302  27.145  25.748  1.00  0.00     0.064 A 
ATOM     73  C   UNL A   1      47.615  27.447  24.556  1.00  0.00     0.173 A 
ATOM     74  C   UNL A   1      49.603  26.641  25.627  1.00  0.00     0.173 A 
ATOM     75  F   UNL A   1      46.347  27.883  24.616  1.00  0.00    -0.203 F 
ATOM     76  C   UNL A   1      48.275  27.482  23.328  1.00  0.00     0.198 A 
ATOM     77  C   UNL A   1      50.246  26.631  24.384  1.00  0.00     0.198 A 
ATOM     78  F   UNL A   1      50.305  26.310  26.718  1.00  0.00    -0.203 F 
ATOM     79  F   UNL A   1      47.660  27.986  22.248  1.00  0.00    -0.200 F 
ATOM     80  C   UNL A   1      49.607  27.115  23.253  1.00  0.00     0.200 A 
ATOM     81  F   UNL A   1      51.536  26.274  24.304  1.00  0.00    -0.200 F 
ATOM     82  F   UNL A   1      50.287  27.288  22.110  1.00  0.00    -0.200 F 
ENDBRANCH  48  72
BRANCH  60  83
ATOM     83  C   UNL A   1      44.702  32.991  27.549  1.00  0.00     0.064 A 
ATOM     84  C   UNL A   1      44.027  33.315  26.356  1.00  0.00     0.173 A 
ATOM     85  C   UNL A   1      44.902  34.051  28.456  1.00  0.00     0.173 A 
ATOM     86  F   UNL A   1      43.650  32.374  25.480  1.00  0.00    -0.203 F 
ATOM     87  C   UNL A   1      43.660  34.620  26.052  1.00  0.00     0.198 A 
ATOM     88  C   UNL A   1      44.469  35.343  28.178  1.00  0.00     0.198 A 
ATOM     89  F   UNL A   1      45.481  33.855  29.649  1.00  0.00    -0.203 F 
ATOM     90  F   UNL A   1      43.068  34.883  24.880  1.00  0.00    -0.200 F 
ATOM     91  C   UNL A   1      43.870  35.632  26.968  1.00  0.00     0.200 A 
ATOM     92  F   UNL A   1      44.610  36.301  29.104  1.00  0.00    -0.200 F 
ATOM     93  F   UNL A   1      43.475  36.881  26.692  1.00  0.00    -0.200 F 
ENDBRANCH  60  83
ENDBRANCH  34  35
ENDBRANCH  27  29
ENDBRANCH  26  27
ENDBRANCH  25  26
ENDBRANCH  24  25
ENDBRANCH   1  24
TORSDOF 16
ENDMDL
MODEL 2
REMARK VINA RESULT:     -12.3      5.378     11.701
REMARK SMILES Cc1ccc(C(=O)OCCOCCOC(=O)c2ccc(-c3c4nc(c(-c5c(F)c(F)c(F)c(F)c5F)c5ccc([nH]5)c(-c5c(F)c(F)c(F)c(F)c5F)c5nc(c(-c6c(F)c(F)c(F)c(F)c6F)c6ccc3[nH]6)C=C5)C=C4)cc2)cc1NC(=O)c1ccc(Br)o1
REMARK SMILES IDX 11 1 10 2 9 3 8 4 6 5 7 6 5 7 1 8 2 9 3 10 81 11 4 12 80 13
REMARK SMILES IDX 82 14 83 15 84 17 85 18 86 19 90 20 87 21 88 22 89 23 12 24
REMARK SMILES IDX 13 25 14 26 15 27 16 28 17 29 18 30 79 31 19 32 78 33 20 34
REMARK SMILES IDX 21 35 22 36 72 37 23 38 77 39 71 40 73 41 24 42 76 43 70 44
REMARK SMILES IDX 69 45 25 47 57 48 37 49 56 50 38 51 41 52 55 53 74 54 39 55
REMARK SMILES IDX 40 56 54 58 75 59 42 60 26 61 27 62 35 63 28 64 29 65 33 66
REMARK SMILES IDX 36 67 30 68 31 69 34 70 32 71 58 72 59 73 67 74 60 75 61 76
REMARK SMILES IDX 65 77 68 78 62 79 63 80 66 81 64 82 43 83 44 84 52 85 45 86
REMARK SMILES IDX 46 87 50 88 53 89 47 90 48 91 51 92 49 93
REMARK H PARENT 82 16 73 46 41 57
REMARK Flexibility Score: inf
ROOT
ATOM      1  O   UNL A   1      33.098  33.905  29.059  1.00  0.00    -0.374 OA
ENDROOT
BRANCH   1   2
ATOM      2  C   UNL A   1      34.014  33.369  28.122  1.00  0.00     0.202 C 
BRANCH   2   3
ATOM      3  C   UNL A   1      34.035  31.896  28.368  1.00  0.00     0.261 C 
BRANCH   3   4
ATOM      4  O   UNL A   1      34.163  31.141  27.168  1.00  0.00    -0.460 OA
BRANCH   4   5
ATOM      5  C   UNL A   1      34.551  29.841  27.308  1.00  0.00     0.338 C 
ATOM      6  O   UNL A   1      35.573  29.426  27.805  1.00  0.00    -0.246 OA
BRANCH   5   7
ATOM      7  C   UNL A   1      33.461  29.008  26.740  1.00  0.00     0.062 A 
ATOM      8  C   UNL A   1      30.495  26.355  25.135  1.00  0.00     0.046 C 
ATOM      9  C   UNL A   1      31.593  27.254  25.638  1.00  0.00    -0.027 A 
ATOM     10  C   UNL A   1      31.434  27.766  26.949  1.00  0.00     0.006 A 
ATOM     11  C   UNL A   1      32.703  27.646  24.866  1.00  0.00     0.045 A 
ATOM     12  C   UNL A   1      32.398  28.592  27.525  1.00  0.00     0.016 A 
ATOM     13  C   UNL A   1      33.515  28.629  25.393  1.00  0.00     0.042 A 
BRANCH  11  14
ATOM     14  N   UNL A   1      33.013  27.006  23.648  1.00  0.00    -0.319 N 
ATOM     15  C   UNL A   1      33.661  25.840  23.268  1.00  0.00     0.291 C 
ATOM     16  H   UNL A   1      32.687  27.517  22.872  1.00  0.00     0.170 HD
ATOM     17  O   UNL A   1      33.642  25.606  22.055  1.00  0.00    -0.265 OA
BRANCH  15  18
ATOM     18  C   UNL A   1      34.354  24.960  24.182  1.00  0.00     0.193 A 
ATOM     19  C   UNL A   1      34.364  24.793  25.558  1.00  0.00     0.057 A 
ATOM     20  O   UNL A   1      35.170  24.010  23.617  1.00  0.00    -0.444 OA
ATOM     21  C   UNL A   1      35.353  23.817  25.835  1.00  0.00     0.059 A 
ATOM     22  C   UNL A   1      35.770  23.327  24.624  1.00  0.00     0.170 A 
ATOM     23  Br  UNL A   1      37.000  21.947  24.391  1.00  0.00    -0.008 Br
ENDBRANCH  15  18
ENDBRANCH  11  14
ENDBRANCH   5   7
ENDBRANCH   4   5
ENDBRANCH   3   4
ENDBRANCH   2   3
ENDBRANCH   1   2
BRANCH   1  24
ATOM     24  C   UNL A   1      33.106  35.317  29.159  1.00  0.00     0.202 C 
BRANCH  24  25
ATOM     25  C   UNL A   1      32.783  35.825  30.573  1.00  0.00     0.261 C 
BRANCH  25  26
ATOM     26  O   UNL A   1      34.005  36.266  31.207  1.00  0.00    -0.460 OA
BRANCH  26  27
ATOM     27  C   UNL A   1      34.320  35.689  32.400  1.00  0.00     0.338 C 
ATOM     28  O   UNL A   1      34.355  36.261  33.477  1.00  0.00    -0.246 OA
BRANCH  27  29
ATOM     29  C   UNL A   1      34.926  34.343  32.162  1.00  0.00     0.060 A 
ATOM     30  C   UNL A   1      34.802  33.330  33.133  1.00  0.00     0.016 A 
ATOM     31  C   UNL A   1      35.892  34.224  31.167  1.00  0.00     0.016 A 
ATOM     32  C   UNL A   1      35.756  32.302  33.210  1.00  0.00     0.010 A 
ATOM     33  C   UNL A   1      36.887  33.283  31.322  1.00  0.00     0.010 A 
ATOM     34  C   UNL A   1      36.863  32.344  32.373  1.00  0.00    -0.014 A 
BRANCH  34  35
ATOM     35  C   UNL A   1      38.125  31.601  32.546  1.00  0.00     0.031 A 
ATOM     36  C   UNL A   1      38.286  30.349  31.763  1.00  0.00     0.074 A 
ATOM     37  C   UNL A   1      39.221  32.215  33.071  1.00  0.00     0.049 A 
ATOM     38  N   UNL A   1      39.342  29.616  31.759  1.00  0.00    -0.248 NA
ATOM     39  C   UNL A   1      37.224  29.788  30.925  1.00  0.00     0.031 C 
ATOM     40  C   UNL A   1      40.627  31.997  32.705  1.00  0.00     0.029 A 
ATOM     41  N   UNL A   1      39.321  33.224  34.048  1.00  0.00    -0.354 N 
ATOM     42  C   UNL A   1      39.249  28.746  30.695  1.00  0.00     0.074 A 
ATOM     43  C   UNL A   1      37.867  28.798  30.304  1.00  0.00     0.031 C 
ATOM     44  C   UNL A   1      41.431  32.593  33.605  1.00  0.00     0.029 A 
ATOM     45  C   UNL A   1      40.573  33.070  34.678  1.00  0.00     0.049 A 
ATOM     46  H   UNL A   1      38.645  33.910  34.253  1.00  0.00     0.167 HD
ATOM     47  C   UNL A   1      40.407  28.209  30.210  1.00  0.00     0.037 A 
ATOM     48  C   UNL A   1      40.683  32.800  36.008  1.00  0.00     0.037 A 
ATOM     49  C   UNL A   1      41.525  28.548  31.106  1.00  0.00     0.049 A 
ATOM     50  C   UNL A   1      41.421  31.510  36.140  1.00  0.00     0.074 A 
ATOM     51  C   UNL A   1      42.584  29.433  31.009  1.00  0.00     0.029 A 
ATOM     52  N   UNL A   1      41.456  28.166  32.447  1.00  0.00    -0.354 N 
ATOM     53  N   UNL A   1      41.317  30.568  35.244  1.00  0.00    -0.248 NA
ATOM     54  C   UNL A   1      42.419  31.235  37.164  1.00  0.00     0.031 C 
ATOM     55  C   UNL A   1      43.101  29.636  32.322  1.00  0.00     0.029 A 
ATOM     56  C   UNL A   1      42.378  28.854  33.212  1.00  0.00     0.049 A 
ATOM     57  H   UNL A   1      40.831  27.494  32.803  1.00  0.00     0.167 HD
ATOM     58  C   UNL A   1      42.282  29.645  35.482  1.00  0.00     0.074 A 
ATOM     59  C   UNL A   1      42.905  30.059  36.727  1.00  0.00     0.031 C 
ATOM     60  C   UNL A   1      42.509  28.603  34.642  1.00  0.00     0.037 A 
BRANCH  47  61
ATOM     61  C   UNL A   1      40.609  27.561  28.843  1.00  0.00     0.064 A 
ATOM     62  C   UNL A   1      41.346  28.242  27.844  1.00  0.00     0.173 A 
ATOM     63  C   UNL A   1      40.061  26.336  28.405  1.00  0.00     0.173 A 
ATOM     64  F   UNL A   1      41.960  29.405  28.100  1.00  0.00    -0.203 F 
ATOM     65  C   UNL A   1      41.482  27.762  26.534  1.00  0.00     0.198 A 
ATOM     66  C   UNL A   1      40.214  25.847  27.101  1.00  0.00     0.198 A 
ATOM     67  F   UNL A   1      39.340  25.544  29.197  1.00  0.00    -0.203 F 
ATOM     68  F   UNL A   1      42.164  28.481  25.630  1.00  0.00    -0.200 F 
ATOM     69  C   UNL A   1      40.914  26.564  26.161  1.00  0.00     0.200 A 
ATOM     70  F   UNL A   1      39.658  24.671  26.768  1.00  0.00    -0.200 F 
ATOM     71  F   UNL A   1      41.040  26.104  24.910  1.00  0.00    -0.200 F 
ENDBRANCH  47  61
BRANCH  48  72
ATOM     72  C   UNL A   1      39.488  33.267  36.771  1.00  0.00     0.064 A 
ATOM     73  C   UNL A   1      38.540  32.282  37.112  1.00  0.00     0.173 A 
ATOM     74  C   UNL A   1      39.555  34.401  37.589  1.00  0.00     0.173 A 
ATOM     75  F   UNL A   1      38.401  31.200  36.330  1.00  0.00    -0.203 F 
ATOM     76  C   UNL A   1      37.875  32.311  38.338  1.00  0.00     0.198 A 
ATOM     77  C   UNL A   1      38.847  34.449  38.795  1.00  0.00     0.198 A 
ATOM     78  F   UNL A   1      40.416  35.388  37.309  1.00  0.00    -0.203 F 
ATOM     79  F   UNL A   1      37.151  31.254  38.735  1.00  0.00    -0.200 F 
ATOM     80  C   UNL A   1      38.065  33.376  39.199  1.00  0.00     0.200 A 
ATOM     81  F   UNL A   1      39.025  35.481  39.632  1.00  0.00    -0.200 F 
ATOM     82  F   UNL A   1      37.549  33.341  40.436  1.00  0.00    -0.200 F 
ENDBRANCH  48  72
BRANCH  60  83
ATOM     83  C   UNL A   1      42.917  27.264  35.166  1.00  0.00     0.064 A 
ATOM     84  C   UNL A   1      42.025  26.176  35.224  1.00  0.00     0.173 A 
ATOM     85  C   UNL A   1      44.270  26.971  35.427  1.00  0.00     0.173 A 
ATOM     86  F   UNL A   1      40.742  26.294  34.858  1.00  0.00    -0.203 F 
ATOM     87  C   UNL A   1      42.441  24.906  35.606  1.00  0.00     0.198 A 
ATOM     88  C   UNL A   1      44.693  25.684  35.739  1.00  0.00     0.198 A 
ATOM     89  F   UNL A   1      45.222  27.912  35.345  1.00  0.00    -0.203 F 
ATOM     90  F   UNL A   1      41.542  23.917  35.699  1.00  0.00    -0.200 F 
ATOM     91  C   UNL A   1      43.777  24.657  35.852  1.00  0.00     0.200 A 
ATOM     92  F   UNL A   1      46.001  25.438  35.902  1.00  0.00    -0.200 F 
ATOM     93  F   UNL A   1      44.182  23.423  36.175  1.00  0.00    -0.200 F 
ENDBRANCH  60  83
ENDBRANCH  34  35
ENDBRANCH  27  29
ENDBRANCH  26  27
ENDBRANCH  25  26
ENDBRANCH  24  25
ENDBRANCH   1  24
TORSDOF 16
ENDMDL
MODEL 3
REMARK VINA RESULT:     -11.9      4.117     10.018
REMARK SMILES Cc1ccc(C(=O)OCCOCCOC(=O)c2ccc(-c3c4nc(c(-c5c(F)c(F)c(F)c(F)c5F)c5ccc([nH]5)c(-c5c(F)c(F)c(F)c(F)c5F)c5nc(c(-c6c(F)c(F)c(F)c(F)c6F)c6ccc3[nH]6)C=C5)C=C4)cc2)cc1NC(=O)c1ccc(Br)o1
REMARK SMILES IDX 11 1 10 2 9 3 8 4 6 5 7 6 5 7 1 8 2 9 3 10 81 11 4 12 80 13
REMARK SMILES IDX 82 14 83 15 84 17 85 18 86 19 90 20 87 21 88 22 89 23 12 24
REMARK SMILES IDX 13 25 14 26 15 27 16 28 17 29 18 30 79 31 19 32 78 33 20 34
REMARK SMILES IDX 21 35 22 36 72 37 23 38 77 39 71 40 73 41 24 42 76 43 70 44
REMARK SMILES IDX 69 45 25 47 57 48 37 49 56 50 38 51 41 52 55 53 74 54 39 55
REMARK SMILES IDX 40 56 54 58 75 59 42 60 26 61 27 62 35 63 28 64 29 65 33 66
REMARK SMILES IDX 36 67 30 68 31 69 34 70 32 71 58 72 59 73 67 74 60 75 61 76
REMARK SMILES IDX 65 77 68 78 62 79 63 80 66 81 64 82 43 83 44 84 52 85 45 86
REMARK SMILES IDX 46 87 50 88 53 89 47 90 48 91 51 92 49 93
REMARK H PARENT 82 16 73 46 41 57
REMARK Flexibility Score: inf
ROOT
ATOM      1  O   UNL A   1      33.095  29.436  25.224  1.00  0.00    -0.374 OA
ENDROOT
BRANCH   1   2
ATOM      2  C   UNL A   1      31.747  29.330  24.803  1.00  0.00     0.202 C 
BRANCH   2   3
ATOM      3  C   UNL A   1      31.787  28.666  23.466  1.00  0.00     0.261 C 
BRANCH   3   4
ATOM      4  O   UNL A   1      31.633  27.253  23.551  1.00  0.00    -0.460 OA
BRANCH   4   5
ATOM      5  C   UNL A   1      32.768  26.510  23.409  1.00  0.00     0.338 C 
ATOM      6  O   UNL A   1      33.653  26.663  22.598  1.00  0.00    -0.246 OA
BRANCH   5   7
ATOM      7  C   UNL A   1      32.727  25.463  24.462  1.00  0.00     0.062 A 
ATOM      8  C   UNL A   1      32.848  22.578  27.635  1.00  0.00     0.046 C 
ATOM      9  C   UNL A   1      32.892  23.572  26.506  1.00  0.00    -0.027 A 
ATOM     10  C   UNL A   1      31.877  24.562  26.501  1.00  0.00     0.006 A 
ATOM     11  C   UNL A   1      33.827  23.528  25.454  1.00  0.00     0.045 A 
ATOM     12  C   UNL A   1      31.831  25.546  25.515  1.00  0.00     0.016 A 
ATOM     13  C   UNL A   1      33.614  24.382  24.392  1.00  0.00     0.042 A 
BRANCH  11  14
ATOM     14  N   UNL A   1      34.969  22.703  25.522  1.00  0.00    -0.319 N 
ATOM     15  C   UNL A   1      35.274  21.391  25.192  1.00  0.00     0.291 C 
ATOM     16  H   UNL A   1      35.743  23.179  25.900  1.00  0.00     0.170 HD
ATOM     17  O   UNL A   1      36.460  21.079  25.345  1.00  0.00    -0.265 OA
BRANCH  15  18
ATOM     18  C   UNL A   1      34.304  20.419  24.741  1.00  0.00     0.193 A 
ATOM     19  C   UNL A   1      32.982  20.478  24.326  1.00  0.00     0.057 A 
ATOM     20  O   UNL A   1      34.744  19.122  24.626  1.00  0.00    -0.444 OA
ATOM     21  C   UNL A   1      32.569  19.139  24.116  1.00  0.00     0.059 A 
ATOM     22  C   UNL A   1      33.688  18.358  24.250  1.00  0.00     0.170 A 
ATOM     23  Br  UNL A   1      33.749  16.514  23.984  1.00  0.00    -0.008 Br
ENDBRANCH  15  18
ENDBRANCH  11  14
ENDBRANCH   5   7
ENDBRANCH   4   5
ENDBRANCH   3   4
ENDBRANCH   2   3
ENDBRANCH   1   2
BRANCH   1  24
ATOM     24  C   UNL A   1      33.271  29.677  26.607  1.00  0.00     0.202 C 
BRANCH  24  25
ATOM     25  C   UNL A   1      33.378  31.170  26.953  1.00  0.00     0.261 C 
BRANCH  25  26
ATOM     26  O   UNL A   1      34.119  31.318  28.185  1.00  0.00    -0.460 OA
BRANCH  26  27
ATOM     27  C   UNL A   1      35.445  31.608  28.071  1.00  0.00     0.338 C 
ATOM     28  O   UNL A   1      35.908  32.646  27.626  1.00  0.00    -0.246 OA
BRANCH  27  29
ATOM     29  C   UNL A   1      36.250  30.364  28.265  1.00  0.00     0.060 A 
ATOM     30  C   UNL A   1      36.244  29.703  29.509  1.00  0.00     0.016 A 
ATOM     31  C   UNL A   1      37.255  30.081  27.345  1.00  0.00     0.016 A 
ATOM     32  C   UNL A   1      37.335  28.908  29.895  1.00  0.00     0.010 A 
ATOM     33  C   UNL A   1      38.373  29.398  27.776  1.00  0.00     0.010 A 
ATOM     34  C   UNL A   1      38.451  28.848  29.071  1.00  0.00    -0.014 A 
BRANCH  34  35
ATOM     35  C   UNL A   1      39.802  28.397  29.453  1.00  0.00     0.031 A 
ATOM     36  C   UNL A   1      40.195  27.022  29.049  1.00  0.00     0.074 A 
ATOM     37  C   UNL A   1      40.761  29.300  29.795  1.00  0.00     0.049 A 
ATOM     38  N   UNL A   1      41.351  26.498  29.256  1.00  0.00    -0.248 NA
ATOM     39  C   UNL A   1      39.278  26.089  28.392  1.00  0.00     0.031 C 
ATOM     40  C   UNL A   1      42.201  29.223  29.514  1.00  0.00     0.029 A 
ATOM     41  N   UNL A   1      40.653  30.539  30.455  1.00  0.00    -0.354 N 
ATOM     42  C   UNL A   1      41.449  25.368  28.474  1.00  0.00     0.074 A 
ATOM     43  C   UNL A   1      40.098  25.085  28.073  1.00  0.00     0.031 C 
ATOM     44  C   UNL A   1      42.855  30.164  30.220  1.00  0.00     0.029 A 
ATOM     45  C   UNL A   1      41.879  30.768  31.112  1.00  0.00     0.049 A 
ATOM     46  H   UNL A   1      39.869  31.135  30.457  1.00  0.00     0.167 HD
ATOM     47  C   UNL A   1      42.699  24.915  28.164  1.00  0.00     0.037 A 
ATOM     48  C   UNL A   1      41.960  30.893  32.466  1.00  0.00     0.037 A 
ATOM     49  C   UNL A   1      43.703  25.662  28.940  1.00  0.00     0.049 A 
ATOM     50  C   UNL A   1      42.881  29.826  32.955  1.00  0.00     0.074 A 
ATOM     51  C   UNL A   1      44.616  26.649  28.609  1.00  0.00     0.029 A 
ATOM     52  N   UNL A   1      43.625  25.654  30.333  1.00  0.00    -0.354 N 
ATOM     53  N   UNL A   1      42.971  28.671  32.355  1.00  0.00    -0.248 NA
ATOM     54  C   UNL A   1      43.855  30.006  34.023  1.00  0.00     0.031 C 
ATOM     55  C   UNL A   1      45.027  27.283  29.818  1.00  0.00     0.029 A 
ATOM     56  C   UNL A   1      44.388  26.665  30.885  1.00  0.00     0.049 A 
ATOM     57  H   UNL A   1      43.093  25.012  30.857  1.00  0.00     0.167 HD
ATOM     58  C   UNL A   1      44.053  28.018  32.846  1.00  0.00     0.074 A 
ATOM     59  C   UNL A   1      44.539  28.852  33.932  1.00  0.00     0.031 C 
ATOM     60  C   UNL A   1      44.482  26.838  32.329  1.00  0.00     0.037 A 
BRANCH  47  61
ATOM     61  C   UNL A   1      43.070  23.962  27.032  1.00  0.00     0.064 A 
ATOM     62  C   UNL A   1      42.700  22.597  27.113  1.00  0.00     0.173 A 
ATOM     63  C   UNL A   1      43.838  24.274  25.889  1.00  0.00     0.173 A 
ATOM     64  F   UNL A   1      41.944  22.137  28.118  1.00  0.00    -0.203 F 
ATOM     65  C   UNL A   1      43.097  21.641  26.168  1.00  0.00     0.198 A 
ATOM     66  C   UNL A   1      44.217  23.321  24.934  1.00  0.00     0.198 A 
ATOM     67  F   UNL A   1      44.277  25.503  25.629  1.00  0.00    -0.203 F 
ATOM     68  F   UNL A   1      42.742  20.358  26.330  1.00  0.00    -0.200 F 
ATOM     69  C   UNL A   1      43.858  22.003  25.078  1.00  0.00     0.200 A 
ATOM     70  F   UNL A   1      44.950  23.703  23.876  1.00  0.00    -0.200 F 
ATOM     71  F   UNL A   1      44.241  21.091  24.175  1.00  0.00    -0.200 F 
ENDBRANCH  47  61
BRANCH  48  72
ATOM     72  C   UNL A   1      40.670  31.349  33.061  1.00  0.00     0.064 A 
ATOM     73  C   UNL A   1      40.361  32.715  32.910  1.00  0.00     0.173 A 
ATOM     74  C   UNL A   1      39.597  30.464  33.218  1.00  0.00     0.173 A 
ATOM     75  F   UNL A   1      41.355  33.610  32.809  1.00  0.00    -0.203 F 
ATOM     76  C   UNL A   1      39.053  33.140  32.677  1.00  0.00     0.198 A 
ATOM     77  C   UNL A   1      38.281  30.904  33.033  1.00  0.00     0.198 A 
ATOM     78  F   UNL A   1      39.819  29.154  33.391  1.00  0.00    -0.203 F 
ATOM     79  F   UNL A   1      38.813  34.410  32.316  1.00  0.00    -0.200 F 
ATOM     80  C   UNL A   1      38.018  32.223  32.695  1.00  0.00     0.200 A 
ATOM     81  F   UNL A   1      37.274  30.019  33.052  1.00  0.00    -0.200 F 
ATOM     82  F   UNL A   1      36.783  32.596  32.327  1.00  0.00    -0.200 F 
ENDBRANCH  48  72
BRANCH  60  83
ATOM     83  C   UNL A   1      45.064  25.777  33.206  1.00  0.00     0.064 A 
ATOM     84  C   UNL A   1      46.441  25.481  33.215  1.00  0.00     0.173 A 
ATOM     85  C   UNL A   1      44.293  25.170  34.217  1.00  0.00     0.173 A 
ATOM     86  F   UNL A   1      47.303  26.103  32.399  1.00  0.00    -0.203 F 
ATOM     87  C   UNL A   1      46.991  24.573  34.113  1.00  0.00     0.198 A 
ATOM     88  C   UNL A   1      44.860  24.318  35.158  1.00  0.00     0.198 A 
ATOM     89  F   UNL A   1      42.982  25.421  34.347  1.00  0.00    -0.203 F 
ATOM     90  F   UNL A   1      48.297  24.285  34.044  1.00  0.00    -0.200 F 
ATOM     91  C   UNL A   1      46.203  24.001  35.091  1.00  0.00     0.200 A 
ATOM     92  F   UNL A   1      44.102  23.827  36.148  1.00  0.00    -0.200 F 
ATOM     93  F   UNL A   1      46.743  23.162  35.983  1.00  0.00    -0.200 F 
ENDBRANCH  60  83
ENDBRANCH  34  35
ENDBRANCH  27  29
ENDBRANCH  26  27
ENDBRANCH  25  26
ENDBRANCH  24  25
ENDBRANCH   1  24
TORSDOF 16
ENDMDL
