MODEL 1
REMARK VINA RESULT:     -11.2      0.000      0.000
REMARK SMILES CC[C@H](c1ccc(OC)cc1)[N@H+]1CC[C@H](C(=O)OCCOCCOC(=O)c2ccc(-c3c4nc(c(-c5c(F)c(F)c(F)c(F)c5F)c5ccc([nH]5)c(-c5c(F)c(F)c(F)c(F)c5F)c5nc(c(-c6c(F)c(F)c(F)c(F)c6F)c6ccc3[nH]6)C=C5)C=C4)cc2)[C@@H]1C
REMARK SMILES IDX 20 1 19 2 18 3 16 4 17 5 15 6 12 7 13 8 90 9 14 11 91 12
REMARK SMILES IDX 3 13 2 14 1 15 4 16 5 17 11 18 6 19 10 20 7 21 8 22 9 23
REMARK SMILES IDX 21 24 22 25 23 26 24 27 25 28 26 29 27 30 28 31 89 32 29 33
REMARK SMILES IDX 88 34 30 35 31 36 32 37 82 38 33 39 87 40 81 41 83 42 34 43
REMARK SMILES IDX 86 44 80 45 79 46 35 48 67 49 47 50 66 51 48 52 51 53 65 54
REMARK SMILES IDX 84 55 49 56 50 57 64 59 85 60 52 61 36 62 37 63 45 64 38 65
REMARK SMILES IDX 39 66 43 67 46 68 40 69 41 70 44 71 42 72 68 73 69 74 77 75
REMARK SMILES IDX 70 76 71 77 75 78 78 79 72 80 73 81 76 82 74 83 53 84 54 85
REMARK SMILES IDX 62 86 55 87 56 88 60 89 63 90 57 91 58 92 61 93 59 94
REMARK H PARENT 12 10 83 47 51 58
REMARK Flexibility Score: inf
ROOT
ATOM      1  C   UNL A   1      36.846  21.868  25.519  1.00  0.00     0.202 C 
ENDROOT
BRANCH   1   2
ATOM      2  C   UNL A   1      35.474  21.188  25.561  1.00  0.00     0.261 C 
BRANCH   2   3
ATOM      3  O   UNL A   1      34.416  22.137  25.327  1.00  0.00    -0.463 OA
BRANCH   3   4
ATOM      4  C   UNL A   1      33.823  22.671  26.434  1.00  0.00     0.315 C 
ATOM      5  O   UNL A   1      33.378  22.028  27.373  1.00  0.00    -0.252 OA
BRANCH   4   6
ATOM      6  C   UNL A   1      33.776  24.179  26.322  1.00  0.00     0.162 C 
ATOM      7  N   UNL A   1      32.425  25.655  24.963  1.00  0.00    -0.326 N 
ATOM      8  C   UNL A   1      33.483  25.087  24.126  1.00  0.00     0.264 C 
ATOM      9  C   UNL A   1      32.392  24.845  26.189  1.00  0.00     0.196 C 
ATOM     10  H   UNL A   1      31.524  25.582  24.492  1.00  0.00     0.348 HD
ATOM     11  C   UNL A   1      34.559  24.628  25.092  1.00  0.00     0.083 C 
ATOM     12  C   UNL A   1      31.127  23.991  26.093  1.00  0.00     0.076 C 
BRANCH   7  13
ATOM     13  C   UNL A   1      32.394  27.128  25.101  1.00  0.00     0.215 C 
BRANCH  13  14
ATOM     14  C   UNL A   1      32.619  27.660  26.538  1.00  0.00     0.067 C 
ATOM     15  C   UNL A   1      31.331  27.998  27.284  1.00  0.00     0.010 C 
ENDBRANCH  13  14
BRANCH  13  16
ATOM     16  C   UNL A   1      31.189  27.774  24.397  1.00  0.00     0.010 A 
ATOM     17  C   UNL A   1      30.072  27.023  23.995  1.00  0.00     0.014 A 
ATOM     18  C   UNL A   1      31.170  29.156  24.148  1.00  0.00     0.014 A 
ATOM     19  C   UNL A   1      28.984  27.625  23.362  1.00  0.00     0.047 A 
ATOM     20  C   UNL A   1      30.060  29.767  23.545  1.00  0.00     0.047 A 
ATOM     21  C   UNL A   1      28.961  29.002  23.156  1.00  0.00     0.118 A 
BRANCH  21  22
ATOM     22  O   UNL A   1      27.830  29.469  22.550  1.00  0.00    -0.497 OA
ATOM     23  C   UNL A   1      28.029  30.331  21.437  1.00  0.00     0.278 C 
ENDBRANCH  21  22
ENDBRANCH  13  16
ENDBRANCH   7  13
ENDBRANCH   4   6
ENDBRANCH   3   4
ENDBRANCH   2   3
ENDBRANCH   1   2
BRANCH   1  24
ATOM     24  O   UNL A   1      37.885  21.225  24.777  1.00  0.00    -0.374 OA
BRANCH  24  25
ATOM     25  C   UNL A   1      38.113  19.848  25.041  1.00  0.00     0.202 C 
BRANCH  25  26
ATOM     26  C   UNL A   1      39.471  19.419  25.614  1.00  0.00     0.261 C 
BRANCH  26  27
ATOM     27  O   UNL A   1      39.846  20.160  26.773  1.00  0.00    -0.460 OA
BRANCH  27  28
ATOM     28  C   UNL A   1      41.163  20.464  26.801  1.00  0.00     0.338 C 
ATOM     29  O   UNL A   1      42.101  19.792  26.399  1.00  0.00    -0.246 OA
BRANCH  28  30
ATOM     30  C   UNL A   1      41.313  21.851  27.251  1.00  0.00     0.060 A 
ATOM     31  C   UNL A   1      40.729  22.849  26.463  1.00  0.00     0.016 A 
ATOM     32  C   UNL A   1      42.040  22.166  28.401  1.00  0.00     0.016 A 
ATOM     33  C   UNL A   1      40.919  24.182  26.793  1.00  0.00     0.010 A 
ATOM     34  C   UNL A   1      42.238  23.506  28.727  1.00  0.00     0.010 A 
ATOM     35  C   UNL A   1      41.713  24.514  27.898  1.00  0.00    -0.014 A 
BRANCH  35  36
ATOM     36  C   UNL A   1      42.145  25.915  28.069  1.00  0.00     0.031 A 
ATOM     37  C   UNL A   1      43.461  26.333  27.478  1.00  0.00     0.074 A 
ATOM     38  C   UNL A   1      41.350  26.799  28.691  1.00  0.00     0.049 A 
ATOM     39  N   UNL A   1      44.044  27.502  27.489  1.00  0.00    -0.248 NA
ATOM     40  C   UNL A   1      44.224  25.285  26.781  1.00  0.00     0.031 C 
ATOM     41  C   UNL A   1      40.037  26.498  29.256  1.00  0.00     0.029 A 
ATOM     42  N   UNL A   1      41.532  28.132  28.943  1.00  0.00    -0.354 N 
ATOM     43  C   UNL A   1      45.241  27.330  26.806  1.00  0.00     0.074 A 
ATOM     44  C   UNL A   1      45.323  25.936  26.432  1.00  0.00     0.031 C 
ATOM     45  C   UNL A   1      39.524  27.621  29.787  1.00  0.00     0.029 A 
ATOM     46  C   UNL A   1      40.489  28.707  29.626  1.00  0.00     0.049 A 
ATOM     47  H   UNL A   1      42.332  28.631  28.663  1.00  0.00     0.167 HD
ATOM     48  C   UNL A   1      46.179  28.259  26.508  1.00  0.00     0.037 A 
ATOM     49  C   UNL A   1      40.347  29.967  30.077  1.00  0.00     0.037 A 
ATOM     50  C   UNL A   1      46.084  29.642  26.897  1.00  0.00     0.049 A 
ATOM     51  C   UNL A   1      41.446  30.961  29.805  1.00  0.00     0.074 A 
ATOM     52  C   UNL A   1      46.967  30.675  26.644  1.00  0.00     0.029 A 
ATOM     53  N   UNL A   1      45.037  30.180  27.635  1.00  0.00    -0.354 N 
ATOM     54  N   UNL A   1      42.564  30.804  29.137  1.00  0.00    -0.248 NA
ATOM     55  C   UNL A   1      41.259  32.312  30.350  1.00  0.00     0.031 C 
ATOM     56  C   UNL A   1      46.486  31.824  27.282  1.00  0.00     0.029 A 
ATOM     57  C   UNL A   1      45.269  31.525  27.874  1.00  0.00     0.049 A 
ATOM     58  H   UNL A   1      44.247  29.680  27.943  1.00  0.00     0.167 HD
ATOM     59  C   UNL A   1      43.196  32.039  29.148  1.00  0.00     0.074 A 
ATOM     60  C   UNL A   1      42.327  32.940  29.880  1.00  0.00     0.031 C 
ATOM     61  C   UNL A   1      44.384  32.401  28.603  1.00  0.00     0.037 A 
BRANCH  48  62
ATOM     62  C   UNL A   1      47.399  27.795  25.763  1.00  0.00     0.064 A 
ATOM     63  C   UNL A   1      47.432  27.730  24.361  1.00  0.00     0.173 A 
ATOM     64  C   UNL A   1      48.550  27.405  26.463  1.00  0.00     0.173 A 
ATOM     65  F   UNL A   1      46.353  28.076  23.642  1.00  0.00    -0.203 F 
ATOM     66  C   UNL A   1      48.558  27.256  23.691  1.00  0.00     0.198 A 
ATOM     67  C   UNL A   1      49.686  26.965  25.788  1.00  0.00     0.198 A 
ATOM     68  F   UNL A   1      48.575  27.446  27.804  1.00  0.00    -0.203 F 
ATOM     69  F   UNL A   1      48.543  27.142  22.356  1.00  0.00    -0.200 F 
ATOM     70  C   UNL A   1      49.686  26.879  24.405  1.00  0.00     0.200 A 
ATOM     71  F   UNL A   1      50.779  26.612  26.479  1.00  0.00    -0.200 F 
ATOM     72  F   UNL A   1      50.768  26.423  23.759  1.00  0.00    -0.200 F 
ENDBRANCH  48  62
BRANCH  49  73
ATOM     73  C   UNL A   1      39.120  30.359  30.818  1.00  0.00     0.064 A 
ATOM     74  C   UNL A   1      38.010  30.887  30.144  1.00  0.00     0.173 A 
ATOM     75  C   UNL A   1      39.033  30.222  32.211  1.00  0.00     0.173 A 
ATOM     76  F   UNL A   1      38.052  31.056  28.815  1.00  0.00    -0.203 F 
ATOM     77  C   UNL A   1      36.868  31.281  30.838  1.00  0.00     0.198 A 
ATOM     78  C   UNL A   1      37.878  30.586  32.900  1.00  0.00     0.198 A 
ATOM     79  F   UNL A   1      40.065  29.719  32.904  1.00  0.00    -0.203 F 
ATOM     80  F   UNL A   1      35.839  31.826  30.175  1.00  0.00    -0.200 F 
ATOM     81  C   UNL A   1      36.799  31.125  32.214  1.00  0.00     0.200 A 
ATOM     82  F   UNL A   1      37.812  30.420  34.227  1.00  0.00    -0.200 F 
ATOM     83  F   UNL A   1      35.699  31.499  32.880  1.00  0.00    -0.200 F 
ENDBRANCH  49  73
BRANCH  61  84
ATOM     84  C   UNL A   1      44.791  33.841  28.741  1.00  0.00     0.064 A 
ATOM     85  C   UNL A   1      45.577  34.289  29.814  1.00  0.00     0.173 A 
ATOM     86  C   UNL A   1      44.409  34.780  27.770  1.00  0.00     0.173 A 
ATOM     87  F   UNL A   1      45.956  33.436  30.776  1.00  0.00    -0.203 F 
ATOM     88  C   UNL A   1      45.934  35.631  29.927  1.00  0.00     0.198 A 
ATOM     89  C   UNL A   1      44.799  36.112  27.866  1.00  0.00     0.198 A 
ATOM     90  F   UNL A   1      43.666  34.402  26.719  1.00  0.00    -0.203 F 
ATOM     91  F   UNL A   1      46.632  36.048  30.992  1.00  0.00    -0.200 F 
ATOM     92  C   UNL A   1      45.552  36.539  28.950  1.00  0.00     0.200 A 
ATOM     93  F   UNL A   1      44.445  36.983  26.913  1.00  0.00    -0.200 F 
ATOM     94  F   UNL A   1      45.901  37.828  29.059  1.00  0.00    -0.200 F 
ENDBRANCH  61  84
ENDBRANCH  35  36
ENDBRANCH  28  30
ENDBRANCH  27  28
ENDBRANCH  26  27
ENDBRANCH  25  26
ENDBRANCH  24  25
ENDBRANCH   1  24
TORSDOF 18
ENDMDL
MODEL 2
REMARK VINA RESULT:     -11.1      4.296     10.614
REMARK SMILES CC[C@H](c1ccc(OC)cc1)[N@H+]1CC[C@H](C(=O)OCCOCCOC(=O)c2ccc(-c3c4nc(c(-c5c(F)c(F)c(F)c(F)c5F)c5ccc([nH]5)c(-c5c(F)c(F)c(F)c(F)c5F)c5nc(c(-c6c(F)c(F)c(F)c(F)c6F)c6ccc3[nH]6)C=C5)C=C4)cc2)[C@@H]1C
REMARK SMILES IDX 20 1 19 2 18 3 16 4 17 5 15 6 12 7 13 8 90 9 14 11 91 12
REMARK SMILES IDX 3 13 2 14 1 15 4 16 5 17 11 18 6 19 10 20 7 21 8 22 9 23
REMARK SMILES IDX 21 24 22 25 23 26 24 27 25 28 26 29 27 30 28 31 89 32 29 33
REMARK SMILES IDX 88 34 30 35 31 36 32 37 82 38 33 39 87 40 81 41 83 42 34 43
REMARK SMILES IDX 86 44 80 45 79 46 35 48 67 49 47 50 66 51 48 52 51 53 65 54
REMARK SMILES IDX 84 55 49 56 50 57 64 59 85 60 52 61 36 62 37 63 45 64 38 65
REMARK SMILES IDX 39 66 43 67 46 68 40 69 41 70 44 71 42 72 68 73 69 74 77 75
REMARK SMILES IDX 70 76 71 77 75 78 78 79 72 80 73 81 76 82 74 83 53 84 54 85
REMARK SMILES IDX 62 86 55 87 56 88 60 89 63 90 57 91 58 92 61 93 59 94
REMARK H PARENT 12 10 83 47 51 58
REMARK Flexibility Score: inf
ROOT
ATOM      1  C   UNL A   1      31.883  29.829  25.481  1.00  0.00     0.202 C 
ENDROOT
BRANCH   1   2
ATOM      2  C   UNL A   1      31.161  28.673  24.780  1.00  0.00     0.261 C 
BRANCH   2   3
ATOM      3  O   UNL A   1      31.941  28.162  23.683  1.00  0.00    -0.463 OA
BRANCH   3   4
ATOM      4  C   UNL A   1      31.244  27.637  22.634  1.00  0.00     0.315 C 
ATOM      5  O   UNL A   1      30.288  28.167  22.089  1.00  0.00    -0.252 OA
BRANCH   4   6
ATOM      6  C   UNL A   1      31.816  26.289  22.254  1.00  0.00     0.162 C 
ATOM      7  N   UNL A   1      32.652  24.455  23.591  1.00  0.00    -0.326 N 
ATOM      8  C   UNL A   1      33.672  25.504  23.545  1.00  0.00     0.264 C 
ATOM      9  C   UNL A   1      31.408  25.072  23.107  1.00  0.00     0.196 C 
ATOM     10  H   UNL A   1      32.515  24.138  24.550  1.00  0.00     0.348 HD
ATOM     11  C   UNL A   1      33.339  26.338  22.322  1.00  0.00     0.083 C 
ATOM     12  C   UNL A   1      30.522  25.251  24.340  1.00  0.00     0.076 C 
BRANCH   7  13
ATOM     13  C   UNL A   1      33.026  23.128  23.055  1.00  0.00     0.215 C 
BRANCH  13  14
ATOM     14  C   UNL A   1      31.884  22.082  23.028  1.00  0.00     0.067 C 
ATOM     15  C   UNL A   1      31.954  21.116  21.848  1.00  0.00     0.010 C 
ENDBRANCH  13  14
BRANCH  13  16
ATOM     16  C   UNL A   1      34.333  22.582  23.653  1.00  0.00     0.010 A 
ATOM     17  C   UNL A   1      35.593  22.979  23.173  1.00  0.00     0.014 A 
ATOM     18  C   UNL A   1      34.299  21.671  24.721  1.00  0.00     0.014 A 
ATOM     19  C   UNL A   1      36.770  22.479  23.730  1.00  0.00     0.047 A 
ATOM     20  C   UNL A   1      35.483  21.197  25.305  1.00  0.00     0.047 A 
ATOM     21  C   UNL A   1      36.723  21.605  24.814  1.00  0.00     0.118 A 
BRANCH  21  22
ATOM     22  O   UNL A   1      37.944  21.210  25.282  1.00  0.00    -0.497 OA
ATOM     23  C   UNL A   1      38.269  19.839  25.093  1.00  0.00     0.278 C 
ENDBRANCH  21  22
ENDBRANCH  13  16
ENDBRANCH   7  13
ENDBRANCH   4   6
ENDBRANCH   3   4
ENDBRANCH   2   3
ENDBRANCH   1   2
BRANCH   1  24
ATOM     24  O   UNL A   1      31.328  31.139  25.346  1.00  0.00    -0.374 OA
BRANCH  24  25
ATOM     25  C   UNL A   1      31.062  31.857  26.543  1.00  0.00     0.202 C 
BRANCH  25  26
ATOM     26  C   UNL A   1      32.004  33.000  26.946  1.00  0.00     0.261 C 
BRANCH  26  27
ATOM     27  O   UNL A   1      33.010  32.594  27.872  1.00  0.00    -0.460 OA
BRANCH  27  28
ATOM     28  C   UNL A   1      34.026  33.480  27.969  1.00  0.00     0.338 C 
ATOM     29  O   UNL A   1      33.969  34.700  27.921  1.00  0.00    -0.246 OA
BRANCH  28  30
ATOM     30  C   UNL A   1      35.249  32.754  28.325  1.00  0.00     0.060 A 
ATOM     31  C   UNL A   1      35.117  31.406  28.672  1.00  0.00     0.016 A 
ATOM     32  C   UNL A   1      36.490  33.392  28.349  1.00  0.00     0.016 A 
ATOM     33  C   UNL A   1      36.228  30.697  29.105  1.00  0.00     0.010 A 
ATOM     34  C   UNL A   1      37.604  32.682  28.793  1.00  0.00     0.010 A 
ATOM     35  C   UNL A   1      37.463  31.347  29.211  1.00  0.00    -0.014 A 
BRANCH  35  36
ATOM     36  C   UNL A   1      38.559  30.678  29.938  1.00  0.00     0.031 A 
ATOM     37  C   UNL A   1      38.768  31.018  31.385  1.00  0.00     0.074 A 
ATOM     38  C   UNL A   1      39.311  29.749  29.327  1.00  0.00     0.049 A 
ATOM     39  N   UNL A   1      39.652  30.557  32.230  1.00  0.00    -0.248 NA
ATOM     40  C   UNL A   1      37.852  32.019  31.958  1.00  0.00     0.031 C 
ATOM     41  C   UNL A   1      39.154  29.318  27.940  1.00  0.00     0.029 A 
ATOM     42  N   UNL A   1      40.352  28.997  29.801  1.00  0.00    -0.354 N 
ATOM     43  C   UNL A   1      39.403  31.213  33.429  1.00  0.00     0.074 A 
ATOM     44  C   UNL A   1      38.315  32.135  33.193  1.00  0.00     0.031 C 
ATOM     45  C   UNL A   1      40.066  28.368  27.674  1.00  0.00     0.029 A 
ATOM     46  C   UNL A   1      40.889  28.152  28.862  1.00  0.00     0.049 A 
ATOM     47  H   UNL A   1      40.683  29.055  30.726  1.00  0.00     0.167 HD
ATOM     48  C   UNL A   1      40.022  31.047  34.621  1.00  0.00     0.037 A 
ATOM     49  C   UNL A   1      41.935  27.311  28.960  1.00  0.00     0.037 A 
ATOM     50  C   UNL A   1      41.109  30.129  34.835  1.00  0.00     0.049 A 
ATOM     51  C   UNL A   1      42.660  27.208  30.277  1.00  0.00     0.074 A 
ATOM     52  C   UNL A   1      41.806  29.869  35.999  1.00  0.00     0.029 A 
ATOM     53  N   UNL A   1      41.664  29.325  33.846  1.00  0.00    -0.354 N 
ATOM     54  N   UNL A   1      42.407  27.809  31.415  1.00  0.00    -0.248 NA
ATOM     55  C   UNL A   1      43.817  26.305  30.321  1.00  0.00     0.031 C 
ATOM     56  C   UNL A   1      42.824  28.954  35.702  1.00  0.00     0.029 A 
ATOM     57  C   UNL A   1      42.717  28.591  34.369  1.00  0.00     0.049 A 
ATOM     58  H   UNL A   1      41.355  29.282  32.913  1.00  0.00     0.167 HD
ATOM     59  C   UNL A   1      43.346  27.331  32.319  1.00  0.00     0.074 A 
ATOM     60  C   UNL A   1      44.167  26.380  31.596  1.00  0.00     0.031 C 
ATOM     61  C   UNL A   1      43.516  27.646  33.628  1.00  0.00     0.037 A 
BRANCH  48  62
ATOM     62  C   UNL A   1      39.558  31.904  35.765  1.00  0.00     0.064 A 
ATOM     63  C   UNL A   1      38.515  31.506  36.617  1.00  0.00     0.173 A 
ATOM     64  C   UNL A   1      40.163  33.146  36.009  1.00  0.00     0.173 A 
ATOM     65  F   UNL A   1      37.890  30.335  36.418  1.00  0.00    -0.203 F 
ATOM     66  C   UNL A   1      38.071  32.335  37.645  1.00  0.00     0.198 A 
ATOM     67  C   UNL A   1      39.740  33.957  37.060  1.00  0.00     0.198 A 
ATOM     68  F   UNL A   1      41.164  33.578  35.227  1.00  0.00    -0.203 F 
ATOM     69  F   UNL A   1      37.033  31.961  38.404  1.00  0.00    -0.200 F 
ATOM     70  C   UNL A   1      38.688  33.557  37.869  1.00  0.00     0.200 A 
ATOM     71  F   UNL A   1      40.344  35.132  37.282  1.00  0.00    -0.200 F 
ATOM     72  F   UNL A   1      38.260  34.354  38.858  1.00  0.00    -0.200 F 
ENDBRANCH  48  62
BRANCH  49  73
ATOM     73  C   UNL A   1      42.350  26.499  27.787  1.00  0.00     0.064 A 
ATOM     74  C   UNL A   1      41.765  25.250  27.533  1.00  0.00     0.173 A 
ATOM     75  C   UNL A   1      43.341  26.947  26.902  1.00  0.00     0.173 A 
ATOM     76  F   UNL A   1      40.827  24.769  28.361  1.00  0.00    -0.203 F 
ATOM     77  C   UNL A   1      42.171  24.474  26.449  1.00  0.00     0.198 A 
ATOM     78  C   UNL A   1      43.723  26.184  25.801  1.00  0.00     0.198 A 
ATOM     79  F   UNL A   1      43.931  28.136  27.098  1.00  0.00    -0.203 F 
ATOM     80  F   UNL A   1      41.628  23.264  26.256  1.00  0.00    -0.200 F 
ATOM     81  C   UNL A   1      43.144  24.943  25.580  1.00  0.00     0.200 A 
ATOM     82  F   UNL A   1      44.653  26.648  24.957  1.00  0.00    -0.200 F 
ATOM     83  F   UNL A   1      43.530  24.197  24.536  1.00  0.00    -0.200 F 
ENDBRANCH  49  73
BRANCH  61  84
ATOM     84  C   UNL A   1      44.604  26.923  34.370  1.00  0.00     0.064 A 
ATOM     85  C   UNL A   1      45.898  27.452  34.489  1.00  0.00     0.173 A 
ATOM     86  C   UNL A   1      44.337  25.694  34.994  1.00  0.00     0.173 A 
ATOM     87  F   UNL A   1      46.208  28.616  33.901  1.00  0.00    -0.203 F 
ATOM     88  C   UNL A   1      46.893  26.759  35.174  1.00  0.00     0.198 A 
ATOM     89  C   UNL A   1      45.324  25.022  35.709  1.00  0.00     0.198 A 
ATOM     90  F   UNL A   1      43.114  25.148  34.918  1.00  0.00    -0.203 F 
ATOM     91  F   UNL A   1      48.137  27.254  35.222  1.00  0.00    -0.200 F 
ATOM     92  C   UNL A   1      46.604  25.550  35.789  1.00  0.00     0.200 A 
ATOM     93  F   UNL A   1      45.038  23.864  36.317  1.00  0.00    -0.200 F 
ATOM     94  F   UNL A   1      47.562  24.888  36.452  1.00  0.00    -0.200 F 
ENDBRANCH  61  84
ENDBRANCH  35  36
ENDBRANCH  28  30
ENDBRANCH  27  28
ENDBRANCH  26  27
ENDBRANCH  25  26
ENDBRANCH  24  25
ENDBRANCH   1  24
TORSDOF 18
ENDMDL
MODEL 3
REMARK VINA RESULT:     -11.0      1.590      2.667
REMARK SMILES CC[C@H](c1ccc(OC)cc1)[N@H+]1CC[C@H](C(=O)OCCOCCOC(=O)c2ccc(-c3c4nc(c(-c5c(F)c(F)c(F)c(F)c5F)c5ccc([nH]5)c(-c5c(F)c(F)c(F)c(F)c5F)c5nc(c(-c6c(F)c(F)c(F)c(F)c6F)c6ccc3[nH]6)C=C5)C=C4)cc2)[C@@H]1C
REMARK SMILES IDX 20 1 19 2 18 3 16 4 17 5 15 6 12 7 13 8 90 9 14 11 91 12
REMARK SMILES IDX 3 13 2 14 1 15 4 16 5 17 11 18 6 19 10 20 7 21 8 22 9 23
REMARK SMILES IDX 21 24 22 25 23 26 24 27 25 28 26 29 27 30 28 31 89 32 29 33
REMARK SMILES IDX 88 34 30 35 31 36 32 37 82 38 33 39 87 40 81 41 83 42 34 43
REMARK SMILES IDX 86 44 80 45 79 46 35 48 67 49 47 50 66 51 48 52 51 53 65 54
REMARK SMILES IDX 84 55 49 56 50 57 64 59 85 60 52 61 36 62 37 63 45 64 38 65
REMARK SMILES IDX 39 66 43 67 46 68 40 69 41 70 44 71 42 72 68 73 69 74 77 75
REMARK SMILES IDX 70 76 71 77 75 78 78 79 72 80 73 81 76 82 74 83 53 84 54 85
REMARK SMILES IDX 62 86 55 87 56 88 60 89 63 90 57 91 58 92 61 93 59 94
REMARK H PARENT 12 10 83 47 51 58
REMARK Flexibility Score: inf
ROOT
ATOM      1  C   UNL A   1      34.007  19.860  24.915  1.00  0.00     0.202 C 
ENDROOT
BRANCH   1   2
ATOM      2  C   UNL A   1      32.542  20.301  24.835  1.00  0.00     0.261 C 
BRANCH   2   3
ATOM      3  O   UNL A   1      32.430  21.736  24.846  1.00  0.00    -0.463 OA
BRANCH   3   4
ATOM      4  C   UNL A   1      32.034  22.324  23.679  1.00  0.00     0.315 C 
ATOM      5  O   UNL A   1      32.178  21.844  22.565  1.00  0.00    -0.252 OA
BRANCH   4   6
ATOM      6  C   UNL A   1      31.408  23.672  23.964  1.00  0.00     0.162 C 
ATOM      7  N   UNL A   1      32.178  25.570  25.249  1.00  0.00    -0.326 N 
ATOM      8  C   UNL A   1      31.691  24.546  26.174  1.00  0.00     0.264 C 
ATOM      9  C   UNL A   1      32.329  24.908  23.946  1.00  0.00     0.196 C 
ATOM     10  H   UNL A   1      33.087  25.917  25.553  1.00  0.00     0.348 HD
ATOM     11  C   UNL A   1      30.773  23.662  25.350  1.00  0.00     0.083 C 
ATOM     12  C   UNL A   1      33.834  24.749  23.728  1.00  0.00     0.076 C 
BRANCH   7  13
ATOM     13  C   UNL A   1      31.504  26.887  25.287  1.00  0.00     0.215 C 
BRANCH  13  14
ATOM     14  C   UNL A   1      30.906  27.360  23.939  1.00  0.00     0.067 C 
ATOM     15  C   UNL A   1      29.411  27.090  23.795  1.00  0.00     0.010 C 
ENDBRANCH  13  14
BRANCH  13  16
ATOM     16  C   UNL A   1      32.335  27.970  25.995  1.00  0.00     0.010 A 
ATOM     17  C   UNL A   1      31.746  29.128  26.530  1.00  0.00     0.014 A 
ATOM     18  C   UNL A   1      33.723  27.817  26.140  1.00  0.00     0.014 A 
ATOM     19  C   UNL A   1      32.513  30.099  27.175  1.00  0.00     0.047 A 
ATOM     20  C   UNL A   1      34.489  28.775  26.821  1.00  0.00     0.047 A 
ATOM     21  C   UNL A   1      33.883  29.917  27.345  1.00  0.00     0.118 A 
BRANCH  21  22
ATOM     22  O   UNL A   1      34.514  30.927  28.014  1.00  0.00    -0.497 OA
ATOM     23  C   UNL A   1      34.019  32.238  27.773  1.00  0.00     0.278 C 
ENDBRANCH  21  22
ENDBRANCH  13  16
ENDBRANCH   7  13
ENDBRANCH   4   6
ENDBRANCH   3   4
ENDBRANCH   2   3
ENDBRANCH   1   2
BRANCH   1  24
ATOM     24  O   UNL A   1      35.012  20.835  24.627  1.00  0.00    -0.374 OA
BRANCH  24  25
ATOM     25  C   UNL A   1      36.351  20.507  24.969  1.00  0.00     0.202 C 
BRANCH  25  26
ATOM     26  C   UNL A   1      37.164  21.499  25.812  1.00  0.00     0.261 C 
BRANCH  26  27
ATOM     27  O   UNL A   1      38.459  21.760  25.273  1.00  0.00    -0.460 OA
BRANCH  27  28
ATOM     28  C   UNL A   1      39.457  21.491  26.145  1.00  0.00     0.338 C 
ATOM     29  O   UNL A   1      40.053  20.436  26.305  1.00  0.00    -0.246 OA
BRANCH  28  30
ATOM     30  C   UNL A   1      39.863  22.742  26.791  1.00  0.00     0.060 A 
ATOM     31  C   UNL A   1      39.237  23.918  26.365  1.00  0.00     0.016 A 
ATOM     32  C   UNL A   1      40.861  22.764  27.767  1.00  0.00     0.016 A 
ATOM     33  C   UNL A   1      39.649  25.139  26.878  1.00  0.00     0.010 A 
ATOM     34  C   UNL A   1      41.281  23.991  28.275  1.00  0.00     0.010 A 
ATOM     35  C   UNL A   1      40.703  25.181  27.798  1.00  0.00    -0.014 A 
BRANCH  35  36
ATOM     36  C   UNL A   1      41.322  26.484  28.112  1.00  0.00     0.031 A 
ATOM     37  C   UNL A   1      42.721  26.744  27.633  1.00  0.00     0.074 A 
ATOM     38  C   UNL A   1      40.623  27.427  28.764  1.00  0.00     0.049 A 
ATOM     39  N   UNL A   1      43.465  27.809  27.777  1.00  0.00    -0.248 NA
ATOM     40  C   UNL A   1      43.369  25.651  26.890  1.00  0.00     0.031 C 
ATOM     41  C   UNL A   1      39.245  27.284  29.228  1.00  0.00     0.029 A 
ATOM     42  N   UNL A   1      40.979  28.694  29.140  1.00  0.00    -0.354 N 
ATOM     43  C   UNL A   1      44.667  27.513  27.147  1.00  0.00     0.074 A 
ATOM     44  C   UNL A   1      44.571  26.155  26.660  1.00  0.00     0.031 C 
ATOM     45  C   UNL A   1      38.867  28.426  29.825  1.00  0.00     0.029 A 
ATOM     46  C   UNL A   1      39.988  29.364  29.812  1.00  0.00     0.049 A 
ATOM     47  H   UNL A   1      41.861  29.087  28.948  1.00  0.00     0.167 HD
ATOM     48  C   UNL A   1      45.748  28.310  26.983  1.00  0.00     0.037 A 
ATOM     49  C   UNL A   1      40.000  30.593  30.362  1.00  0.00     0.037 A 
ATOM     50  C   UNL A   1      45.829  29.658  27.484  1.00  0.00     0.049 A 
ATOM     51  C   UNL A   1      41.247  31.429  30.237  1.00  0.00     0.074 A 
ATOM     52  C   UNL A   1      46.867  30.562  27.369  1.00  0.00     0.029 A 
ATOM     53  N   UNL A   1      44.824  30.288  28.207  1.00  0.00    -0.354 N 
ATOM     54  N   UNL A   1      42.372  31.157  29.620  1.00  0.00    -0.248 NA
ATOM     55  C   UNL A   1      41.222  32.746  30.885  1.00  0.00     0.031 C 
ATOM     56  C   UNL A   1      46.516  31.718  28.077  1.00  0.00     0.029 A 
ATOM     57  C   UNL A   1      45.232  31.561  28.574  1.00  0.00     0.049 A 
ATOM     58  H   UNL A   1      43.951  29.890  28.427  1.00  0.00     0.167 HD
ATOM     59  C   UNL A   1      43.175  32.280  29.772  1.00  0.00     0.074 A 
ATOM     60  C   UNL A   1      42.399  33.241  30.531  1.00  0.00     0.031 C 
ATOM     61  C   UNL A   1      44.437  32.500  29.326  1.00  0.00     0.037 A 
BRANCH  48  62
ATOM     62  C   UNL A   1      46.934  27.728  26.268  1.00  0.00     0.064 A 
ATOM     63  C   UNL A   1      47.045  27.754  24.869  1.00  0.00     0.173 A 
ATOM     64  C   UNL A   1      47.975  27.129  26.994  1.00  0.00     0.173 A 
ATOM     65  F   UNL A   1      46.071  28.299  24.124  1.00  0.00    -0.203 F 
ATOM     66  C   UNL A   1      48.133  27.169  24.223  1.00  0.00     0.198 A 
ATOM     67  C   UNL A   1      49.078  26.577  26.347  1.00  0.00     0.198 A 
ATOM     68  F   UNL A   1      47.923  27.076  28.334  1.00  0.00    -0.203 F 
ATOM     69  F   UNL A   1      48.184  27.150  22.884  1.00  0.00    -0.200 F 
ATOM     70  C   UNL A   1      49.151  26.586  24.963  1.00  0.00     0.200 A 
ATOM     71  F   UNL A   1      50.066  26.025  27.065  1.00  0.00    -0.200 F 
ATOM     72  F   UNL A   1      50.197  26.025  24.341  1.00  0.00    -0.200 F 
ENDBRANCH  48  62
BRANCH  49  73
ATOM     73  C   UNL A   1      38.796  31.106  31.065  1.00  0.00     0.064 A 
ATOM     74  C   UNL A   1      38.639  30.929  32.447  1.00  0.00     0.173 A 
ATOM     75  C   UNL A   1      37.777  31.776  30.374  1.00  0.00     0.173 A 
ATOM     76  F   UNL A   1      39.577  30.277  33.149  1.00  0.00    -0.203 F 
ATOM     77  C   UNL A   1      37.499  31.385  33.106  1.00  0.00     0.198 A 
ATOM     78  C   UNL A   1      36.652  32.259  31.039  1.00  0.00     0.198 A 
ATOM     79  F   UNL A   1      37.878  31.975  29.051  1.00  0.00    -0.203 F 
ATOM     80  F   UNL A   1      37.353  31.161  34.419  1.00  0.00    -0.200 F 
ATOM     81  C   UNL A   1      36.509  32.055  32.404  1.00  0.00     0.200 A 
ATOM     82  F   UNL A   1      35.706  32.919  30.358  1.00  0.00    -0.200 F 
ATOM     83  F   UNL A   1      35.416  32.498  33.038  1.00  0.00    -0.200 F 
ENDBRANCH  49  73
BRANCH  61  84
ATOM     84  C   UNL A   1      45.038  33.848  29.610  1.00  0.00     0.064 A 
ATOM     85  C   UNL A   1      45.847  34.076  30.733  1.00  0.00     0.173 A 
ATOM     86  C   UNL A   1      44.821  34.918  28.728  1.00  0.00     0.173 A 
ATOM     87  F   UNL A   1      46.074  33.091  31.614  1.00  0.00    -0.203 F 
ATOM     88  C   UNL A   1      46.386  35.336  30.982  1.00  0.00     0.198 A 
ATOM     89  C   UNL A   1      45.392  36.166  28.960  1.00  0.00     0.198 A 
ATOM     90  F   UNL A   1      44.063  34.752  27.634  1.00  0.00    -0.203 F 
ATOM     91  F   UNL A   1      47.104  35.547  32.093  1.00  0.00    -0.200 F 
ATOM     92  C   UNL A   1      46.164  36.377  30.092  1.00  0.00     0.200 A 
ATOM     93  F   UNL A   1      45.191  37.165  28.091  1.00  0.00    -0.200 F 
ATOM     94  F   UNL A   1      46.688  37.587  30.331  1.00  0.00    -0.200 F 
ENDBRANCH  61  84
ENDBRANCH  35  36
ENDBRANCH  28  30
ENDBRANCH  27  28
ENDBRANCH  26  27
ENDBRANCH  25  26
ENDBRANCH  24  25
ENDBRANCH   1  24
TORSDOF 18
ENDMDL
