MODEL 1
REMARK VINA RESULT:     -10.9      0.000      0.000
REMARK SMILES O=C(OCCOCCOC(=O)c1cc(SCC(=O)N2CCOCC2)ccn1)c1ccc(-c2c3nc(c(-c4c(F)c(F)c(F)c(F)c4F)c4ccc([nH]4)c(-c4c(F)c(F)c(F)c(F)c4F)c4nc(c(-c5c(F)c(F)c(F)c(F)c5F)c5ccc2[nH]5)C=C4)C=C3)cc1
REMARK SMILES IDX 7 1 6 2 5 3 4 4 3 5 2 6 1 7 28 8 29 9 90 10 30 11 89 12
REMARK SMILES IDX 31 13 32 14 33 15 83 16 34 17 88 18 82 19 84 20 35 21 87 22
REMARK SMILES IDX 81 23 80 24 36 26 68 27 48 28 67 29 49 30 52 31 66 32 85 33
REMARK SMILES IDX 50 34 51 35 65 37 86 38 53 39 37 40 38 41 46 42 39 43 40 44
REMARK SMILES IDX 44 45 47 46 41 47 42 48 45 49 43 50 69 51 70 52 78 53 71 54
REMARK SMILES IDX 72 55 76 56 79 57 73 58 74 59 77 60 75 61 54 62 55 63 63 64
REMARK SMILES IDX 56 65 57 66 61 67 64 68 58 69 59 70 62 71 60 72 8 73 9 74
REMARK SMILES IDX 10 75 11 76 12 77 13 78 27 79 14 80 26 81 25 82 15 83 16 84
REMARK SMILES IDX 17 85 18 86 19 87 20 88 24 89 21 90 23 91 22 92
REMARK H PARENT 84 25 52 36
REMARK Flexibility Score: inf
ROOT
ATOM      1  C   UNL A   1      36.941  21.832  24.544  1.00  0.00     0.202 C 
ENDROOT
BRANCH   1   2
ATOM      2  O   UNL A   1      36.726  20.482  24.969  1.00  0.00    -0.374 OA
BRANCH   2   3
ATOM      3  C   UNL A   1      37.867  19.625  24.930  1.00  0.00     0.202 C 
BRANCH   3   4
ATOM      4  C   UNL A   1      39.098  20.248  25.591  1.00  0.00     0.261 C 
BRANCH   4   5
ATOM      5  O   UNL A   1      40.175  19.300  25.642  1.00  0.00    -0.460 OA
BRANCH   5   6
ATOM      6  C   UNL A   1      41.466  19.498  25.989  1.00  0.00     0.338 C 
ATOM      7  O   UNL A   1      42.246  18.552  25.873  1.00  0.00    -0.246 OA
BRANCH   6   8
ATOM      8  C   UNL A   1      42.033  20.798  26.478  1.00  0.00     0.060 A 
ATOM      9  C   UNL A   1      42.229  21.166  27.812  1.00  0.00     0.016 A 
ATOM     10  C   UNL A   1      42.480  21.691  25.486  1.00  0.00     0.016 A 
ATOM     11  C   UNL A   1      42.814  22.379  28.160  1.00  0.00     0.010 A 
ATOM     12  C   UNL A   1      43.077  22.908  25.821  1.00  0.00     0.010 A 
ATOM     13  C   UNL A   1      43.229  23.257  27.165  1.00  0.00    -0.014 A 
BRANCH  13  14
ATOM     14  C   UNL A   1      43.686  24.599  27.557  1.00  0.00     0.031 A 
ATOM     15  C   UNL A   1      42.653  25.597  27.968  1.00  0.00     0.074 A 
ATOM     16  C   UNL A   1      44.999  24.872  27.614  1.00  0.00     0.049 A 
ATOM     17  N   UNL A   1      42.790  26.859  28.269  1.00  0.00    -0.248 NA
ATOM     18  C   UNL A   1      41.272  25.097  28.063  1.00  0.00     0.031 C 
ATOM     19  C   UNL A   1      46.070  23.913  27.344  1.00  0.00     0.029 A 
ATOM     20  N   UNL A   1      45.654  26.033  27.926  1.00  0.00    -0.354 N 
ATOM     21  C   UNL A   1      41.512  27.311  28.562  1.00  0.00     0.074 A 
ATOM     22  C   UNL A   1      40.611  26.191  28.405  1.00  0.00     0.031 C 
ATOM     23  C   UNL A   1      47.254  24.530  27.495  1.00  0.00     0.029 A 
ATOM     24  C   UNL A   1      47.017  25.934  27.817  1.00  0.00     0.049 A 
ATOM     25  H   UNL A   1      45.191  26.856  28.203  1.00  0.00     0.167 HD
ATOM     26  C   UNL A   1      41.133  28.560  28.913  1.00  0.00     0.037 A 
ATOM     27  C   UNL A   1      47.956  26.891  27.928  1.00  0.00     0.037 A 
ATOM     28  C   UNL A   1      42.055  29.654  29.042  1.00  0.00     0.049 A 
ATOM     29  C   UNL A   1      47.506  28.293  28.241  1.00  0.00     0.074 A 
ATOM     30  C   UNL A   1      41.797  30.981  29.322  1.00  0.00     0.029 A 
ATOM     31  N   UNL A   1      43.432  29.533  28.889  1.00  0.00    -0.354 N 
ATOM     32  N   UNL A   1      46.290  28.741  28.455  1.00  0.00    -0.248 NA
ATOM     33  C   UNL A   1      48.548  29.325  28.318  1.00  0.00     0.031 C 
ATOM     34  C   UNL A   1      43.014  31.672  29.299  1.00  0.00     0.029 A 
ATOM     35  C   UNL A   1      44.037  30.766  29.053  1.00  0.00     0.049 A 
ATOM     36  H   UNL A   1      43.907  28.693  28.691  1.00  0.00     0.167 HD
ATOM     37  C   UNL A   1      46.418  30.098  28.710  1.00  0.00     0.074 A 
ATOM     38  C   UNL A   1      47.835  30.400  28.632  1.00  0.00     0.031 C 
ATOM     39  C   UNL A   1      45.456  31.014  28.982  1.00  0.00     0.037 A 
BRANCH  26  40
ATOM     40  C   UNL A   1      39.663  28.797  29.087  1.00  0.00     0.064 A 
ATOM     41  C   UNL A   1      38.858  29.276  28.042  1.00  0.00     0.173 A 
ATOM     42  C   UNL A   1      39.064  28.608  30.342  1.00  0.00     0.173 A 
ATOM     43  F   UNL A   1      39.388  29.504  26.831  1.00  0.00    -0.203 F 
ATOM     44  C   UNL A   1      37.518  29.596  28.257  1.00  0.00     0.198 A 
ATOM     45  C   UNL A   1      37.718  28.902  30.546  1.00  0.00     0.198 A 
ATOM     46  F   UNL A   1      39.790  28.160  31.377  1.00  0.00    -0.203 F 
ATOM     47  F   UNL A   1      36.788  30.121  27.265  1.00  0.00    -0.200 F 
ATOM     48  C   UNL A   1      36.951  29.408  29.509  1.00  0.00     0.200 A 
ATOM     49  F   UNL A   1      37.172  28.719  31.756  1.00  0.00    -0.200 F 
ATOM     50  F   UNL A   1      35.667  29.734  29.721  1.00  0.00    -0.200 F 
ENDBRANCH  26  40
BRANCH  27  51
ATOM     51  C   UNL A   1      49.386  26.554  27.705  1.00  0.00     0.064 A 
ATOM     52  C   UNL A   1      49.931  26.505  26.415  1.00  0.00     0.173 A 
ATOM     53  C   UNL A   1      50.249  26.306  28.785  1.00  0.00     0.173 A 
ATOM     54  F   UNL A   1      49.146  26.712  25.349  1.00  0.00    -0.203 F 
ATOM     55  C   UNL A   1      51.282  26.219  26.214  1.00  0.00     0.198 A 
ATOM     56  C   UNL A   1      51.604  26.046  28.584  1.00  0.00     0.198 A 
ATOM     57  F   UNL A   1      49.780  26.337  30.042  1.00  0.00    -0.203 F 
ATOM     58  F   UNL A   1      51.771  26.150  24.969  1.00  0.00    -0.200 F 
ATOM     59  C   UNL A   1      52.118  26.000  27.298  1.00  0.00     0.200 A 
ATOM     60  F   UNL A   1      52.409  25.848  29.637  1.00  0.00    -0.200 F 
ATOM     61  F   UNL A   1      53.418  25.738  27.104  1.00  0.00    -0.200 F 
ENDBRANCH  27  51
BRANCH  39  62
ATOM     62  C   UNL A   1      45.907  32.416  29.255  1.00  0.00     0.064 A 
ATOM     63  C   UNL A   1      46.027  33.361  28.227  1.00  0.00     0.173 A 
ATOM     64  C   UNL A   1      46.139  32.836  30.573  1.00  0.00     0.173 A 
ATOM     65  F   UNL A   1      45.826  33.000  26.950  1.00  0.00    -0.203 F 
ATOM     66  C   UNL A   1      46.373  34.678  28.509  1.00  0.00     0.198 A 
ATOM     67  C   UNL A   1      46.460  34.159  30.854  1.00  0.00     0.198 A 
ATOM     68  F   UNL A   1      46.027  31.965  31.588  1.00  0.00    -0.203 F 
ATOM     69  F   UNL A   1      46.509  35.563  27.511  1.00  0.00    -0.200 F 
ATOM     70  C   UNL A   1      46.580  35.078  29.822  1.00  0.00     0.200 A 
ATOM     71  F   UNL A   1      46.646  34.546  32.123  1.00  0.00    -0.200 F 
ATOM     72  F   UNL A   1      46.895  36.351  30.093  1.00  0.00    -0.200 F 
ENDBRANCH  39  62
ENDBRANCH  13  14
ENDBRANCH   6   8
ENDBRANCH   5   6
ENDBRANCH   4   5
ENDBRANCH   3   4
ENDBRANCH   2   3
ENDBRANCH   1   2
BRANCH   1  73
ATOM     73  C   UNL A   1      36.080  22.770  25.391  1.00  0.00     0.261 C 
BRANCH  73  74
ATOM     74  O   UNL A   1      34.807  22.929  24.748  1.00  0.00    -0.459 OA
BRANCH  74  75
ATOM     75  C   UNL A   1      34.070  23.992  25.171  1.00  0.00     0.357 C 
ATOM     76  O   UNL A   1      33.857  24.329  26.323  1.00  0.00    -0.244 OA
BRANCH  75  77
ATOM     77  C   UNL A   1      33.726  24.781  23.957  1.00  0.00     0.149 A 
ATOM     78  C   UNL A   1      33.625  26.164  24.034  1.00  0.00     0.051 A 
ATOM     79  N   UNL A   1      33.424  24.061  22.844  1.00  0.00    -0.249 NA
ATOM     80  C   UNL A   1      33.156  26.848  22.921  1.00  0.00     0.012 A 
ATOM     81  C   UNL A   1      32.980  24.748  21.778  1.00  0.00     0.113 A 
ATOM     82  C   UNL A   1      32.826  26.121  21.772  1.00  0.00     0.035 A 
BRANCH  80  83
ATOM     83  S   UNL A   1      32.981  28.614  22.825  1.00  0.00    -0.116 SA
BRANCH  83  84
ATOM     84  C   UNL A   1      31.478  28.985  23.765  1.00  0.00     0.175 C 
BRANCH  84  85
ATOM     85  C   UNL A   1      30.155  28.420  23.266  1.00  0.00     0.233 C 
ATOM     86  O   UNL A   1      29.799  27.305  23.665  1.00  0.00    -0.274 OA
ATOM     87  N   UNL A   1      29.278  29.236  22.581  1.00  0.00    -0.337 N 
ATOM     88  C   UNL A   1      29.598  30.341  21.680  1.00  0.00     0.148 C 
ATOM     89  C   UNL A   1      27.845  29.151  22.874  1.00  0.00     0.148 C 
ATOM     90  C   UNL A   1      29.113  31.657  22.281  1.00  0.00     0.181 C 
ATOM     91  C   UNL A   1      27.384  30.506  23.445  1.00  0.00     0.181 C 
ATOM     92  O   UNL A   1      27.702  31.593  22.555  1.00  0.00    -0.378 OA
ENDBRANCH  84  85
ENDBRANCH  83  84
ENDBRANCH  80  83
ENDBRANCH  75  77
ENDBRANCH  74  75
ENDBRANCH  73  74
ENDBRANCH   1  73
TORSDOF 17
ENDMDL
MODEL 2
REMARK VINA RESULT:     -10.7      5.418     11.086
REMARK SMILES O=C(OCCOCCOC(=O)c1cc(SCC(=O)N2CCOCC2)ccn1)c1ccc(-c2c3nc(c(-c4c(F)c(F)c(F)c(F)c4F)c4ccc([nH]4)c(-c4c(F)c(F)c(F)c(F)c4F)c4nc(c(-c5c(F)c(F)c(F)c(F)c5F)c5ccc2[nH]5)C=C4)C=C3)cc1
REMARK SMILES IDX 7 1 6 2 5 3 4 4 3 5 2 6 1 7 28 8 29 9 90 10 30 11 89 12
REMARK SMILES IDX 31 13 32 14 33 15 83 16 34 17 88 18 82 19 84 20 35 21 87 22
REMARK SMILES IDX 81 23 80 24 36 26 68 27 48 28 67 29 49 30 52 31 66 32 85 33
REMARK SMILES IDX 50 34 51 35 65 37 86 38 53 39 37 40 38 41 46 42 39 43 40 44
REMARK SMILES IDX 44 45 47 46 41 47 42 48 45 49 43 50 69 51 70 52 78 53 71 54
REMARK SMILES IDX 72 55 76 56 79 57 73 58 74 59 77 60 75 61 54 62 55 63 63 64
REMARK SMILES IDX 56 65 57 66 61 67 64 68 58 69 59 70 62 71 60 72 8 73 9 74
REMARK SMILES IDX 10 75 11 76 12 77 13 78 27 79 14 80 26 81 25 82 15 83 16 84
REMARK SMILES IDX 17 85 18 86 19 87 20 88 24 89 21 90 23 91 22 92
REMARK H PARENT 84 25 52 36
REMARK Flexibility Score: inf
ROOT
ATOM      1  C   UNL A   1      31.831  28.892  26.027  1.00  0.00     0.202 C 
ENDROOT
BRANCH   1   2
ATOM      2  O   UNL A   1      31.695  30.308  25.876  1.00  0.00    -0.374 OA
BRANCH   2   3
ATOM      3  C   UNL A   1      32.328  31.107  26.876  1.00  0.00     0.202 C 
BRANCH   3   4
ATOM      4  C   UNL A   1      31.607  32.436  27.115  1.00  0.00     0.261 C 
BRANCH   4   5
ATOM      5  O   UNL A   1      32.547  33.522  27.131  1.00  0.00    -0.460 OA
BRANCH   5   6
ATOM      6  C   UNL A   1      33.093  34.157  28.192  1.00  0.00     0.338 C 
ATOM      7  O   UNL A   1      32.528  35.168  28.611  1.00  0.00    -0.246 OA
BRANCH   6   8
ATOM      8  C   UNL A   1      34.321  33.705  28.924  1.00  0.00     0.060 A 
ATOM      9  C   UNL A   1      35.611  34.221  28.773  1.00  0.00     0.016 A 
ATOM     10  C   UNL A   1      34.127  32.720  29.911  1.00  0.00     0.016 A 
ATOM     11  C   UNL A   1      36.677  33.767  29.542  1.00  0.00     0.010 A 
ATOM     12  C   UNL A   1      35.187  32.262  30.697  1.00  0.00     0.010 A 
ATOM     13  C   UNL A   1      36.470  32.778  30.498  1.00  0.00    -0.014 A 
BRANCH  13  14
ATOM     14  C   UNL A   1      37.638  32.197  31.175  1.00  0.00     0.031 A 
ATOM     15  C   UNL A   1      38.429  31.163  30.441  1.00  0.00     0.074 A 
ATOM     16  C   UNL A   1      38.013  32.654  32.380  1.00  0.00     0.049 A 
ATOM     17  N   UNL A   1      39.439  30.444  30.849  1.00  0.00    -0.248 NA
ATOM     18  C   UNL A   1      38.031  30.913  29.046  1.00  0.00     0.031 C 
ATOM     19  C   UNL A   1      37.362  33.745  33.106  1.00  0.00     0.029 A 
ATOM     20  N   UNL A   1      39.036  32.263  33.201  1.00  0.00    -0.354 N 
ATOM     21  C   UNL A   1      39.778  29.637  29.773  1.00  0.00     0.074 A 
ATOM     22  C   UNL A   1      38.871  29.955  28.692  1.00  0.00     0.031 C 
ATOM     23  C   UNL A   1      38.001  33.931  34.273  1.00  0.00     0.029 A 
ATOM     24  C   UNL A   1      39.064  32.938  34.395  1.00  0.00     0.049 A 
ATOM     25  H   UNL A   1      39.688  31.567  32.958  1.00  0.00     0.167 HD
ATOM     26  C   UNL A   1      40.754  28.704  29.711  1.00  0.00     0.037 A 
ATOM     27  C   UNL A   1      39.842  32.738  35.474  1.00  0.00     0.037 A 
ATOM     28  C   UNL A   1      41.625  28.403  30.812  1.00  0.00     0.049 A 
ATOM     29  C   UNL A   1      40.869  31.639  35.413  1.00  0.00     0.074 A 
ATOM     30  C   UNL A   1      42.607  27.436  30.906  1.00  0.00     0.029 A 
ATOM     31  N   UNL A   1      41.606  29.080  32.026  1.00  0.00    -0.354 N 
ATOM     32  N   UNL A   1      41.152  30.828  34.419  1.00  0.00    -0.248 NA
ATOM     33  C   UNL A   1      41.678  31.416  36.618  1.00  0.00     0.031 C 
ATOM     34  C   UNL A   1      43.155  27.502  32.192  1.00  0.00     0.029 A 
ATOM     35  C   UNL A   1      42.549  28.542  32.884  1.00  0.00     0.049 A 
ATOM     36  H   UNL A   1      41.008  29.831  32.245  1.00  0.00     0.167 HD
ATOM     37  C   UNL A   1      42.180  30.012  34.868  1.00  0.00     0.074 A 
ATOM     38  C   UNL A   1      42.478  30.433  36.223  1.00  0.00     0.031 C 
ATOM     39  C   UNL A   1      42.820  29.006  34.222  1.00  0.00     0.037 A 
BRANCH  26  40
ATOM     40  C   UNL A   1      40.846  27.907  28.444  1.00  0.00     0.064 A 
ATOM     41  C   UNL A   1      40.187  26.678  28.288  1.00  0.00     0.173 A 
ATOM     42  C   UNL A   1      41.668  28.348  27.395  1.00  0.00     0.173 A 
ATOM     43  F   UNL A   1      39.415  26.196  29.275  1.00  0.00    -0.203 F 
ATOM     44  C   UNL A   1      40.378  25.901  27.147  1.00  0.00     0.198 A 
ATOM     45  C   UNL A   1      41.834  27.582  26.244  1.00  0.00     0.198 A 
ATOM     46  F   UNL A   1      42.327  29.511  27.495  1.00  0.00    -0.203 F 
ATOM     47  F   UNL A   1      39.797  24.698  27.052  1.00  0.00    -0.200 F 
ATOM     48  C   UNL A   1      41.201  26.355  26.127  1.00  0.00     0.200 A 
ATOM     49  F   UNL A   1      42.629  28.022  25.259  1.00  0.00    -0.200 F 
ATOM     50  F   UNL A   1      41.400  25.598  25.037  1.00  0.00    -0.200 F 
ENDBRANCH  26  40
BRANCH  27  51
ATOM     51  C   UNL A   1      39.644  33.566  36.692  1.00  0.00     0.064 A 
ATOM     52  C   UNL A   1      40.280  34.804  36.843  1.00  0.00     0.173 A 
ATOM     53  C   UNL A   1      38.784  33.147  37.720  1.00  0.00     0.173 A 
ATOM     54  F   UNL A   1      41.129  35.240  35.900  1.00  0.00    -0.203 F 
ATOM     55  C   UNL A   1      40.066  35.592  37.974  1.00  0.00     0.198 A 
ATOM     56  C   UNL A   1      38.550  33.946  38.838  1.00  0.00     0.198 A 
ATOM     57  F   UNL A   1      38.151  31.968  37.629  1.00  0.00    -0.203 F 
ATOM     58  F   UNL A   1      40.710  36.759  38.107  1.00  0.00    -0.200 F 
ATOM     59  C   UNL A   1      39.194  35.167  38.965  1.00  0.00     0.200 A 
ATOM     60  F   UNL A   1      37.696  33.536  39.785  1.00  0.00    -0.200 F 
ATOM     61  F   UNL A   1      38.978  35.930  40.046  1.00  0.00    -0.200 F 
ENDBRANCH  27  51
BRANCH  39  62
ATOM     62  C   UNL A   1      43.930  28.321  34.959  1.00  0.00     0.064 A 
ATOM     63  C   UNL A   1      43.714  27.135  35.671  1.00  0.00     0.173 A 
ATOM     64  C   UNL A   1      45.240  28.818  34.876  1.00  0.00     0.173 A 
ATOM     65  F   UNL A   1      42.476  26.631  35.787  1.00  0.00    -0.203 F 
ATOM     66  C   UNL A   1      44.772  26.472  36.286  1.00  0.00     0.198 A 
ATOM     67  C   UNL A   1      46.298  28.139  35.469  1.00  0.00     0.198 A 
ATOM     68  F   UNL A   1      45.492  29.947  34.196  1.00  0.00    -0.203 F 
ATOM     69  F   UNL A   1      44.543  25.352  36.985  1.00  0.00    -0.200 F 
ATOM     70  C   UNL A   1      46.063  26.969  36.176  1.00  0.00     0.200 A 
ATOM     71  F   UNL A   1      47.546  28.613  35.351  1.00  0.00    -0.200 F 
ATOM     72  F   UNL A   1      47.083  26.319  36.752  1.00  0.00    -0.200 F 
ENDBRANCH  39  62
ENDBRANCH  13  14
ENDBRANCH   6   8
ENDBRANCH   5   6
ENDBRANCH   4   5
ENDBRANCH   3   4
ENDBRANCH   2   3
ENDBRANCH   1   2
BRANCH   1  73
ATOM     73  C   UNL A   1      31.511  28.210  24.696  1.00  0.00     0.261 C 
BRANCH  73  74
ATOM     74  O   UNL A   1      31.895  26.830  24.784  1.00  0.00    -0.459 OA
BRANCH  74  75
ATOM     75  C   UNL A   1      33.012  26.491  24.083  1.00  0.00     0.357 C 
ATOM     76  O   UNL A   1      34.012  27.168  23.918  1.00  0.00    -0.244 OA
BRANCH  75  77
ATOM     77  C   UNL A   1      32.862  25.057  23.713  1.00  0.00     0.149 A 
ATOM     78  C   UNL A   1      32.417  24.140  24.657  1.00  0.00     0.051 A 
ATOM     79  N   UNL A   1      33.284  24.716  22.467  1.00  0.00    -0.249 NA
ATOM     80  C   UNL A   1      32.437  22.794  24.318  1.00  0.00     0.012 A 
ATOM     81  C   UNL A   1      33.285  23.408  22.163  1.00  0.00     0.113 A 
ATOM     82  C   UNL A   1      32.882  22.424  23.045  1.00  0.00     0.035 A 
BRANCH  80  83
ATOM     83  S   UNL A   1      31.886  21.481  25.382  1.00  0.00    -0.116 SA
BRANCH  83  84
ATOM     84  C   UNL A   1      33.405  20.689  25.969  1.00  0.00     0.175 C 
BRANCH  84  85
ATOM     85  C   UNL A   1      34.292  19.983  24.952  1.00  0.00     0.233 C 
ATOM     86  O   UNL A   1      35.445  20.394  24.786  1.00  0.00    -0.274 OA
ATOM     87  N   UNL A   1      33.890  18.776  24.415  1.00  0.00    -0.337 N 
ATOM     88  C   UNL A   1      32.528  18.334  24.123  1.00  0.00     0.148 C 
ATOM     89  C   UNL A   1      34.873  17.703  24.250  1.00  0.00     0.148 C 
ATOM     90  C   UNL A   1      32.164  17.154  25.020  1.00  0.00     0.181 C 
ATOM     91  C   UNL A   1      34.455  16.518  25.141  1.00  0.00     0.181 C 
ATOM     92  O   UNL A   1      33.112  16.085  24.853  1.00  0.00    -0.378 OA
ENDBRANCH  84  85
ENDBRANCH  83  84
ENDBRANCH  80  83
ENDBRANCH  75  77
ENDBRANCH  74  75
ENDBRANCH  73  74
ENDBRANCH   1  73
TORSDOF 17
ENDMDL
MODEL 3
REMARK VINA RESULT:     -10.6      5.188     10.647
REMARK SMILES O=C(OCCOCCOC(=O)c1cc(SCC(=O)N2CCOCC2)ccn1)c1ccc(-c2c3nc(c(-c4c(F)c(F)c(F)c(F)c4F)c4ccc([nH]4)c(-c4c(F)c(F)c(F)c(F)c4F)c4nc(c(-c5c(F)c(F)c(F)c(F)c5F)c5ccc2[nH]5)C=C4)C=C3)cc1
REMARK SMILES IDX 7 1 6 2 5 3 4 4 3 5 2 6 1 7 28 8 29 9 90 10 30 11 89 12
REMARK SMILES IDX 31 13 32 14 33 15 83 16 34 17 88 18 82 19 84 20 35 21 87 22
REMARK SMILES IDX 81 23 80 24 36 26 68 27 48 28 67 29 49 30 52 31 66 32 85 33
REMARK SMILES IDX 50 34 51 35 65 37 86 38 53 39 37 40 38 41 46 42 39 43 40 44
REMARK SMILES IDX 44 45 47 46 41 47 42 48 45 49 43 50 69 51 70 52 78 53 71 54
REMARK SMILES IDX 72 55 76 56 79 57 73 58 74 59 77 60 75 61 54 62 55 63 63 64
REMARK SMILES IDX 56 65 57 66 61 67 64 68 58 69 59 70 62 71 60 72 8 73 9 74
REMARK SMILES IDX 10 75 11 76 12 77 13 78 27 79 14 80 26 81 25 82 15 83 16 84
REMARK SMILES IDX 17 85 18 86 19 87 20 88 24 89 21 90 23 91 22 92
REMARK H PARENT 84 25 52 36
REMARK Flexibility Score: inf
ROOT
ATOM      1  C   UNL A   1      32.371  28.153  27.287  1.00  0.00     0.202 C 
ENDROOT
BRANCH   1   2
ATOM      2  O   UNL A   1      32.625  29.561  27.265  1.00  0.00    -0.374 OA
BRANCH   2   3
ATOM      3  C   UNL A   1      31.563  30.380  26.774  1.00  0.00     0.202 C 
BRANCH   3   4
ATOM      4  C   UNL A   1      32.020  31.802  26.439  1.00  0.00     0.261 C 
BRANCH   4   5
ATOM      5  O   UNL A   1      32.635  32.415  27.582  1.00  0.00    -0.460 OA
BRANCH   5   6
ATOM      6  C   UNL A   1      33.869  32.954  27.696  1.00  0.00     0.338 C 
ATOM      7  O   UNL A   1      34.059  34.067  27.203  1.00  0.00    -0.246 OA
BRANCH   6   8
ATOM      8  C   UNL A   1      35.022  32.314  28.409  1.00  0.00     0.060 A 
ATOM      9  C   UNL A   1      35.049  31.024  28.948  1.00  0.00     0.016 A 
ATOM     10  C   UNL A   1      36.211  33.066  28.464  1.00  0.00     0.016 A 
ATOM     11  C   UNL A   1      36.193  30.503  29.545  1.00  0.00     0.010 A 
ATOM     12  C   UNL A   1      37.369  32.551  29.052  1.00  0.00     0.010 A 
ATOM     13  C   UNL A   1      37.351  31.269  29.609  1.00  0.00    -0.014 A 
BRANCH  13  14
ATOM     14  C   UNL A   1      38.487  30.764  30.393  1.00  0.00     0.031 A 
ATOM     15  C   UNL A   1      39.431  29.818  29.724  1.00  0.00     0.074 A 
ATOM     16  C   UNL A   1      38.697  31.213  31.640  1.00  0.00     0.049 A 
ATOM     17  N   UNL A   1      40.449  29.170  30.221  1.00  0.00    -0.248 NA
ATOM     18  C   UNL A   1      39.201  29.579  28.290  1.00  0.00     0.031 C 
ATOM     19  C   UNL A   1      37.887  32.227  32.316  1.00  0.00     0.029 A 
ATOM     20  N   UNL A   1      39.659  30.881  32.555  1.00  0.00    -0.354 N 
ATOM     21  C   UNL A   1      40.963  28.425  29.170  1.00  0.00     0.074 A 
ATOM     22  C   UNL A   1      40.150  28.701  28.007  1.00  0.00     0.031 C 
ATOM     23  C   UNL A   1      38.384  32.429  33.547  1.00  0.00     0.029 A 
ATOM     24  C   UNL A   1      39.507  31.520  33.759  1.00  0.00     0.049 A 
ATOM     25  H   UNL A   1      40.387  30.247  32.368  1.00  0.00     0.167 HD
ATOM     26  C   UNL A   1      42.014  27.575  29.191  1.00  0.00     0.037 A 
ATOM     27  C   UNL A   1      40.184  31.351  34.910  1.00  0.00     0.037 A 
ATOM     28  C   UNL A   1      42.789  27.312  30.371  1.00  0.00     0.049 A 
ATOM     29  C   UNL A   1      41.299  30.340  34.934  1.00  0.00     0.074 A 
ATOM     30  C   UNL A   1      43.832  26.423  30.547  1.00  0.00     0.029 A 
ATOM     31  N   UNL A   1      42.589  27.949  31.591  1.00  0.00    -0.354 N 
ATOM     32  N   UNL A   1      41.749  29.583  33.959  1.00  0.00    -0.248 NA
ATOM     33  C   UNL A   1      41.995  30.147  36.212  1.00  0.00     0.031 C 
ATOM     34  C   UNL A   1      44.237  26.494  31.885  1.00  0.00     0.029 A 
ATOM     35  C   UNL A   1      43.479  27.462  32.531  1.00  0.00     0.049 A 
ATOM     36  H   UNL A   1      41.912  28.643  31.761  1.00  0.00     0.167 HD
ATOM     37  C   UNL A   1      42.788  28.839  34.496  1.00  0.00     0.074 A 
ATOM     38  C   UNL A   1      42.909  29.242  35.883  1.00  0.00     0.031 C 
ATOM     39  C   UNL A   1      43.572  27.907  33.899  1.00  0.00     0.037 A 
BRANCH  26  40
ATOM     40  C   UNL A   1      42.301  26.825  27.924  1.00  0.00     0.064 A 
ATOM     41  C   UNL A   1      41.703  25.589  27.639  1.00  0.00     0.173 A 
ATOM     42  C   UNL A   1      43.248  27.320  27.014  1.00  0.00     0.173 A 
ATOM     43  F   UNL A   1      40.815  25.055  28.492  1.00  0.00    -0.203 F 
ATOM     44  C   UNL A   1      42.070  24.857  26.511  1.00  0.00     0.198 A 
ATOM     45  C   UNL A   1      43.592  26.600  25.874  1.00  0.00     0.198 A 
ATOM     46  F   UNL A   1      43.856  28.494  27.243  1.00  0.00    -0.203 F 
ATOM     47  F   UNL A   1      41.539  23.646  26.298  1.00  0.00    -0.200 F 
ATOM     48  C   UNL A   1      43.014  25.364  25.630  1.00  0.00     0.200 A 
ATOM     49  F   UNL A   1      44.504  27.092  25.023  1.00  0.00    -0.200 F 
ATOM     50  F   UNL A   1      43.381  24.651  24.555  1.00  0.00    -0.200 F 
ENDBRANCH  26  40
BRANCH  27  51
ATOM     51  C   UNL A   1      39.795  32.124  36.118  1.00  0.00     0.064 A 
ATOM     52  C   UNL A   1      40.502  33.267  36.511  1.00  0.00     0.173 A 
ATOM     53  C   UNL A   1      38.680  31.752  36.887  1.00  0.00     0.173 A 
ATOM     54  F   UNL A   1      41.587  33.653  35.823  1.00  0.00    -0.203 F 
ATOM     55  C   UNL A   1      40.112  34.007  37.628  1.00  0.00     0.198 A 
ATOM     56  C   UNL A   1      38.276  32.507  37.987  1.00  0.00     0.198 A 
ATOM     57  F   UNL A   1      37.968  30.664  36.558  1.00  0.00    -0.203 F 
ATOM     58  F   UNL A   1      40.824  35.080  37.999  1.00  0.00    -0.200 F 
ATOM     59  C   UNL A   1      38.995  33.633  38.358  1.00  0.00     0.200 A 
ATOM     60  F   UNL A   1      37.188  32.146  38.681  1.00  0.00    -0.200 F 
ATOM     61  F   UNL A   1      38.613  34.352  39.423  1.00  0.00    -0.200 F 
ENDBRANCH  27  51
BRANCH  39  62
ATOM     62  C   UNL A   1      44.653  27.291  34.734  1.00  0.00     0.064 A 
ATOM     63  C   UNL A   1      45.914  27.890  34.860  1.00  0.00     0.173 A 
ATOM     64  C   UNL A   1      44.390  26.134  35.482  1.00  0.00     0.173 A 
ATOM     65  F   UNL A   1      46.212  28.991  34.153  1.00  0.00    -0.203 F 
ATOM     66  C   UNL A   1      46.879  27.345  35.700  1.00  0.00     0.198 A 
ATOM     67  C   UNL A   1      45.349  25.607  36.340  1.00  0.00     0.198 A 
ATOM     68  F   UNL A   1      43.193  25.533  35.398  1.00  0.00    -0.203 F 
ATOM     69  F   UNL A   1      48.089  27.916  35.787  1.00  0.00    -0.200 F 
ATOM     70  C   UNL A   1      46.593  26.210  36.446  1.00  0.00     0.200 A 
ATOM     71  F   UNL A   1      45.066  24.519  37.070  1.00  0.00    -0.200 F 
ATOM     72  F   UNL A   1      47.517  25.698  37.268  1.00  0.00    -0.200 F 
ENDBRANCH  39  62
ENDBRANCH  13  14
ENDBRANCH   6   8
ENDBRANCH   5   6
ENDBRANCH   4   5
ENDBRANCH   3   4
ENDBRANCH   2   3
ENDBRANCH   1   2
BRANCH   1  73
ATOM     73  C   UNL A   1      31.354  27.807  26.198  1.00  0.00     0.261 C 
BRANCH  73  74
ATOM     74  O   UNL A   1      31.912  26.787  25.357  1.00  0.00    -0.459 OA
BRANCH  74  75
ATOM     75  C   UNL A   1      31.741  25.511  25.799  1.00  0.00     0.357 C 
ATOM     76  O   UNL A   1      30.850  25.094  26.520  1.00  0.00    -0.244 OA
BRANCH  75  77
ATOM     77  C   UNL A   1      32.740  24.675  25.081  1.00  0.00     0.149 A 
ATOM     78  C   UNL A   1      33.114  23.441  25.600  1.00  0.00     0.051 A 
ATOM     79  N   UNL A   1      33.313  25.239  23.985  1.00  0.00    -0.249 NA
ATOM     80  C   UNL A   1      34.157  22.763  24.984  1.00  0.00     0.012 A 
ATOM     81  C   UNL A   1      34.314  24.557  23.404  1.00  0.00     0.113 A 
ATOM     82  C   UNL A   1      34.768  23.336  23.865  1.00  0.00     0.035 A 
BRANCH  80  83
ATOM     83  S   UNL A   1      34.757  21.168  25.491  1.00  0.00    -0.116 SA
BRANCH  83  84
ATOM     84  C   UNL A   1      33.268  20.177  25.772  1.00  0.00     0.175 C 
BRANCH  84  85
ATOM     85  C   UNL A   1      32.564  19.570  24.566  1.00  0.00     0.233 C 
ATOM     86  O   UNL A   1      32.181  20.323  23.663  1.00  0.00    -0.274 OA
ATOM     87  N   UNL A   1      32.573  18.202  24.385  1.00  0.00    -0.337 N 
ATOM     88  C   UNL A   1      32.562  17.162  25.412  1.00  0.00     0.148 C 
ATOM     89  C   UNL A   1      32.790  17.659  23.043  1.00  0.00     0.148 C 
ATOM     90  C   UNL A   1      33.873  16.382  25.373  1.00  0.00     0.181 C 
ATOM     91  C   UNL A   1      34.102  16.850  23.050  1.00  0.00     0.181 C 
ATOM     92  O   UNL A   1      34.088  15.826  24.064  1.00  0.00    -0.378 OA
ENDBRANCH  84  85
ENDBRANCH  83  84
ENDBRANCH  80  83
ENDBRANCH  75  77
ENDBRANCH  74  75
ENDBRANCH  73  74
ENDBRANCH   1  73
TORSDOF 17
ENDMDL
