MODEL 1
REMARK VINA RESULT:     -11.7      0.000      0.000
REMARK SMILES C[C@@H]1[C@@H](C(=O)OCCOCCOC(=O)c2ccc(-c3c4nc(c(-c5c(F)c(F)c(F)c(F)c5F)c5ccc([nH]5)c(-c5c(F)c(F)c(F)c(F)c5F)c5nc(c(-c6c(F)c(F)c(F)c(F)c6F)c6ccc3[nH]6)C=C5)C=C4)cc2)CCN1C(=O)[C@@H]1CCCN(C(N)=O)C1
REMARK SMILES IDX 8 1 7 2 6 3 4 4 5 5 3 6 1 7 2 8 80 9 78 10 79 11 81 12 82 13
REMARK SMILES IDX 83 14 84 15 91 16 85 17 87 18 86 19 88 20 89 21 90 22 9 25
REMARK SMILES IDX 10 26 11 27 12 28 13 29 14 30 15 31 16 32 77 33 17 34 76 35
REMARK SMILES IDX 18 36 19 37 20 38 70 39 21 40 75 41 69 42 71 43 22 44 74 45
REMARK SMILES IDX 68 46 67 47 23 49 55 50 35 51 54 52 36 53 39 54 53 55 72 56
REMARK SMILES IDX 37 57 38 58 52 60 73 61 40 62 24 63 25 64 33 65 26 66 27 67
REMARK SMILES IDX 31 68 34 69 28 70 29 71 32 72 30 73 56 74 57 75 65 76 58 77
REMARK SMILES IDX 59 78 63 79 66 80 60 81 61 82 64 83 62 84 41 85 42 86 50 87
REMARK SMILES IDX 43 88 44 89 48 90 51 91 45 92 46 93 49 94 47 95
REMARK H PARENT 89 23 89 24 71 48 39 59
REMARK Flexibility Score: inf
ROOT
ATOM      1  C   UNL A   1      40.025  21.596  26.556  1.00  0.00     0.202 C 
ENDROOT
BRANCH   1   2
ATOM      2  C   UNL A   1      38.757  22.264  26.017  1.00  0.00     0.261 C 
BRANCH   2   3
ATOM      3  O   UNL A   1      37.693  21.341  25.759  1.00  0.00    -0.463 OA
BRANCH   3   4
ATOM      4  C   UNL A   1      36.794  21.760  24.822  1.00  0.00     0.311 C 
ATOM      5  O   UNL A   1      37.053  22.530  23.906  1.00  0.00    -0.252 OA
BRANCH   4   6
ATOM      6  C   UNL A   1      35.429  21.149  25.085  1.00  0.00     0.123 C 
ATOM      7  C   UNL A   1      33.089  20.957  24.159  1.00  0.00     0.032 C 
ATOM      8  C   UNL A   1      34.351  21.831  24.227  1.00  0.00     0.096 C 
ATOM      9  N   UNL A   1      34.097  23.079  24.949  1.00  0.00    -0.339 N 
ATOM     10  C   UNL A   1      34.985  21.490  26.505  1.00  0.00     0.039 C 
ATOM     11  C   UNL A   1      34.453  22.914  26.361  1.00  0.00     0.121 C 
BRANCH   9  12
ATOM     12  C   UNL A   1      33.901  24.361  24.484  1.00  0.00     0.227 C 
ATOM     13  O   UNL A   1      34.897  25.073  24.271  1.00  0.00    -0.275 OA
BRANCH  12  14
ATOM     14  C   UNL A   1      32.530  24.994  24.182  1.00  0.00     0.098 C 
ATOM     15  C   UNL A   1      32.325  26.462  24.544  1.00  0.00     0.017 C 
ATOM     16  C   UNL A   1      31.315  24.121  24.471  1.00  0.00     0.134 C 
ATOM     17  C   UNL A   1      31.554  26.713  25.832  1.00  0.00     0.022 C 
ATOM     18  N   UNL A   1      30.703  24.367  25.773  1.00  0.00    -0.324 N 
ATOM     19  C   UNL A   1      30.397  25.757  26.091  1.00  0.00     0.121 C 
BRANCH  18  20
ATOM     20  C   UNL A   1      30.117  23.395  26.553  1.00  0.00     0.314 C 
ATOM     21  N   UNL A   1      30.244  22.116  26.140  1.00  0.00    -0.351 N 
ATOM     22  O   UNL A   1      29.516  23.632  27.596  1.00  0.00    -0.249 OA
ATOM     23  H   UNL A   1      30.726  21.914  25.306  1.00  0.00     0.161 HD
ATOM     24  H   UNL A   1      29.857  21.386  26.675  1.00  0.00     0.161 HD
ENDBRANCH  18  20
ENDBRANCH  12  14
ENDBRANCH   9  12
ENDBRANCH   4   6
ENDBRANCH   3   4
ENDBRANCH   2   3
ENDBRANCH   1   2
BRANCH   1  25
ATOM     25  O   UNL A   1      41.066  21.267  25.648  1.00  0.00    -0.374 OA
BRANCH  25  26
ATOM     26  C   UNL A   1      42.413  21.201  26.115  1.00  0.00     0.202 C 
BRANCH  26  27
ATOM     27  C   UNL A   1      43.504  22.066  25.465  1.00  0.00     0.261 C 
BRANCH  27  28
ATOM     28  O   UNL A   1      43.014  23.254  24.828  1.00  0.00    -0.460 OA
BRANCH  28  29
ATOM     29  C   UNL A   1      43.773  24.356  25.041  1.00  0.00     0.338 C 
ATOM     30  O   UNL A   1      44.801  24.684  24.463  1.00  0.00    -0.246 OA
BRANCH  29  31
ATOM     31  C   UNL A   1      43.075  25.253  25.968  1.00  0.00     0.060 A 
ATOM     32  C   UNL A   1      43.580  26.550  26.136  1.00  0.00     0.016 A 
ATOM     33  C   UNL A   1      41.987  24.803  26.717  1.00  0.00     0.016 A 
ATOM     34  C   UNL A   1      43.011  27.399  27.076  1.00  0.00     0.010 A 
ATOM     35  C   UNL A   1      41.428  25.651  27.673  1.00  0.00     0.010 A 
ATOM     36  C   UNL A   1      41.958  26.939  27.875  1.00  0.00    -0.014 A 
BRANCH  36  37
ATOM     37  C   UNL A   1      41.527  27.747  29.034  1.00  0.00     0.031 A 
ATOM     38  C   UNL A   1      42.292  27.625  30.319  1.00  0.00     0.074 A 
ATOM     39  C   UNL A   1      40.491  28.594  28.924  1.00  0.00     0.049 A 
ATOM     40  N   UNL A   1      42.073  28.196  31.475  1.00  0.00    -0.248 NA
ATOM     41  C   UNL A   1      43.464  26.735  30.299  1.00  0.00     0.031 C 
ATOM     42  C   UNL A   1      39.712  28.821  27.708  1.00  0.00     0.029 A 
ATOM     43  N   UNL A   1      39.912  29.417  29.855  1.00  0.00    -0.354 N 
ATOM     44  C   UNL A   1      43.071  27.728  32.319  1.00  0.00     0.074 A 
ATOM     45  C   UNL A   1      43.877  26.802  31.556  1.00  0.00     0.031 C 
ATOM     46  C   UNL A   1      38.748  29.718  27.969  1.00  0.00     0.029 A 
ATOM     47  C   UNL A   1      38.819  30.097  29.379  1.00  0.00     0.049 A 
ATOM     48  H   UNL A   1      40.248  29.511  30.775  1.00  0.00     0.167 HD
ATOM     49  C   UNL A   1      43.296  28.053  33.614  1.00  0.00     0.037 A 
ATOM     50  C   UNL A   1      37.963  30.912  30.023  1.00  0.00     0.037 A 
ATOM     51  C   UNL A   1      42.482  28.976  34.360  1.00  0.00     0.049 A 
ATOM     52  C   UNL A   1      38.190  31.197  31.486  1.00  0.00     0.074 A 
ATOM     53  C   UNL A   1      42.625  29.389  35.673  1.00  0.00     0.029 A 
ATOM     54  N   UNL A   1      41.361  29.623  33.856  1.00  0.00    -0.354 N 
ATOM     55  N   UNL A   1      39.147  30.770  32.275  1.00  0.00    -0.248 NA
ATOM     56  C   UNL A   1      37.220  32.080  32.146  1.00  0.00     0.031 C 
ATOM     57  C   UNL A   1      41.558  30.237  35.981  1.00  0.00     0.029 A 
ATOM     58  C   UNL A   1      40.787  30.409  34.842  1.00  0.00     0.049 A 
ATOM     59  H   UNL A   1      41.025  29.537  32.935  1.00  0.00     0.167 HD
ATOM     60  C   UNL A   1      38.915  31.358  33.512  1.00  0.00     0.074 A 
ATOM     61  C   UNL A   1      37.733  32.182  33.364  1.00  0.00     0.031 C 
ATOM     62  C   UNL A   1      39.614  31.230  34.667  1.00  0.00     0.037 A 
BRANCH  49  63
ATOM     63  C   UNL A   1      44.444  27.382  34.311  1.00  0.00     0.064 A 
ATOM     64  C   UNL A   1      45.719  27.964  34.370  1.00  0.00     0.173 A 
ATOM     65  C   UNL A   1      44.258  26.148  34.953  1.00  0.00     0.173 A 
ATOM     66  F   UNL A   1      45.956  29.135  33.759  1.00  0.00    -0.203 F 
ATOM     67  C   UNL A   1      46.770  27.324  35.022  1.00  0.00     0.198 A 
ATOM     68  C   UNL A   1      45.303  25.527  35.632  1.00  0.00     0.198 A 
ATOM     69  F   UNL A   1      43.059  25.546  34.929  1.00  0.00    -0.203 F 
ATOM     70  F   UNL A   1      47.993  27.874  35.020  1.00  0.00    -0.200 F 
ATOM     71  C   UNL A   1      46.559  26.110  35.659  1.00  0.00     0.200 A 
ATOM     72  F   UNL A   1      45.092  24.361  36.258  1.00  0.00    -0.200 F 
ATOM     73  F   UNL A   1      47.570  25.500  36.293  1.00  0.00    -0.200 F 
ENDBRANCH  49  63
BRANCH  50  74
ATOM     74  C   UNL A   1      36.807  31.503  29.298  1.00  0.00     0.064 A 
ATOM     75  C   UNL A   1      36.771  32.869  28.984  1.00  0.00     0.173 A 
ATOM     76  C   UNL A   1      35.708  30.718  28.918  1.00  0.00     0.173 A 
ATOM     77  F   UNL A   1      37.788  33.666  29.345  1.00  0.00    -0.203 F 
ATOM     78  C   UNL A   1      35.670  33.430  28.340  1.00  0.00     0.198 A 
ATOM     79  C   UNL A   1      34.623  31.275  28.245  1.00  0.00     0.198 A 
ATOM     80  F   UNL A   1      35.692  29.406  29.191  1.00  0.00    -0.203 F 
ATOM     81  F   UNL A   1      35.639  34.748  28.100  1.00  0.00    -0.200 F 
ATOM     82  C   UNL A   1      34.600  32.632  27.966  1.00  0.00     0.200 A 
ATOM     83  F   UNL A   1      33.598  30.496  27.871  1.00  0.00    -0.200 F 
ATOM     84  F   UNL A   1      33.543  33.173  27.344  1.00  0.00    -0.200 F 
ENDBRANCH  50  74
BRANCH  62  85
ATOM     85  C   UNL A   1      39.147  32.033  35.848  1.00  0.00     0.064 A 
ATOM     86  C   UNL A   1      39.532  33.369  36.035  1.00  0.00     0.173 A 
ATOM     87  C   UNL A   1      38.268  31.466  36.785  1.00  0.00     0.173 A 
ATOM     88  F   UNL A   1      40.381  33.954  35.177  1.00  0.00    -0.203 F 
ATOM     89  C   UNL A   1      39.078  34.097  37.132  1.00  0.00     0.198 A 
ATOM     90  C   UNL A   1      37.788  32.209  37.860  1.00  0.00     0.198 A 
ATOM     91  F   UNL A   1      37.860  30.195  36.648  1.00  0.00    -0.203 F 
ATOM     92  F   UNL A   1      39.504  35.354  37.321  1.00  0.00    -0.200 F 
ATOM     93  C   UNL A   1      38.201  33.520  38.038  1.00  0.00     0.200 A 
ATOM     94  F   UNL A   1      36.926  31.655  38.723  1.00  0.00    -0.200 F 
ATOM     95  F   UNL A   1      37.760  34.226  39.088  1.00  0.00    -0.200 F 
ENDBRANCH  62  85
ENDBRANCH  36  37
ENDBRANCH  29  31
ENDBRANCH  28  29
ENDBRANCH  27  28
ENDBRANCH  26  27
ENDBRANCH  25  26
ENDBRANCH   1  25
TORSDOF 17
ENDMDL
MODEL 2
REMARK VINA RESULT:     -11.4      4.898      9.528
REMARK SMILES C[C@@H]1[C@@H](C(=O)OCCOCCOC(=O)c2ccc(-c3c4nc(c(-c5c(F)c(F)c(F)c(F)c5F)c5ccc([nH]5)c(-c5c(F)c(F)c(F)c(F)c5F)c5nc(c(-c6c(F)c(F)c(F)c(F)c6F)c6ccc3[nH]6)C=C5)C=C4)cc2)CCN1C(=O)[C@@H]1CCCN(C(N)=O)C1
REMARK SMILES IDX 8 1 7 2 6 3 4 4 5 5 3 6 1 7 2 8 80 9 78 10 79 11 81 12 82 13
REMARK SMILES IDX 83 14 84 15 91 16 85 17 87 18 86 19 88 20 89 21 90 22 9 25
REMARK SMILES IDX 10 26 11 27 12 28 13 29 14 30 15 31 16 32 77 33 17 34 76 35
REMARK SMILES IDX 18 36 19 37 20 38 70 39 21 40 75 41 69 42 71 43 22 44 74 45
REMARK SMILES IDX 68 46 67 47 23 49 55 50 35 51 54 52 36 53 39 54 53 55 72 56
REMARK SMILES IDX 37 57 38 58 52 60 73 61 40 62 24 63 25 64 33 65 26 66 27 67
REMARK SMILES IDX 31 68 34 69 28 70 29 71 32 72 30 73 56 74 57 75 65 76 58 77
REMARK SMILES IDX 59 78 63 79 66 80 60 81 61 82 64 83 62 84 41 85 42 86 50 87
REMARK SMILES IDX 43 88 44 89 48 90 51 91 45 92 46 93 49 94 47 95
REMARK H PARENT 89 23 89 24 71 48 39 59
REMARK Flexibility Score: inf
ROOT
ATOM      1  C   UNL A   1      36.242  21.628  24.589  1.00  0.00     0.202 C 
ENDROOT
BRANCH   1   2
ATOM      2  C   UNL A   1      34.763  21.892  24.881  1.00  0.00     0.261 C 
BRANCH   2   3
ATOM      3  O   UNL A   1      34.045  22.417  23.758  1.00  0.00    -0.463 OA
BRANCH   3   4
ATOM      4  C   UNL A   1      32.690  22.442  23.913  1.00  0.00     0.311 C 
ATOM      5  O   UNL A   1      32.072  21.786  24.741  1.00  0.00    -0.252 OA
BRANCH   4   6
ATOM      6  C   UNL A   1      32.058  23.387  22.906  1.00  0.00     0.123 C 
ATOM      7  C   UNL A   1      32.554  25.315  21.356  1.00  0.00     0.032 C 
ATOM      8  C   UNL A   1      32.962  24.604  22.654  1.00  0.00     0.096 C 
ATOM      9  N   UNL A   1      32.713  25.446  23.825  1.00  0.00    -0.339 N 
ATOM     10  C   UNL A   1      30.812  24.022  23.518  1.00  0.00     0.039 C 
ATOM     11  C   UNL A   1      31.393  25.140  24.382  1.00  0.00     0.121 C 
BRANCH   9  12
ATOM     12  C   UNL A   1      33.582  26.181  24.603  1.00  0.00     0.227 C 
ATOM     13  O   UNL A   1      34.415  25.573  25.296  1.00  0.00    -0.275 OA
BRANCH  12  14
ATOM     14  C   UNL A   1      33.620  27.719  24.676  1.00  0.00     0.098 C 
ATOM     15  C   UNL A   1      33.176  28.384  25.976  1.00  0.00     0.017 C 
ATOM     16  C   UNL A   1      33.156  28.457  23.426  1.00  0.00     0.134 C 
ATOM     17  C   UNL A   1      31.767  28.958  25.966  1.00  0.00     0.022 C 
ATOM     18  N   UNL A   1      31.760  28.881  23.471  1.00  0.00    -0.324 N 
ATOM     19  C   UNL A   1      31.346  29.618  24.660  1.00  0.00     0.121 C 
BRANCH  18  20
ATOM     20  C   UNL A   1      30.926  28.924  22.377  1.00  0.00     0.314 C 
ATOM     21  N   UNL A   1      30.889  30.076  21.675  1.00  0.00    -0.351 N 
ATOM     22  O   UNL A   1      30.243  27.973  22.006  1.00  0.00    -0.249 OA
ATOM     23  H   UNL A   1      31.433  30.845  21.963  1.00  0.00     0.161 HD
ATOM     24  H   UNL A   1      30.321  30.147  20.874  1.00  0.00     0.161 HD
ENDBRANCH  18  20
ENDBRANCH  12  14
ENDBRANCH   9  12
ENDBRANCH   4   6
ENDBRANCH   3   4
ENDBRANCH   2   3
ENDBRANCH   1   2
BRANCH   1  25
ATOM     25  O   UNL A   1      37.045  21.036  25.598  1.00  0.00    -0.374 OA
BRANCH  25  26
ATOM     26  C   UNL A   1      38.467  21.076  25.480  1.00  0.00     0.202 C 
BRANCH  26  27
ATOM     27  C   UNL A   1      39.291  19.781  25.547  1.00  0.00     0.261 C 
BRANCH  27  28
ATOM     28  O   UNL A   1      40.275  19.760  26.589  1.00  0.00    -0.460 OA
BRANCH  28  29
ATOM     29  C   UNL A   1      41.547  19.590  26.154  1.00  0.00     0.338 C 
ATOM     30  O   UNL A   1      42.002  18.653  25.510  1.00  0.00    -0.246 OA
BRANCH  29  31
ATOM     31  C   UNL A   1      42.311  20.819  26.397  1.00  0.00     0.060 A 
ATOM     32  C   UNL A   1      42.367  21.310  27.709  1.00  0.00     0.016 A 
ATOM     33  C   UNL A   1      42.897  21.517  25.341  1.00  0.00     0.016 A 
ATOM     34  C   UNL A   1      42.995  22.522  27.968  1.00  0.00     0.010 A 
ATOM     35  C   UNL A   1      43.512  22.742  25.601  1.00  0.00     0.010 A 
ATOM     36  C   UNL A   1      43.535  23.261  26.909  1.00  0.00    -0.014 A 
BRANCH  36  37
ATOM     37  C   UNL A   1      43.972  24.651  27.149  1.00  0.00     0.031 A 
ATOM     38  C   UNL A   1      42.960  25.649  27.631  1.00  0.00     0.074 A 
ATOM     39  C   UNL A   1      45.257  25.000  26.970  1.00  0.00     0.049 A 
ATOM     40  N   UNL A   1      43.099  26.928  27.865  1.00  0.00    -0.248 NA
ATOM     41  C   UNL A   1      41.603  25.135  27.880  1.00  0.00     0.031 C 
ATOM     42  C   UNL A   1      46.326  24.096  26.552  1.00  0.00     0.029 A 
ATOM     43  N   UNL A   1      45.876  26.214  27.113  1.00  0.00    -0.354 N 
ATOM     44  C   UNL A   1      41.850  27.371  28.279  1.00  0.00     0.074 A 
ATOM     45  C   UNL A   1      40.956  26.235  28.233  1.00  0.00     0.031 C 
ATOM     46  C   UNL A   1      47.472  24.791  26.460  1.00  0.00     0.029 A 
ATOM     47  C   UNL A   1      47.206  26.192  26.776  1.00  0.00     0.049 A 
ATOM     48  H   UNL A   1      45.412  27.024  27.426  1.00  0.00     0.167 HD
ATOM     49  C   UNL A   1      41.488  28.616  28.670  1.00  0.00     0.037 A 
ATOM     50  C   UNL A   1      48.096  27.200  26.709  1.00  0.00     0.037 A 
ATOM     51  C   UNL A   1      42.391  29.736  28.708  1.00  0.00     0.049 A 
ATOM     52  C   UNL A   1      47.648  28.592  27.075  1.00  0.00     0.074 A 
ATOM     53  C   UNL A   1      42.136  31.038  29.100  1.00  0.00     0.029 A 
ATOM     54  N   UNL A   1      43.725  29.686  28.329  1.00  0.00    -0.354 N 
ATOM     55  N   UNL A   1      46.472  29.004  27.487  1.00  0.00    -0.248 NA
ATOM     56  C   UNL A   1      48.652  29.659  26.972  1.00  0.00     0.031 C 
ATOM     57  C   UNL A   1      43.298  31.789  28.900  1.00  0.00     0.029 A 
ATOM     58  C   UNL A   1      44.298  30.941  28.449  1.00  0.00     0.049 A 
ATOM     59  H   UNL A   1      44.195  28.878  28.020  1.00  0.00     0.167 HD
ATOM     60  C   UNL A   1      46.603  30.366  27.723  1.00  0.00     0.074 A 
ATOM     61  C   UNL A   1      47.978  30.708  27.422  1.00  0.00     0.031 C 
ATOM     62  C   UNL A   1      45.674  31.256  28.152  1.00  0.00     0.037 A 
BRANCH  49  63
ATOM     63  C   UNL A   1      40.053  28.835  29.053  1.00  0.00     0.064 A 
ATOM     64  C   UNL A   1      39.611  28.702  30.379  1.00  0.00     0.173 A 
ATOM     65  C   UNL A   1      39.111  29.210  28.083  1.00  0.00     0.173 A 
ATOM     66  F   UNL A   1      40.467  28.331  31.343  1.00  0.00    -0.203 F 
ATOM     67  C   UNL A   1      38.275  28.911  30.713  1.00  0.00     0.198 A 
ATOM     68  C   UNL A   1      37.783  29.449  28.427  1.00  0.00     0.198 A 
ATOM     69  F   UNL A   1      39.479  29.351  26.801  1.00  0.00    -0.203 F 
ATOM     70  F   UNL A   1      37.864  28.727  31.976  1.00  0.00    -0.200 F 
ATOM     71  C   UNL A   1      37.364  29.292  29.738  1.00  0.00     0.200 A 
ATOM     72  F   UNL A   1      36.908  29.829  27.486  1.00  0.00    -0.200 F 
ATOM     73  F   UNL A   1      36.081  29.499  30.063  1.00  0.00    -0.200 F 
ENDBRANCH  49  63
BRANCH  50  74
ATOM     74  C   UNL A   1      49.490  26.936  26.265  1.00  0.00     0.064 A 
ATOM     75  C   UNL A   1      49.843  27.002  24.910  1.00  0.00     0.173 A 
ATOM     76  C   UNL A   1      50.494  26.596  27.184  1.00  0.00     0.173 A 
ATOM     77  F   UNL A   1      48.915  27.301  23.990  1.00  0.00    -0.203 F 
ATOM     78  C   UNL A   1      51.141  26.714  24.490  1.00  0.00     0.198 A 
ATOM     79  C   UNL A   1      51.798  26.342  26.766  1.00  0.00     0.198 A 
ATOM     80  F   UNL A   1      50.211  26.522  28.493  1.00  0.00    -0.203 F 
ATOM     81  F   UNL A   1      51.438  26.732  23.184  1.00  0.00    -0.200 F 
ATOM     82  C   UNL A   1      52.118  26.390  25.419  1.00  0.00     0.200 A 
ATOM     83  F   UNL A   1      52.743  26.046  27.670  1.00  0.00    -0.200 F 
ATOM     84  F   UNL A   1      53.366  26.118  25.014  1.00  0.00    -0.200 F 
ENDBRANCH  50  74
BRANCH  62  85
ATOM     85  C   UNL A   1      46.123  32.674  28.364  1.00  0.00     0.064 A 
ATOM     86  C   UNL A   1      46.678  33.102  29.578  1.00  0.00     0.173 A 
ATOM     87  C   UNL A   1      46.032  33.607  27.318  1.00  0.00     0.173 A 
ATOM     88  F   UNL A   1      46.775  32.254  30.613  1.00  0.00    -0.203 F 
ATOM     89  C   UNL A   1      47.097  34.420  29.748  1.00  0.00     0.198 A 
ATOM     90  C   UNL A   1      46.485  34.913  27.480  1.00  0.00     0.198 A 
ATOM     91  F   UNL A   1      45.518  33.247  26.132  1.00  0.00    -0.203 F 
ATOM     92  F   UNL A   1      47.572  34.821  30.935  1.00  0.00    -0.200 F 
ATOM     93  C   UNL A   1      47.008  35.321  28.697  1.00  0.00     0.200 A 
ATOM     94  F   UNL A   1      46.416  35.776  26.458  1.00  0.00    -0.200 F 
ATOM     95  F   UNL A   1      47.420  36.586  28.861  1.00  0.00    -0.200 F 
ENDBRANCH  62  85
ENDBRANCH  36  37
ENDBRANCH  29  31
ENDBRANCH  28  29
ENDBRANCH  27  28
ENDBRANCH  26  27
ENDBRANCH  25  26
ENDBRANCH   1  25
TORSDOF 17
ENDMDL
MODEL 3
REMARK VINA RESULT:     -11.4      4.575      6.923
REMARK SMILES C[C@@H]1[C@@H](C(=O)OCCOCCOC(=O)c2ccc(-c3c4nc(c(-c5c(F)c(F)c(F)c(F)c5F)c5ccc([nH]5)c(-c5c(F)c(F)c(F)c(F)c5F)c5nc(c(-c6c(F)c(F)c(F)c(F)c6F)c6ccc3[nH]6)C=C5)C=C4)cc2)CCN1C(=O)[C@@H]1CCCN(C(N)=O)C1
REMARK SMILES IDX 8 1 7 2 6 3 4 4 5 5 3 6 1 7 2 8 80 9 78 10 79 11 81 12 82 13
REMARK SMILES IDX 83 14 84 15 91 16 85 17 87 18 86 19 88 20 89 21 90 22 9 25
REMARK SMILES IDX 10 26 11 27 12 28 13 29 14 30 15 31 16 32 77 33 17 34 76 35
REMARK SMILES IDX 18 36 19 37 20 38 70 39 21 40 75 41 69 42 71 43 22 44 74 45
REMARK SMILES IDX 68 46 67 47 23 49 55 50 35 51 54 52 36 53 39 54 53 55 72 56
REMARK SMILES IDX 37 57 38 58 52 60 73 61 40 62 24 63 25 64 33 65 26 66 27 67
REMARK SMILES IDX 31 68 34 69 28 70 29 71 32 72 30 73 56 74 57 75 65 76 58 77
REMARK SMILES IDX 59 78 63 79 66 80 60 81 61 82 64 83 62 84 41 85 42 86 50 87
REMARK SMILES IDX 43 88 44 89 48 90 51 91 45 92 46 93 49 94 47 95
REMARK H PARENT 89 23 89 24 71 48 39 59
REMARK Flexibility Score: inf
ROOT
ATOM      1  C   UNL A   1      37.122  22.084  24.323  1.00  0.00     0.202 C 
ENDROOT
BRANCH   1   2
ATOM      2  C   UNL A   1      35.690  22.492  23.969  1.00  0.00     0.261 C 
BRANCH   2   3
ATOM      3  O   UNL A   1      34.693  21.721  24.649  1.00  0.00    -0.463 OA
BRANCH   3   4
ATOM      4  C   UNL A   1      33.408  22.086  24.371  1.00  0.00     0.311 C 
ATOM      5  O   UNL A   1      32.969  22.284  23.245  1.00  0.00    -0.252 OA
BRANCH   4   6
ATOM      6  C   UNL A   1      32.606  22.224  25.653  1.00  0.00     0.123 C 
ATOM      7  C   UNL A   1      30.280  22.621  26.549  1.00  0.00     0.032 C 
ATOM      8  C   UNL A   1      31.240  22.873  25.376  1.00  0.00     0.096 C 
ATOM      9  N   UNL A   1      31.570  24.294  25.253  1.00  0.00    -0.339 N 
ATOM     10  C   UNL A   1      33.278  23.246  26.565  1.00  0.00     0.039 C 
ATOM     11  C   UNL A   1      32.808  24.578  25.985  1.00  0.00     0.121 C 
BRANCH   9  12
ATOM     12  C   UNL A   1      31.116  25.248  24.368  1.00  0.00     0.227 C 
ATOM     13  O   UNL A   1      31.377  25.108  23.162  1.00  0.00    -0.275 OA
BRANCH  12  14
ATOM     14  C   UNL A   1      30.282  26.485  24.751  1.00  0.00     0.098 C 
ATOM     15  C   UNL A   1      29.225  26.968  23.763  1.00  0.00     0.017 C 
ATOM     16  C   UNL A   1      31.043  27.618  25.429  1.00  0.00     0.134 C 
ATOM     17  C   UNL A   1      29.624  28.168  22.916  1.00  0.00     0.022 C 
ATOM     18  N   UNL A   1      31.471  28.674  24.517  1.00  0.00    -0.324 N 
ATOM     19  C   UNL A   1      30.444  29.227  23.641  1.00  0.00     0.121 C 
BRANCH  18  20
ATOM     20  C   UNL A   1      32.643  29.386  24.648  1.00  0.00     0.314 C 
ATOM     21  N   UNL A   1      33.461  29.426  23.575  1.00  0.00    -0.351 N 
ATOM     22  O   UNL A   1      32.960  29.991  25.667  1.00  0.00    -0.249 OA
ATOM     23  H   UNL A   1      33.216  28.945  22.751  1.00  0.00     0.161 HD
ATOM     24  H   UNL A   1      34.301  29.937  23.616  1.00  0.00     0.161 HD
ENDBRANCH  18  20
ENDBRANCH  12  14
ENDBRANCH   9  12
ENDBRANCH   4   6
ENDBRANCH   3   4
ENDBRANCH   2   3
ENDBRANCH   1   2
BRANCH   1  25
ATOM     25  O   UNL A   1      37.326  21.060  25.284  1.00  0.00    -0.374 OA
BRANCH  25  26
ATOM     26  C   UNL A   1      38.053  19.886  24.919  1.00  0.00     0.202 C 
BRANCH  26  27
ATOM     27  C   UNL A   1      39.280  19.446  25.733  1.00  0.00     0.261 C 
BRANCH  27  28
ATOM     28  O   UNL A   1      40.296  20.450  25.857  1.00  0.00    -0.460 OA
BRANCH  28  29
ATOM     29  C   UNL A   1      40.875  20.512  27.080  1.00  0.00     0.338 C 
ATOM     30  O   UNL A   1      41.336  19.590  27.742  1.00  0.00    -0.246 OA
BRANCH  29  31
ATOM     31  C   UNL A   1      41.065  21.917  27.456  1.00  0.00     0.060 A 
ATOM     32  C   UNL A   1      40.483  22.900  26.643  1.00  0.00     0.016 A 
ATOM     33  C   UNL A   1      41.865  22.265  28.544  1.00  0.00     0.016 A 
ATOM     34  C   UNL A   1      40.719  24.244  26.905  1.00  0.00     0.010 A 
ATOM     35  C   UNL A   1      42.116  23.614  28.794  1.00  0.00     0.010 A 
ATOM     36  C   UNL A   1      41.568  24.604  27.957  1.00  0.00    -0.014 A 
BRANCH  36  37
ATOM     37  C   UNL A   1      42.015  26.007  28.074  1.00  0.00     0.031 A 
ATOM     38  C   UNL A   1      43.340  26.391  27.483  1.00  0.00     0.074 A 
ATOM     39  C   UNL A   1      41.233  26.922  28.671  1.00  0.00     0.049 A 
ATOM     40  N   UNL A   1      43.956  27.544  27.502  1.00  0.00    -0.248 NA
ATOM     41  C   UNL A   1      44.070  25.328  26.774  1.00  0.00     0.031 C 
ATOM     42  C   UNL A   1      39.909  26.661  29.234  1.00  0.00     0.029 A 
ATOM     43  N   UNL A   1      41.444  28.255  28.906  1.00  0.00    -0.354 N 
ATOM     44  C   UNL A   1      45.148  27.343  26.819  1.00  0.00     0.074 A 
ATOM     45  C   UNL A   1      45.186  25.952  26.426  1.00  0.00     0.031 C 
ATOM     46  C   UNL A   1      39.429  27.800  29.762  1.00  0.00     0.029 A 
ATOM     47  C   UNL A   1      40.428  28.855  29.605  1.00  0.00     0.049 A 
ATOM     48  H   UNL A   1      42.248  28.736  28.602  1.00  0.00     0.167 HD
ATOM     49  C   UNL A   1      46.118  28.245  26.540  1.00  0.00     0.037 A 
ATOM     50  C   UNL A   1      40.334  30.110  30.085  1.00  0.00     0.037 A 
ATOM     51  C   UNL A   1      46.066  29.626  26.941  1.00  0.00     0.049 A 
ATOM     52  C   UNL A   1      41.463  31.074  29.827  1.00  0.00     0.074 A 
ATOM     53  C   UNL A   1      46.985  30.631  26.701  1.00  0.00     0.029 A 
ATOM     54  N   UNL A   1      45.035  30.193  27.678  1.00  0.00    -0.354 N 
ATOM     55  N   UNL A   1      42.578  30.887  29.162  1.00  0.00    -0.248 NA
ATOM     56  C   UNL A   1      41.318  32.426  30.383  1.00  0.00     0.031 C 
ATOM     57  C   UNL A   1      46.542  31.790  27.344  1.00  0.00     0.029 A 
ATOM     58  C   UNL A   1      45.312  31.528  27.927  1.00  0.00     0.049 A 
ATOM     59  H   UNL A   1      44.227  29.718  27.979  1.00  0.00     0.167 HD
ATOM     60  C   UNL A   1      43.251  32.102  29.190  1.00  0.00     0.074 A 
ATOM     61  C   UNL A   1      42.410  33.023  29.927  1.00  0.00     0.031 C 
ATOM     62  C   UNL A   1      44.454  32.429  28.656  1.00  0.00     0.037 A 
BRANCH  49  63
ATOM     63  C   UNL A   1      47.329  27.758  25.796  1.00  0.00     0.064 A 
ATOM     64  C   UNL A   1      47.365  27.701  24.394  1.00  0.00     0.173 A 
ATOM     65  C   UNL A   1      48.480  27.366  26.497  1.00  0.00     0.173 A 
ATOM     66  F   UNL A   1      46.286  28.049  23.676  1.00  0.00    -0.203 F 
ATOM     67  C   UNL A   1      48.498  27.246  23.724  1.00  0.00     0.198 A 
ATOM     68  C   UNL A   1      49.621  26.943  25.822  1.00  0.00     0.198 A 
ATOM     69  F   UNL A   1      48.500  27.400  27.838  1.00  0.00    -0.203 F 
ATOM     70  F   UNL A   1      48.492  27.151  22.387  1.00  0.00    -0.200 F 
ATOM     71  C   UNL A   1      49.628  26.875  24.438  1.00  0.00     0.200 A 
ATOM     72  F   UNL A   1      50.716  26.598  26.514  1.00  0.00    -0.200 F 
ATOM     73  F   UNL A   1      50.720  26.445  23.792  1.00  0.00    -0.200 F 
ENDBRANCH  49  63
BRANCH  50  74
ATOM     74  C   UNL A   1      39.138  30.521  30.867  1.00  0.00     0.064 A 
ATOM     75  C   UNL A   1      39.094  30.365  32.259  1.00  0.00     0.173 A 
ATOM     76  C   UNL A   1      38.008  31.064  30.236  1.00  0.00     0.173 A 
ATOM     77  F   UNL A   1      40.139  29.830  32.906  1.00  0.00    -0.203 F 
ATOM     78  C   UNL A   1      37.957  30.713  32.987  1.00  0.00     0.198 A 
ATOM     79  C   UNL A   1      36.886  31.443  30.970  1.00  0.00     0.198 A 
ATOM     80  F   UNL A   1      37.998  31.238  28.907  1.00  0.00    -0.203 F 
ATOM     81  F   UNL A   1      37.922  30.503  34.310  1.00  0.00    -0.200 F 
ATOM     82  C   UNL A   1      36.856  31.257  32.342  1.00  0.00     0.200 A 
ATOM     83  F   UNL A   1      35.831  31.984  30.343  1.00  0.00    -0.200 F 
ATOM     84  F   UNL A   1      35.766  31.595  33.044  1.00  0.00    -0.200 F 
ENDBRANCH  50  74
BRANCH  62  85
ATOM     85  C   UNL A   1      44.911  33.852  28.808  1.00  0.00     0.064 A 
ATOM     86  C   UNL A   1      44.562  34.846  27.883  1.00  0.00     0.173 A 
ATOM     87  C   UNL A   1      45.679  34.231  29.921  1.00  0.00     0.173 A 
ATOM     88  F   UNL A   1      43.841  34.534  26.796  1.00  0.00    -0.203 F 
ATOM     89  C   UNL A   1      44.990  36.161  28.051  1.00  0.00     0.198 A 
ATOM     90  C   UNL A   1      46.073  35.554  30.104  1.00  0.00     0.198 A 
ATOM     91  F   UNL A   1      46.033  33.322  30.842  1.00  0.00    -0.203 F 
ATOM     92  F   UNL A   1      44.691  37.083  27.125  1.00  0.00    -0.200 F 
ATOM     93  C   UNL A   1      45.737  36.515  29.164  1.00  0.00     0.200 A 
ATOM     94  F   UNL A   1      46.779  35.897  31.190  1.00  0.00    -0.200 F 
ATOM     95  F   UNL A   1      46.140  37.783  29.327  1.00  0.00    -0.200 F 
ENDBRANCH  62  85
ENDBRANCH  36  37
ENDBRANCH  29  31
ENDBRANCH  28  29
ENDBRANCH  27  28
ENDBRANCH  26  27
ENDBRANCH  25  26
ENDBRANCH   1  25
TORSDOF 17
ENDMDL
