MODEL 1
REMARK VINA RESULT:     -11.2      0.000      0.000
REMARK SMILES COC[C@H]1CCN(C(=O)N2CC[C@H](C(=O)OCCOCCOC(=O)c3ccc(-c4c5nc(c(-c6c(F)c(F)c(F)c(F)c6F)c6ccc([nH]6)c(-c6c(F)c(F)c(F)c(F)c6F)c6nc(c(-c7c(F)c(F)c(F)c(F)c7F)c7ccc4[nH]7)C=C6)C=C5)cc3)[C@@H]2C)C1
REMARK SMILES IDX 18 1 17 2 16 3 14 4 15 5 13 6 10 7 11 8 88 9 12 10 89 11
REMARK SMILES IDX 8 12 9 13 7 14 4 15 5 16 90 17 6 18 3 19 2 20 1 21 19 22
REMARK SMILES IDX 20 23 21 24 22 25 23 26 24 27 25 28 26 29 87 30 27 31 86 32
REMARK SMILES IDX 28 33 29 34 30 35 80 36 31 37 85 38 79 39 81 40 32 41 84 42
REMARK SMILES IDX 78 43 77 44 33 46 65 47 45 48 64 49 46 50 49 51 63 52 82 53
REMARK SMILES IDX 47 54 48 55 62 57 83 58 50 59 34 60 35 61 43 62 36 63 37 64
REMARK SMILES IDX 41 65 44 66 38 67 39 68 42 69 40 70 66 71 67 72 75 73 68 74
REMARK SMILES IDX 69 75 73 76 76 77 70 78 71 79 74 80 72 81 51 82 52 83 60 84
REMARK SMILES IDX 53 85 54 86 58 87 61 88 55 89 56 90 59 91 57 92
REMARK H PARENT 81 45 49 56
REMARK Flexibility Score: inf
ROOT
ATOM      1  C   UNL A   1      32.258  29.714  24.963  1.00  0.00     0.202 C 
ENDROOT
BRANCH   1   2
ATOM      2  C   UNL A   1      31.643  28.396  24.490  1.00  0.00     0.261 C 
BRANCH   2   3
ATOM      3  O   UNL A   1      31.014  27.691  25.575  1.00  0.00    -0.463 OA
BRANCH   3   4
ATOM      4  C   UNL A   1      31.581  26.506  25.926  1.00  0.00     0.311 C 
ATOM      5  O   UNL A   1      31.240  25.814  26.876  1.00  0.00    -0.252 OA
BRANCH   4   6
ATOM      6  C   UNL A   1      32.740  26.136  25.032  1.00  0.00     0.123 C 
ATOM      7  N   UNL A   1      33.589  24.138  24.088  1.00  0.00    -0.321 N 
ATOM      8  C   UNL A   1      34.702  24.853  24.673  1.00  0.00     0.122 C 
ATOM      9  C   UNL A   1      32.419  25.017  24.019  1.00  0.00     0.098 C 
ATOM     10  C   UNL A   1      34.022  25.671  25.746  1.00  0.00     0.039 C 
ATOM     11  C   UNL A   1      31.124  24.243  24.255  1.00  0.00     0.032 C 
BRANCH   7  12
ATOM     12  C   UNL A   1      33.712  23.068  23.245  1.00  0.00     0.320 C 
ATOM     13  O   UNL A   1      33.628  23.207  22.025  1.00  0.00    -0.248 OA
BRANCH  12  14
ATOM     14  N   UNL A   1      33.788  21.826  23.829  1.00  0.00    -0.324 N 
ATOM     15  C   UNL A   1      32.891  19.817  24.710  1.00  0.00     0.036 C 
ATOM     16  C   UNL A   1      34.391  19.881  24.984  1.00  0.00     0.029 C 
ATOM     17  C   UNL A   1      32.683  20.897  23.647  1.00  0.00     0.127 C 
ATOM     18  C   UNL A   1      34.662  21.375  24.902  1.00  0.00     0.122 C 
BRANCH  15  19
ATOM     19  C   UNL A   1      32.401  18.448  24.265  1.00  0.00     0.165 C 
BRANCH  19  20
ATOM     20  O   UNL A   1      32.154  17.581  25.370  1.00  0.00    -0.384 OA
ATOM     21  C   UNL A   1      33.030  16.464  25.430  1.00  0.00     0.194 C 
ENDBRANCH  19  20
ENDBRANCH  15  19
ENDBRANCH  12  14
ENDBRANCH   7  12
ENDBRANCH   4   6
ENDBRANCH   3   4
ENDBRANCH   2   3
ENDBRANCH   1   2
BRANCH   1  22
ATOM     22  O   UNL A   1      31.730  30.260  26.169  1.00  0.00    -0.374 OA
BRANCH  22  23
ATOM     23  C   UNL A   1      31.050  31.512  26.086  1.00  0.00     0.202 C 
BRANCH  23  24
ATOM     24  C   UNL A   1      31.781  32.726  26.673  1.00  0.00     0.261 C 
BRANCH  24  25
ATOM     25  O   UNL A   1      32.719  32.361  27.704  1.00  0.00    -0.460 OA
BRANCH  25  26
ATOM     26  C   UNL A   1      33.710  33.259  27.906  1.00  0.00     0.338 C 
ATOM     27  O   UNL A   1      33.605  34.480  27.973  1.00  0.00    -0.246 OA
BRANCH  26  28
ATOM     28  C   UNL A   1      34.983  32.579  28.196  1.00  0.00     0.060 A 
ATOM     29  C   UNL A   1      34.933  31.208  28.472  1.00  0.00     0.016 A 
ATOM     30  C   UNL A   1      36.182  33.286  28.322  1.00  0.00     0.016 A 
ATOM     31  C   UNL A   1      36.068  30.547  28.936  1.00  0.00     0.010 A 
ATOM     32  C   UNL A   1      37.319  32.622  28.796  1.00  0.00     0.010 A 
ATOM     33  C   UNL A   1      37.255  31.260  29.146  1.00  0.00    -0.014 A 
BRANCH  33  34
ATOM     34  C   UNL A   1      38.367  30.615  29.887  1.00  0.00     0.031 A 
ATOM     35  C   UNL A   1      38.581  30.968  31.334  1.00  0.00     0.074 A 
ATOM     36  C   UNL A   1      39.146  29.693  29.296  1.00  0.00     0.049 A 
ATOM     37  N   UNL A   1      39.491  30.536  32.171  1.00  0.00    -0.248 NA
ATOM     38  C   UNL A   1      37.642  31.940  31.916  1.00  0.00     0.031 C 
ATOM     39  C   UNL A   1      39.014  29.235  27.916  1.00  0.00     0.029 A 
ATOM     40  N   UNL A   1      40.209  28.977  29.790  1.00  0.00    -0.354 N 
ATOM     41  C   UNL A   1      39.235  31.183  33.373  1.00  0.00     0.074 A 
ATOM     42  C   UNL A   1      38.105  32.061  33.151  1.00  0.00     0.031 C 
ATOM     43  C   UNL A   1      39.964  28.317  27.669  1.00  0.00     0.029 A 
ATOM     44  C   UNL A   1      40.787  28.144  28.865  1.00  0.00     0.049 A 
ATOM     45  H   UNL A   1      40.526  29.054  30.719  1.00  0.00     0.167 HD
ATOM     46  C   UNL A   1      39.877  31.050  34.558  1.00  0.00     0.037 A 
ATOM     47  C   UNL A   1      41.866  27.345  28.971  1.00  0.00     0.037 A 
ATOM     48  C   UNL A   1      40.996  30.173  34.782  1.00  0.00     0.049 A 
ATOM     49  C   UNL A   1      42.602  27.260  30.283  1.00  0.00     0.074 A 
ATOM     50  C   UNL A   1      41.704  29.959  35.952  1.00  0.00     0.029 A 
ATOM     51  N   UNL A   1      41.573  29.368  33.812  1.00  0.00    -0.354 N 
ATOM     52  N   UNL A   1      42.341  27.861  31.419  1.00  0.00    -0.248 NA
ATOM     53  C   UNL A   1      43.780  26.383  30.328  1.00  0.00     0.031 C 
ATOM     54  C   UNL A   1      42.738  29.055  35.678  1.00  0.00     0.029 A 
ATOM     55  C   UNL A   1      42.644  28.673  34.350  1.00  0.00     0.049 A 
ATOM     56  H   UNL A   1      41.267  29.302  32.878  1.00  0.00     0.167 HD
ATOM     57  C   UNL A   1      43.302  27.414  32.317  1.00  0.00     0.074 A 
ATOM     58  C   UNL A   1      44.146  26.483  31.598  1.00  0.00     0.031 C 
ATOM     59  C   UNL A   1      43.468  27.743  33.622  1.00  0.00     0.037 A 
BRANCH  46  60
ATOM     60  C   UNL A   1      39.395  31.891  35.703  1.00  0.00     0.064 A 
ATOM     61  C   UNL A   1      39.858  33.201  35.899  1.00  0.00     0.173 A 
ATOM     62  C   UNL A   1      38.437  31.391  36.596  1.00  0.00     0.173 A 
ATOM     63  F   UNL A   1      40.786  33.718  35.081  1.00  0.00    -0.203 F 
ATOM     64  C   UNL A   1      39.394  33.971  36.962  1.00  0.00     0.198 A 
ATOM     65  C   UNL A   1      37.957  32.173  37.643  1.00  0.00     0.198 A 
ATOM     66  F   UNL A   1      37.961  30.145  36.450  1.00  0.00    -0.203 F 
ATOM     67  F   UNL A   1      39.881  35.205  37.157  1.00  0.00    -0.200 F 
ATOM     68  C   UNL A   1      38.439  33.460  37.829  1.00  0.00     0.200 A 
ATOM     69  F   UNL A   1      37.027  31.680  38.474  1.00  0.00    -0.200 F 
ATOM     70  F   UNL A   1      37.990  34.204  38.849  1.00  0.00    -0.200 F 
ENDBRANCH  46  60
BRANCH  47  71
ATOM     71  C   UNL A   1      42.326  26.562  27.795  1.00  0.00     0.064 A 
ATOM     72  C   UNL A   1      41.811  25.286  27.528  1.00  0.00     0.173 A 
ATOM     73  C   UNL A   1      43.303  27.069  26.925  1.00  0.00     0.173 A 
ATOM     74  F   UNL A   1      40.896  24.749  28.348  1.00  0.00    -0.203 F 
ATOM     75  C   UNL A   1      42.268  24.540  26.444  1.00  0.00     0.198 A 
ATOM     76  C   UNL A   1      43.739  26.331  25.826  1.00  0.00     0.198 A 
ATOM     77  F   UNL A   1      43.828  28.284  27.138  1.00  0.00    -0.203 F 
ATOM     78  F   UNL A   1      41.792  23.304  26.236  1.00  0.00    -0.200 F 
ATOM     79  C   UNL A   1      43.228  25.065  25.591  1.00  0.00     0.200 A 
ATOM     80  F   UNL A   1      44.660  26.848  25.000  1.00  0.00    -0.200 F 
ATOM     81  F   UNL A   1      43.666  24.347  24.548  1.00  0.00    -0.200 F 
ENDBRANCH  47  71
BRANCH  59  82
ATOM     82  C   UNL A   1      44.584  27.069  34.367  1.00  0.00     0.064 A 
ATOM     83  C   UNL A   1      44.422  25.799  34.940  1.00  0.00     0.173 A 
ATOM     84  C   UNL A   1      45.841  27.683  34.470  1.00  0.00     0.173 A 
ATOM     85  F   UNL A   1      43.235  25.178  34.880  1.00  0.00    -0.203 F 
ATOM     86  C   UNL A   1      45.473  25.179  35.611  1.00  0.00     0.198 A 
ATOM     87  C   UNL A   1      46.897  27.049  35.119  1.00  0.00     0.198 A 
ATOM     88  F   UNL A   1      46.049  28.894  33.932  1.00  0.00    -0.203 F 
ATOM     89  F   UNL A   1      45.285  23.985  36.190  1.00  0.00    -0.200 F 
ATOM     90  C   UNL A   1      46.711  25.801  35.694  1.00  0.00     0.200 A 
ATOM     91  F   UNL A   1      48.096  27.645  35.186  1.00  0.00    -0.200 F 
ATOM     92  F   UNL A   1      47.723  25.199  36.335  1.00  0.00    -0.200 F 
ENDBRANCH  59  82
ENDBRANCH  33  34
ENDBRANCH  26  28
ENDBRANCH  25  26
ENDBRANCH  24  25
ENDBRANCH  23  24
ENDBRANCH  22  23
ENDBRANCH   1  22
TORSDOF 18
ENDMDL
MODEL 2
REMARK VINA RESULT:     -11.0      1.349      2.638
REMARK SMILES COC[C@H]1CCN(C(=O)N2CC[C@H](C(=O)OCCOCCOC(=O)c3ccc(-c4c5nc(c(-c6c(F)c(F)c(F)c(F)c6F)c6ccc([nH]6)c(-c6c(F)c(F)c(F)c(F)c6F)c6nc(c(-c7c(F)c(F)c(F)c(F)c7F)c7ccc4[nH]7)C=C6)C=C5)cc3)[C@@H]2C)C1
REMARK SMILES IDX 18 1 17 2 16 3 14 4 15 5 13 6 10 7 11 8 88 9 12 10 89 11
REMARK SMILES IDX 8 12 9 13 7 14 4 15 5 16 90 17 6 18 3 19 2 20 1 21 19 22
REMARK SMILES IDX 20 23 21 24 22 25 23 26 24 27 25 28 26 29 87 30 27 31 86 32
REMARK SMILES IDX 28 33 29 34 30 35 80 36 31 37 85 38 79 39 81 40 32 41 84 42
REMARK SMILES IDX 78 43 77 44 33 46 65 47 45 48 64 49 46 50 49 51 63 52 82 53
REMARK SMILES IDX 47 54 48 55 62 57 83 58 50 59 34 60 35 61 43 62 36 63 37 64
REMARK SMILES IDX 41 65 44 66 38 67 39 68 42 69 40 70 66 71 67 72 75 73 68 74
REMARK SMILES IDX 69 75 73 76 76 77 70 78 71 79 74 80 72 81 51 82 52 83 60 84
REMARK SMILES IDX 53 85 54 86 58 87 61 88 55 89 56 90 59 91 57 92
REMARK H PARENT 81 45 49 56
REMARK Flexibility Score: inf
ROOT
ATOM      1  C   UNL A   1      32.344  28.678  23.540  1.00  0.00     0.202 C 
ENDROOT
BRANCH   1   2
ATOM      2  C   UNL A   1      30.982  27.990  23.656  1.00  0.00     0.261 C 
BRANCH   2   3
ATOM      3  O   UNL A   1      31.113  26.558  23.633  1.00  0.00    -0.463 OA
BRANCH   3   4
ATOM      4  C   UNL A   1      30.656  25.898  24.731  1.00  0.00     0.311 C 
ATOM      5  O   UNL A   1      30.287  26.429  25.769  1.00  0.00    -0.252 OA
BRANCH   4   6
ATOM      6  C   UNL A   1      30.695  24.399  24.559  1.00  0.00     0.123 C 
ATOM      7  N   UNL A   1      32.381  22.738  24.498  1.00  0.00    -0.321 N 
ATOM      8  C   UNL A   1      31.501  22.509  23.373  1.00  0.00     0.122 C 
ATOM      9  C   UNL A   1      31.765  23.696  25.420  1.00  0.00     0.098 C 
ATOM     10  C   UNL A   1      30.940  23.891  23.126  1.00  0.00     0.039 C 
ATOM     11  C   UNL A   1      32.812  24.599  26.068  1.00  0.00     0.032 C 
BRANCH   7  12
ATOM     12  C   UNL A   1      33.324  21.850  24.938  1.00  0.00     0.320 C 
ATOM     13  O   UNL A   1      33.024  20.927  25.694  1.00  0.00    -0.248 OA
BRANCH  12  14
ATOM     14  N   UNL A   1      34.631  22.125  24.613  1.00  0.00    -0.324 N 
ATOM     15  C   UNL A   1      36.894  22.637  25.095  1.00  0.00     0.036 C 
ATOM     16  C   UNL A   1      36.649  22.728  23.591  1.00  0.00     0.029 C 
ATOM     17  C   UNL A   1      35.667  21.879  25.604  1.00  0.00     0.127 C 
ATOM     18  C   UNL A   1      35.147  22.950  23.530  1.00  0.00     0.122 C 
BRANCH  15  19
ATOM     19  C   UNL A   1      38.203  21.959  25.468  1.00  0.00     0.165 C 
BRANCH  19  20
ATOM     20  O   UNL A   1      38.933  22.702  26.443  1.00  0.00    -0.384 OA
ATOM     21  C   UNL A   1      38.580  24.078  26.499  1.00  0.00     0.194 C 
ENDBRANCH  19  20
ENDBRANCH  15  19
ENDBRANCH  12  14
ENDBRANCH   7  12
ENDBRANCH   4   6
ENDBRANCH   3   4
ENDBRANCH   2   3
ENDBRANCH   1   2
BRANCH   1  22
ATOM     22  O   UNL A   1      32.632  29.675  24.517  1.00  0.00    -0.374 OA
BRANCH  22  23
ATOM     23  C   UNL A   1      31.684  29.865  25.567  1.00  0.00     0.202 C 
BRANCH  23  24
ATOM     24  C   UNL A   1      31.802  31.168  26.366  1.00  0.00     0.261 C 
BRANCH  24  25
ATOM     25  O   UNL A   1      32.697  31.049  27.489  1.00  0.00    -0.460 OA
BRANCH  25  26
ATOM     26  C   UNL A   1      33.566  32.077  27.628  1.00  0.00     0.338 C 
ATOM     27  O   UNL A   1      33.305  33.275  27.627  1.00  0.00    -0.246 OA
BRANCH  26  28
ATOM     28  C   UNL A   1      34.917  31.582  27.941  1.00  0.00     0.060 A 
ATOM     29  C   UNL A   1      35.077  30.201  28.100  1.00  0.00     0.016 A 
ATOM     30  C   UNL A   1      35.977  32.455  28.200  1.00  0.00     0.016 A 
ATOM     31  C   UNL A   1      36.280  29.688  28.579  1.00  0.00     0.010 A 
ATOM     32  C   UNL A   1      37.182  31.938  28.690  1.00  0.00     0.010 A 
ATOM     33  C   UNL A   1      37.323  30.558  28.921  1.00  0.00    -0.014 A 
BRANCH  33  34
ATOM     34  C   UNL A   1      38.488  30.031  29.676  1.00  0.00     0.031 A 
ATOM     35  C   UNL A   1      38.716  30.501  31.086  1.00  0.00     0.074 A 
ATOM     36  C   UNL A   1      39.304  29.112  29.132  1.00  0.00     0.049 A 
ATOM     37  N   UNL A   1      39.669  30.182  31.927  1.00  0.00    -0.248 NA
ATOM     38  C   UNL A   1      37.737  31.461  31.623  1.00  0.00     0.031 C 
ATOM     39  C   UNL A   1      39.165  28.547  27.792  1.00  0.00     0.029 A 
ATOM     40  N   UNL A   1      40.417  28.494  29.646  1.00  0.00    -0.354 N 
ATOM     41  C   UNL A   1      39.405  30.902  33.085  1.00  0.00     0.074 A 
ATOM     42  C   UNL A   1      38.222  31.697  32.833  1.00  0.00     0.031 C 
ATOM     43  C   UNL A   1      40.160  27.667  27.586  1.00  0.00     0.029 A 
ATOM     44  C   UNL A   1      41.019  27.628  28.768  1.00  0.00     0.049 A 
ATOM     45  H   UNL A   1      40.751  28.657  30.558  1.00  0.00     0.167 HD
ATOM     46  C   UNL A   1      40.082  30.892  34.259  1.00  0.00     0.037 A 
ATOM     47  C   UNL A   1      42.145  26.900  28.901  1.00  0.00     0.037 A 
ATOM     48  C   UNL A   1      41.254  30.097  34.514  1.00  0.00     0.049 A 
ATOM     49  C   UNL A   1      42.915  26.953  30.195  1.00  0.00     0.074 A 
ATOM     50  C   UNL A   1      42.001  30.009  35.677  1.00  0.00     0.029 A 
ATOM     51  N   UNL A   1      41.853  29.256  33.589  1.00  0.00    -0.354 N 
ATOM     52  N   UNL A   1      42.648  27.620  31.291  1.00  0.00    -0.248 NA
ATOM     53  C   UNL A   1      44.142  26.147  30.270  1.00  0.00     0.031 C 
ATOM     54  C   UNL A   1      43.078  29.146  35.439  1.00  0.00     0.029 A 
ATOM     55  C   UNL A   1      42.973  28.662  34.146  1.00  0.00     0.049 A 
ATOM     56  H   UNL A   1      41.529  29.104  32.672  1.00  0.00     0.167 HD
ATOM     57  C   UNL A   1      43.654  27.295  32.192  1.00  0.00     0.074 A 
ATOM     58  C   UNL A   1      44.532  26.361  31.519  1.00  0.00     0.031 C 
ATOM     59  C   UNL A   1      43.832  27.728  33.464  1.00  0.00     0.037 A 
BRANCH  46  60
ATOM     60  C   UNL A   1      39.580  31.788  35.353  1.00  0.00     0.064 A 
ATOM     61  C   UNL A   1      40.034  33.108  35.489  1.00  0.00     0.173 A 
ATOM     62  C   UNL A   1      38.611  31.329  36.257  1.00  0.00     0.173 A 
ATOM     63  F   UNL A   1      40.971  33.588  34.658  1.00  0.00    -0.203 F 
ATOM     64  C   UNL A   1      39.552  33.929  36.505  1.00  0.00     0.198 A 
ATOM     65  C   UNL A   1      38.113  32.160  37.256  1.00  0.00     0.198 A 
ATOM     66  F   UNL A   1      38.144  30.075  36.168  1.00  0.00    -0.203 F 
ATOM     67  F   UNL A   1      40.030  35.173  36.643  1.00  0.00    -0.200 F 
ATOM     68  C   UNL A   1      38.587  33.457  37.384  1.00  0.00     0.200 A 
ATOM     69  F   UNL A   1      37.175  31.705  38.098  1.00  0.00    -0.200 F 
ATOM     70  F   UNL A   1      38.121  34.249  38.359  1.00  0.00    -0.200 F 
ENDBRANCH  46  60
BRANCH  47  71
ATOM     71  C   UNL A   1      42.620  26.059  27.773  1.00  0.00     0.064 A 
ATOM     72  C   UNL A   1      43.557  26.546  26.851  1.00  0.00     0.173 A 
ATOM     73  C   UNL A   1      42.134  24.756  27.585  1.00  0.00     0.173 A 
ATOM     74  F   UNL A   1      44.030  27.795  26.974  1.00  0.00    -0.203 F 
ATOM     75  C   UNL A   1      43.976  25.768  25.773  1.00  0.00     0.198 A 
ATOM     76  C   UNL A   1      42.574  23.971  26.522  1.00  0.00     0.198 A 
ATOM     77  F   UNL A   1      41.235  24.245  28.438  1.00  0.00    -0.203 F 
ATOM     78  F   UNL A   1      44.839  26.274  24.880  1.00  0.00    -0.200 F 
ATOM     79  C   UNL A   1      43.488  24.479  25.613  1.00  0.00     0.200 A 
ATOM     80  F   UNL A   1      42.106  22.723  26.377  1.00  0.00    -0.200 F 
ATOM     81  F   UNL A   1      43.893  23.732  24.578  1.00  0.00    -0.200 F 
ENDBRANCH  47  71
BRANCH  59  82
ATOM     82  C   UNL A   1      45.002  27.173  34.225  1.00  0.00     0.064 A 
ATOM     83  C   UNL A   1      46.244  27.823  34.239  1.00  0.00     0.173 A 
ATOM     84  C   UNL A   1      44.863  26.000  34.982  1.00  0.00     0.173 A 
ATOM     85  F   UNL A   1      46.431  28.940  33.520  1.00  0.00    -0.203 F 
ATOM     86  C   UNL A   1      47.313  27.304  34.965  1.00  0.00     0.198 A 
ATOM     87  C   UNL A   1      45.927  25.499  35.728  1.00  0.00     0.198 A 
ATOM     88  F   UNL A   1      43.692  25.345  35.007  1.00  0.00    -0.203 F 
ATOM     89  F   UNL A   1      48.505  27.917  34.931  1.00  0.00    -0.200 F 
ATOM     90  C   UNL A   1      47.152  26.147  35.714  1.00  0.00     0.200 A 
ATOM     91  F   UNL A   1      45.764  24.389  36.461  1.00  0.00    -0.200 F 
ATOM     92  F   UNL A   1      48.181  25.653  36.418  1.00  0.00    -0.200 F 
ENDBRANCH  59  82
ENDBRANCH  33  34
ENDBRANCH  26  28
ENDBRANCH  25  26
ENDBRANCH  24  25
ENDBRANCH  23  24
ENDBRANCH  22  23
ENDBRANCH   1  22
TORSDOF 18
ENDMDL
MODEL 3
REMARK VINA RESULT:     -11.0      1.074      2.108
REMARK SMILES COC[C@H]1CCN(C(=O)N2CC[C@H](C(=O)OCCOCCOC(=O)c3ccc(-c4c5nc(c(-c6c(F)c(F)c(F)c(F)c6F)c6ccc([nH]6)c(-c6c(F)c(F)c(F)c(F)c6F)c6nc(c(-c7c(F)c(F)c(F)c(F)c7F)c7ccc4[nH]7)C=C6)C=C5)cc3)[C@@H]2C)C1
REMARK SMILES IDX 18 1 17 2 16 3 14 4 15 5 13 6 10 7 11 8 88 9 12 10 89 11
REMARK SMILES IDX 8 12 9 13 7 14 4 15 5 16 90 17 6 18 3 19 2 20 1 21 19 22
REMARK SMILES IDX 20 23 21 24 22 25 23 26 24 27 25 28 26 29 87 30 27 31 86 32
REMARK SMILES IDX 28 33 29 34 30 35 80 36 31 37 85 38 79 39 81 40 32 41 84 42
REMARK SMILES IDX 78 43 77 44 33 46 65 47 45 48 64 49 46 50 49 51 63 52 82 53
REMARK SMILES IDX 47 54 48 55 62 57 83 58 50 59 34 60 35 61 43 62 36 63 37 64
REMARK SMILES IDX 41 65 44 66 38 67 39 68 42 69 40 70 66 71 67 72 75 73 68 74
REMARK SMILES IDX 69 75 73 76 76 77 70 78 71 79 74 80 72 81 51 82 52 83 60 84
REMARK SMILES IDX 53 85 54 86 58 87 61 88 55 89 56 90 59 91 57 92
REMARK H PARENT 81 45 49 56
REMARK Flexibility Score: inf
ROOT
ATOM      1  C   UNL A   1      32.378  29.409  27.218  1.00  0.00     0.202 C 
ENDROOT
BRANCH   1   2
ATOM      2  C   UNL A   1      31.752  28.426  26.226  1.00  0.00     0.261 C 
BRANCH   2   3
ATOM      3  O   UNL A   1      32.745  27.563  25.645  1.00  0.00    -0.463 OA
BRANCH   3   4
ATOM      4  C   UNL A   1      32.278  26.436  25.044  1.00  0.00     0.311 C 
ATOM      5  O   UNL A   1      32.078  26.309  23.843  1.00  0.00    -0.252 OA
BRANCH   4   6
ATOM      6  C   UNL A   1      31.975  25.339  26.035  1.00  0.00     0.123 C 
ATOM      7  N   UNL A   1      32.328  23.001  26.144  1.00  0.00    -0.321 N 
ATOM      8  C   UNL A   1      30.951  23.252  26.508  1.00  0.00     0.122 C 
ATOM      9  C   UNL A   1      33.075  24.262  26.135  1.00  0.00     0.098 C 
ATOM     10  C   UNL A   1      30.671  24.557  25.797  1.00  0.00     0.039 C 
ATOM     11  C   UNL A   1      34.135  24.274  25.035  1.00  0.00     0.032 C 
BRANCH   7  12
ATOM     12  C   UNL A   1      32.972  21.807  26.323  1.00  0.00     0.320 C 
ATOM     13  O   UNL A   1      33.755  21.641  27.257  1.00  0.00    -0.248 OA
BRANCH  12  14
ATOM     14  N   UNL A   1      32.813  20.865  25.335  1.00  0.00    -0.324 N 
ATOM     15  C   UNL A   1      33.181  18.764  24.301  1.00  0.00     0.036 C 
ATOM     16  C   UNL A   1      32.402  19.678  23.359  1.00  0.00     0.029 C 
ATOM     17  C   UNL A   1      33.053  19.466  25.654  1.00  0.00     0.127 C 
ATOM     18  C   UNL A   1      32.758  21.057  23.893  1.00  0.00     0.122 C 
BRANCH  15  19
ATOM     19  C   UNL A   1      32.675  17.331  24.329  1.00  0.00     0.165 C 
BRANCH  19  20
ATOM     20  O   UNL A   1      32.809  16.740  25.621  1.00  0.00    -0.384 OA
ATOM     21  C   UNL A   1      32.644  15.329  25.626  1.00  0.00     0.194 C 
ENDBRANCH  19  20
ENDBRANCH  15  19
ENDBRANCH  12  14
ENDBRANCH   7  12
ENDBRANCH   4   6
ENDBRANCH   3   4
ENDBRANCH   2   3
ENDBRANCH   1   2
BRANCH   1  22
ATOM     22  O   UNL A   1      32.678  30.708  26.714  1.00  0.00    -0.374 OA
BRANCH  22  23
ATOM     23  C   UNL A   1      31.624  31.670  26.695  1.00  0.00     0.202 C 
BRANCH  23  24
ATOM     24  C   UNL A   1      32.037  33.138  26.852  1.00  0.00     0.261 C 
BRANCH  24  25
ATOM     25  O   UNL A   1      32.489  33.446  28.185  1.00  0.00    -0.460 OA
BRANCH  25  26
ATOM     26  C   UNL A   1      33.616  34.192  28.239  1.00  0.00     0.338 C 
ATOM     27  O   UNL A   1      33.700  35.415  28.214  1.00  0.00    -0.246 OA
BRANCH  26  28
ATOM     28  C   UNL A   1      34.794  33.344  28.488  1.00  0.00     0.060 A 
ATOM     29  C   UNL A   1      34.575  32.095  29.081  1.00  0.00     0.016 A 
ATOM     30  C   UNL A   1      36.093  33.808  28.267  1.00  0.00     0.016 A 
ATOM     31  C   UNL A   1      35.654  31.329  29.514  1.00  0.00     0.010 A 
ATOM     32  C   UNL A   1      37.176  33.040  28.710  1.00  0.00     0.010 A 
ATOM     33  C   UNL A   1      36.959  31.818  29.374  1.00  0.00    -0.014 A 
BRANCH  33  34
ATOM     34  C   UNL A   1      38.072  31.128  30.073  1.00  0.00     0.031 A 
ATOM     35  C   UNL A   1      38.332  31.444  31.520  1.00  0.00     0.074 A 
ATOM     36  C   UNL A   1      38.809  30.197  29.443  1.00  0.00     0.049 A 
ATOM     37  N   UNL A   1      39.251  30.970  32.324  1.00  0.00    -0.248 NA
ATOM     38  C   UNL A   1      37.436  32.430  32.146  1.00  0.00     0.031 C 
ATOM     39  C   UNL A   1      38.629  29.772  28.057  1.00  0.00     0.029 A 
ATOM     40  N   UNL A   1      39.864  29.442  29.894  1.00  0.00    -0.354 N 
ATOM     41  C   UNL A   1      39.044  31.599  33.545  1.00  0.00     0.074 A 
ATOM     42  C   UNL A   1      37.934  32.511  33.371  1.00  0.00     0.031 C 
ATOM     43  C   UNL A   1      39.547  28.833  27.767  1.00  0.00     0.029 A 
ATOM     44  C   UNL A   1      40.394  28.613  28.938  1.00  0.00     0.049 A 
ATOM     45  H   UNL A   1      40.207  29.491  30.816  1.00  0.00     0.167 HD
ATOM     46  C   UNL A   1      39.712  31.423  34.711  1.00  0.00     0.037 A 
ATOM     47  C   UNL A   1      41.454  27.783  29.000  1.00  0.00     0.037 A 
ATOM     48  C   UNL A   1      40.811  30.512  34.887  1.00  0.00     0.049 A 
ATOM     49  C   UNL A   1      42.220  27.650  30.290  1.00  0.00     0.074 A 
ATOM     50  C   UNL A   1      41.543  30.254  36.034  1.00  0.00     0.029 A 
ATOM     51  N   UNL A   1      41.341  29.712  33.887  1.00  0.00    -0.354 N 
ATOM     52  N   UNL A   1      42.005  28.234  31.444  1.00  0.00    -0.248 NA
ATOM     53  C   UNL A   1      43.373  26.740  30.287  1.00  0.00     0.031 C 
ATOM     54  C   UNL A   1      42.544  29.328  35.714  1.00  0.00     0.029 A 
ATOM     55  C   UNL A   1      42.405  28.976  34.382  1.00  0.00     0.049 A 
ATOM     56  H   UNL A   1      41.009  29.673  32.960  1.00  0.00     0.167 HD
ATOM     57  C   UNL A   1      42.975  27.743  32.308  1.00  0.00     0.074 A 
ATOM     58  C   UNL A   1      43.774  26.804  31.549  1.00  0.00     0.031 C 
ATOM     59  C   UNL A   1      43.184  28.040  33.614  1.00  0.00     0.037 A 
BRANCH  46  60
ATOM     60  C   UNL A   1      39.283  32.253  35.884  1.00  0.00     0.064 A 
ATOM     61  C   UNL A   1      38.350  31.781  36.819  1.00  0.00     0.173 A 
ATOM     62  C   UNL A   1      39.836  33.526  36.092  1.00  0.00     0.173 A 
ATOM     63  F   UNL A   1      37.781  30.578  36.655  1.00  0.00    -0.203 F 
ATOM     64  C   UNL A   1      37.970  32.562  37.907  1.00  0.00     0.198 A 
ATOM     65  C   UNL A   1      39.473  34.293  37.194  1.00  0.00     0.198 A 
ATOM     66  F   UNL A   1      40.734  34.022  35.228  1.00  0.00    -0.203 F 
ATOM     67  F   UNL A   1      37.044  32.109  38.764  1.00  0.00    -0.200 F 
ATOM     68  C   UNL A   1      38.536  33.814  38.098  1.00  0.00     0.200 A 
ATOM     69  F   UNL A   1      40.027  35.499  37.382  1.00  0.00    -0.200 F 
ATOM     70  F   UNL A   1      38.172  34.563  39.148  1.00  0.00    -0.200 F 
ENDBRANCH  46  60
BRANCH  47  71
ATOM     71  C   UNL A   1      41.861  27.012  27.797  1.00  0.00     0.064 A 
ATOM     72  C   UNL A   1      41.371  25.721  27.563  1.00  0.00     0.173 A 
ATOM     73  C   UNL A   1      42.764  27.548  26.865  1.00  0.00     0.173 A 
ATOM     74  F   UNL A   1      40.527  25.157  28.440  1.00  0.00    -0.203 F 
ATOM     75  C   UNL A   1      41.780  24.986  26.452  1.00  0.00     0.198 A 
ATOM     76  C   UNL A   1      43.152  26.822  25.741  1.00  0.00     0.198 A 
ATOM     77  F   UNL A   1      43.263  28.779  27.045  1.00  0.00    -0.203 F 
ATOM     78  F   UNL A   1      41.331  23.736  26.275  1.00  0.00    -0.200 F 
ATOM     79  C   UNL A   1      42.666  25.539  25.539  1.00  0.00     0.200 A 
ATOM     80  F   UNL A   1      44.001  27.365  24.858  1.00  0.00    -0.200 F 
ATOM     81  F   UNL A   1      43.059  24.834  24.470  1.00  0.00    -0.200 F 
ENDBRANCH  47  71
BRANCH  59  82
ATOM     82  C   UNL A   1      44.299  27.320  34.316  1.00  0.00     0.064 A 
ATOM     83  C   UNL A   1      45.569  27.896  34.463  1.00  0.00     0.173 A 
ATOM     84  C   UNL A   1      44.080  26.056  34.885  1.00  0.00     0.173 A 
ATOM     85  F   UNL A   1      45.832  29.096  33.924  1.00  0.00    -0.203 F 
ATOM     86  C   UNL A   1      46.586  27.222  35.134  1.00  0.00     0.198 A 
ATOM     87  C   UNL A   1      45.092  25.397  35.578  1.00  0.00     0.198 A 
ATOM     88  F   UNL A   1      42.880  25.465  34.779  1.00  0.00    -0.203 F 
ATOM     89  F   UNL A   1      47.805  27.772  35.225  1.00  0.00    -0.200 F 
ATOM     90  C   UNL A   1      46.345  25.977  35.697  1.00  0.00     0.200 A 
ATOM     91  F   UNL A   1      44.852  24.200  36.132  1.00  0.00    -0.200 F 
ATOM     92  F   UNL A   1      47.324  25.333  36.348  1.00  0.00    -0.200 F 
ENDBRANCH  59  82
ENDBRANCH  33  34
ENDBRANCH  26  28
ENDBRANCH  25  26
ENDBRANCH  24  25
ENDBRANCH  23  24
ENDBRANCH  22  23
ENDBRANCH   1  22
TORSDOF 18
ENDMDL
