MODEL 1
REMARK VINA RESULT:     -11.5      0.000      0.000
REMARK SMILES O=C(OCCOCCOC(=O)C1(Cc2cccc(Cl)c2)CCCC1)c1ccc(-c2c3nc(c(-c4c(F)c(F)c(F)c(F)c4F)c4ccc([nH]4)c(-c4c(F)c(F)c(F)c(F)c4F)c4nc(c(-c5c(F)c(F)c(F)c(F)c5F)c5ccc2[nH]5)C=C4)C=C3)cc1
REMARK SMILES IDX 6 1 5 2 4 3 3 4 2 5 1 6 25 7 26 8 87 9 27 10 86 11 28 12
REMARK SMILES IDX 29 13 30 14 80 15 31 16 85 17 79 18 81 19 32 20 84 21 78 22
REMARK SMILES IDX 77 23 33 25 65 26 45 27 64 28 46 29 49 30 63 31 82 32 47 33
REMARK SMILES IDX 48 34 62 36 83 37 50 38 34 39 35 40 43 41 36 42 37 43 41 44
REMARK SMILES IDX 44 45 38 46 39 47 42 48 40 49 66 50 67 51 75 52 68 53 69 54
REMARK SMILES IDX 73 55 76 56 70 57 71 58 74 59 72 60 51 61 52 62 60 63 53 64
REMARK SMILES IDX 54 65 58 66 61 67 55 68 56 69 59 70 57 71 7 72 8 73 9 74
REMARK SMILES IDX 10 75 11 76 12 77 21 78 24 79 22 80 23 81 13 82 14 83 15 84
REMARK SMILES IDX 20 85 16 86 18 87 17 88 19 89
REMARK H PARENT 81 24 49 35
REMARK Flexibility Score: inf
ROOT
ATOM      1  O   UNL A   1      36.917  20.767  25.209  1.00  0.00    -0.374 OA
ENDROOT
BRANCH   1   2
ATOM      2  C   UNL A   1      38.060  19.943  24.968  1.00  0.00     0.202 C 
BRANCH   2   3
ATOM      3  C   UNL A   1      39.329  20.298  25.748  1.00  0.00     0.261 C 
BRANCH   3   4
ATOM      4  O   UNL A   1      40.244  19.193  25.757  1.00  0.00    -0.460 OA
BRANCH   4   5
ATOM      5  C   UNL A   1      41.579  19.266  25.982  1.00  0.00     0.338 C 
ATOM      6  O   UNL A   1      42.277  18.274  25.789  1.00  0.00    -0.246 OA
BRANCH   5   7
ATOM      7  C   UNL A   1      42.247  20.541  26.364  1.00  0.00     0.060 A 
ATOM      8  C   UNL A   1      42.288  21.062  27.657  1.00  0.00     0.016 A 
ATOM      9  C   UNL A   1      42.901  21.247  25.344  1.00  0.00     0.016 A 
ATOM     10  C   UNL A   1      42.845  22.284  27.930  1.00  0.00     0.010 A 
ATOM     11  C   UNL A   1      43.508  22.475  25.612  1.00  0.00     0.010 A 
ATOM     12  C   UNL A   1      43.437  23.003  26.905  1.00  0.00    -0.014 A 
BRANCH  12  13
ATOM     13  C   UNL A   1      43.750  24.395  27.229  1.00  0.00     0.031 A 
ATOM     14  C   UNL A   1      45.102  24.896  26.835  1.00  0.00     0.074 A 
ATOM     15  C   UNL A   1      42.751  25.209  27.608  1.00  0.00     0.049 A 
ATOM     16  N   UNL A   1      45.627  26.076  26.999  1.00  0.00    -0.248 NA
ATOM     17  C   UNL A   1      45.978  23.939  26.131  1.00  0.00     0.031 C 
ATOM     18  C   UNL A   1      41.353  24.800  27.788  1.00  0.00     0.029 A 
ATOM     19  N   UNL A   1      42.739  26.552  27.843  1.00  0.00    -0.354 N 
ATOM     20  C   UNL A   1      46.910  25.984  26.478  1.00  0.00     0.074 A 
ATOM     21  C   UNL A   1      47.084  24.645  25.973  1.00  0.00     0.031 C 
ATOM     22  C   UNL A   1      40.615  25.882  28.078  1.00  0.00     0.029 A 
ATOM     23  C   UNL A   1      41.502  27.030  28.194  1.00  0.00     0.049 A 
ATOM     24  H   UNL A   1      43.538  27.121  27.767  1.00  0.00     0.167 HD
ATOM     25  C   UNL A   1      47.855  26.949  26.454  1.00  0.00     0.037 A 
ATOM     26  C   UNL A   1      41.159  28.261  28.610  1.00  0.00     0.037 A 
ATOM     27  C   UNL A   1      47.614  28.273  26.960  1.00  0.00     0.049 A 
ATOM     28  C   UNL A   1      42.261  29.283  28.685  1.00  0.00     0.074 A 
ATOM     29  C   UNL A   1      48.489  29.331  27.082  1.00  0.00     0.029 A 
ATOM     30  N   UNL A   1      46.378  28.710  27.427  1.00  0.00    -0.354 N 
ATOM     31  N   UNL A   1      43.516  29.176  28.313  1.00  0.00    -0.248 NA
ATOM     32  C   UNL A   1      41.909  30.586  29.252  1.00  0.00     0.031 C 
ATOM     33  C   UNL A   1      47.796  30.390  27.680  1.00  0.00     0.029 A 
ATOM     34  C   UNL A   1      46.470  30.019  27.859  1.00  0.00     0.049 A 
ATOM     35  H   UNL A   1      45.556  28.166  27.447  1.00  0.00     0.167 HD
ATOM     36  C   UNL A   1      44.101  30.405  28.571  1.00  0.00     0.074 A 
ATOM     37  C   UNL A   1      43.051  31.246  29.118  1.00  0.00     0.031 C 
ATOM     38  C   UNL A   1      45.381  30.811  28.378  1.00  0.00     0.037 A 
BRANCH  25  39
ATOM     39  C   UNL A   1      49.225  26.552  25.989  1.00  0.00     0.064 A 
ATOM     40  C   UNL A   1      50.170  25.953  26.837  1.00  0.00     0.173 A 
ATOM     41  C   UNL A   1      49.621  26.848  24.676  1.00  0.00     0.173 A 
ATOM     42  F   UNL A   1      49.858  25.685  28.114  1.00  0.00    -0.203 F 
ATOM     43  C   UNL A   1      51.469  25.701  26.397  1.00  0.00     0.198 A 
ATOM     44  C   UNL A   1      50.910  26.565  24.230  1.00  0.00     0.198 A 
ATOM     45  F   UNL A   1      48.765  27.437  23.827  1.00  0.00    -0.203 F 
ATOM     46  F   UNL A   1      52.377  25.201  27.247  1.00  0.00    -0.200 F 
ATOM     47  C   UNL A   1      51.836  26.003  25.094  1.00  0.00     0.200 A 
ATOM     48  F   UNL A   1      51.261  26.859  22.970  1.00  0.00    -0.200 F 
ATOM     49  F   UNL A   1      53.089  25.773  24.678  1.00  0.00    -0.200 F 
ENDBRANCH  25  39
BRANCH  26  50
ATOM     50  C   UNL A   1      39.767  28.558  29.038  1.00  0.00     0.064 A 
ATOM     51  C   UNL A   1      38.827  29.090  28.146  1.00  0.00     0.173 A 
ATOM     52  C   UNL A   1      39.348  28.333  30.361  1.00  0.00     0.173 A 
ATOM     53  F   UNL A   1      39.177  29.338  26.874  1.00  0.00    -0.203 F 
ATOM     54  C   UNL A   1      37.535  29.409  28.563  1.00  0.00     0.198 A 
ATOM     55  C   UNL A   1      38.046  28.620  30.767  1.00  0.00     0.198 A 
ATOM     56  F   UNL A   1      40.202  27.826  31.262  1.00  0.00    -0.203 F 
ATOM     57  F   UNL A   1      36.674  29.968  27.700  1.00  0.00    -0.200 F 
ATOM     58  C   UNL A   1      37.144  29.169  29.871  1.00  0.00     0.200 A 
ATOM     59  F   UNL A   1      37.671  28.369  32.029  1.00  0.00    -0.200 F 
ATOM     60  F   UNL A   1      35.903  29.477  30.271  1.00  0.00    -0.200 F 
ENDBRANCH  26  50
BRANCH  38  61
ATOM     61  C   UNL A   1      45.681  32.244  28.695  1.00  0.00     0.064 A 
ATOM     62  C   UNL A   1      45.511  33.265  27.749  1.00  0.00     0.173 A 
ATOM     63  C   UNL A   1      46.111  32.597  29.982  1.00  0.00     0.173 A 
ATOM     64  F   UNL A   1      45.115  32.971  26.501  1.00  0.00    -0.203 F 
ATOM     65  C   UNL A   1      45.796  34.586  28.073  1.00  0.00     0.198 A 
ATOM     66  C   UNL A   1      46.356  33.924  30.314  1.00  0.00     0.198 A 
ATOM     67  F   UNL A   1      46.278  31.654  30.923  1.00  0.00    -0.203 F 
ATOM     68  F   UNL A   1      45.688  35.540  27.138  1.00  0.00    -0.200 F 
ATOM     69  C   UNL A   1      46.209  34.916  29.357  1.00  0.00     0.200 A 
ATOM     70  F   UNL A   1      46.734  34.242  31.559  1.00  0.00    -0.200 F 
ATOM     71  F   UNL A   1      46.474  36.191  29.668  1.00  0.00    -0.200 F 
ENDBRANCH  38  61
ENDBRANCH  12  13
ENDBRANCH   5   7
ENDBRANCH   4   5
ENDBRANCH   3   4
ENDBRANCH   2   3
ENDBRANCH   1   2
BRANCH   1  72
ATOM     72  C   UNL A   1      37.132  22.177  25.096  1.00  0.00     0.202 C 
BRANCH  72  73
ATOM     73  C   UNL A   1      36.331  22.966  26.131  1.00  0.00     0.261 C 
BRANCH  73  74
ATOM     74  O   UNL A   1      35.066  23.359  25.570  1.00  0.00    -0.463 OA
BRANCH  74  75
ATOM     75  C   UNL A   1      34.047  22.514  25.910  1.00  0.00     0.312 C 
ATOM     76  O   UNL A   1      33.918  22.073  27.038  1.00  0.00    -0.252 OA
BRANCH  75  77
ATOM     77  C   UNL A   1      33.078  22.256  24.741  1.00  0.00     0.072 C 
ATOM     78  C   UNL A   1      32.079  23.430  24.584  1.00  0.00     0.019 C 
ATOM     79  C   UNL A   1      33.828  22.323  23.399  1.00  0.00     0.019 C 
ATOM     80  C   UNL A   1      31.658  23.440  23.130  1.00  0.00     0.001 C 
ATOM     81  C   UNL A   1      32.884  22.964  22.375  1.00  0.00     0.001 C 
BRANCH  77  82
ATOM     82  C   UNL A   1      32.261  20.940  24.970  1.00  0.00     0.054 C 
BRANCH  82  83
ATOM     83  C   UNL A   1      32.736  19.684  24.264  1.00  0.00    -0.045 A 
ATOM     84  C   UNL A   1      32.207  19.320  23.013  1.00  0.00     0.004 A 
ATOM     85  C   UNL A   1      33.678  18.837  24.855  1.00  0.00     0.024 A 
ATOM     86  C   UNL A   1      32.487  18.079  22.441  1.00  0.00     0.002 A 
ATOM     87  C   UNL A   1      33.996  17.617  24.254  1.00  0.00     0.041 A 
ATOM     88  C   UNL A   1      33.377  17.218  23.071  1.00  0.00     0.020 A 
ATOM     89  Cl  UNL A   1      35.152  16.581  24.999  1.00  0.00    -0.084 Cl
ENDBRANCH  82  83
ENDBRANCH  77  82
ENDBRANCH  75  77
ENDBRANCH  74  75
ENDBRANCH  73  74
ENDBRANCH  72  73
ENDBRANCH   1  72
TORSDOF 16
ENDMDL
MODEL 2
REMARK VINA RESULT:     -11.5      4.913      8.193
REMARK SMILES O=C(OCCOCCOC(=O)C1(Cc2cccc(Cl)c2)CCCC1)c1ccc(-c2c3nc(c(-c4c(F)c(F)c(F)c(F)c4F)c4ccc([nH]4)c(-c4c(F)c(F)c(F)c(F)c4F)c4nc(c(-c5c(F)c(F)c(F)c(F)c5F)c5ccc2[nH]5)C=C4)C=C3)cc1
REMARK SMILES IDX 6 1 5 2 4 3 3 4 2 5 1 6 25 7 26 8 87 9 27 10 86 11 28 12
REMARK SMILES IDX 29 13 30 14 80 15 31 16 85 17 79 18 81 19 32 20 84 21 78 22
REMARK SMILES IDX 77 23 33 25 65 26 45 27 64 28 46 29 49 30 63 31 82 32 47 33
REMARK SMILES IDX 48 34 62 36 83 37 50 38 34 39 35 40 43 41 36 42 37 43 41 44
REMARK SMILES IDX 44 45 38 46 39 47 42 48 40 49 66 50 67 51 75 52 68 53 69 54
REMARK SMILES IDX 73 55 76 56 70 57 71 58 74 59 72 60 51 61 52 62 60 63 53 64
REMARK SMILES IDX 54 65 58 66 61 67 55 68 56 69 59 70 57 71 7 72 8 73 9 74
REMARK SMILES IDX 10 75 11 76 12 77 21 78 24 79 22 80 23 81 13 82 14 83 15 84
REMARK SMILES IDX 20 85 16 86 18 87 17 88 19 89
REMARK H PARENT 81 24 49 35
REMARK Flexibility Score: inf
ROOT
ATOM      1  O   UNL A   1      32.304  28.246  24.739  1.00  0.00    -0.374 OA
ENDROOT
BRANCH   1   2
ATOM      2  C   UNL A   1      32.903  29.469  25.173  1.00  0.00     0.202 C 
BRANCH   2   3
ATOM      3  C   UNL A   1      31.985  30.450  25.908  1.00  0.00     0.261 C 
BRANCH   3   4
ATOM      4  O   UNL A   1      32.519  30.769  27.201  1.00  0.00    -0.460 OA
BRANCH   4   5
ATOM      5  C   UNL A   1      33.577  31.580  27.447  1.00  0.00     0.338 C 
ATOM      6  O   UNL A   1      33.456  32.793  27.289  1.00  0.00    -0.246 OA
BRANCH   5   7
ATOM      7  C   UNL A   1      34.859  31.061  27.999  1.00  0.00     0.060 A 
ATOM      8  C   UNL A   1      35.106  29.726  28.318  1.00  0.00     0.016 A 
ATOM      9  C   UNL A   1      35.895  31.989  28.183  1.00  0.00     0.016 A 
ATOM     10  C   UNL A   1      36.278  29.325  28.904  1.00  0.00     0.010 A 
ATOM     11  C   UNL A   1      37.110  31.590  28.741  1.00  0.00     0.010 A 
ATOM     12  C   UNL A   1      37.275  30.259  29.136  1.00  0.00    -0.014 A 
BRANCH  12  13
ATOM     13  C   UNL A   1      38.358  29.800  30.005  1.00  0.00     0.031 A 
ATOM     14  C   UNL A   1      39.427  28.966  29.374  1.00  0.00     0.074 A 
ATOM     15  C   UNL A   1      38.486  30.351  31.223  1.00  0.00     0.049 A 
ATOM     16  N   UNL A   1      40.489  28.439  29.910  1.00  0.00    -0.248 NA
ATOM     17  C   UNL A   1      39.293  28.713  27.926  1.00  0.00     0.031 C 
ATOM     18  C   UNL A   1      37.576  31.351  31.795  1.00  0.00     0.029 A 
ATOM     19  N   UNL A   1      39.457  30.204  32.168  1.00  0.00    -0.354 N 
ATOM     20  C   UNL A   1      41.113  27.743  28.884  1.00  0.00     0.074 A 
ATOM     21  C   UNL A   1      40.329  27.927  27.689  1.00  0.00     0.031 C 
ATOM     22  C   UNL A   1      38.054  31.747  32.984  1.00  0.00     0.029 A 
ATOM     23  C   UNL A   1      39.242  30.963  33.290  1.00  0.00     0.049 A 
ATOM     24  H   UNL A   1      40.236  29.612  32.056  1.00  0.00     0.167 HD
ATOM     25  C   UNL A   1      42.239  27.001  28.965  1.00  0.00     0.037 A 
ATOM     26  C   UNL A   1      39.921  30.969  34.449  1.00  0.00     0.037 A 
ATOM     27  C   UNL A   1      42.987  26.870  30.186  1.00  0.00     0.049 A 
ATOM     28  C   UNL A   1      41.101  30.041  34.549  1.00  0.00     0.074 A 
ATOM     29  C   UNL A   1      44.095  26.092  30.449  1.00  0.00     0.029 A 
ATOM     30  N   UNL A   1      42.684  27.558  31.357  1.00  0.00    -0.354 N 
ATOM     31  N   UNL A   1      41.633  29.277  33.623  1.00  0.00    -0.248 NA
ATOM     32  C   UNL A   1      41.765  29.961  35.852  1.00  0.00     0.031 C 
ATOM     33  C   UNL A   1      44.426  26.265  31.798  1.00  0.00     0.029 A 
ATOM     34  C   UNL A   1      43.572  27.209  32.356  1.00  0.00     0.049 A 
ATOM     35  H   UNL A   1      41.945  28.202  31.459  1.00  0.00     0.167 HD
ATOM     36  C   UNL A   1      42.713  28.645  34.218  1.00  0.00     0.074 A 
ATOM     37  C   UNL A   1      42.765  29.133  35.585  1.00  0.00     0.031 C 
ATOM     38  C   UNL A   1      43.584  27.746  33.696  1.00  0.00     0.037 A 
BRANCH  25  39
ATOM     39  C   UNL A   1      42.621  26.205  27.752  1.00  0.00     0.064 A 
ATOM     40  C   UNL A   1      42.086  24.936  27.478  1.00  0.00     0.173 A 
ATOM     41  C   UNL A   1      43.604  26.701  26.882  1.00  0.00     0.173 A 
ATOM     42  F   UNL A   1      41.174  24.396  28.299  1.00  0.00    -0.203 F 
ATOM     43  C   UNL A   1      42.549  24.181  26.401  1.00  0.00     0.198 A 
ATOM     44  C   UNL A   1      44.040  25.957  25.788  1.00  0.00     0.198 A 
ATOM     45  F   UNL A   1      44.162  27.900  27.105  1.00  0.00    -0.203 F 
ATOM     46  F   UNL A   1      42.081  22.941  26.205  1.00  0.00    -0.200 F 
ATOM     47  C   UNL A   1      43.522  24.694  25.555  1.00  0.00     0.200 A 
ATOM     48  F   UNL A   1      44.980  26.457  24.973  1.00  0.00    -0.200 F 
ATOM     49  F   UNL A   1      43.974  23.961  24.529  1.00  0.00    -0.200 F 
ENDBRANCH  25  39
BRANCH  26  50
ATOM     50  C   UNL A   1      39.468  31.806  35.591  1.00  0.00     0.064 A 
ATOM     51  C   UNL A   1      38.517  31.338  36.508  1.00  0.00     0.173 A 
ATOM     52  C   UNL A   1      39.966  33.107  35.784  1.00  0.00     0.173 A 
ATOM     53  F   UNL A   1      37.998  30.110  36.364  1.00  0.00    -0.203 F 
ATOM     54  C   UNL A   1      38.063  32.143  37.552  1.00  0.00     0.198 A 
ATOM     55  C   UNL A   1      39.538  33.897  36.849  1.00  0.00     0.198 A 
ATOM     56  F   UNL A   1      40.879  33.611  34.941  1.00  0.00    -0.203 F 
ATOM     57  F   UNL A   1      37.112  31.688  38.380  1.00  0.00    -0.200 F 
ATOM     58  C   UNL A   1      38.577  33.419  37.725  1.00  0.00     0.200 A 
ATOM     59  F   UNL A   1      40.052  35.122  37.019  1.00  0.00    -0.200 F 
ATOM     60  F   UNL A   1      38.139  34.192  38.728  1.00  0.00    -0.200 F 
ENDBRANCH  26  50
BRANCH  38  61
ATOM     61  C   UNL A   1      44.701  27.301  34.590  1.00  0.00     0.064 A 
ATOM     62  C   UNL A   1      45.911  28.004  34.673  1.00  0.00     0.173 A 
ATOM     63  C   UNL A   1      44.532  26.171  35.403  1.00  0.00     0.173 A 
ATOM     64  F   UNL A   1      46.120  29.083  33.902  1.00  0.00    -0.203 F 
ATOM     65  C   UNL A   1      46.928  27.568  35.513  1.00  0.00     0.198 A 
ATOM     66  C   UNL A   1      45.536  25.762  36.272  1.00  0.00     0.198 A 
ATOM     67  F   UNL A   1      43.386  25.473  35.364  1.00  0.00    -0.203 F 
ATOM     68  F   UNL A   1      48.101  28.215  35.533  1.00  0.00    -0.200 F 
ATOM     69  C   UNL A   1      46.737  26.453  36.319  1.00  0.00     0.200 A 
ATOM     70  F   UNL A   1      45.341  24.699  37.064  1.00  0.00    -0.200 F 
ATOM     71  F   UNL A   1      47.715  26.041  37.135  1.00  0.00    -0.200 F 
ENDBRANCH  38  61
ENDBRANCH  12  13
ENDBRANCH   5   7
ENDBRANCH   4   5
ENDBRANCH   3   4
ENDBRANCH   2   3
ENDBRANCH   1   2
BRANCH   1  72
ATOM     72  C   UNL A   1      33.130  27.081  24.832  1.00  0.00     0.202 C 
BRANCH  72  73
ATOM     73  C   UNL A   1      32.781  26.042  23.768  1.00  0.00     0.261 C 
BRANCH  73  74
ATOM     74  O   UNL A   1      33.016  24.719  24.283  1.00  0.00    -0.463 OA
BRANCH  74  75
ATOM     75  C   UNL A   1      33.983  24.043  23.592  1.00  0.00     0.312 C 
ATOM     76  O   UNL A   1      34.112  24.147  22.386  1.00  0.00    -0.252 OA
BRANCH  75  77
ATOM     77  C   UNL A   1      34.899  23.216  24.514  1.00  0.00     0.072 C 
ATOM     78  C   UNL A   1      35.991  22.484  23.693  1.00  0.00     0.019 C 
ATOM     79  C   UNL A   1      35.757  24.144  25.391  1.00  0.00     0.019 C 
ATOM     80  C   UNL A   1      37.162  22.279  24.630  1.00  0.00     0.001 C 
ATOM     81  C   UNL A   1      37.134  23.488  25.545  1.00  0.00     0.001 C 
BRANCH  77  82
ATOM     82  C   UNL A   1      34.076  22.143  25.305  1.00  0.00     0.054 C 
BRANCH  82  83
ATOM     83  C   UNL A   1      33.699  20.867  24.576  1.00  0.00    -0.045 A 
ATOM     84  C   UNL A   1      32.637  20.853  23.656  1.00  0.00     0.004 A 
ATOM     85  C   UNL A   1      34.369  19.667  24.831  1.00  0.00     0.024 A 
ATOM     86  C   UNL A   1      32.155  19.657  23.124  1.00  0.00     0.002 A 
ATOM     87  C   UNL A   1      33.916  18.477  24.257  1.00  0.00     0.041 A 
ATOM     88  C   UNL A   1      32.791  18.461  23.434  1.00  0.00     0.020 A 
ATOM     89  Cl  UNL A   1      34.746  17.006  24.587  1.00  0.00    -0.084 Cl
ENDBRANCH  82  83
ENDBRANCH  77  82
ENDBRANCH  75  77
ENDBRANCH  74  75
ENDBRANCH  73  74
ENDBRANCH  72  73
ENDBRANCH   1  72
TORSDOF 16
ENDMDL
MODEL 3
REMARK VINA RESULT:     -11.5      4.767      9.991
REMARK SMILES O=C(OCCOCCOC(=O)C1(Cc2cccc(Cl)c2)CCCC1)c1ccc(-c2c3nc(c(-c4c(F)c(F)c(F)c(F)c4F)c4ccc([nH]4)c(-c4c(F)c(F)c(F)c(F)c4F)c4nc(c(-c5c(F)c(F)c(F)c(F)c5F)c5ccc2[nH]5)C=C4)C=C3)cc1
REMARK SMILES IDX 6 1 5 2 4 3 3 4 2 5 1 6 25 7 26 8 87 9 27 10 86 11 28 12
REMARK SMILES IDX 29 13 30 14 80 15 31 16 85 17 79 18 81 19 32 20 84 21 78 22
REMARK SMILES IDX 77 23 33 25 65 26 45 27 64 28 46 29 49 30 63 31 82 32 47 33
REMARK SMILES IDX 48 34 62 36 83 37 50 38 34 39 35 40 43 41 36 42 37 43 41 44
REMARK SMILES IDX 44 45 38 46 39 47 42 48 40 49 66 50 67 51 75 52 68 53 69 54
REMARK SMILES IDX 73 55 76 56 70 57 71 58 74 59 72 60 51 61 52 62 60 63 53 64
REMARK SMILES IDX 54 65 58 66 61 67 55 68 56 69 59 70 57 71 7 72 8 73 9 74
REMARK SMILES IDX 10 75 11 76 12 77 21 78 24 79 22 80 23 81 13 82 14 83 15 84
REMARK SMILES IDX 20 85 16 86 18 87 17 88 19 89
REMARK H PARENT 81 24 49 35
REMARK Flexibility Score: inf
ROOT
ATOM      1  O   UNL A   1      32.693  28.097  24.648  1.00  0.00    -0.374 OA
ENDROOT
BRANCH   1   2
ATOM      2  C   UNL A   1      33.152  29.342  25.181  1.00  0.00     0.202 C 
BRANCH   2   3
ATOM      3  C   UNL A   1      32.111  30.188  25.921  1.00  0.00     0.261 C 
BRANCH   3   4
ATOM      4  O   UNL A   1      32.571  30.516  27.240  1.00  0.00    -0.460 OA
BRANCH   4   5
ATOM      5  C   UNL A   1      33.549  31.406  27.542  1.00  0.00     0.338 C 
ATOM      6  O   UNL A   1      33.290  32.607  27.544  1.00  0.00    -0.246 OA
BRANCH   5   7
ATOM      7  C   UNL A   1      34.908  30.972  27.970  1.00  0.00     0.060 A 
ATOM      8  C   UNL A   1      35.274  29.654  28.238  1.00  0.00     0.016 A 
ATOM      9  C   UNL A   1      35.888  31.969  28.082  1.00  0.00     0.016 A 
ATOM     10  C   UNL A   1      36.519  29.328  28.712  1.00  0.00     0.010 A 
ATOM     11  C   UNL A   1      37.172  31.650  28.525  1.00  0.00     0.010 A 
ATOM     12  C   UNL A   1      37.464  30.328  28.876  1.00  0.00    -0.014 A 
BRANCH  12  13
ATOM     13  C   UNL A   1      38.649  29.935  29.638  1.00  0.00     0.031 A 
ATOM     14  C   UNL A   1      38.722  30.390  31.060  1.00  0.00     0.074 A 
ATOM     15  C   UNL A   1      39.461  28.994  29.130  1.00  0.00     0.049 A 
ATOM     16  N   UNL A   1      39.651  30.181  31.949  1.00  0.00    -0.248 NA
ATOM     17  C   UNL A   1      37.573  31.168  31.561  1.00  0.00     0.031 C 
ATOM     18  C   UNL A   1      39.292  28.353  27.819  1.00  0.00     0.029 A 
ATOM     19  N   UNL A   1      40.542  28.364  29.672  1.00  0.00    -0.354 N 
ATOM     20  C   UNL A   1      39.229  30.851  33.088  1.00  0.00     0.074 A 
ATOM     21  C   UNL A   1      37.955  31.458  32.793  1.00  0.00     0.031 C 
ATOM     22  C   UNL A   1      40.224  27.399  27.676  1.00  0.00     0.029 A 
ATOM     23  C   UNL A   1      41.102  27.431  28.836  1.00  0.00     0.049 A 
ATOM     24  H   UNL A   1      40.886  28.559  30.573  1.00  0.00     0.167 HD
ATOM     25  C   UNL A   1      39.881  30.954  34.267  1.00  0.00     0.037 A 
ATOM     26  C   UNL A   1      42.233  26.725  28.996  1.00  0.00     0.037 A 
ATOM     27  C   UNL A   1      41.144  30.310  34.504  1.00  0.00     0.049 A 
ATOM     28  C   UNL A   1      43.000  26.952  30.271  1.00  0.00     0.074 A 
ATOM     29  C   UNL A   1      41.966  30.386  35.609  1.00  0.00     0.029 A 
ATOM     30  N   UNL A   1      41.761  29.457  33.595  1.00  0.00    -0.354 N 
ATOM     31  N   UNL A   1      42.676  27.684  31.312  1.00  0.00    -0.248 NA
ATOM     32  C   UNL A   1      44.292  26.273  30.389  1.00  0.00     0.031 C 
ATOM     33  C   UNL A   1      43.109  29.624  35.342  1.00  0.00     0.029 A 
ATOM     34  C   UNL A   1      42.966  29.012  34.104  1.00  0.00     0.049 A 
ATOM     35  H   UNL A   1      41.393  29.205  32.716  1.00  0.00     0.167 HD
ATOM     36  C   UNL A   1      43.708  27.533  32.225  1.00  0.00     0.074 A 
ATOM     37  C   UNL A   1      44.661  26.624  31.613  1.00  0.00     0.031 C 
ATOM     38  C   UNL A   1      43.864  28.088  33.453  1.00  0.00     0.037 A 
BRANCH  25  39
ATOM     39  C   UNL A   1      39.294  31.878  35.293  1.00  0.00     0.064 A 
ATOM     40  C   UNL A   1      39.598  33.248  35.342  1.00  0.00     0.173 A 
ATOM     41  C   UNL A   1      38.463  31.357  36.297  1.00  0.00     0.173 A 
ATOM     42  F   UNL A   1      40.421  33.790  34.432  1.00  0.00    -0.203 F 
ATOM     43  C   UNL A   1      39.121  34.050  36.378  1.00  0.00     0.198 A 
ATOM     44  C   UNL A   1      37.962  32.169  37.311  1.00  0.00     0.198 A 
ATOM     45  F   UNL A   1      38.154  30.052  36.310  1.00  0.00    -0.203 F 
ATOM     46  F   UNL A   1      39.488  35.338  36.448  1.00  0.00    -0.200 F 
ATOM     47  C   UNL A   1      38.301  33.512  37.358  1.00  0.00     0.200 A 
ATOM     48  F   UNL A   1      37.170  31.644  38.256  1.00  0.00    -0.200 F 
ATOM     49  F   UNL A   1      37.855  34.282  38.360  1.00  0.00    -0.200 F 
ENDBRANCH  25  39
BRANCH  26  50
ATOM     50  C   UNL A   1      42.725  25.822  27.922  1.00  0.00     0.064 A 
ATOM     51  C   UNL A   1      43.479  26.310  26.847  1.00  0.00     0.173 A 
ATOM     52  C   UNL A   1      42.434  24.447  27.937  1.00  0.00     0.173 A 
ATOM     53  F   UNL A   1      43.773  27.617  26.775  1.00  0.00    -0.203 F 
ATOM     54  C   UNL A   1      43.900  25.467  25.819  1.00  0.00     0.198 A 
ATOM     55  C   UNL A   1      42.886  23.600  26.927  1.00  0.00     0.198 A 
ATOM     56  F   UNL A   1      41.716  23.920  28.940  1.00  0.00    -0.203 F 
ATOM     57  F   UNL A   1      44.574  25.973  24.776  1.00  0.00    -0.200 F 
ATOM     58  C   UNL A   1      43.609  24.112  25.862  1.00  0.00     0.200 A 
ATOM     59  F   UNL A   1      42.615  22.289  26.985  1.00  0.00    -0.200 F 
ATOM     60  F   UNL A   1      44.013  23.305  24.873  1.00  0.00    -0.200 F 
ENDBRANCH  26  50
BRANCH  38  61
ATOM     61  C   UNL A   1      45.072  27.662  34.230  1.00  0.00     0.064 A 
ATOM     62  C   UNL A   1      45.057  26.537  35.065  1.00  0.00     0.173 A 
ATOM     63  C   UNL A   1      46.271  28.377  34.099  1.00  0.00     0.173 A 
ATOM     64  F   UNL A   1      43.928  25.831  35.230  1.00  0.00    -0.203 F 
ATOM     65  C   UNL A   1      46.194  26.164  35.772  1.00  0.00     0.198 A 
ATOM     66  C   UNL A   1      47.417  27.977  34.776  1.00  0.00     0.198 A 
ATOM     67  F   UNL A   1      46.334  29.455  33.302  1.00  0.00    -0.203 F 
ATOM     68  F   UNL A   1      46.145  25.123  36.614  1.00  0.00    -0.200 F 
ATOM     69  C   UNL A   1      47.375  26.878  35.620  1.00  0.00     0.200 A 
ATOM     70  F   UNL A   1      48.560  28.656  34.612  1.00  0.00    -0.200 F 
ATOM     71  F   UNL A   1      48.472  26.511  36.296  1.00  0.00    -0.200 F 
ENDBRANCH  38  61
ENDBRANCH  12  13
ENDBRANCH   5   7
ENDBRANCH   4   5
ENDBRANCH   3   4
ENDBRANCH   2   3
ENDBRANCH   1   2
BRANCH   1  72
ATOM     72  C   UNL A   1      33.601  26.998  24.764  1.00  0.00     0.202 C 
BRANCH  72  73
ATOM     73  C   UNL A   1      33.381  25.953  23.672  1.00  0.00     0.261 C 
BRANCH  73  74
ATOM     74  O   UNL A   1      33.422  24.633  24.244  1.00  0.00    -0.463 OA
BRANCH  74  75
ATOM     75  C   UNL A   1      34.276  23.794  23.585  1.00  0.00     0.312 C 
ATOM     76  O   UNL A   1      34.337  23.751  22.370  1.00  0.00    -0.252 OA
BRANCH  75  77
ATOM     77  C   UNL A   1      35.169  22.986  24.547  1.00  0.00     0.072 C 
ATOM     78  C   UNL A   1      36.276  22.232  23.767  1.00  0.00     0.019 C 
ATOM     79  C   UNL A   1      36.012  23.933  25.418  1.00  0.00     0.019 C 
ATOM     80  C   UNL A   1      37.427  22.046  24.733  1.00  0.00     0.001 C 
ATOM     81  C   UNL A   1      37.383  23.277  25.618  1.00  0.00     0.001 C 
BRANCH  77  82
ATOM     82  C   UNL A   1      34.327  21.936  25.345  1.00  0.00     0.054 C 
BRANCH  82  83
ATOM     83  C   UNL A   1      33.831  20.713  24.596  1.00  0.00    -0.045 A 
ATOM     84  C   UNL A   1      32.746  20.808  23.707  1.00  0.00     0.004 A 
ATOM     85  C   UNL A   1      34.411  19.459  24.800  1.00  0.00     0.024 A 
ATOM     86  C   UNL A   1      32.157  19.668  23.159  1.00  0.00     0.002 A 
ATOM     87  C   UNL A   1      33.851  18.324  24.209  1.00  0.00     0.041 A 
ATOM     88  C   UNL A   1      32.706  18.418  23.420  1.00  0.00     0.020 A 
ATOM     89  Cl  UNL A   1      34.572  16.784  24.477  1.00  0.00    -0.084 Cl
ENDBRANCH  82  83
ENDBRANCH  77  82
ENDBRANCH  75  77
ENDBRANCH  74  75
ENDBRANCH  73  74
ENDBRANCH  72  73
ENDBRANCH   1  72
TORSDOF 16
ENDMDL
