MODEL 1
REMARK VINA RESULT:     -11.4      0.000      0.000
REMARK SMILES CCC[C@H]1CC[C@H](C(=O)OCCOCCOC(=O)c2ccc(-c3c4nc(c(-c5c(F)c(F)c(F)c(F)c5F)c5ccc([nH]5)c(-c5c(F)c(F)c(F)c(F)c5F)c5nc(c(-c6c(F)c(F)c(F)c(F)c6F)c6ccc3[nH]6)C=C5)C=C4)cc2)[C@H](Sc2ccncc2)C1
REMARK SMILES IDX 13 1 12 2 11 3 10 4 8 5 9 6 7 7 4 8 5 9 90 10 6 11 82 12
REMARK SMILES IDX 3 13 2 14 1 15 83 16 84 17 85 18 89 19 86 20 88 21 87 22
REMARK SMILES IDX 14 23 15 24 16 25 17 26 18 27 19 28 20 29 81 30 21 31 80 32
REMARK SMILES IDX 22 33 23 34 24 35 74 36 25 37 79 38 73 39 75 40 26 41 78 42
REMARK SMILES IDX 72 43 71 44 27 46 59 47 39 48 58 49 40 50 43 51 57 52 76 53
REMARK SMILES IDX 41 54 42 55 56 57 77 58 44 59 28 60 29 61 37 62 30 63 31 64
REMARK SMILES IDX 35 65 38 66 32 67 33 68 36 69 34 70 60 71 61 72 69 73 62 74
REMARK SMILES IDX 63 75 67 76 70 77 64 78 65 79 68 80 66 81 45 82 46 83 54 84
REMARK SMILES IDX 47 85 48 86 52 87 55 88 49 89 50 90 53 91 51 92
REMARK H PARENT 75 45 43 56
REMARK Flexibility Score: inf
ROOT
ATOM      1  O   UNL A   1      34.217  20.414  24.650  1.00  0.00    -0.374 OA
ENDROOT
BRANCH   1   2
ATOM      2  C   UNL A   1      33.070  21.138  24.243  1.00  0.00     0.202 C 
BRANCH   2   3
ATOM      3  C   UNL A   1      33.209  22.577  23.731  1.00  0.00     0.261 C 
BRANCH   3   4
ATOM      4  O   UNL A   1      32.126  23.487  23.922  1.00  0.00    -0.463 OA
BRANCH   4   5
ATOM      5  C   UNL A   1      32.309  24.770  23.519  1.00  0.00     0.310 C 
ATOM      6  O   UNL A   1      32.888  25.110  22.495  1.00  0.00    -0.252 OA
BRANCH   5   7
ATOM      7  C   UNL A   1      31.689  25.765  24.481  1.00  0.00     0.112 C 
ATOM      8  C   UNL A   1      33.661  27.846  25.451  1.00  0.00    -0.010 C 
ATOM      9  C   UNL A   1      33.705  26.395  25.952  1.00  0.00     0.004 C 
ATOM     10  C   UNL A   1      32.995  27.939  24.051  1.00  0.00     0.019 C 
ATOM     11  C   UNL A   1      32.348  25.690  25.871  1.00  0.00     0.017 C 
ATOM     12  C   UNL A   1      31.646  27.212  23.965  1.00  0.00     0.066 C 
BRANCH   8  13
ATOM     13  C   UNL A   1      32.994  28.792  26.480  1.00  0.00     0.003 C 
BRANCH  13  14
ATOM     14  C   UNL A   1      33.901  29.909  27.025  1.00  0.00    -0.003 C 
ATOM     15  C   UNL A   1      35.193  29.401  27.647  1.00  0.00     0.004 C 
ENDBRANCH  13  14
ENDBRANCH   8  13
BRANCH  12  16
ATOM     16  S   UNL A   1      30.714  27.516  22.381  1.00  0.00    -0.122 SA
BRANCH  16  17
ATOM     17  C   UNL A   1      29.420  28.675  22.777  1.00  0.00     0.011 A 
ATOM     18  C   UNL A   1      28.097  28.239  22.872  1.00  0.00     0.035 A 
ATOM     19  C   UNL A   1      29.709  29.991  23.126  1.00  0.00     0.035 A 
ATOM     20  C   UNL A   1      27.109  29.156  23.195  1.00  0.00     0.112 A 
ATOM     21  C   UNL A   1      28.658  30.829  23.474  1.00  0.00     0.112 A 
ATOM     22  N   UNL A   1      27.362  30.450  23.487  1.00  0.00    -0.265 NA
ENDBRANCH  16  17
ENDBRANCH  12  16
ENDBRANCH   5   7
ENDBRANCH   4   5
ENDBRANCH   3   4
ENDBRANCH   2   3
ENDBRANCH   1   2
BRANCH   1  23
ATOM     23  C   UNL A   1      35.321  21.130  25.196  1.00  0.00     0.202 C 
BRANCH  23  24
ATOM     24  C   UNL A   1      36.712  20.535  24.989  1.00  0.00     0.261 C 
BRANCH  24  25
ATOM     25  O   UNL A   1      37.725  21.556  25.073  1.00  0.00    -0.460 OA
BRANCH  25  26
ATOM     26  C   UNL A   1      38.814  21.223  25.800  1.00  0.00     0.338 C 
ATOM     27  O   UNL A   1      39.390  20.144  25.829  1.00  0.00    -0.246 OA
BRANCH  26  28
ATOM     28  C   UNL A   1      39.353  22.418  26.465  1.00  0.00     0.060 A 
ATOM     29  C   UNL A   1      38.824  23.664  26.107  1.00  0.00     0.016 A 
ATOM     30  C   UNL A   1      40.431  22.323  27.348  1.00  0.00     0.016 A 
ATOM     31  C   UNL A   1      39.408  24.831  26.592  1.00  0.00     0.010 A 
ATOM     32  C   UNL A   1      41.023  23.495  27.823  1.00  0.00     0.010 A 
ATOM     33  C   UNL A   1      40.536  24.751  27.419  1.00  0.00    -0.014 A 
BRANCH  33  34
ATOM     34  C   UNL A   1      41.299  25.976  27.753  1.00  0.00     0.031 A 
ATOM     35  C   UNL A   1      40.609  27.077  28.508  1.00  0.00     0.074 A 
ATOM     36  C   UNL A   1      42.582  26.103  27.374  1.00  0.00     0.049 A 
ATOM     37  N   UNL A   1      41.041  28.275  28.806  1.00  0.00    -0.248 NA
ATOM     38  C   UNL A   1      39.247  26.791  28.988  1.00  0.00     0.031 C 
ATOM     39  C   UNL A   1      43.364  25.080  26.683  1.00  0.00     0.029 A 
ATOM     40  N   UNL A   1      43.447  27.161  27.503  1.00  0.00    -0.354 N 
ATOM     41  C   UNL A   1      40.000  28.890  29.490  1.00  0.00     0.074 A 
ATOM     42  C   UNL A   1      38.912  27.940  29.556  1.00  0.00     0.031 C 
ATOM     43  C   UNL A   1      44.589  25.569  26.425  1.00  0.00     0.029 A 
ATOM     44  C   UNL A   1      44.660  26.951  26.895  1.00  0.00     0.049 A 
ATOM     45  H   UNL A   1      43.219  27.988  27.985  1.00  0.00     0.167 HD
ATOM     46  C   UNL A   1      39.963  30.139  30.012  1.00  0.00     0.037 A 
ATOM     47  C   UNL A   1      45.690  27.798  26.706  1.00  0.00     0.037 A 
ATOM     48  C   UNL A   1      41.060  31.069  29.958  1.00  0.00     0.049 A 
ATOM     49  C   UNL A   1      45.586  29.209  27.229  1.00  0.00     0.074 A 
ATOM     50  C   UNL A   1      41.141  32.336  30.507  1.00  0.00     0.029 A 
ATOM     51  N   UNL A   1      42.260  30.835  29.306  1.00  0.00    -0.354 N 
ATOM     52  N   UNL A   1      44.617  29.772  27.909  1.00  0.00    -0.248 NA
ATOM     53  C   UNL A   1      46.718  30.104  26.948  1.00  0.00     0.031 C 
ATOM     54  C   UNL A   1      42.370  32.892  30.136  1.00  0.00     0.029 A 
ATOM     55  C   UNL A   1      43.074  31.952  29.402  1.00  0.00     0.049 A 
ATOM     56  H   UNL A   1      42.499  29.999  28.845  1.00  0.00     0.167 HD
ATOM     57  C   UNL A   1      45.033  31.073  28.162  1.00  0.00     0.074 A 
ATOM     58  C   UNL A   1      46.348  31.212  27.574  1.00  0.00     0.031 C 
ATOM     59  C   UNL A   1      44.385  32.065  28.819  1.00  0.00     0.037 A 
BRANCH  46  60
ATOM     60  C   UNL A   1      38.692  30.594  30.661  1.00  0.00     0.064 A 
ATOM     61  C   UNL A   1      38.520  30.570  32.053  1.00  0.00     0.173 A 
ATOM     62  C   UNL A   1      37.659  31.135  29.880  1.00  0.00     0.173 A 
ATOM     63  F   UNL A   1      39.473  30.052  32.842  1.00  0.00    -0.203 F 
ATOM     64  C   UNL A   1      37.356  31.065  32.638  1.00  0.00     0.198 A 
ATOM     65  C   UNL A   1      36.508  31.650  30.470  1.00  0.00     0.198 A 
ATOM     66  F   UNL A   1      37.776  31.182  28.545  1.00  0.00    -0.203 F 
ATOM     67  F   UNL A   1      37.202  31.010  33.968  1.00  0.00    -0.200 F 
ATOM     68  C   UNL A   1      36.356  31.613  31.848  1.00  0.00     0.200 A 
ATOM     69  F   UNL A   1      35.549  32.189  29.705  1.00  0.00    -0.200 F 
ATOM     70  F   UNL A   1      35.247  32.105  32.414  1.00  0.00    -0.200 F 
ENDBRANCH  46  60
BRANCH  47  71
ATOM     71  C   UNL A   1      46.895  27.361  25.952  1.00  0.00     0.064 A 
ATOM     72  C   UNL A   1      47.971  26.743  26.603  1.00  0.00     0.173 A 
ATOM     73  C   UNL A   1      47.015  27.596  24.574  1.00  0.00     0.173 A 
ATOM     74  F   UNL A   1      47.915  26.521  27.924  1.00  0.00    -0.203 F 
ATOM     75  C   UNL A   1      49.133  26.405  25.912  1.00  0.00     0.198 A 
ATOM     76  C   UNL A   1      48.165  27.229  23.877  1.00  0.00     0.198 A 
ATOM     77  F   UNL A   1      46.016  28.187  23.902  1.00  0.00    -0.203 F 
ATOM     78  F   UNL A   1      50.170  25.872  26.572  1.00  0.00    -0.200 F 
ATOM     79  C   UNL A   1      49.227  26.645  24.550  1.00  0.00     0.200 A 
ATOM     80  F   UNL A   1      48.247  27.452  22.558  1.00  0.00    -0.200 F 
ATOM     81  F   UNL A   1      50.347  26.326  23.887  1.00  0.00    -0.200 F 
ENDBRANCH  47  71
BRANCH  59  82
ATOM     82  C   UNL A   1      45.100  33.377  28.966  1.00  0.00     0.064 A 
ATOM     83  C   UNL A   1      44.922  34.417  28.042  1.00  0.00     0.173 A 
ATOM     84  C   UNL A   1      45.932  33.613  30.071  1.00  0.00     0.173 A 
ATOM     85  F   UNL A   1      44.147  34.235  26.961  1.00  0.00    -0.203 F 
ATOM     86  C   UNL A   1      45.570  35.638  28.207  1.00  0.00     0.198 A 
ATOM     87  C   UNL A   1      46.554  34.845  30.248  1.00  0.00     0.198 A 
ATOM     88  F   UNL A   1      46.128  32.654  30.987  1.00  0.00    -0.203 F 
ATOM     89  F   UNL A   1      45.422  36.602  27.287  1.00  0.00    -0.200 F 
ATOM     90  C   UNL A   1      46.378  35.854  29.312  1.00  0.00     0.200 A 
ATOM     91  F   UNL A   1      47.322  35.058  31.326  1.00  0.00    -0.200 F 
ATOM     92  F   UNL A   1      46.992  37.034  29.475  1.00  0.00    -0.200 F 
ENDBRANCH  59  82
ENDBRANCH  33  34
ENDBRANCH  26  28
ENDBRANCH  25  26
ENDBRANCH  24  25
ENDBRANCH  23  24
ENDBRANCH   1  23
TORSDOF 18
ENDMDL
MODEL 2
REMARK VINA RESULT:     -11.2      4.536      9.985
REMARK SMILES CCC[C@H]1CC[C@H](C(=O)OCCOCCOC(=O)c2ccc(-c3c4nc(c(-c5c(F)c(F)c(F)c(F)c5F)c5ccc([nH]5)c(-c5c(F)c(F)c(F)c(F)c5F)c5nc(c(-c6c(F)c(F)c(F)c(F)c6F)c6ccc3[nH]6)C=C5)C=C4)cc2)[C@H](Sc2ccncc2)C1
REMARK SMILES IDX 13 1 12 2 11 3 10 4 8 5 9 6 7 7 4 8 5 9 90 10 6 11 82 12
REMARK SMILES IDX 3 13 2 14 1 15 83 16 84 17 85 18 89 19 86 20 88 21 87 22
REMARK SMILES IDX 14 23 15 24 16 25 17 26 18 27 19 28 20 29 81 30 21 31 80 32
REMARK SMILES IDX 22 33 23 34 24 35 74 36 25 37 79 38 73 39 75 40 26 41 78 42
REMARK SMILES IDX 72 43 71 44 27 46 59 47 39 48 58 49 40 50 43 51 57 52 76 53
REMARK SMILES IDX 41 54 42 55 56 57 77 58 44 59 28 60 29 61 37 62 30 63 31 64
REMARK SMILES IDX 35 65 38 66 32 67 33 68 36 69 34 70 60 71 61 72 69 73 62 74
REMARK SMILES IDX 63 75 67 76 70 77 64 78 65 79 68 80 66 81 45 82 46 83 54 84
REMARK SMILES IDX 47 85 48 86 52 87 55 88 49 89 50 90 53 91 51 92
REMARK H PARENT 75 45 43 56
REMARK Flexibility Score: inf
ROOT
ATOM      1  O   UNL A   1      31.057  27.816  25.727  1.00  0.00    -0.374 OA
ENDROOT
BRANCH   1   2
ATOM      2  C   UNL A   1      31.562  26.614  25.173  1.00  0.00     0.202 C 
BRANCH   2   3
ATOM      3  C   UNL A   1      30.876  25.277  25.476  1.00  0.00     0.261 C 
BRANCH   3   4
ATOM      4  O   UNL A   1      31.576  24.063  25.206  1.00  0.00    -0.463 OA
BRANCH   4   5
ATOM      5  C   UNL A   1      31.525  23.581  23.938  1.00  0.00     0.310 C 
ATOM      6  O   UNL A   1      30.555  23.657  23.196  1.00  0.00    -0.252 OA
BRANCH   5   7
ATOM      7  C   UNL A   1      32.835  22.944  23.516  1.00  0.00     0.112 C 
ATOM      8  C   UNL A   1      35.201  23.956  25.109  1.00  0.00    -0.010 C 
ATOM      9  C   UNL A   1      34.520  24.818  24.037  1.00  0.00     0.004 C 
ATOM     10  C   UNL A   1      34.224  22.892  25.680  1.00  0.00     0.019 C 
ATOM     11  C   UNL A   1      33.816  23.990  22.958  1.00  0.00     0.017 C 
ATOM     12  C   UNL A   1      33.502  22.079  24.597  1.00  0.00     0.066 C 
BRANCH   8  13
ATOM     13  C   UNL A   1      36.517  23.324  24.593  1.00  0.00     0.003 C 
BRANCH  13  14
ATOM     14  C   UNL A   1      37.558  23.004  25.678  1.00  0.00    -0.003 C 
ATOM     15  C   UNL A   1      38.251  21.662  25.486  1.00  0.00     0.004 C 
ENDBRANCH  13  14
ENDBRANCH   8  13
BRANCH  12  16
ATOM     16  S   UNL A   1      32.519  20.637  25.251  1.00  0.00    -0.122 SA
BRANCH  16  17
ATOM     17  C   UNL A   1      32.968  19.232  24.250  1.00  0.00     0.011 A 
ATOM     18  C   UNL A   1      34.040  18.420  24.626  1.00  0.00     0.035 A 
ATOM     19  C   UNL A   1      32.192  18.841  23.163  1.00  0.00     0.035 A 
ATOM     20  C   UNL A   1      34.362  17.326  23.839  1.00  0.00     0.112 A 
ATOM     21  C   UNL A   1      32.568  17.706  22.457  1.00  0.00     0.112 A 
ATOM     22  N   UNL A   1      33.653  16.958  22.751  1.00  0.00    -0.265 NA
ENDBRANCH  16  17
ENDBRANCH  12  16
ENDBRANCH   5   7
ENDBRANCH   4   5
ENDBRANCH   3   4
ENDBRANCH   2   3
ENDBRANCH   1   2
BRANCH   1  23
ATOM     23  C   UNL A   1      31.321  29.044  25.057  1.00  0.00     0.202 C 
BRANCH  23  24
ATOM     24  C   UNL A   1      32.589  29.798  25.450  1.00  0.00     0.261 C 
BRANCH  24  25
ATOM     25  O   UNL A   1      32.595  30.095  26.859  1.00  0.00    -0.460 OA
BRANCH  25  26
ATOM     26  C   UNL A   1      33.208  31.250  27.198  1.00  0.00     0.338 C 
ATOM     27  O   UNL A   1      32.715  32.369  27.251  1.00  0.00    -0.246 OA
BRANCH  26  28
ATOM     28  C   UNL A   1      34.569  30.969  27.678  1.00  0.00     0.060 A 
ATOM     29  C   UNL A   1      34.914  29.636  27.933  1.00  0.00     0.016 A 
ATOM     30  C   UNL A   1      35.455  32.007  27.972  1.00  0.00     0.016 A 
ATOM     31  C   UNL A   1      36.134  29.337  28.534  1.00  0.00     0.010 A 
ATOM     32  C   UNL A   1      36.671  31.707  28.587  1.00  0.00     0.010 A 
ATOM     33  C   UNL A   1      36.999  30.376  28.902  1.00  0.00    -0.014 A 
BRANCH  33  34
ATOM     34  C   UNL A   1      38.184  30.090  29.743  1.00  0.00     0.031 A 
ATOM     35  C   UNL A   1      39.228  29.141  29.226  1.00  0.00     0.074 A 
ATOM     36  C   UNL A   1      38.315  30.661  30.952  1.00  0.00     0.049 A 
ATOM     37  N   UNL A   1      40.283  28.659  29.830  1.00  0.00    -0.248 NA
ATOM     38  C   UNL A   1      39.060  28.669  27.841  1.00  0.00     0.031 C 
ATOM     39  C   UNL A   1      37.390  31.633  31.531  1.00  0.00     0.029 A 
ATOM     40  N   UNL A   1      39.273  30.487  31.919  1.00  0.00    -0.354 N 
ATOM     41  C   UNL A   1      40.891  27.814  28.910  1.00  0.00     0.074 A 
ATOM     42  C   UNL A   1      40.085  27.841  27.709  1.00  0.00     0.031 C 
ATOM     43  C   UNL A   1      37.811  31.953  32.766  1.00  0.00     0.029 A 
ATOM     44  C   UNL A   1      39.010  31.176  33.078  1.00  0.00     0.049 A 
ATOM     45  H   UNL A   1      40.070  29.924  31.794  1.00  0.00     0.167 HD
ATOM     46  C   UNL A   1      42.020  27.083  29.062  1.00  0.00     0.037 A 
ATOM     47  C   UNL A   1      39.645  31.145  34.265  1.00  0.00     0.037 A 
ATOM     48  C   UNL A   1      42.825  27.080  30.255  1.00  0.00     0.049 A 
ATOM     49  C   UNL A   1      40.854  30.258  34.428  1.00  0.00     0.074 A 
ATOM     50  C   UNL A   1      44.017  26.418  30.487  1.00  0.00     0.029 A 
ATOM     51  N   UNL A   1      42.511  27.763  31.419  1.00  0.00    -0.354 N 
ATOM     52  N   UNL A   1      41.447  29.493  33.543  1.00  0.00    -0.248 NA
ATOM     53  C   UNL A   1      41.476  30.224  35.759  1.00  0.00     0.031 C 
ATOM     54  C   UNL A   1      44.394  26.653  31.813  1.00  0.00     0.029 A 
ATOM     55  C   UNL A   1      43.466  27.504  32.388  1.00  0.00     0.049 A 
ATOM     56  H   UNL A   1      41.727  28.346  31.538  1.00  0.00     0.167 HD
ATOM     57  C   UNL A   1      42.524  28.912  34.200  1.00  0.00     0.074 A 
ATOM     58  C   UNL A   1      42.511  29.423  35.554  1.00  0.00     0.031 C 
ATOM     59  C   UNL A   1      43.440  28.032  33.728  1.00  0.00     0.037 A 
BRANCH  46  60
ATOM     60  C   UNL A   1      42.444  26.198  27.930  1.00  0.00     0.064 A 
ATOM     61  C   UNL A   1      41.866  24.938  27.718  1.00  0.00     0.173 A 
ATOM     62  C   UNL A   1      43.390  26.653  26.999  1.00  0.00     0.173 A 
ATOM     63  F   UNL A   1      40.967  24.452  28.586  1.00  0.00    -0.203 F 
ATOM     64  C   UNL A   1      42.227  24.163  26.617  1.00  0.00     0.198 A 
ATOM     65  C   UNL A   1      43.730  25.887  25.888  1.00  0.00     0.198 A 
ATOM     66  F   UNL A   1      43.970  27.852  27.156  1.00  0.00    -0.203 F 
ATOM     67  F   UNL A   1      41.681  22.951  26.446  1.00  0.00    -0.200 F 
ATOM     68  C   UNL A   1      43.150  24.641  25.699  1.00  0.00     0.200 A 
ATOM     69  F   UNL A   1      44.613  26.357  24.996  1.00  0.00    -0.200 F 
ATOM     70  F   UNL A   1      43.481  23.903  24.631  1.00  0.00    -0.200 F 
ENDBRANCH  46  60
BRANCH  47  71
ATOM     71  C   UNL A   1      39.134  31.940  35.413  1.00  0.00     0.064 A 
ATOM     72  C   UNL A   1      39.499  33.283  35.581  1.00  0.00     0.173 A 
ATOM     73  C   UNL A   1      38.311  31.360  36.390  1.00  0.00     0.173 A 
ATOM     74  F   UNL A   1      40.306  33.874  34.689  1.00  0.00    -0.203 F 
ATOM     75  C   UNL A   1      39.085  34.006  36.699  1.00  0.00     0.198 A 
ATOM     76  C   UNL A   1      37.872  32.094  37.490  1.00  0.00     0.198 A 
ATOM     77  F   UNL A   1      37.934  30.078  36.279  1.00  0.00    -0.203 F 
ATOM     78  F   UNL A   1      39.499  35.270  36.867  1.00  0.00    -0.200 F 
ATOM     79  C   UNL A   1      38.269  33.412  37.650  1.00  0.00     0.200 A 
ATOM     80  F   UNL A   1      37.073  31.519  38.400  1.00  0.00    -0.200 F 
ATOM     81  F   UNL A   1      37.877  34.106  38.727  1.00  0.00    -0.200 F 
ENDBRANCH  47  71
BRANCH  59  82
ATOM     82  C   UNL A   1      44.523  27.592  34.669  1.00  0.00     0.064 A 
ATOM     83  C   UNL A   1      45.711  28.322  34.814  1.00  0.00     0.173 A 
ATOM     84  C   UNL A   1      44.348  26.453  35.471  1.00  0.00     0.173 A 
ATOM     85  F   UNL A   1      45.932  29.409  34.058  1.00  0.00    -0.203 F 
ATOM     86  C   UNL A   1      46.694  27.916  35.712  1.00  0.00     0.198 A 
ATOM     87  C   UNL A   1      45.320  26.069  36.389  1.00  0.00     0.198 A 
ATOM     88  F   UNL A   1      43.226  25.725  35.376  1.00  0.00    -0.203 F 
ATOM     89  F   UNL A   1      47.842  28.603  35.801  1.00  0.00    -0.200 F 
ATOM     90  C   UNL A   1      46.495  26.796  36.504  1.00  0.00     0.200 A 
ATOM     91  F   UNL A   1      45.119  24.994  37.165  1.00  0.00    -0.200 F 
ATOM     92  F   UNL A   1      47.438  26.413  37.375  1.00  0.00    -0.200 F 
ENDBRANCH  59  82
ENDBRANCH  33  34
ENDBRANCH  26  28
ENDBRANCH  25  26
ENDBRANCH  24  25
ENDBRANCH  23  24
ENDBRANCH   1  23
TORSDOF 18
ENDMDL
MODEL 3
REMARK VINA RESULT:     -11.1      4.491      7.766
REMARK SMILES CCC[C@H]1CC[C@H](C(=O)OCCOCCOC(=O)c2ccc(-c3c4nc(c(-c5c(F)c(F)c(F)c(F)c5F)c5ccc([nH]5)c(-c5c(F)c(F)c(F)c(F)c5F)c5nc(c(-c6c(F)c(F)c(F)c(F)c6F)c6ccc3[nH]6)C=C5)C=C4)cc2)[C@H](Sc2ccncc2)C1
REMARK SMILES IDX 13 1 12 2 11 3 10 4 8 5 9 6 7 7 4 8 5 9 90 10 6 11 82 12
REMARK SMILES IDX 3 13 2 14 1 15 83 16 84 17 85 18 89 19 86 20 88 21 87 22
REMARK SMILES IDX 14 23 15 24 16 25 17 26 18 27 19 28 20 29 81 30 21 31 80 32
REMARK SMILES IDX 22 33 23 34 24 35 74 36 25 37 79 38 73 39 75 40 26 41 78 42
REMARK SMILES IDX 72 43 71 44 27 46 59 47 39 48 58 49 40 50 43 51 57 52 76 53
REMARK SMILES IDX 41 54 42 55 56 57 77 58 44 59 28 60 29 61 37 62 30 63 31 64
REMARK SMILES IDX 35 65 38 66 32 67 33 68 36 69 34 70 60 71 61 72 69 73 62 74
REMARK SMILES IDX 63 75 67 76 70 77 64 78 65 79 68 80 66 81 45 82 46 83 54 84
REMARK SMILES IDX 47 85 48 86 52 87 55 88 49 89 50 90 53 91 51 92
REMARK H PARENT 75 45 43 56
REMARK Flexibility Score: inf
ROOT
ATOM      1  O   UNL A   1      32.689  29.625  25.165  1.00  0.00    -0.374 OA
ENDROOT
BRANCH   1   2
ATOM      2  C   UNL A   1      32.881  28.347  25.745  1.00  0.00     0.202 C 
BRANCH   2   3
ATOM      3  C   UNL A   1      31.680  27.554  26.276  1.00  0.00     0.261 C 
BRANCH   3   4
ATOM      4  O   UNL A   1      31.884  26.222  26.744  1.00  0.00    -0.463 OA
BRANCH   4   5
ATOM      5  C   UNL A   1      32.066  25.253  25.811  1.00  0.00     0.310 C 
ATOM      6  O   UNL A   1      31.756  25.347  24.630  1.00  0.00    -0.252 OA
BRANCH   5   7
ATOM      7  C   UNL A   1      32.729  24.019  26.391  1.00  0.00     0.112 C 
ATOM      8  C   UNL A   1      32.109  21.506  24.822  1.00  0.00    -0.010 C 
ATOM      9  C   UNL A   1      31.064  22.171  25.729  1.00  0.00     0.004 C 
ATOM     10  C   UNL A   1      33.170  22.531  24.339  1.00  0.00     0.019 C 
ATOM     11  C   UNL A   1      31.687  22.989  26.864  1.00  0.00     0.017 C 
ATOM     12  C   UNL A   1      33.777  23.367  25.475  1.00  0.00     0.066 C 
BRANCH   8  13
ATOM     13  C   UNL A   1      32.754  20.269  25.495  1.00  0.00     0.003 C 
BRANCH  13  14
ATOM     14  C   UNL A   1      34.033  19.749  24.818  1.00  0.00    -0.003 C 
ATOM     15  C   UNL A   1      33.885  18.360  24.214  1.00  0.00     0.004 C 
ENDBRANCH  13  14
ENDBRANCH   8  13
BRANCH  12  16
ATOM     16  S   UNL A   1      35.222  24.423  24.959  1.00  0.00    -0.122 SA
BRANCH  16  17
ATOM     17  C   UNL A   1      36.689  23.484  25.341  1.00  0.00     0.011 A 
ATOM     18  C   UNL A   1      37.679  24.036  26.155  1.00  0.00     0.035 A 
ATOM     19  C   UNL A   1      36.817  22.153  24.954  1.00  0.00     0.035 A 
ATOM     20  C   UNL A   1      38.805  23.283  26.449  1.00  0.00     0.112 A 
ATOM     21  C   UNL A   1      37.963  21.463  25.329  1.00  0.00     0.112 A 
ATOM     22  N   UNL A   1      38.973  22.007  26.041  1.00  0.00    -0.265 NA
ENDBRANCH  16  17
ENDBRANCH  12  16
ENDBRANCH   5   7
ENDBRANCH   4   5
ENDBRANCH   3   4
ENDBRANCH   2   3
ENDBRANCH   1   2
BRANCH   1  23
ATOM     23  C   UNL A   1      31.488  30.334  25.451  1.00  0.00     0.202 C 
BRANCH  23  24
ATOM     24  C   UNL A   1      31.599  31.569  26.343  1.00  0.00     0.261 C 
BRANCH  24  25
ATOM     25  O   UNL A   1      32.542  31.350  27.410  1.00  0.00    -0.460 OA
BRANCH  25  26
ATOM     26  C   UNL A   1      33.461  32.327  27.571  1.00  0.00     0.338 C 
ATOM     27  O   UNL A   1      33.279  33.536  27.529  1.00  0.00    -0.246 OA
BRANCH  26  28
ATOM     28  C   UNL A   1      34.743  31.741  27.987  1.00  0.00     0.060 A 
ATOM     29  C   UNL A   1      34.791  30.359  28.212  1.00  0.00     0.016 A 
ATOM     30  C   UNL A   1      35.849  32.549  28.253  1.00  0.00     0.016 A 
ATOM     31  C   UNL A   1      35.937  29.784  28.757  1.00  0.00     0.010 A 
ATOM     32  C   UNL A   1      36.992  31.973  28.811  1.00  0.00     0.010 A 
ATOM     33  C   UNL A   1      37.026  30.596  29.097  1.00  0.00    -0.014 A 
BRANCH  33  34
ATOM     34  C   UNL A   1      38.151  30.037  29.881  1.00  0.00     0.031 A 
ATOM     35  C   UNL A   1      38.367  30.523  31.287  1.00  0.00     0.074 A 
ATOM     36  C   UNL A   1      38.971  29.122  29.338  1.00  0.00     0.049 A 
ATOM     37  N   UNL A   1      39.346  30.262  32.113  1.00  0.00    -0.248 NA
ATOM     38  C   UNL A   1      37.343  31.428  31.834  1.00  0.00     0.031 C 
ATOM     39  C   UNL A   1      38.825  28.544  28.004  1.00  0.00     0.029 A 
ATOM     40  N   UNL A   1      40.103  28.532  29.842  1.00  0.00    -0.354 N 
ATOM     41  C   UNL A   1      39.067  30.983  33.267  1.00  0.00     0.074 A 
ATOM     42  C   UNL A   1      37.833  31.701  33.035  1.00  0.00     0.031 C 
ATOM     43  C   UNL A   1      39.847  27.699  27.782  1.00  0.00     0.029 A 
ATOM     44  C   UNL A   1      40.737  27.711  28.941  1.00  0.00     0.049 A 
ATOM     45  H   UNL A   1      40.429  28.684  30.758  1.00  0.00     0.167 HD
ATOM     46  C   UNL A   1      39.783  31.038  34.415  1.00  0.00     0.037 A 
ATOM     47  C   UNL A   1      41.922  27.078  29.034  1.00  0.00     0.037 A 
ATOM     48  C   UNL A   1      40.999  30.304  34.643  1.00  0.00     0.049 A 
ATOM     49  C   UNL A   1      42.736  27.225  30.296  1.00  0.00     0.074 A 
ATOM     50  C   UNL A   1      41.768  30.248  35.792  1.00  0.00     0.029 A 
ATOM     51  N   UNL A   1      41.629  29.508  33.698  1.00  0.00    -0.354 N 
ATOM     52  N   UNL A   1      42.448  27.875  31.398  1.00  0.00    -0.248 NA
ATOM     53  C   UNL A   1      44.045  26.555  30.322  1.00  0.00     0.031 C 
ATOM     54  C   UNL A   1      42.895  29.465  35.523  1.00  0.00     0.029 A 
ATOM     55  C   UNL A   1      42.801  28.991  34.225  1.00  0.00     0.049 A 
ATOM     56  H   UNL A   1      41.292  29.337  32.790  1.00  0.00     0.167 HD
ATOM     57  C   UNL A   1      43.522  27.669  32.254  1.00  0.00     0.074 A 
ATOM     58  C   UNL A   1      44.461  26.823  31.551  1.00  0.00     0.031 C 
ATOM     59  C   UNL A   1      43.716  28.140  33.510  1.00  0.00     0.037 A 
BRANCH  46  60
ATOM     60  C   UNL A   1      39.297  31.942  35.507  1.00  0.00     0.064 A 
ATOM     61  C   UNL A   1      38.433  31.489  36.515  1.00  0.00     0.173 A 
ATOM     62  C   UNL A   1      39.766  33.262  35.586  1.00  0.00     0.173 A 
ATOM     63  F   UNL A   1      37.948  30.240  36.477  1.00  0.00    -0.203 F 
ATOM     64  C   UNL A   1      38.052  32.330  37.559  1.00  0.00     0.198 A 
ATOM     65  C   UNL A   1      39.402  34.091  36.644  1.00  0.00     0.198 A 
ATOM     66  F   UNL A   1      40.595  33.742  34.647  1.00  0.00    -0.203 F 
ATOM     67  F   UNL A   1      37.206  31.885  38.499  1.00  0.00    -0.200 F 
ATOM     68  C   UNL A   1      38.543  33.625  37.628  1.00  0.00     0.200 A 
ATOM     69  F   UNL A   1      39.887  35.338  36.714  1.00  0.00    -0.200 F 
ATOM     70  F   UNL A   1      38.190  34.425  38.643  1.00  0.00    -0.200 F 
ENDBRANCH  46  60
BRANCH  47  71
ATOM     71  C   UNL A   1      42.442  26.283  27.890  1.00  0.00     0.064 A 
ATOM     72  C   UNL A   1      43.222  26.881  26.891  1.00  0.00     0.173 A 
ATOM     73  C   UNL A   1      42.131  24.923  27.748  1.00  0.00     0.173 A 
ATOM     74  F   UNL A   1      43.524  28.185  26.967  1.00  0.00    -0.203 F 
ATOM     75  C   UNL A   1      43.643  26.157  25.777  1.00  0.00     0.198 A 
ATOM     76  C   UNL A   1      42.579  24.191  26.650  1.00  0.00     0.198 A 
ATOM     77  F   UNL A   1      41.386  24.302  28.674  1.00  0.00    -0.203 F 
ATOM     78  F   UNL A   1      44.335  26.768  24.805  1.00  0.00    -0.200 F 
ATOM     79  C   UNL A   1      43.325  24.812  25.660  1.00  0.00     0.200 A 
ATOM     80  F   UNL A   1      42.279  22.889  26.547  1.00  0.00    -0.200 F 
ATOM     81  F   UNL A   1      43.725  24.118  24.586  1.00  0.00    -0.200 F 
ENDBRANCH  47  71
BRANCH  59  82
ATOM     82  C   UNL A   1      44.975  27.726  34.216  1.00  0.00     0.064 A 
ATOM     83  C   UNL A   1      46.131  28.519  34.181  1.00  0.00     0.173 A 
ATOM     84  C   UNL A   1      45.007  26.547  34.976  1.00  0.00     0.173 A 
ATOM     85  F   UNL A   1      46.153  29.648  33.455  1.00  0.00    -0.203 F 
ATOM     86  C   UNL A   1      47.281  28.134  34.864  1.00  0.00     0.198 A 
ATOM     87  C   UNL A   1      46.150  26.182  35.682  1.00  0.00     0.198 A 
ATOM     88  F   UNL A   1      43.925  25.758  35.049  1.00  0.00    -0.203 F 
ATOM     89  F   UNL A   1      48.389  28.884  34.780  1.00  0.00    -0.200 F 
ATOM     90  C   UNL A   1      47.288  26.972  35.620  1.00  0.00     0.200 A 
ATOM     91  F   UNL A   1      46.149  25.066  36.425  1.00  0.00    -0.200 F 
ATOM     92  F   UNL A   1      48.393  26.610  36.285  1.00  0.00    -0.200 F 
ENDBRANCH  59  82
ENDBRANCH  33  34
ENDBRANCH  26  28
ENDBRANCH  25  26
ENDBRANCH  24  25
ENDBRANCH  23  24
ENDBRANCH   1  23
TORSDOF 18
ENDMDL
