MODEL 1
REMARK VINA RESULT:     -12.3      0.000      0.000
REMARK SMILES Cc1cc(OC(F)F)ccc1NC(=O)[C@@H]1CCCC[C@@H]1C(=O)OCCOCCOC(=O)c1ccc(-c2c3nc(c(-c4c(F)c(F)c(F)c(F)c4F)c4ccc([nH]4)c(-c4c(F)c(F)c(F)c(F)c4F)c4nc(c(-c5c(F)c(F)c(F)c(F)c5F)c5ccc2[nH]5)C=C4)C=C3)cc1
REMARK SMILES IDX 25 1 24 2 23 3 21 4 22 5 20 6 15 7 16 8 17 9 19 10 18 11
REMARK SMILES IDX 13 12 12 13 14 15 11 16 1 17 2 18 3 19 4 20 10 21 9 22 5 23
REMARK SMILES IDX 6 24 7 25 8 26 26 27 27 28 28 29 29 30 30 31 31 32 32 33
REMARK SMILES IDX 33 34 94 35 34 36 93 37 35 38 36 39 37 40 87 41 38 42 92 43
REMARK SMILES IDX 86 44 88 45 39 46 91 47 85 48 84 49 40 51 72 52 52 53 71 54
REMARK SMILES IDX 53 55 56 56 70 57 89 58 54 59 55 60 69 62 90 63 57 64 41 65
REMARK SMILES IDX 42 66 50 67 43 68 44 69 48 70 51 71 45 72 46 73 49 74 47 75
REMARK SMILES IDX 73 76 74 77 82 78 75 79 76 80 80 81 83 82 77 83 78 84 81 85
REMARK SMILES IDX 79 86 58 87 59 88 67 89 60 90 61 91 65 92 68 93 62 94 63 95
REMARK SMILES IDX 66 96 64 97
REMARK H PARENT 12 14 88 50 56 61
REMARK Flexibility Score: inf
ROOT
ATOM      1  C   UNL A   1      35.964  21.619  25.749  1.00  0.00     0.202 C 
ENDROOT
BRANCH   1   2
ATOM      2  C   UNL A   1      35.193  22.883  26.007  1.00  0.00     0.261 C 
BRANCH   2   3
ATOM      3  O   UNL A   1      34.783  23.532  24.780  1.00  0.00    -0.463 OA
BRANCH   3   4
ATOM      4  C   UNL A   1      34.072  24.697  24.766  1.00  0.00     0.309 C 
ATOM      5  O   UNL A   1      34.359  25.721  25.356  1.00  0.00    -0.252 OA
BRANCH   4   6
ATOM      6  C   UNL A   1      32.786  24.511  23.978  1.00  0.00     0.111 C 
ATOM      7  C   UNL A   1      31.678  23.708  24.712  1.00  0.00     0.093 C 
ATOM      8  C   UNL A   1      31.849  22.179  24.533  1.00  0.00     0.014 C 
ATOM      9  C   UNL A   1      32.157  21.726  23.110  1.00  0.00     0.001 C 
ATOM     10  C   UNL A   1      33.040  23.989  22.551  1.00  0.00     0.016 C 
ATOM     11  C   UNL A   1      33.318  22.495  22.505  1.00  0.00     0.001 C 
BRANCH   7  12
ATOM     12  C   UNL A   1      31.455  24.043  26.220  1.00  0.00     0.228 C 
ATOM     13  N   UNL A   1      30.972  25.257  26.669  1.00  0.00    -0.326 N 
ATOM     14  H   UNL A   1      30.886  25.344  27.646  1.00  0.00     0.169 HD
ATOM     15  O   UNL A   1      31.764  23.220  27.092  1.00  0.00    -0.274 OA
BRANCH  13  16
ATOM     16  C   UNL A   1      30.587  26.386  25.924  1.00  0.00     0.044 A 
ATOM     17  C   UNL A   1      32.047  28.063  27.195  1.00  0.00     0.047 C 
ATOM     18  C   UNL A   1      31.339  27.568  25.967  1.00  0.00    -0.024 A 
ATOM     19  C   UNL A   1      31.347  28.377  24.815  1.00  0.00     0.052 A 
ATOM     20  C   UNL A   1      30.533  28.074  23.720  1.00  0.00     0.126 A 
ATOM     21  C   UNL A   1      29.560  26.286  24.997  1.00  0.00     0.030 A 
ATOM     22  C   UNL A   1      29.547  27.109  23.877  1.00  0.00     0.049 A 
BRANCH  20  23
ATOM     23  O   UNL A   1      30.749  28.784  22.574  1.00  0.00    -0.435 OA
BRANCH  23  24
ATOM     24  C   UNL A   1      29.821  29.839  22.309  1.00  0.00     0.542 C 
ATOM     25  F   UNL A   1      28.691  29.351  21.738  1.00  0.00    -0.167 F 
ATOM     26  F   UNL A   1      29.477  30.447  23.469  1.00  0.00    -0.167 F 
ENDBRANCH  23  24
ENDBRANCH  20  23
ENDBRANCH  13  16
ENDBRANCH   7  12
ENDBRANCH   4   6
ENDBRANCH   3   4
ENDBRANCH   2   3
ENDBRANCH   1   2
BRANCH   1  27
ATOM     27  O   UNL A   1      37.254  22.060  25.384  1.00  0.00    -0.374 OA
BRANCH  27  28
ATOM     28  C   UNL A   1      38.335  21.210  25.683  1.00  0.00     0.202 C 
BRANCH  28  29
ATOM     29  C   UNL A   1      39.570  21.987  26.124  1.00  0.00     0.261 C 
BRANCH  29  30
ATOM     30  O   UNL A   1      39.213  23.319  26.551  1.00  0.00    -0.460 OA
BRANCH  30  31
ATOM     31  C   UNL A   1      40.146  23.956  27.310  1.00  0.00     0.338 C 
ATOM     32  O   UNL A   1      41.018  23.394  27.967  1.00  0.00    -0.246 OA
BRANCH  31  33
ATOM     33  C   UNL A   1      39.803  25.400  27.449  1.00  0.00     0.060 A 
ATOM     34  C   UNL A   1      40.353  26.344  26.562  1.00  0.00     0.016 A 
ATOM     35  C   UNL A   1      39.269  25.821  28.660  1.00  0.00     0.016 A 
ATOM     36  C   UNL A   1      40.538  27.669  26.976  1.00  0.00     0.010 A 
ATOM     37  C   UNL A   1      39.631  27.067  29.119  1.00  0.00     0.010 A 
ATOM     38  C   UNL A   1      40.295  27.996  28.300  1.00  0.00    -0.014 A 
BRANCH  38  39
ATOM     39  C   UNL A   1      40.618  29.260  28.972  1.00  0.00     0.031 A 
ATOM     40  C   UNL A   1      39.494  30.228  29.067  1.00  0.00     0.074 A 
ATOM     41  C   UNL A   1      41.745  29.439  29.712  1.00  0.00     0.049 A 
ATOM     42  N   UNL A   1      39.545  31.341  29.699  1.00  0.00    -0.248 NA
ATOM     43  C   UNL A   1      38.186  30.014  28.444  1.00  0.00     0.031 C 
ATOM     44  C   UNL A   1      41.956  30.385  30.813  1.00  0.00     0.029 A 
ATOM     45  N   UNL A   1      43.006  28.816  29.630  1.00  0.00    -0.354 N 
ATOM     46  C   UNL A   1      38.269  31.831  29.833  1.00  0.00     0.074 A 
ATOM     47  C   UNL A   1      37.467  31.009  28.970  1.00  0.00     0.031 C 
ATOM     48  C   UNL A   1      43.272  30.539  31.032  1.00  0.00     0.029 A 
ATOM     49  C   UNL A   1      43.953  29.787  29.995  1.00  0.00     0.049 A 
ATOM     50  H   UNL A   1      43.187  27.884  29.369  1.00  0.00     0.167 HD
ATOM     51  C   UNL A   1      38.079  32.821  30.750  1.00  0.00     0.037 A 
ATOM     52  C   UNL A   1      44.865  30.270  29.110  1.00  0.00     0.037 A 
ATOM     53  C   UNL A   1      39.391  33.329  31.190  1.00  0.00     0.049 A 
ATOM     54  C   UNL A   1      44.662  31.746  29.041  1.00  0.00     0.074 A 
ATOM     55  C   UNL A   1      40.140  33.197  32.345  1.00  0.00     0.029 A 
ATOM     56  N   UNL A   1      40.267  33.809  30.212  1.00  0.00    -0.354 N 
ATOM     57  N   UNL A   1      43.474  32.300  29.035  1.00  0.00    -0.248 NA
ATOM     58  C   UNL A   1      45.753  32.679  29.310  1.00  0.00     0.031 C 
ATOM     59  C   UNL A   1      41.491  33.545  32.029  1.00  0.00     0.029 A 
ATOM     60  C   UNL A   1      41.561  33.898  30.686  1.00  0.00     0.049 A 
ATOM     61  H   UNL A   1      39.995  34.056  29.299  1.00  0.00     0.167 HD
ATOM     62  C   UNL A   1      43.625  33.595  29.445  1.00  0.00     0.074 A 
ATOM     63  C   UNL A   1      45.062  33.797  29.575  1.00  0.00     0.031 C 
ATOM     64  C   UNL A   1      42.623  34.426  29.841  1.00  0.00     0.037 A 
BRANCH  51  65
ATOM     65  C   UNL A   1      36.757  33.259  31.356  1.00  0.00     0.064 A 
ATOM     66  C   UNL A   1      35.785  33.883  30.541  1.00  0.00     0.173 A 
ATOM     67  C   UNL A   1      36.394  33.175  32.718  1.00  0.00     0.173 A 
ATOM     68  F   UNL A   1      35.979  34.049  29.226  1.00  0.00    -0.203 F 
ATOM     69  C   UNL A   1      34.575  34.380  31.045  1.00  0.00     0.198 A 
ATOM     70  C   UNL A   1      35.174  33.649  33.218  1.00  0.00     0.198 A 
ATOM     71  F   UNL A   1      37.196  32.657  33.647  1.00  0.00    -0.203 F 
ATOM     72  F   UNL A   1      33.710  34.987  30.221  1.00  0.00    -0.200 F 
ATOM     73  C   UNL A   1      34.267  34.257  32.384  1.00  0.00     0.200 A 
ATOM     74  F   UNL A   1      34.900  33.519  34.524  1.00  0.00    -0.200 F 
ATOM     75  F   UNL A   1      33.109  34.726  32.867  1.00  0.00    -0.200 F 
ENDBRANCH  51  65
BRANCH  52  76
ATOM     76  C   UNL A   1      45.223  29.275  28.061  1.00  0.00     0.064 A 
ATOM     77  C   UNL A   1      46.093  28.248  28.482  1.00  0.00     0.173 A 
ATOM     78  C   UNL A   1      44.388  28.994  26.973  1.00  0.00     0.173 A 
ATOM     79  F   UNL A   1      46.961  28.487  29.477  1.00  0.00    -0.203 F 
ATOM     80  C   UNL A   1      45.965  26.944  28.004  1.00  0.00     0.198 A 
ATOM     81  C   UNL A   1      44.301  27.691  26.461  1.00  0.00     0.198 A 
ATOM     82  F   UNL A   1      43.549  29.926  26.502  1.00  0.00    -0.203 F 
ATOM     83  F   UNL A   1      46.669  25.947  28.562  1.00  0.00    -0.200 F 
ATOM     84  C   UNL A   1      45.028  26.658  27.031  1.00  0.00     0.200 A 
ATOM     85  F   UNL A   1      43.426  27.410  25.485  1.00  0.00    -0.200 F 
ATOM     86  F   UNL A   1      44.790  25.384  26.683  1.00  0.00    -0.200 F 
ENDBRANCH  52  76
BRANCH  64  87
ATOM     87  C   UNL A   1      42.623  35.864  29.394  1.00  0.00     0.064 A 
ATOM     88  C   UNL A   1      43.377  36.869  30.033  1.00  0.00     0.173 A 
ATOM     89  C   UNL A   1      42.000  36.249  28.186  1.00  0.00     0.173 A 
ATOM     90  F   UNL A   1      44.125  36.617  31.115  1.00  0.00    -0.203 F 
ATOM     91  C   UNL A   1      43.436  38.172  29.549  1.00  0.00     0.198 A 
ATOM     92  C   UNL A   1      42.120  37.535  27.669  1.00  0.00     0.198 A 
ATOM     93  F   UNL A   1      41.295  35.384  27.444  1.00  0.00    -0.203 F 
ATOM     94  F   UNL A   1      44.123  39.096  30.232  1.00  0.00    -0.200 F 
ATOM     95  C   UNL A   1      42.815  38.502  28.363  1.00  0.00     0.200 A 
ATOM     96  F   UNL A   1      41.573  37.823  26.480  1.00  0.00    -0.200 F 
ATOM     97  F   UNL A   1      42.906  39.747  27.880  1.00  0.00    -0.200 F 
ENDBRANCH  64  87
ENDBRANCH  38  39
ENDBRANCH  31  33
ENDBRANCH  30  31
ENDBRANCH  29  30
ENDBRANCH  28  29
ENDBRANCH  27  28
ENDBRANCH   1  27
TORSDOF 18
ENDMDL
MODEL 2
REMARK VINA RESULT:     -12.2      3.581      9.493
REMARK SMILES Cc1cc(OC(F)F)ccc1NC(=O)[C@@H]1CCCC[C@@H]1C(=O)OCCOCCOC(=O)c1ccc(-c2c3nc(c(-c4c(F)c(F)c(F)c(F)c4F)c4ccc([nH]4)c(-c4c(F)c(F)c(F)c(F)c4F)c4nc(c(-c5c(F)c(F)c(F)c(F)c5F)c5ccc2[nH]5)C=C4)C=C3)cc1
REMARK SMILES IDX 25 1 24 2 23 3 21 4 22 5 20 6 15 7 16 8 17 9 19 10 18 11
REMARK SMILES IDX 13 12 12 13 14 15 11 16 1 17 2 18 3 19 4 20 10 21 9 22 5 23
REMARK SMILES IDX 6 24 7 25 8 26 26 27 27 28 28 29 29 30 30 31 31 32 32 33
REMARK SMILES IDX 33 34 94 35 34 36 93 37 35 38 36 39 37 40 87 41 38 42 92 43
REMARK SMILES IDX 86 44 88 45 39 46 91 47 85 48 84 49 40 51 72 52 52 53 71 54
REMARK SMILES IDX 53 55 56 56 70 57 89 58 54 59 55 60 69 62 90 63 57 64 41 65
REMARK SMILES IDX 42 66 50 67 43 68 44 69 48 70 51 71 45 72 46 73 49 74 47 75
REMARK SMILES IDX 73 76 74 77 82 78 75 79 76 80 80 81 83 82 77 83 78 84 81 85
REMARK SMILES IDX 79 86 58 87 59 88 67 89 60 90 61 91 65 92 68 93 62 94 63 95
REMARK SMILES IDX 66 96 64 97
REMARK H PARENT 12 14 88 50 56 61
REMARK Flexibility Score: inf
ROOT
ATOM      1  C   UNL A   1      33.018  29.321  23.937  1.00  0.00     0.202 C 
ENDROOT
BRANCH   1   2
ATOM      2  C   UNL A   1      33.699  27.983  24.019  1.00  0.00     0.261 C 
BRANCH   2   3
ATOM      3  O   UNL A   1      33.019  27.079  24.922  1.00  0.00    -0.463 OA
BRANCH   3   4
ATOM      4  C   UNL A   1      33.407  25.782  25.094  1.00  0.00     0.309 C 
ATOM      5  O   UNL A   1      34.550  25.384  25.219  1.00  0.00    -0.252 OA
BRANCH   4   6
ATOM      6  C   UNL A   1      32.200  24.863  25.002  1.00  0.00     0.111 C 
ATOM      7  C   UNL A   1      31.549  24.774  23.595  1.00  0.00     0.093 C 
ATOM      8  C   UNL A   1      30.529  25.914  23.351  1.00  0.00     0.014 C 
ATOM      9  C   UNL A   1      29.568  26.179  24.506  1.00  0.00     0.001 C 
ATOM     10  C   UNL A   1      31.165  25.136  26.111  1.00  0.00     0.016 C 
ATOM     11  C   UNL A   1      30.298  26.351  25.826  1.00  0.00     0.001 C 
BRANCH   7  12
ATOM     12  C   UNL A   1      32.522  24.666  22.380  1.00  0.00     0.228 C 
ATOM     13  N   UNL A   1      33.464  23.665  22.244  1.00  0.00    -0.326 N 
ATOM     14  H   UNL A   1      34.023  23.716  21.434  1.00  0.00     0.169 HD
ATOM     15  O   UNL A   1      32.514  25.534  21.497  1.00  0.00    -0.274 OA
BRANCH  13  16
ATOM     16  C   UNL A   1      33.737  22.584  23.100  1.00  0.00     0.044 A 
ATOM     17  C   UNL A   1      36.262  22.984  23.251  1.00  0.00     0.047 C 
ATOM     18  C   UNL A   1      34.948  22.507  23.800  1.00  0.00    -0.024 A 
ATOM     19  C   UNL A   1      34.939  21.860  25.051  1.00  0.00     0.052 A 
ATOM     20  C   UNL A   1      33.791  21.209  25.512  1.00  0.00     0.126 A 
ATOM     21  C   UNL A   1      32.737  21.671  23.403  1.00  0.00     0.030 A 
ATOM     22  C   UNL A   1      32.745  21.005  24.623  1.00  0.00     0.049 A 
BRANCH  20  23
ATOM     23  O   UNL A   1      33.801  20.787  26.811  1.00  0.00    -0.435 OA
BRANCH  23  24
ATOM     24  C   UNL A   1      33.449  21.769  27.789  1.00  0.00     0.542 C 
ATOM     25  F   UNL A   1      34.464  22.651  27.969  1.00  0.00    -0.167 F 
ATOM     26  F   UNL A   1      32.361  22.459  27.372  1.00  0.00    -0.167 F 
ENDBRANCH  23  24
ENDBRANCH  20  23
ENDBRANCH  13  16
ENDBRANCH   7  12
ENDBRANCH   4   6
ENDBRANCH   3   4
ENDBRANCH   2   3
ENDBRANCH   1   2
BRANCH   1  27
ATOM     27  O   UNL A   1      32.024  29.272  24.939  1.00  0.00    -0.374 OA
BRANCH  27  28
ATOM     28  C   UNL A   1      31.860  30.417  25.741  1.00  0.00     0.202 C 
BRANCH  28  29
ATOM     29  C   UNL A   1      32.237  30.158  27.195  1.00  0.00     0.261 C 
BRANCH  29  30
ATOM     30  O   UNL A   1      33.626  30.473  27.429  1.00  0.00    -0.460 OA
BRANCH  30  31
ATOM     31  C   UNL A   1      34.448  29.400  27.583  1.00  0.00     0.338 C 
ATOM     32  O   UNL A   1      34.081  28.228  27.570  1.00  0.00    -0.246 OA
BRANCH  31  33
ATOM     33  C   UNL A   1      35.800  29.841  28.031  1.00  0.00     0.060 A 
ATOM     34  C   UNL A   1      36.806  30.105  27.083  1.00  0.00     0.016 A 
ATOM     35  C   UNL A   1      36.144  29.615  29.357  1.00  0.00     0.016 A 
ATOM     36  C   UNL A   1      38.154  29.947  27.430  1.00  0.00     0.010 A 
ATOM     37  C   UNL A   1      37.450  29.278  29.630  1.00  0.00     0.010 A 
ATOM     38  C   UNL A   1      38.467  29.409  28.668  1.00  0.00    -0.014 A 
BRANCH  38  39
ATOM     39  C   UNL A   1      39.789  28.979  29.136  1.00  0.00     0.031 A 
ATOM     40  C   UNL A   1      40.145  27.572  28.814  1.00  0.00     0.074 A 
ATOM     41  C   UNL A   1      40.742  29.849  29.566  1.00  0.00     0.049 A 
ATOM     42  N   UNL A   1      41.285  27.039  29.049  1.00  0.00    -0.248 NA
ATOM     43  C   UNL A   1      39.221  26.628  28.181  1.00  0.00     0.031 C 
ATOM     44  C   UNL A   1      42.197  29.660  29.564  1.00  0.00     0.029 A 
ATOM     45  N   UNL A   1      40.624  31.129  30.144  1.00  0.00    -0.354 N 
ATOM     46  C   UNL A   1      41.365  25.849  28.366  1.00  0.00     0.074 A 
ATOM     47  C   UNL A   1      40.028  25.601  27.902  1.00  0.00     0.031 C 
ATOM     48  C   UNL A   1      42.770  30.545  30.397  1.00  0.00     0.029 A 
ATOM     49  C   UNL A   1      41.687  31.252  31.055  1.00  0.00     0.049 A 
ATOM     50  H   UNL A   1      39.934  31.802  29.948  1.00  0.00     0.167 HD
ATOM     51  C   UNL A   1      42.604  25.302  28.221  1.00  0.00     0.037 A 
ATOM     52  C   UNL A   1      41.478  31.347  32.394  1.00  0.00     0.037 A 
ATOM     53  C   UNL A   1      43.550  26.007  29.104  1.00  0.00     0.049 A 
ATOM     54  C   UNL A   1      42.210  30.214  33.030  1.00  0.00     0.074 A 
ATOM     55  C   UNL A   1      44.566  26.923  28.896  1.00  0.00     0.029 A 
ATOM     56  N   UNL A   1      43.258  26.055  30.470  1.00  0.00    -0.354 N 
ATOM     57  N   UNL A   1      42.236  29.008  32.515  1.00  0.00    -0.248 NA
ATOM     58  C   UNL A   1      43.208  30.439  34.071  1.00  0.00     0.031 C 
ATOM     59  C   UNL A   1      44.833  27.565  30.146  1.00  0.00     0.029 A 
ATOM     60  C   UNL A   1      43.990  27.033  31.114  1.00  0.00     0.049 A 
ATOM     61  H   UNL A   1      42.611  25.464  30.918  1.00  0.00     0.167 HD
ATOM     62  C   UNL A   1      43.328  28.369  33.030  1.00  0.00     0.074 A 
ATOM     63  C   UNL A   1      43.886  29.283  34.017  1.00  0.00     0.031 C 
ATOM     64  C   UNL A   1      43.873  27.216  32.554  1.00  0.00     0.037 A 
BRANCH  51  65
ATOM     65  C   UNL A   1      43.016  24.237  27.219  1.00  0.00     0.064 A 
ATOM     66  C   UNL A   1      42.628  22.893  27.424  1.00  0.00     0.173 A 
ATOM     67  C   UNL A   1      43.840  24.428  26.088  1.00  0.00     0.173 A 
ATOM     68  F   UNL A   1      41.853  22.541  28.459  1.00  0.00    -0.203 F 
ATOM     69  C   UNL A   1      43.034  21.847  26.584  1.00  0.00     0.198 A 
ATOM     70  C   UNL A   1      44.226  23.387  25.234  1.00  0.00     0.198 A 
ATOM     71  F   UNL A   1      44.341  25.617  25.754  1.00  0.00    -0.203 F 
ATOM     72  F   UNL A   1      42.653  20.591  26.854  1.00  0.00    -0.200 F 
ATOM     73  C   UNL A   1      43.828  22.095  25.484  1.00  0.00     0.200 A 
ATOM     74  F   UNL A   1      45.000  23.656  24.173  1.00  0.00    -0.200 F 
ATOM     75  F   UNL A   1      44.213  21.099  24.677  1.00  0.00    -0.200 F 
ENDBRANCH  51  65
BRANCH  52  76
ATOM     76  C   UNL A   1      40.172  31.983  32.723  1.00  0.00     0.064 A 
ATOM     77  C   UNL A   1      40.047  33.332  32.330  1.00  0.00     0.173 A 
ATOM     78  C   UNL A   1      38.987  31.248  32.854  1.00  0.00     0.173 A 
ATOM     79  F   UNL A   1      41.145  34.101  32.255  1.00  0.00    -0.203 F 
ATOM     80  C   UNL A   1      38.837  33.846  31.863  1.00  0.00     0.198 A 
ATOM     81  C   UNL A   1      37.764  31.789  32.431  1.00  0.00     0.198 A 
ATOM     82  F   UNL A   1      39.023  29.968  33.242  1.00  0.00    -0.203 F 
ATOM     83  F   UNL A   1      38.790  35.068  31.311  1.00  0.00    -0.200 F 
ATOM     84  C   UNL A   1      37.708  33.052  31.863  1.00  0.00     0.200 A 
ATOM     85  F   UNL A   1      36.651  31.042  32.466  1.00  0.00    -0.200 F 
ATOM     86  F   UNL A   1      36.584  33.484  31.270  1.00  0.00    -0.200 F 
ENDBRANCH  52  76
BRANCH  64  87
ATOM     87  C   UNL A   1      44.333  26.152  33.516  1.00  0.00     0.064 A 
ATOM     88  C   UNL A   1      43.466  25.505  34.419  1.00  0.00     0.173 A 
ATOM     89  C   UNL A   1      45.637  25.614  33.434  1.00  0.00     0.173 A 
ATOM     90  F   UNL A   1      42.168  25.822  34.511  1.00  0.00    -0.203 F 
ATOM     91  C   UNL A   1      43.892  24.461  35.235  1.00  0.00     0.198 A 
ATOM     92  C   UNL A   1      46.036  24.524  34.201  1.00  0.00     0.198 A 
ATOM     93  F   UNL A   1      46.551  26.094  32.580  1.00  0.00    -0.203 F 
ATOM     94  F   UNL A   1      43.037  23.925  36.115  1.00  0.00    -0.200 F 
ATOM     95  C   UNL A   1      45.173  23.965  35.119  1.00  0.00     0.200 A 
ATOM     96  F   UNL A   1      47.259  24.006  34.026  1.00  0.00    -0.200 F 
ATOM     97  F   UNL A   1      45.567  22.935  35.877  1.00  0.00    -0.200 F 
ENDBRANCH  64  87
ENDBRANCH  38  39
ENDBRANCH  31  33
ENDBRANCH  30  31
ENDBRANCH  29  30
ENDBRANCH  28  29
ENDBRANCH  27  28
ENDBRANCH   1  27
TORSDOF 18
ENDMDL
MODEL 3
REMARK VINA RESULT:     -12.1      1.374      2.080
REMARK SMILES Cc1cc(OC(F)F)ccc1NC(=O)[C@@H]1CCCC[C@@H]1C(=O)OCCOCCOC(=O)c1ccc(-c2c3nc(c(-c4c(F)c(F)c(F)c(F)c4F)c4ccc([nH]4)c(-c4c(F)c(F)c(F)c(F)c4F)c4nc(c(-c5c(F)c(F)c(F)c(F)c5F)c5ccc2[nH]5)C=C4)C=C3)cc1
REMARK SMILES IDX 25 1 24 2 23 3 21 4 22 5 20 6 15 7 16 8 17 9 19 10 18 11
REMARK SMILES IDX 13 12 12 13 14 15 11 16 1 17 2 18 3 19 4 20 10 21 9 22 5 23
REMARK SMILES IDX 6 24 7 25 8 26 26 27 27 28 28 29 29 30 30 31 31 32 32 33
REMARK SMILES IDX 33 34 94 35 34 36 93 37 35 38 36 39 37 40 87 41 38 42 92 43
REMARK SMILES IDX 86 44 88 45 39 46 91 47 85 48 84 49 40 51 72 52 52 53 71 54
REMARK SMILES IDX 53 55 56 56 70 57 89 58 54 59 55 60 69 62 90 63 57 64 41 65
REMARK SMILES IDX 42 66 50 67 43 68 44 69 48 70 51 71 45 72 46 73 49 74 47 75
REMARK SMILES IDX 73 76 74 77 82 78 75 79 76 80 80 81 83 82 77 83 78 84 81 85
REMARK SMILES IDX 79 86 58 87 59 88 67 89 60 90 61 91 65 92 68 93 62 94 63 95
REMARK SMILES IDX 66 96 64 97
REMARK H PARENT 12 14 88 50 56 61
REMARK Flexibility Score: inf
ROOT
ATOM      1  C   UNL A   1      36.240  23.009  23.256  1.00  0.00     0.202 C 
ENDROOT
BRANCH   1   2
ATOM      2  C   UNL A   1      34.822  22.974  23.753  1.00  0.00     0.261 C 
BRANCH   2   3
ATOM      3  O   UNL A   1      34.271  24.302  23.920  1.00  0.00    -0.463 OA
BRANCH   3   4
ATOM      4  C   UNL A   1      33.431  24.870  23.006  1.00  0.00     0.309 C 
ATOM      5  O   UNL A   1      33.702  25.136  21.850  1.00  0.00    -0.252 OA
BRANCH   4   6
ATOM      6  C   UNL A   1      32.111  25.231  23.667  1.00  0.00     0.111 C 
ATOM      7  C   UNL A   1      32.216  25.638  25.162  1.00  0.00     0.093 C 
ATOM      8  C   UNL A   1      32.197  24.409  26.104  1.00  0.00     0.014 C 
ATOM      9  C   UNL A   1      31.135  23.364  25.780  1.00  0.00     0.001 C 
ATOM     10  C   UNL A   1      31.021  24.169  23.424  1.00  0.00     0.016 C 
ATOM     11  C   UNL A   1      31.169  22.950  24.320  1.00  0.00     0.001 C 
BRANCH   7  12
ATOM     12  C   UNL A   1      33.398  26.582  25.547  1.00  0.00     0.228 C 
ATOM     13  N   UNL A   1      33.499  27.892  25.121  1.00  0.00    -0.326 N 
ATOM     14  H   UNL A   1      34.299  28.378  25.428  1.00  0.00     0.169 HD
ATOM     15  O   UNL A   1      34.339  26.154  26.228  1.00  0.00    -0.274 OA
BRANCH  13  16
ATOM     16  C   UNL A   1      32.618  28.628  24.309  1.00  0.00     0.044 A 
ATOM     17  C   UNL A   1      34.063  28.552  22.197  1.00  0.00     0.047 C 
ATOM     18  C   UNL A   1      32.746  28.619  22.914  1.00  0.00    -0.024 A 
ATOM     19  C   UNL A   1      31.573  28.776  22.150  1.00  0.00     0.052 A 
ATOM     20  C   UNL A   1      30.351  29.058  22.765  1.00  0.00     0.126 A 
ATOM     21  C   UNL A   1      31.499  29.229  24.868  1.00  0.00     0.030 A 
ATOM     22  C   UNL A   1      30.353  29.416  24.106  1.00  0.00     0.049 A 
BRANCH  20  23
ATOM     23  O   UNL A   1      29.235  28.993  21.980  1.00  0.00    -0.435 OA
BRANCH  23  24
ATOM     24  C   UNL A   1      28.435  30.177  21.932  1.00  0.00     0.542 C 
ATOM     25  F   UNL A   1      27.897  30.343  20.698  1.00  0.00    -0.167 F 
ATOM     26  F   UNL A   1      27.420  30.079  22.824  1.00  0.00    -0.167 F 
ENDBRANCH  23  24
ENDBRANCH  20  23
ENDBRANCH  13  16
ENDBRANCH   7  12
ENDBRANCH   4   6
ENDBRANCH   3   4
ENDBRANCH   2   3
ENDBRANCH   1   2
BRANCH   1  27
ATOM     27  O   UNL A   1      37.001  23.388  24.385  1.00  0.00    -0.374 OA
BRANCH  27  28
ATOM     28  C   UNL A   1      37.086  22.466  25.444  1.00  0.00     0.202 C 
BRANCH  28  29
ATOM     29  C   UNL A   1      38.505  21.946  25.639  1.00  0.00     0.261 C 
BRANCH  29  30
ATOM     30  O   UNL A   1      39.074  22.457  26.864  1.00  0.00    -0.460 OA
BRANCH  30  31
ATOM     31  C   UNL A   1      40.218  23.180  26.717  1.00  0.00     0.338 C 
ATOM     32  O   UNL A   1      41.346  22.701  26.650  1.00  0.00    -0.246 OA
BRANCH  31  33
ATOM     33  C   UNL A   1      39.943  24.632  26.916  1.00  0.00     0.060 A 
ATOM     34  C   UNL A   1      40.557  25.586  26.084  1.00  0.00     0.016 A 
ATOM     35  C   UNL A   1      39.404  25.024  28.135  1.00  0.00     0.016 A 
ATOM     36  C   UNL A   1      40.799  26.881  26.563  1.00  0.00     0.010 A 
ATOM     37  C   UNL A   1      39.816  26.228  28.658  1.00  0.00     0.010 A 
ATOM     38  C   UNL A   1      40.542  27.159  27.895  1.00  0.00    -0.014 A 
BRANCH  38  39
ATOM     39  C   UNL A   1      40.912  28.373  28.632  1.00  0.00     0.031 A 
ATOM     40  C   UNL A   1      39.867  29.430  28.669  1.00  0.00     0.074 A 
ATOM     41  C   UNL A   1      41.985  28.437  29.464  1.00  0.00     0.049 A 
ATOM     42  N   UNL A   1      39.958  30.518  29.338  1.00  0.00    -0.248 NA
ATOM     43  C   UNL A   1      38.601  29.344  27.937  1.00  0.00     0.031 C 
ATOM     44  C   UNL A   1      42.182  29.334  30.609  1.00  0.00     0.029 A 
ATOM     45  N   UNL A   1      43.194  27.712  29.463  1.00  0.00    -0.354 N 
ATOM     46  C   UNL A   1      38.719  31.111  29.386  1.00  0.00     0.074 A 
ATOM     47  C   UNL A   1      37.925  30.381  28.436  1.00  0.00     0.031 C 
ATOM     48  C   UNL A   1      43.485  29.370  30.937  1.00  0.00     0.029 A 
ATOM     49  C   UNL A   1      44.183  28.590  29.933  1.00  0.00     0.049 A 
ATOM     50  H   UNL A   1      43.318  26.776  29.187  1.00  0.00     0.167 HD
ATOM     51  C   UNL A   1      38.537  32.089  30.317  1.00  0.00     0.037 A 
ATOM     52  C   UNL A   1      45.201  29.018  29.140  1.00  0.00     0.037 A 
ATOM     53  C   UNL A   1      39.845  32.473  30.876  1.00  0.00     0.049 A 
ATOM     54  C   UNL A   1      45.127  30.507  29.103  1.00  0.00     0.074 A 
ATOM     55  C   UNL A   1      40.484  32.249  32.082  1.00  0.00     0.029 A 
ATOM     56  N   UNL A   1      40.835  32.903  29.987  1.00  0.00    -0.354 N 
ATOM     57  N   UNL A   1      43.993  31.159  29.020  1.00  0.00    -0.248 NA
ATOM     58  C   UNL A   1      46.265  31.336  29.487  1.00  0.00     0.031 C 
ATOM     59  C   UNL A   1      41.880  32.489  31.885  1.00  0.00     0.029 A 
ATOM     60  C   UNL A   1      42.089  32.870  30.565  1.00  0.00     0.049 A 
ATOM     61  H   UNL A   1      40.660  33.195  29.064  1.00  0.00     0.167 HD
ATOM     62  C   UNL A   1      44.216  32.425  29.483  1.00  0.00     0.074 A 
ATOM     63  C   UNL A   1      45.649  32.502  29.733  1.00  0.00     0.031 C 
ATOM     64  C   UNL A   1      43.256  33.327  29.825  1.00  0.00     0.037 A 
BRANCH  51  65
ATOM     65  C   UNL A   1      37.210  32.621  30.830  1.00  0.00     0.064 A 
ATOM     66  C   UNL A   1      36.433  33.474  30.013  1.00  0.00     0.173 A 
ATOM     67  C   UNL A   1      36.666  32.410  32.116  1.00  0.00     0.173 A 
ATOM     68  F   UNL A   1      36.814  33.783  28.765  1.00  0.00    -0.203 F 
ATOM     69  C   UNL A   1      35.237  34.062  30.447  1.00  0.00     0.198 A 
ATOM     70  C   UNL A   1      35.458  32.978  32.541  1.00  0.00     0.198 A 
ATOM     71  F   UNL A   1      37.273  31.669  33.043  1.00  0.00    -0.203 F 
ATOM     72  F   UNL A   1      34.566  34.886  29.629  1.00  0.00    -0.200 F 
ATOM     73  C   UNL A   1      34.746  33.809  31.709  1.00  0.00     0.200 A 
ATOM     74  F   UNL A   1      35.004  32.717  33.776  1.00  0.00    -0.200 F 
ATOM     75  F   UNL A   1      33.601  34.365  32.125  1.00  0.00    -0.200 F 
ENDBRANCH  51  65
BRANCH  52  76
ATOM     76  C   UNL A   1      45.561  28.023  28.091  1.00  0.00     0.064 A 
ATOM     77  C   UNL A   1      46.336  26.933  28.539  1.00  0.00     0.173 A 
ATOM     78  C   UNL A   1      44.781  27.819  26.946  1.00  0.00     0.173 A 
ATOM     79  F   UNL A   1      47.153  27.095  29.592  1.00  0.00    -0.203 F 
ATOM     80  C   UNL A   1      46.156  25.650  28.023  1.00  0.00     0.198 A 
ATOM     81  C   UNL A   1      44.645  26.535  26.398  1.00  0.00     0.198 A 
ATOM     82  F   UNL A   1      44.034  28.812  26.448  1.00  0.00    -0.203 F 
ATOM     83  F   UNL A   1      46.759  24.599  28.598  1.00  0.00    -0.200 F 
ATOM     84  C   UNL A   1      45.267  25.445  26.987  1.00  0.00     0.200 A 
ATOM     85  F   UNL A   1      43.816  26.331  25.364  1.00  0.00    -0.200 F 
ATOM     86  F   UNL A   1      44.971  24.197  26.593  1.00  0.00    -0.200 F 
ENDBRANCH  52  76
BRANCH  64  87
ATOM     87  C   UNL A   1      43.411  34.772  29.426  1.00  0.00     0.064 A 
ATOM     88  C   UNL A   1      43.160  35.240  28.120  1.00  0.00     0.173 A 
ATOM     89  C   UNL A   1      43.643  35.772  30.396  1.00  0.00     0.173 A 
ATOM     90  F   UNL A   1      42.800  34.418  27.126  1.00  0.00    -0.203 F 
ATOM     91  C   UNL A   1      43.220  36.592  27.794  1.00  0.00     0.198 A 
ATOM     92  C   UNL A   1      43.631  37.127  30.079  1.00  0.00     0.198 A 
ATOM     93  F   UNL A   1      43.843  35.476  31.687  1.00  0.00    -0.203 F 
ATOM     94  F   UNL A   1      43.029  36.970  26.524  1.00  0.00    -0.200 F 
ATOM     95  C   UNL A   1      43.445  37.535  28.775  1.00  0.00     0.200 A 
ATOM     96  F   UNL A   1      43.779  38.035  31.053  1.00  0.00    -0.200 F 
ATOM     97  F   UNL A   1      43.463  38.836  28.464  1.00  0.00    -0.200 F 
ENDBRANCH  64  87
ENDBRANCH  38  39
ENDBRANCH  31  33
ENDBRANCH  30  31
ENDBRANCH  29  30
ENDBRANCH  28  29
ENDBRANCH  27  28
ENDBRANCH   1  27
TORSDOF 18
ENDMDL
