MODEL 1
REMARK VINA RESULT:     -11.4      0.000      0.000
REMARK SMILES Cc1ccc(S(C)(=O)=O)cc1C(=O)NCCOCC(=O)OCCOCCOC(=O)c1ccc(-c2c3nc(c(-c4c(F)c(F)c(F)c(F)c4F)c4ccc([nH]4)c(-c4c(F)c(F)c(F)c(F)c4F)c4nc(c(-c5c(F)c(F)c(F)c(F)c5F)c5ccc2[nH]5)C=C4)C=C3)cc1
REMARK SMILES IDX 22 1 21 2 19 3 20 4 18 5 17 6 16 7 15 8 14 9 12 10 13 11
REMARK SMILES IDX 11 13 1 14 2 15 3 16 4 17 10 18 5 19 6 20 7 21 8 22 9 23
REMARK SMILES IDX 23 24 24 25 25 26 26 27 27 28 28 29 29 30 30 31 31 32 92 33
REMARK SMILES IDX 32 34 91 35 33 36 34 37 35 38 85 39 36 40 90 41 84 42 86 43
REMARK SMILES IDX 37 44 89 45 83 46 82 47 38 49 70 50 50 51 69 52 51 53 54 54
REMARK SMILES IDX 68 55 87 56 52 57 53 58 67 60 88 61 55 62 39 63 40 64 48 65
REMARK SMILES IDX 41 66 42 67 46 68 49 69 43 70 44 71 47 72 45 73 71 74 72 75
REMARK SMILES IDX 80 76 73 77 74 78 78 79 81 80 75 81 76 82 79 83 77 84 56 85
REMARK SMILES IDX 57 86 65 87 58 88 59 89 63 90 66 91 60 92 61 93 64 94 62 95
REMARK H PARENT 14 12 86 48 54 59
REMARK Flexibility Score: inf
ROOT
ATOM      1  C   UNL A   1      31.725  28.018  24.502  1.00  0.00     0.261 C 
ENDROOT
BRANCH   1   2
ATOM      2  O   UNL A   1      32.289  26.899  25.203  1.00  0.00    -0.462 OA
BRANCH   2   3
ATOM      3  C   UNL A   1      31.535  26.297  26.170  1.00  0.00     0.332 C 
ATOM      4  O   UNL A   1      30.730  26.843  26.909  1.00  0.00    -0.250 OA
BRANCH   3   5
ATOM      5  C   UNL A   1      31.783  24.794  26.170  1.00  0.00     0.282 C 
BRANCH   5   6
ATOM      6  O   UNL A   1      31.355  24.084  27.326  1.00  0.00    -0.368 OA
BRANCH   6   7
ATOM      7  C   UNL A   1      30.608  22.888  27.063  1.00  0.00     0.182 C 
BRANCH   7   8
ATOM      8  C   UNL A   1      30.774  22.341  25.633  1.00  0.00     0.144 C 
BRANCH   8   9
ATOM      9  N   UNL A   1      31.628  21.164  25.591  1.00  0.00    -0.350 N 
ATOM     10  C   UNL A   1      32.898  20.840  25.218  1.00  0.00     0.251 C 
ATOM     11  O   UNL A   1      33.227  19.700  25.577  1.00  0.00    -0.269 OA
ATOM     12  H   UNL A   1      31.149  20.372  25.929  1.00  0.00     0.163 HD
BRANCH  10  13
ATOM     13  C   UNL A   1      33.925  21.632  24.444  1.00  0.00     0.044 A 
ATOM     14  C   UNL A   1      36.222  20.819  25.400  1.00  0.00     0.045 C 
ATOM     15  C   UNL A   1      35.334  21.679  24.553  1.00  0.00    -0.038 A 
ATOM     16  C   UNL A   1      36.057  22.641  23.795  1.00  0.00     0.005 A 
ATOM     17  C   UNL A   1      35.433  23.567  22.970  1.00  0.00     0.020 A 
ATOM     18  C   UNL A   1      33.315  22.590  23.579  1.00  0.00     0.034 A 
ATOM     19  C   UNL A   1      34.052  23.548  22.874  1.00  0.00     0.067 A 
BRANCH  19  20
ATOM     20  S   UNL A   1      33.246  24.743  21.833  1.00  0.00     0.175 S 
ATOM     21  C   UNL A   1      31.599  24.874  22.487  1.00  0.00     0.163 C 
ATOM     22  O   UNL A   1      33.922  26.001  22.052  1.00  0.00    -0.224 OA
ATOM     23  O   UNL A   1      33.131  24.170  20.501  1.00  0.00    -0.224 OA
ENDBRANCH  19  20
ENDBRANCH  10  13
ENDBRANCH   8   9
ENDBRANCH   7   8
ENDBRANCH   6   7
ENDBRANCH   5   6
ENDBRANCH   3   5
ENDBRANCH   2   3
ENDBRANCH   1   2
BRANCH   1  24
ATOM     24  C   UNL A   1      32.358  29.328  24.876  1.00  0.00     0.202 C 
BRANCH  24  25
ATOM     25  O   UNL A   1      33.320  28.982  25.861  1.00  0.00    -0.374 OA
BRANCH  25  26
ATOM     26  C   UNL A   1      33.100  29.487  27.154  1.00  0.00     0.202 C 
BRANCH  26  27
ATOM     27  C   UNL A   1      33.362  30.982  27.329  1.00  0.00     0.261 C 
BRANCH  27  28
ATOM     28  O   UNL A   1      34.772  31.289  27.357  1.00  0.00    -0.460 OA
BRANCH  28  29
ATOM     29  C   UNL A   1      35.366  31.308  28.584  1.00  0.00     0.338 C 
ATOM     30  O   UNL A   1      35.202  32.180  29.418  1.00  0.00    -0.246 OA
BRANCH  29  31
ATOM     31  C   UNL A   1      36.325  30.176  28.721  1.00  0.00     0.060 A 
ATOM     32  C   UNL A   1      36.482  29.509  29.947  1.00  0.00     0.016 A 
ATOM     33  C   UNL A   1      37.250  29.973  27.707  1.00  0.00     0.016 A 
ATOM     34  C   UNL A   1      37.666  28.810  30.208  1.00  0.00     0.010 A 
ATOM     35  C   UNL A   1      38.484  29.466  28.044  1.00  0.00     0.010 A 
ATOM     36  C   UNL A   1      38.716  28.898  29.305  1.00  0.00    -0.014 A 
BRANCH  36  37
ATOM     37  C   UNL A   1      40.100  28.471  29.530  1.00  0.00     0.031 A 
ATOM     38  C   UNL A   1      40.453  27.086  29.127  1.00  0.00     0.074 A 
ATOM     39  C   UNL A   1      41.083  29.364  29.818  1.00  0.00     0.049 A 
ATOM     40  N   UNL A   1      41.633  26.596  29.241  1.00  0.00    -0.248 NA
ATOM     41  C   UNL A   1      39.502  26.106  28.589  1.00  0.00     0.031 C 
ATOM     42  C   UNL A   1      42.518  29.252  29.534  1.00  0.00     0.029 A 
ATOM     43  N   UNL A   1      41.012  30.600  30.485  1.00  0.00    -0.354 N 
ATOM     44  C   UNL A   1      41.687  25.437  28.510  1.00  0.00     0.074 A 
ATOM     45  C   UNL A   1      40.317  25.113  28.220  1.00  0.00     0.031 C 
ATOM     46  C   UNL A   1      43.195  30.155  30.267  1.00  0.00     0.029 A 
ATOM     47  C   UNL A   1      42.235  30.768  31.165  1.00  0.00     0.049 A 
ATOM     48  H   UNL A   1      40.253  31.227  30.480  1.00  0.00     0.167 HD
ATOM     49  C   UNL A   1      42.921  24.977  28.167  1.00  0.00     0.037 A 
ATOM     50  C   UNL A   1      42.240  30.812  32.524  1.00  0.00     0.037 A 
ATOM     51  C   UNL A   1      43.953  25.674  28.948  1.00  0.00     0.049 A 
ATOM     52  C   UNL A   1      42.960  29.604  33.062  1.00  0.00     0.074 A 
ATOM     53  C   UNL A   1      44.917  26.632  28.692  1.00  0.00     0.029 A 
ATOM     54  N   UNL A   1      43.846  25.614  30.330  1.00  0.00    -0.354 N 
ATOM     55  N   UNL A   1      43.435  28.666  32.289  1.00  0.00    -0.248 NA
ATOM     56  C   UNL A   1      43.175  29.312  34.471  1.00  0.00     0.031 C 
ATOM     57  C   UNL A   1      45.329  27.183  29.955  1.00  0.00     0.029 A 
ATOM     58  C   UNL A   1      44.653  26.527  30.973  1.00  0.00     0.049 A 
ATOM     59  H   UNL A   1      43.256  24.983  30.802  1.00  0.00     0.167 HD
ATOM     60  C   UNL A   1      43.999  27.678  33.022  1.00  0.00     0.074 A 
ATOM     61  C   UNL A   1      43.771  28.107  34.397  1.00  0.00     0.031 C 
ATOM     62  C   UNL A   1      44.597  26.599  32.434  1.00  0.00     0.037 A 
BRANCH  49  63
ATOM     63  C   UNL A   1      43.224  23.971  27.081  1.00  0.00     0.064 A 
ATOM     64  C   UNL A   1      42.846  22.623  27.259  1.00  0.00     0.173 A 
ATOM     65  C   UNL A   1      43.966  24.225  25.906  1.00  0.00     0.173 A 
ATOM     66  F   UNL A   1      42.136  22.238  28.330  1.00  0.00    -0.203 F 
ATOM     67  C   UNL A   1      43.195  21.618  26.351  1.00  0.00     0.198 A 
ATOM     68  C   UNL A   1      44.272  23.227  24.975  1.00  0.00     0.198 A 
ATOM     69  F   UNL A   1      44.467  25.431  25.624  1.00  0.00    -0.203 F 
ATOM     70  F   UNL A   1      42.849  20.348  26.603  1.00  0.00    -0.200 F 
ATOM     71  C   UNL A   1      43.900  21.920  25.205  1.00  0.00     0.200 A 
ATOM     72  F   UNL A   1      44.950  23.541  23.861  1.00  0.00    -0.200 F 
ATOM     73  F   UNL A   1      44.231  20.957  24.334  1.00  0.00    -0.200 F 
ENDBRANCH  49  63
BRANCH  50  74
ATOM     74  C   UNL A   1      40.995  31.486  33.023  1.00  0.00     0.064 A 
ATOM     75  C   UNL A   1      40.887  32.877  32.767  1.00  0.00     0.173 A 
ATOM     76  C   UNL A   1      39.797  30.777  33.180  1.00  0.00     0.173 A 
ATOM     77  F   UNL A   1      41.999  33.614  32.603  1.00  0.00    -0.203 F 
ATOM     78  C   UNL A   1      39.661  33.470  32.465  1.00  0.00     0.198 A 
ATOM     79  C   UNL A   1      38.564  31.394  32.927  1.00  0.00     0.198 A 
ATOM     80  F   UNL A   1      39.818  29.458  33.411  1.00  0.00    -0.203 F 
ATOM     81  F   UNL A   1      39.620  34.734  32.014  1.00  0.00    -0.200 F 
ATOM     82  C   UNL A   1      38.505  32.716  32.504  1.00  0.00     0.200 A 
ATOM     83  F   UNL A   1      37.438  30.668  32.958  1.00  0.00    -0.200 F 
ATOM     84  F   UNL A   1      37.347  33.236  32.072  1.00  0.00    -0.200 F 
ENDBRANCH  50  74
BRANCH  62  85
ATOM     85  C   UNL A   1      45.159  25.482  33.254  1.00  0.00     0.064 A 
ATOM     86  C   UNL A   1      46.532  25.213  33.295  1.00  0.00     0.173 A 
ATOM     87  C   UNL A   1      44.330  24.617  34.000  1.00  0.00     0.173 A 
ATOM     88  F   UNL A   1      47.390  25.894  32.520  1.00  0.00    -0.203 F 
ATOM     89  C   UNL A   1      47.056  24.235  34.136  1.00  0.00     0.198 A 
ATOM     90  C   UNL A   1      44.849  23.588  34.775  1.00  0.00     0.198 A 
ATOM     91  F   UNL A   1      42.999  24.764  34.042  1.00  0.00    -0.203 F 
ATOM     92  F   UNL A   1      48.383  24.093  34.239  1.00  0.00    -0.200 F 
ATOM     93  C   UNL A   1      46.215  23.422  34.874  1.00  0.00     0.200 A 
ATOM     94  F   UNL A   1      44.016  22.779  35.445  1.00  0.00    -0.200 F 
ATOM     95  F   UNL A   1      46.718  22.485  35.686  1.00  0.00    -0.200 F 
ENDBRANCH  62  85
ENDBRANCH  36  37
ENDBRANCH  29  31
ENDBRANCH  28  29
ENDBRANCH  27  28
ENDBRANCH  26  27
ENDBRANCH  25  26
ENDBRANCH  24  25
ENDBRANCH   1  24
TORSDOF 20
ENDMDL
MODEL 2
REMARK VINA RESULT:     -11.4      3.512      9.605
REMARK SMILES Cc1ccc(S(C)(=O)=O)cc1C(=O)NCCOCC(=O)OCCOCCOC(=O)c1ccc(-c2c3nc(c(-c4c(F)c(F)c(F)c(F)c4F)c4ccc([nH]4)c(-c4c(F)c(F)c(F)c(F)c4F)c4nc(c(-c5c(F)c(F)c(F)c(F)c5F)c5ccc2[nH]5)C=C4)C=C3)cc1
REMARK SMILES IDX 22 1 21 2 19 3 20 4 18 5 17 6 16 7 15 8 14 9 12 10 13 11
REMARK SMILES IDX 11 13 1 14 2 15 3 16 4 17 10 18 5 19 6 20 7 21 8 22 9 23
REMARK SMILES IDX 23 24 24 25 25 26 26 27 27 28 28 29 29 30 30 31 31 32 92 33
REMARK SMILES IDX 32 34 91 35 33 36 34 37 35 38 85 39 36 40 90 41 84 42 86 43
REMARK SMILES IDX 37 44 89 45 83 46 82 47 38 49 70 50 50 51 69 52 51 53 54 54
REMARK SMILES IDX 68 55 87 56 52 57 53 58 67 60 88 61 55 62 39 63 40 64 48 65
REMARK SMILES IDX 41 66 42 67 46 68 49 69 43 70 44 71 47 72 45 73 71 74 72 75
REMARK SMILES IDX 80 76 73 77 74 78 78 79 81 80 75 81 76 82 79 83 77 84 56 85
REMARK SMILES IDX 57 86 65 87 58 88 59 89 63 90 66 91 60 92 61 93 64 94 62 95
REMARK H PARENT 14 12 86 48 54 59
REMARK Flexibility Score: inf
ROOT
ATOM      1  C   UNL A   1      34.931  22.540  24.295  1.00  0.00     0.261 C 
ENDROOT
BRANCH   1   2
ATOM      2  O   UNL A   1      33.672  22.237  23.673  1.00  0.00    -0.462 OA
BRANCH   2   3
ATOM      3  C   UNL A   1      32.800  21.429  24.345  1.00  0.00     0.332 C 
ATOM      4  O   UNL A   1      32.500  20.281  24.054  1.00  0.00    -0.250 OA
BRANCH   3   5
ATOM      5  C   UNL A   1      32.277  22.139  25.588  1.00  0.00     0.282 C 
BRANCH   5   6
ATOM      6  O   UNL A   1      30.863  22.204  25.730  1.00  0.00    -0.368 OA
BRANCH   6   7
ATOM      7  C   UNL A   1      30.394  23.119  26.730  1.00  0.00     0.182 C 
BRANCH   7   8
ATOM      8  C   UNL A   1      30.302  24.581  26.256  1.00  0.00     0.144 C 
BRANCH   8   9
ATOM      9  N   UNL A   1      30.344  24.693  24.806  1.00  0.00    -0.350 N 
ATOM     10  C   UNL A   1      30.601  25.644  23.865  1.00  0.00     0.251 C 
ATOM     11  O   UNL A   1      30.704  25.175  22.723  1.00  0.00    -0.269 OA
ATOM     12  H   UNL A   1      30.122  23.832  24.382  1.00  0.00     0.163 HD
BRANCH  10  13
ATOM     13  C   UNL A   1      30.758  27.141  24.002  1.00  0.00     0.044 A 
ATOM     14  C   UNL A   1      32.801  27.429  25.613  1.00  0.00     0.045 C 
ATOM     15  C   UNL A   1      31.646  27.911  24.787  1.00  0.00    -0.038 A 
ATOM     16  C   UNL A   1      31.475  29.322  24.847  1.00  0.00     0.005 A 
ATOM     17  C   UNL A   1      30.444  29.979  24.188  1.00  0.00     0.020 A 
ATOM     18  C   UNL A   1      29.717  27.848  23.328  1.00  0.00     0.034 A 
ATOM     19  C   UNL A   1      29.553  29.233  23.436  1.00  0.00     0.067 A 
BRANCH  19  20
ATOM     20  S   UNL A   1      28.221  30.068  22.605  1.00  0.00     0.175 S 
ATOM     21  C   UNL A   1      28.463  31.788  22.976  1.00  0.00     0.163 C 
ATOM     22  O   UNL A   1      28.435  29.874  21.189  1.00  0.00    -0.224 OA
ATOM     23  O   UNL A   1      26.976  29.665  23.241  1.00  0.00    -0.224 OA
ENDBRANCH  19  20
ENDBRANCH  10  13
ENDBRANCH   8   9
ENDBRANCH   7   8
ENDBRANCH   6   7
ENDBRANCH   5   6
ENDBRANCH   3   5
ENDBRANCH   2   3
ENDBRANCH   1   2
BRANCH   1  24
ATOM     24  C   UNL A   1      35.707  21.314  24.685  1.00  0.00     0.202 C 
BRANCH  24  25
ATOM     25  O   UNL A   1      37.051  21.631  24.357  1.00  0.00    -0.374 OA
BRANCH  25  26
ATOM     26  C   UNL A   1      37.973  21.614  25.418  1.00  0.00     0.202 C 
BRANCH  26  27
ATOM     27  C   UNL A   1      38.361  22.983  25.975  1.00  0.00     0.261 C 
BRANCH  27  28
ATOM     28  O   UNL A   1      39.385  22.889  26.988  1.00  0.00    -0.460 OA
BRANCH  28  29
ATOM     29  C   UNL A   1      40.472  23.696  26.830  1.00  0.00     0.338 C 
ATOM     30  O   UNL A   1      41.599  23.300  26.595  1.00  0.00    -0.246 OA
BRANCH  29  31
ATOM     31  C   UNL A   1      40.113  25.118  27.093  1.00  0.00     0.060 A 
ATOM     32  C   UNL A   1      40.591  26.146  26.264  1.00  0.00     0.016 A 
ATOM     33  C   UNL A   1      39.534  25.434  28.314  1.00  0.00     0.016 A 
ATOM     34  C   UNL A   1      40.665  27.455  26.756  1.00  0.00     0.010 A 
ATOM     35  C   UNL A   1      39.800  26.669  28.858  1.00  0.00     0.010 A 
ATOM     36  C   UNL A   1      40.389  27.688  28.096  1.00  0.00    -0.014 A 
BRANCH  36  37
ATOM     37  C   UNL A   1      40.671  28.917  28.844  1.00  0.00     0.031 A 
ATOM     38  C   UNL A   1      39.595  29.940  28.893  1.00  0.00     0.074 A 
ATOM     39  C   UNL A   1      41.732  29.008  29.689  1.00  0.00     0.049 A 
ATOM     40  N   UNL A   1      39.701  31.045  29.536  1.00  0.00    -0.248 NA
ATOM     41  C   UNL A   1      38.311  29.833  28.192  1.00  0.00     0.031 C 
ATOM     42  C   UNL A   1      41.870  29.856  30.879  1.00  0.00     0.029 A 
ATOM     43  N   UNL A   1      42.980  28.361  29.643  1.00  0.00    -0.354 N 
ATOM     44  C   UNL A   1      38.452  31.603  29.632  1.00  0.00     0.074 A 
ATOM     45  C   UNL A   1      37.644  30.879  28.689  1.00  0.00     0.031 C 
ATOM     46  C   UNL A   1      43.165  29.922  31.237  1.00  0.00     0.029 A 
ATOM     47  C   UNL A   1      43.922  29.252  30.197  1.00  0.00     0.049 A 
ATOM     48  H   UNL A   1      43.161  27.461  29.290  1.00  0.00     0.167 HD
ATOM     49  C   UNL A   1      38.267  32.546  30.596  1.00  0.00     0.037 A 
ATOM     50  C   UNL A   1      44.917  29.742  29.410  1.00  0.00     0.037 A 
ATOM     51  C   UNL A   1      39.566  32.991  31.121  1.00  0.00     0.049 A 
ATOM     52  C   UNL A   1      44.728  31.225  29.230  1.00  0.00     0.074 A 
ATOM     53  C   UNL A   1      40.277  32.819  32.294  1.00  0.00     0.029 A 
ATOM     54  N   UNL A   1      40.478  33.494  30.204  1.00  0.00    -0.354 N 
ATOM     55  N   UNL A   1      43.713  31.871  29.733  1.00  0.00    -0.248 NA
ATOM     56  C   UNL A   1      45.603  32.095  28.459  1.00  0.00     0.031 C 
ATOM     57  C   UNL A   1      41.646  33.170  32.030  1.00  0.00     0.029 A 
ATOM     58  C   UNL A   1      41.753  33.599  30.715  1.00  0.00     0.049 A 
ATOM     59  H   UNL A   1      40.238  33.750  29.284  1.00  0.00     0.167 HD
ATOM     60  C   UNL A   1      43.760  33.180  29.393  1.00  0.00     0.074 A 
ATOM     61  C   UNL A   1      44.947  33.267  28.550  1.00  0.00     0.031 C 
ATOM     62  C   UNL A   1      42.821  34.071  29.832  1.00  0.00     0.037 A 
BRANCH  49  63
ATOM     63  C   UNL A   1      36.936  33.016  31.135  1.00  0.00     0.064 A 
ATOM     64  C   UNL A   1      36.096  33.803  30.320  1.00  0.00     0.173 A 
ATOM     65  C   UNL A   1      36.470  32.830  32.456  1.00  0.00     0.173 A 
ATOM     66  F   UNL A   1      36.412  34.059  29.042  1.00  0.00    -0.203 F 
ATOM     67  C   UNL A   1      34.906  34.368  30.790  1.00  0.00     0.198 A 
ATOM     68  C   UNL A   1      35.256  33.356  32.910  1.00  0.00     0.198 A 
ATOM     69  F   UNL A   1      37.181  32.177  33.380  1.00  0.00    -0.203 F 
ATOM     70  F   UNL A   1      34.177  35.149  29.980  1.00  0.00    -0.200 F 
ATOM     71  C   UNL A   1      34.481  34.139  32.082  1.00  0.00     0.200 A 
ATOM     72  F   UNL A   1      34.855  33.114  34.167  1.00  0.00    -0.200 F 
ATOM     73  F   UNL A   1      33.339  34.677  32.531  1.00  0.00    -0.200 F 
ENDBRANCH  49  63
BRANCH  50  74
ATOM     74  C   UNL A   1      45.347  28.702  28.415  1.00  0.00     0.064 A 
ATOM     75  C   UNL A   1      46.040  27.581  28.938  1.00  0.00     0.173 A 
ATOM     76  C   UNL A   1      44.652  28.514  27.214  1.00  0.00     0.173 A 
ATOM     77  F   UNL A   1      46.723  27.695  30.090  1.00  0.00    -0.203 F 
ATOM     78  C   UNL A   1      45.859  26.302  28.411  1.00  0.00     0.198 A 
ATOM     79  C   UNL A   1      44.520  27.233  26.661  1.00  0.00     0.198 A 
ATOM     80  F   UNL A   1      43.963  29.524  26.666  1.00  0.00    -0.203 F 
ATOM     81  F   UNL A   1      46.351  25.234  29.058  1.00  0.00    -0.200 F 
ATOM     82  C   UNL A   1      45.063  26.124  27.296  1.00  0.00     0.200 A 
ATOM     83  F   UNL A   1      43.745  27.052  25.581  1.00  0.00    -0.200 F 
ATOM     84  F   UNL A   1      44.764  24.887  26.873  1.00  0.00    -0.200 F 
ENDBRANCH  50  74
BRANCH  62  85
ATOM     85  C   UNL A   1      42.846  35.501  29.397  1.00  0.00     0.064 A 
ATOM     86  C   UNL A   1      42.321  35.908  28.164  1.00  0.00     0.173 A 
ATOM     87  C   UNL A   1      43.433  36.510  30.190  1.00  0.00     0.173 A 
ATOM     88  F   UNL A   1      41.858  35.008  27.283  1.00  0.00    -0.203 F 
ATOM     89  C   UNL A   1      42.258  37.253  27.810  1.00  0.00     0.198 A 
ATOM     90  C   UNL A   1      43.444  37.842  29.796  1.00  0.00     0.198 A 
ATOM     91  F   UNL A   1      43.974  36.252  31.388  1.00  0.00    -0.203 F 
ATOM     92  F   UNL A   1      41.637  37.611  26.679  1.00  0.00    -0.200 F 
ATOM     93  C   UNL A   1      42.821  38.219  28.625  1.00  0.00     0.200 A 
ATOM     94  F   UNL A   1      44.036  38.758  30.575  1.00  0.00    -0.200 F 
ATOM     95  F   UNL A   1      42.757  39.512  28.286  1.00  0.00    -0.200 F 
ENDBRANCH  62  85
ENDBRANCH  36  37
ENDBRANCH  29  31
ENDBRANCH  28  29
ENDBRANCH  27  28
ENDBRANCH  26  27
ENDBRANCH  25  26
ENDBRANCH  24  25
ENDBRANCH   1  24
TORSDOF 20
ENDMDL
MODEL 3
REMARK VINA RESULT:     -11.1      1.533      3.081
REMARK SMILES Cc1ccc(S(C)(=O)=O)cc1C(=O)NCCOCC(=O)OCCOCCOC(=O)c1ccc(-c2c3nc(c(-c4c(F)c(F)c(F)c(F)c4F)c4ccc([nH]4)c(-c4c(F)c(F)c(F)c(F)c4F)c4nc(c(-c5c(F)c(F)c(F)c(F)c5F)c5ccc2[nH]5)C=C4)C=C3)cc1
REMARK SMILES IDX 22 1 21 2 19 3 20 4 18 5 17 6 16 7 15 8 14 9 12 10 13 11
REMARK SMILES IDX 11 13 1 14 2 15 3 16 4 17 10 18 5 19 6 20 7 21 8 22 9 23
REMARK SMILES IDX 23 24 24 25 25 26 26 27 27 28 28 29 29 30 30 31 31 32 92 33
REMARK SMILES IDX 32 34 91 35 33 36 34 37 35 38 85 39 36 40 90 41 84 42 86 43
REMARK SMILES IDX 37 44 89 45 83 46 82 47 38 49 70 50 50 51 69 52 51 53 54 54
REMARK SMILES IDX 68 55 87 56 52 57 53 58 67 60 88 61 55 62 39 63 40 64 48 65
REMARK SMILES IDX 41 66 42 67 46 68 49 69 43 70 44 71 47 72 45 73 71 74 72 75
REMARK SMILES IDX 80 76 73 77 74 78 78 79 81 80 75 81 76 82 79 83 77 84 56 85
REMARK SMILES IDX 57 86 65 87 58 88 59 89 63 90 66 91 60 92 61 93 64 94 62 95
REMARK H PARENT 14 12 86 48 54 59
REMARK Flexibility Score: inf
ROOT
ATOM      1  C   UNL A   1      31.254  27.032  23.378  1.00  0.00     0.261 C 
ENDROOT
BRANCH   1   2
ATOM      2  O   UNL A   1      31.344  26.116  22.276  1.00  0.00    -0.462 OA
BRANCH   2   3
ATOM      3  C   UNL A   1      32.579  25.654  21.921  1.00  0.00     0.332 C 
ATOM      4  O   UNL A   1      33.317  26.129  21.072  1.00  0.00    -0.250 OA
BRANCH   3   5
ATOM      5  C   UNL A   1      32.966  24.466  22.793  1.00  0.00     0.282 C 
BRANCH   5   6
ATOM      6  O   UNL A   1      33.027  23.200  22.146  1.00  0.00    -0.368 OA
BRANCH   6   7
ATOM      7  C   UNL A   1      31.879  22.363  22.338  1.00  0.00     0.182 C 
BRANCH   7   8
ATOM      8  C   UNL A   1      32.145  20.864  22.110  1.00  0.00     0.144 C 
BRANCH   8   9
ATOM      9  N   UNL A   1      32.212  20.120  23.358  1.00  0.00    -0.350 N 
ATOM     10  C   UNL A   1      32.522  20.350  24.665  1.00  0.00     0.251 C 
ATOM     11  O   UNL A   1      32.221  19.402  25.404  1.00  0.00    -0.269 OA
ATOM     12  H   UNL A   1      31.960  19.179  23.218  1.00  0.00     0.163 HD
BRANCH  10  13
ATOM     13  C   UNL A   1      33.172  21.545  25.323  1.00  0.00     0.044 A 
ATOM     14  C   UNL A   1      31.217  22.715  26.610  1.00  0.00     0.045 C 
ATOM     15  C   UNL A   1      32.620  22.590  26.099  1.00  0.00    -0.038 A 
ATOM     16  C   UNL A   1      33.443  23.688  26.471  1.00  0.00     0.005 A 
ATOM     17  C   UNL A   1      34.770  23.797  26.074  1.00  0.00     0.020 A 
ATOM     18  C   UNL A   1      34.541  21.682  24.941  1.00  0.00     0.034 A 
ATOM     19  C   UNL A   1      35.315  22.793  25.292  1.00  0.00     0.067 A 
BRANCH  19  20
ATOM     20  S   UNL A   1      37.007  22.937  24.765  1.00  0.00     0.175 S 
ATOM     21  C   UNL A   1      37.688  21.311  24.984  1.00  0.00     0.163 C 
ATOM     22  O   UNL A   1      36.973  23.228  23.350  1.00  0.00    -0.224 OA
ATOM     23  O   UNL A   1      37.693  23.816  25.699  1.00  0.00    -0.224 OA
ENDBRANCH  19  20
ENDBRANCH  10  13
ENDBRANCH   8   9
ENDBRANCH   7   8
ENDBRANCH   6   7
ENDBRANCH   5   6
ENDBRANCH   3   5
ENDBRANCH   2   3
ENDBRANCH   1   2
BRANCH   1  24
ATOM     24  C   UNL A   1      31.960  28.333  23.122  1.00  0.00     0.202 C 
BRANCH  24  25
ATOM     25  O   UNL A   1      32.758  28.531  24.280  1.00  0.00    -0.374 OA
BRANCH  25  26
ATOM     26  C   UNL A   1      33.056  27.385  25.037  1.00  0.00     0.202 C 
BRANCH  26  27
ATOM     27  C   UNL A   1      33.233  27.616  26.536  1.00  0.00     0.261 C 
BRANCH  27  28
ATOM     28  O   UNL A   1      34.520  28.188  26.852  1.00  0.00    -0.460 OA
BRANCH  28  29
ATOM     29  C   UNL A   1      34.510  29.336  27.588  1.00  0.00     0.338 C 
ATOM     30  O   UNL A   1      33.519  30.010  27.805  1.00  0.00    -0.246 OA
BRANCH  29  31
ATOM     31  C   UNL A   1      35.893  29.711  27.996  1.00  0.00     0.060 A 
ATOM     32  C   UNL A   1      36.887  29.952  27.033  1.00  0.00     0.016 A 
ATOM     33  C   UNL A   1      36.252  29.549  29.326  1.00  0.00     0.016 A 
ATOM     34  C   UNL A   1      38.237  29.828  27.385  1.00  0.00     0.010 A 
ATOM     35  C   UNL A   1      37.559  29.228  29.613  1.00  0.00     0.010 A 
ATOM     36  C   UNL A   1      38.564  29.341  28.642  1.00  0.00    -0.014 A 
BRANCH  36  37
ATOM     37  C   UNL A   1      39.887  28.891  29.086  1.00  0.00     0.031 A 
ATOM     38  C   UNL A   1      40.231  27.466  28.847  1.00  0.00     0.074 A 
ATOM     39  C   UNL A   1      40.860  29.775  29.432  1.00  0.00     0.049 A 
ATOM     40  N   UNL A   1      41.364  26.951  29.160  1.00  0.00    -0.248 NA
ATOM     41  C   UNL A   1      39.319  26.475  28.266  1.00  0.00     0.031 C 
ATOM     42  C   UNL A   1      42.314  29.593  29.356  1.00  0.00     0.029 A 
ATOM     43  N   UNL A   1      40.754  31.064  29.982  1.00  0.00    -0.354 N 
ATOM     44  C   UNL A   1      41.465  25.733  28.538  1.00  0.00     0.074 A 
ATOM     45  C   UNL A   1      40.133  25.428  28.092  1.00  0.00     0.031 C 
ATOM     46  C   UNL A   1      42.925  30.534  30.098  1.00  0.00     0.029 A 
ATOM     47  C   UNL A   1      41.882  31.252  30.806  1.00  0.00     0.049 A 
ATOM     48  H   UNL A   1      40.030  31.712  29.823  1.00  0.00     0.167 HD
ATOM     49  C   UNL A   1      42.713  25.207  28.404  1.00  0.00     0.037 A 
ATOM     50  C   UNL A   1      41.709  31.411  32.145  1.00  0.00     0.037 A 
ATOM     51  C   UNL A   1      43.661  25.936  29.259  1.00  0.00     0.049 A 
ATOM     52  C   UNL A   1      42.300  30.231  32.871  1.00  0.00     0.074 A 
ATOM     53  C   UNL A   1      44.690  26.837  29.060  1.00  0.00     0.029 A 
ATOM     54  N   UNL A   1      43.370  25.997  30.614  1.00  0.00    -0.354 N 
ATOM     55  N   UNL A   1      42.833  29.217  32.247  1.00  0.00    -0.248 NA
ATOM     56  C   UNL A   1      42.314  30.054  34.315  1.00  0.00     0.031 C 
ATOM     57  C   UNL A   1      44.954  27.481  30.319  1.00  0.00     0.029 A 
ATOM     58  C   UNL A   1      44.122  26.936  31.285  1.00  0.00     0.049 A 
ATOM     59  H   UNL A   1      42.695  25.427  31.051  1.00  0.00     0.167 HD
ATOM     60  C   UNL A   1      43.252  28.278  33.127  1.00  0.00     0.074 A 
ATOM     61  C   UNL A   1      42.862  28.829  34.420  1.00  0.00     0.031 C 
ATOM     62  C   UNL A   1      43.876  27.134  32.714  1.00  0.00     0.037 A 
BRANCH  49  63
ATOM     63  C   UNL A   1      43.114  24.103  27.453  1.00  0.00     0.064 A 
ATOM     64  C   UNL A   1      43.815  24.427  26.272  1.00  0.00     0.173 A 
ATOM     65  C   UNL A   1      42.759  22.741  27.574  1.00  0.00     0.173 A 
ATOM     66  F   UNL A   1      44.217  25.682  26.026  1.00  0.00    -0.203 F 
ATOM     67  C   UNL A   1      44.118  23.475  25.293  1.00  0.00     0.198 A 
ATOM     68  C   UNL A   1      43.105  21.783  26.616  1.00  0.00     0.198 A 
ATOM     69  F   UNL A   1      42.027  22.281  28.593  1.00  0.00    -0.203 F 
ATOM     70  F   UNL A   1      44.741  23.855  24.168  1.00  0.00    -0.200 F 
ATOM     71  C   UNL A   1      43.771  22.151  25.467  1.00  0.00     0.200 A 
ATOM     72  F   UNL A   1      42.767  20.498  26.808  1.00  0.00    -0.200 F 
ATOM     73  F   UNL A   1      44.064  21.240  24.531  1.00  0.00    -0.200 F 
ENDBRANCH  49  63
BRANCH  50  74
ATOM     74  C   UNL A   1      40.438  32.164  32.415  1.00  0.00     0.064 A 
ATOM     75  C   UNL A   1      39.335  31.394  32.863  1.00  0.00     0.173 A 
ATOM     76  C   UNL A   1      40.459  33.516  32.782  1.00  0.00     0.173 A 
ATOM     77  F   UNL A   1      39.258  30.090  32.549  1.00  0.00    -0.203 F 
ATOM     78  C   UNL A   1      38.432  31.893  33.803  1.00  0.00     0.198 A 
ATOM     79  C   UNL A   1      39.515  34.023  33.686  1.00  0.00     0.198 A 
ATOM     80  F   UNL A   1      41.475  34.303  32.407  1.00  0.00    -0.203 F 
ATOM     81  F   UNL A   1      37.534  31.072  34.371  1.00  0.00    -0.200 F 
ATOM     82  C   UNL A   1      38.550  33.196  34.245  1.00  0.00     0.200 A 
ATOM     83  F   UNL A   1      39.625  35.286  34.124  1.00  0.00    -0.200 F 
ATOM     84  F   UNL A   1      37.784  33.636  35.254  1.00  0.00    -0.200 F 
ENDBRANCH  50  74
BRANCH  62  85
ATOM     85  C   UNL A   1      44.276  26.074  33.690  1.00  0.00     0.064 A 
ATOM     86  C   UNL A   1      43.330  25.370  34.445  1.00  0.00     0.173 A 
ATOM     87  C   UNL A   1      45.630  25.752  33.927  1.00  0.00     0.173 A 
ATOM     88  F   UNL A   1      42.028  25.690  34.388  1.00  0.00    -0.203 F 
ATOM     89  C   UNL A   1      43.702  24.317  35.277  1.00  0.00     0.198 A 
ATOM     90  C   UNL A   1      46.004  24.758  34.820  1.00  0.00     0.198 A 
ATOM     91  F   UNL A   1      46.631  26.356  33.273  1.00  0.00    -0.203 F 
ATOM     92  F   UNL A   1      42.758  23.589  35.885  1.00  0.00    -0.200 F 
ATOM     93  C   UNL A   1      45.039  24.012  35.466  1.00  0.00     0.200 A 
ATOM     94  F   UNL A   1      47.304  24.508  35.028  1.00  0.00    -0.200 F 
ATOM     95  F   UNL A   1      45.396  22.998  36.262  1.00  0.00    -0.200 F 
ENDBRANCH  62  85
ENDBRANCH  36  37
ENDBRANCH  29  31
ENDBRANCH  28  29
ENDBRANCH  27  28
ENDBRANCH  26  27
ENDBRANCH  25  26
ENDBRANCH  24  25
ENDBRANCH   1  24
TORSDOF 20
ENDMDL
