MODEL 1
REMARK VINA RESULT:     -11.6      0.000      0.000
REMARK SMILES C[C@H]1[C@H](C(=O)OCCOCCOC(=O)c2ccc(-c3c4nc(c(-c5c(F)c(F)c(F)c(F)c5F)c5ccc([nH]5)c(-c5c(F)c(F)c(F)c(F)c5F)c5nc(c(-c6c(F)c(F)c(F)c(F)c6F)c6ccc3[nH]6)C=C5)C=C4)cc2)CC[N@@H+]1CC(=O)N1CCCC1
REMARK SMILES IDX 9 1 8 2 7 3 6 4 4 5 5 6 3 7 1 8 2 9 80 10 78 11 79 12 81 14
REMARK SMILES IDX 82 15 83 16 84 17 85 18 88 19 86 20 87 21 10 22 11 23 12 24
REMARK SMILES IDX 13 25 14 26 15 27 16 28 77 29 17 30 76 31 18 32 19 33 20 34
REMARK SMILES IDX 70 35 21 36 75 37 69 38 71 39 22 40 74 41 68 42 67 43 23 45
REMARK SMILES IDX 55 46 35 47 54 48 36 49 39 50 53 51 72 52 37 53 38 54 52 56
REMARK SMILES IDX 73 57 40 58 24 59 25 60 33 61 26 62 27 63 31 64 34 65 28 66
REMARK SMILES IDX 29 67 32 68 30 69 56 70 57 71 65 72 58 73 59 74 63 75 66 76
REMARK SMILES IDX 60 77 61 78 64 79 62 80 41 81 42 82 50 83 43 84 44 85 48 86
REMARK SMILES IDX 51 87 45 88 46 89 49 90 47 91
REMARK H PARENT 80 13 71 44 39 55
REMARK Flexibility Score: inf
ROOT
ATOM      1  O   UNL A   1      32.087  30.355  25.842  1.00  0.00    -0.374 OA
ENDROOT
BRANCH   1   2
ATOM      2  C   UNL A   1      31.559  29.072  25.508  1.00  0.00     0.202 C 
BRANCH   2   3
ATOM      3  C   UNL A   1      32.593  28.004  25.091  1.00  0.00     0.261 C 
BRANCH   3   4
ATOM      4  O   UNL A   1      32.860  26.994  26.093  1.00  0.00    -0.463 OA
BRANCH   4   5
ATOM      5  C   UNL A   1      32.082  25.877  26.065  1.00  0.00     0.315 C 
ATOM      6  O   UNL A   1      31.194  25.638  26.875  1.00  0.00    -0.252 OA
BRANCH   5   7
ATOM      7  C   UNL A   1      32.377  24.952  24.896  1.00  0.00     0.162 C 
ATOM      8  C   UNL A   1      34.804  24.214  24.820  1.00  0.00     0.076 C 
ATOM      9  C   UNL A   1      33.376  23.828  25.204  1.00  0.00     0.195 C 
ATOM     10  N   UNL A   1      32.939  22.675  24.402  1.00  0.00    -0.324 N 
ATOM     11  C   UNL A   1      31.175  24.227  24.304  1.00  0.00     0.083 C 
ATOM     12  C   UNL A   1      31.830  23.083  23.546  1.00  0.00     0.264 C 
ATOM     13  H   UNL A   1      33.726  22.420  23.805  1.00  0.00     0.348 HD
BRANCH  10  14
ATOM     14  C   UNL A   1      32.810  21.370  25.075  1.00  0.00     0.364 C 
BRANCH  14  15
ATOM     15  C   UNL A   1      33.927  20.322  24.852  1.00  0.00     0.277 C 
ATOM     16  O   UNL A   1      35.079  20.537  25.243  1.00  0.00    -0.268 OA
ATOM     17  N   UNL A   1      33.596  19.114  24.280  1.00  0.00    -0.338 N 
ATOM     18  C   UNL A   1      32.376  18.809  23.599  1.00  0.00     0.119 C 
ATOM     19  C   UNL A   1      34.475  17.963  24.295  1.00  0.00     0.119 C 
ATOM     20  C   UNL A   1      32.685  17.638  22.699  1.00  0.00     0.023 C 
ATOM     21  C   UNL A   1      34.025  17.093  23.135  1.00  0.00     0.023 C 
ENDBRANCH  14  15
ENDBRANCH  10  14
ENDBRANCH   5   7
ENDBRANCH   4   5
ENDBRANCH   3   4
ENDBRANCH   2   3
ENDBRANCH   1   2
BRANCH   1  22
ATOM     22  C   UNL A   1      31.114  31.373  26.068  1.00  0.00     0.202 C 
BRANCH  22  23
ATOM     23  C   UNL A   1      31.668  32.569  26.843  1.00  0.00     0.261 C 
BRANCH  23  24
ATOM     24  O   UNL A   1      32.824  32.156  27.614  1.00  0.00    -0.460 OA
BRANCH  24  25
ATOM     25  C   UNL A   1      33.674  33.133  28.004  1.00  0.00     0.338 C 
ATOM     26  O   UNL A   1      33.409  34.313  28.168  1.00  0.00    -0.246 OA
BRANCH  25  27
ATOM     27  C   UNL A   1      35.003  32.558  28.338  1.00  0.00     0.060 A 
ATOM     28  C   UNL A   1      35.060  31.183  28.594  1.00  0.00     0.016 A 
ATOM     29  C   UNL A   1      36.175  33.323  28.403  1.00  0.00     0.016 A 
ATOM     30  C   UNL A   1      36.270  30.578  28.945  1.00  0.00     0.010 A 
ATOM     31  C   UNL A   1      37.392  32.714  28.755  1.00  0.00     0.010 A 
ATOM     32  C   UNL A   1      37.439  31.343  29.068  1.00  0.00    -0.014 A 
BRANCH  32  33
ATOM     33  C   UNL A   1      38.608  30.736  29.766  1.00  0.00     0.031 A 
ATOM     34  C   UNL A   1      38.836  31.108  31.208  1.00  0.00     0.074 A 
ATOM     35  C   UNL A   1      39.398  29.803  29.199  1.00  0.00     0.049 A 
ATOM     36  N   UNL A   1      39.675  30.604  32.077  1.00  0.00    -0.248 NA
ATOM     37  C   UNL A   1      37.992  32.188  31.742  1.00  0.00     0.031 C 
ATOM     38  C   UNL A   1      39.294  29.327  27.827  1.00  0.00     0.029 A 
ATOM     39  N   UNL A   1      40.441  29.075  29.723  1.00  0.00    -0.354 N 
ATOM     40  C   UNL A   1      39.439  31.285  33.263  1.00  0.00     0.074 A 
ATOM     41  C   UNL A   1      38.421  32.276  32.990  1.00  0.00     0.031 C 
ATOM     42  C   UNL A   1      40.227  28.384  27.610  1.00  0.00     0.029 A 
ATOM     43  C   UNL A   1      41.001  28.188  28.834  1.00  0.00     0.049 A 
ATOM     44  H   UNL A   1      40.758  29.179  30.649  1.00  0.00     0.167 HD
ATOM     45  C   UNL A   1      39.998  31.091  34.481  1.00  0.00     0.037 A 
ATOM     46  C   UNL A   1      42.015  27.313  28.989  1.00  0.00     0.037 A 
ATOM     47  C   UNL A   1      41.031  30.133  34.762  1.00  0.00     0.049 A 
ATOM     48  C   UNL A   1      42.678  27.172  30.337  1.00  0.00     0.074 A 
ATOM     49  C   UNL A   1      41.660  29.873  35.967  1.00  0.00     0.029 A 
ATOM     50  N   UNL A   1      41.600  29.288  33.822  1.00  0.00    -0.354 N 
ATOM     51  N   UNL A   1      42.397  27.772  31.467  1.00  0.00    -0.248 NA
ATOM     52  C   UNL A   1      43.791  26.214  30.431  1.00  0.00     0.031 C 
ATOM     53  C   UNL A   1      42.647  28.906  35.745  1.00  0.00     0.029 A 
ATOM     54  C   UNL A   1      42.592  28.523  34.415  1.00  0.00     0.049 A 
ATOM     55  H   UNL A   1      41.339  29.239  32.875  1.00  0.00     0.167 HD
ATOM     56  C   UNL A   1      43.269  27.238  32.411  1.00  0.00     0.074 A 
ATOM     57  C   UNL A   1      44.080  26.257  31.723  1.00  0.00     0.031 C 
ATOM     58  C   UNL A   1      43.385  27.536  33.728  1.00  0.00     0.037 A 
BRANCH  45  59
ATOM     59  C   UNL A   1      39.505  31.962  35.599  1.00  0.00     0.064 A 
ATOM     60  C   UNL A   1      40.040  33.240  35.820  1.00  0.00     0.173 A 
ATOM     61  C   UNL A   1      38.489  31.514  36.454  1.00  0.00     0.173 A 
ATOM     62  F   UNL A   1      41.028  33.704  35.041  1.00  0.00    -0.203 F 
ATOM     63  C   UNL A   1      39.595  34.026  36.880  1.00  0.00     0.198 A 
ATOM     64  C   UNL A   1      38.027  32.315  37.495  1.00  0.00     0.198 A 
ATOM     65  F   UNL A   1      37.947  30.299  36.283  1.00  0.00    -0.203 F 
ATOM     66  F   UNL A   1      40.159  35.220  37.108  1.00  0.00    -0.200 F 
ATOM     67  C   UNL A   1      38.586  33.565  37.712  1.00  0.00     0.200 A 
ATOM     68  F   UNL A   1      37.046  31.872  38.294  1.00  0.00    -0.200 F 
ATOM     69  F   UNL A   1      38.161  34.322  38.733  1.00  0.00    -0.200 F 
ENDBRANCH  45  59
BRANCH  46  70
ATOM     70  C   UNL A   1      42.472  26.476  27.845  1.00  0.00     0.064 A 
ATOM     71  C   UNL A   1      43.475  26.923  26.973  1.00  0.00     0.173 A 
ATOM     72  C   UNL A   1      41.867  25.242  27.562  1.00  0.00     0.173 A 
ATOM     73  F   UNL A   1      44.064  28.109  27.183  1.00  0.00    -0.203 F 
ATOM     74  C   UNL A   1      43.835  26.183  25.847  1.00  0.00     0.198 A 
ATOM     75  C   UNL A   1      42.247  24.491  26.452  1.00  0.00     0.198 A 
ATOM     76  F   UNL A   1      40.898  24.772  28.361  1.00  0.00    -0.203 F 
ATOM     77  F   UNL A   1      44.752  26.664  24.997  1.00  0.00    -0.200 F 
ATOM     78  C   UNL A   1      43.222  24.967  25.589  1.00  0.00     0.200 A 
ATOM     79  F   UNL A   1      41.657  23.312  26.210  1.00  0.00    -0.200 F 
ATOM     80  F   UNL A   1      43.561  24.261  24.501  1.00  0.00    -0.200 F 
ENDBRANCH  46  70
BRANCH  58  81
ATOM     81  C   UNL A   1      44.390  26.761  34.532  1.00  0.00     0.064 A 
ATOM     82  C   UNL A   1      45.704  27.219  34.718  1.00  0.00     0.173 A 
ATOM     83  C   UNL A   1      44.022  25.560  35.159  1.00  0.00     0.173 A 
ATOM     84  F   UNL A   1      46.112  28.354  34.132  1.00  0.00    -0.203 F 
ATOM     85  C   UNL A   1      46.618  26.489  35.475  1.00  0.00     0.198 A 
ATOM     86  C   UNL A   1      44.928  24.850  35.943  1.00  0.00     0.198 A 
ATOM     87  F   UNL A   1      42.776  25.080  35.023  1.00  0.00    -0.203 F 
ATOM     88  F   UNL A   1      47.881  26.920  35.596  1.00  0.00    -0.200 F 
ATOM     89  C   UNL A   1      46.227  25.310  36.092  1.00  0.00     0.200 A 
ATOM     90  F   UNL A   1      44.544  23.719  36.551  1.00  0.00    -0.200 F 
ATOM     91  F   UNL A   1      47.106  24.613  36.826  1.00  0.00    -0.200 F 
ENDBRANCH  58  81
ENDBRANCH  32  33
ENDBRANCH  25  27
ENDBRANCH  24  25
ENDBRANCH  23  24
ENDBRANCH  22  23
ENDBRANCH   1  22
TORSDOF 16
ENDMDL
MODEL 2
REMARK VINA RESULT:     -11.5      1.409      2.843
REMARK SMILES C[C@H]1[C@H](C(=O)OCCOCCOC(=O)c2ccc(-c3c4nc(c(-c5c(F)c(F)c(F)c(F)c5F)c5ccc([nH]5)c(-c5c(F)c(F)c(F)c(F)c5F)c5nc(c(-c6c(F)c(F)c(F)c(F)c6F)c6ccc3[nH]6)C=C5)C=C4)cc2)CC[N@@H+]1CC(=O)N1CCCC1
REMARK SMILES IDX 9 1 8 2 7 3 6 4 4 5 5 6 3 7 1 8 2 9 80 10 78 11 79 12 81 14
REMARK SMILES IDX 82 15 83 16 84 17 85 18 88 19 86 20 87 21 10 22 11 23 12 24
REMARK SMILES IDX 13 25 14 26 15 27 16 28 77 29 17 30 76 31 18 32 19 33 20 34
REMARK SMILES IDX 70 35 21 36 75 37 69 38 71 39 22 40 74 41 68 42 67 43 23 45
REMARK SMILES IDX 55 46 35 47 54 48 36 49 39 50 53 51 72 52 37 53 38 54 52 56
REMARK SMILES IDX 73 57 40 58 24 59 25 60 33 61 26 62 27 63 31 64 34 65 28 66
REMARK SMILES IDX 29 67 32 68 30 69 56 70 57 71 65 72 58 73 59 74 63 75 66 76
REMARK SMILES IDX 60 77 61 78 64 79 62 80 41 81 42 82 50 83 43 84 44 85 48 86
REMARK SMILES IDX 51 87 45 88 46 89 49 90 47 91
REMARK H PARENT 80 13 71 44 39 55
REMARK Flexibility Score: inf
ROOT
ATOM      1  O   UNL A   1      32.192  28.209  26.582  1.00  0.00    -0.374 OA
ENDROOT
BRANCH   1   2
ATOM      2  C   UNL A   1      31.559  26.933  26.509  1.00  0.00     0.202 C 
BRANCH   2   3
ATOM      3  C   UNL A   1      32.447  25.764  26.032  1.00  0.00     0.261 C 
BRANCH   3   4
ATOM      4  O   UNL A   1      31.720  24.596  25.578  1.00  0.00    -0.463 OA
BRANCH   4   5
ATOM      5  C   UNL A   1      31.355  23.691  26.527  1.00  0.00     0.315 C 
ATOM      6  O   UNL A   1      30.375  23.813  27.251  1.00  0.00    -0.252 OA
BRANCH   5   7
ATOM      7  C   UNL A   1      32.253  22.466  26.586  1.00  0.00     0.162 C 
ATOM      8  C   UNL A   1      32.107  21.044  24.489  1.00  0.00     0.076 C 
ATOM      9  C   UNL A   1      32.916  22.092  25.253  1.00  0.00     0.195 C 
ATOM     10  N   UNL A   1      34.235  21.545  25.604  1.00  0.00    -0.324 N 
ATOM     11  C   UNL A   1      33.414  22.541  27.569  1.00  0.00     0.083 C 
ATOM     12  C   UNL A   1      34.341  21.452  27.056  1.00  0.00     0.264 C 
ATOM     13  H   UNL A   1      34.272  20.601  25.220  1.00  0.00     0.348 HD
BRANCH  10  14
ATOM     14  C   UNL A   1      35.414  22.062  24.886  1.00  0.00     0.364 C 
BRANCH  14  15
ATOM     15  C   UNL A   1      36.802  21.483  25.253  1.00  0.00     0.277 C 
ATOM     16  O   UNL A   1      37.041  20.280  25.105  1.00  0.00    -0.268 OA
ATOM     17  N   UNL A   1      37.790  22.346  25.672  1.00  0.00    -0.338 N 
ATOM     18  C   UNL A   1      37.605  23.703  26.084  1.00  0.00     0.119 C 
ATOM     19  C   UNL A   1      39.187  21.973  25.753  1.00  0.00     0.119 C 
ATOM     20  C   UNL A   1      38.794  24.039  26.950  1.00  0.00     0.023 C 
ATOM     21  C   UNL A   1      39.809  22.938  26.747  1.00  0.00     0.023 C 
ENDBRANCH  14  15
ENDBRANCH  10  14
ENDBRANCH   5   7
ENDBRANCH   4   5
ENDBRANCH   3   4
ENDBRANCH   2   3
ENDBRANCH   1   2
BRANCH   1  22
ATOM     22  C   UNL A   1      31.579  29.238  25.809  1.00  0.00     0.202 C 
BRANCH  22  23
ATOM     23  C   UNL A   1      32.159  30.625  26.090  1.00  0.00     0.261 C 
BRANCH  23  24
ATOM     24  O   UNL A   1      32.907  30.597  27.331  1.00  0.00    -0.460 OA
BRANCH  24  25
ATOM     25  C   UNL A   1      33.633  31.699  27.626  1.00  0.00     0.338 C 
ATOM     26  O   UNL A   1      33.228  32.849  27.688  1.00  0.00    -0.246 OA
BRANCH  25  27
ATOM     27  C   UNL A   1      35.020  31.318  27.999  1.00  0.00     0.060 A 
ATOM     28  C   UNL A   1      35.271  29.961  28.234  1.00  0.00     0.016 A 
ATOM     29  C   UNL A   1      36.064  32.246  28.119  1.00  0.00     0.016 A 
ATOM     30  C   UNL A   1      36.545  29.534  28.618  1.00  0.00     0.010 A 
ATOM     31  C   UNL A   1      37.345  31.815  28.505  1.00  0.00     0.010 A 
ATOM     32  C   UNL A   1      37.584  30.459  28.797  1.00  0.00    -0.014 A 
BRANCH  32  33
ATOM     33  C   UNL A   1      38.805  30.015  29.527  1.00  0.00     0.031 A 
ATOM     34  C   UNL A   1      39.005  30.520  30.933  1.00  0.00     0.074 A 
ATOM     35  C   UNL A   1      39.672  29.114  29.026  1.00  0.00     0.049 A 
ATOM     36  N   UNL A   1      39.890  30.163  31.828  1.00  0.00    -0.248 NA
ATOM     37  C   UNL A   1      38.071  31.560  31.389  1.00  0.00     0.031 C 
ATOM     38  C   UNL A   1      39.605  28.523  27.697  1.00  0.00     0.029 A 
ATOM     39  N   UNL A   1      40.778  28.525  29.594  1.00  0.00    -0.354 N 
ATOM     40  C   UNL A   1      39.600  30.912  32.960  1.00  0.00     0.074 A 
ATOM     41  C   UNL A   1      38.496  31.784  32.622  1.00  0.00     0.031 C 
ATOM     42  C   UNL A   1      40.617  27.652  27.544  1.00  0.00     0.029 A 
ATOM     43  C   UNL A   1      41.411  27.623  28.770  1.00  0.00     0.049 A 
ATOM     44  H   UNL A   1      41.089  28.730  30.504  1.00  0.00     0.167 HD
ATOM     45  C   UNL A   1      40.179  30.866  34.183  1.00  0.00     0.037 A 
ATOM     46  C   UNL A   1      42.500  26.857  28.982  1.00  0.00     0.037 A 
ATOM     47  C   UNL A   1      41.295  30.029  34.527  1.00  0.00     0.049 A 
ATOM     48  C   UNL A   1      43.180  26.883  30.329  1.00  0.00     0.074 A 
ATOM     49  C   UNL A   1      41.951  29.921  35.741  1.00  0.00     0.029 A 
ATOM     50  N   UNL A   1      41.933  29.165  33.649  1.00  0.00    -0.354 N 
ATOM     51  N   UNL A   1      42.852  27.543  31.412  1.00  0.00    -0.248 NA
ATOM     52  C   UNL A   1      44.374  26.037  30.485  1.00  0.00     0.031 C 
ATOM     53  C   UNL A   1      43.019  29.031  35.584  1.00  0.00     0.029 A 
ATOM     54  C   UNL A   1      42.992  28.541  34.289  1.00  0.00     0.049 A 
ATOM     55  H   UNL A   1      41.673  29.018  32.712  1.00  0.00     0.167 HD
ATOM     56  C   UNL A   1      43.772  27.166  32.384  1.00  0.00     0.074 A 
ATOM     57  C   UNL A   1      44.664  26.208  31.767  1.00  0.00     0.031 C 
ATOM     58  C   UNL A   1      43.867  27.576  33.673  1.00  0.00     0.037 A 
BRANCH  45  59
ATOM     59  C   UNL A   1      39.616  31.775  35.234  1.00  0.00     0.064 A 
ATOM     60  C   UNL A   1      38.642  31.330  36.140  1.00  0.00     0.173 A 
ATOM     61  C   UNL A   1      40.054  33.103  35.336  1.00  0.00     0.173 A 
ATOM     62  F   UNL A   1      38.176  30.074  36.070  1.00  0.00    -0.203 F 
ATOM     63  C   UNL A   1      38.103  32.193  37.091  1.00  0.00     0.198 A 
ATOM     64  C   UNL A   1      39.535  33.954  36.307  1.00  0.00     0.198 A 
ATOM     65  F   UNL A   1      40.983  33.575  34.491  1.00  0.00    -0.203 F 
ATOM     66  F   UNL A   1      37.134  31.763  37.910  1.00  0.00    -0.200 F 
ATOM     67  C   UNL A   1      38.554  33.502  37.176  1.00  0.00     0.200 A 
ATOM     68  F   UNL A   1      39.977  35.217  36.394  1.00  0.00    -0.200 F 
ATOM     69  F   UNL A   1      38.034  34.332  38.091  1.00  0.00    -0.200 F 
ENDBRANCH  45  59
BRANCH  46  70
ATOM     70  C   UNL A   1      43.025  25.976  27.902  1.00  0.00     0.064 A 
ATOM     71  C   UNL A   1      42.759  24.599  27.893  1.00  0.00     0.173 A 
ATOM     72  C   UNL A   1      43.858  26.483  26.894  1.00  0.00     0.173 A 
ATOM     73  F   UNL A   1      41.991  24.060  28.852  1.00  0.00    -0.203 F 
ATOM     74  C   UNL A   1      43.329  23.760  26.937  1.00  0.00     0.198 A 
ATOM     75  C   UNL A   1      44.405  25.648  25.922  1.00  0.00     0.198 A 
ATOM     76  F   UNL A   1      44.149  27.792  26.861  1.00  0.00    -0.203 F 
ATOM     77  F   UNL A   1      43.108  22.440  26.990  1.00  0.00    -0.200 F 
ATOM     78  C   UNL A   1      44.150  24.286  25.951  1.00  0.00     0.200 A 
ATOM     79  F   UNL A   1      45.193  26.161  24.967  1.00  0.00    -0.200 F 
ATOM     80  F   UNL A   1      44.706  23.478  25.038  1.00  0.00    -0.200 F 
ENDBRANCH  46  70
BRANCH  58  81
ATOM     81  C   UNL A   1      44.941  26.959  34.524  1.00  0.00     0.064 A 
ATOM     82  C   UNL A   1      46.249  27.468  34.551  1.00  0.00     0.173 A 
ATOM     83  C   UNL A   1      44.647  25.866  35.354  1.00  0.00     0.173 A 
ATOM     84  F   UNL A   1      46.587  28.504  33.769  1.00  0.00    -0.203 F 
ATOM     85  C   UNL A   1      47.227  26.887  35.354  1.00  0.00     0.198 A 
ATOM     86  C   UNL A   1      45.619  25.308  36.180  1.00  0.00     0.198 A 
ATOM     87  F   UNL A   1      43.410  25.345  35.374  1.00  0.00    -0.203 F 
ATOM     88  F   UNL A   1      48.482  27.357  35.325  1.00  0.00    -0.200 F 
ATOM     89  C   UNL A   1      46.910  25.813  36.173  1.00  0.00     0.200 A 
ATOM     90  F   UNL A   1      45.306  24.281  36.982  1.00  0.00    -0.200 F 
ATOM     91  F   UNL A   1      47.851  25.259  36.950  1.00  0.00    -0.200 F 
ENDBRANCH  58  81
ENDBRANCH  32  33
ENDBRANCH  25  27
ENDBRANCH  24  25
ENDBRANCH  23  24
ENDBRANCH  22  23
ENDBRANCH   1  22
TORSDOF 16
ENDMDL
MODEL 3
REMARK VINA RESULT:     -11.4      4.432     10.206
REMARK SMILES C[C@H]1[C@H](C(=O)OCCOCCOC(=O)c2ccc(-c3c4nc(c(-c5c(F)c(F)c(F)c(F)c5F)c5ccc([nH]5)c(-c5c(F)c(F)c(F)c(F)c5F)c5nc(c(-c6c(F)c(F)c(F)c(F)c6F)c6ccc3[nH]6)C=C5)C=C4)cc2)CC[N@@H+]1CC(=O)N1CCCC1
REMARK SMILES IDX 9 1 8 2 7 3 6 4 4 5 5 6 3 7 1 8 2 9 80 10 78 11 79 12 81 14
REMARK SMILES IDX 82 15 83 16 84 17 85 18 88 19 86 20 87 21 10 22 11 23 12 24
REMARK SMILES IDX 13 25 14 26 15 27 16 28 77 29 17 30 76 31 18 32 19 33 20 34
REMARK SMILES IDX 70 35 21 36 75 37 69 38 71 39 22 40 74 41 68 42 67 43 23 45
REMARK SMILES IDX 55 46 35 47 54 48 36 49 39 50 53 51 72 52 37 53 38 54 52 56
REMARK SMILES IDX 73 57 40 58 24 59 25 60 33 61 26 62 27 63 31 64 34 65 28 66
REMARK SMILES IDX 29 67 32 68 30 69 56 70 57 71 65 72 58 73 59 74 63 75 66 76
REMARK SMILES IDX 60 77 61 78 64 79 62 80 41 81 42 82 50 83 43 84 44 85 48 86
REMARK SMILES IDX 51 87 45 88 46 89 49 90 47 91
REMARK H PARENT 80 13 71 44 39 55
REMARK Flexibility Score: inf
ROOT
ATOM      1  O   UNL A   1      35.697  21.578  25.998  1.00  0.00    -0.374 OA
ENDROOT
BRANCH   1   2
ATOM      2  C   UNL A   1      34.436  21.432  26.651  1.00  0.00     0.202 C 
BRANCH   2   3
ATOM      3  C   UNL A   1      33.189  21.608  25.759  1.00  0.00     0.261 C 
BRANCH   3   4
ATOM      4  O   UNL A   1      32.159  22.459  26.317  1.00  0.00    -0.463 OA
BRANCH   4   5
ATOM      5  C   UNL A   1      31.864  23.599  25.634  1.00  0.00     0.315 C 
ATOM      6  O   UNL A   1      31.039  23.665  24.732  1.00  0.00    -0.252 OA
BRANCH   5   7
ATOM      7  C   UNL A   1      32.623  24.822  26.123  1.00  0.00     0.162 C 
ATOM      8  C   UNL A   1      35.049  24.830  25.376  1.00  0.00     0.076 C 
ATOM      9  C   UNL A   1      33.646  25.382  25.124  1.00  0.00     0.195 C 
ATOM     10  N   UNL A   1      33.641  26.839  25.324  1.00  0.00    -0.324 N 
ATOM     11  C   UNL A   1      31.770  26.028  26.495  1.00  0.00     0.083 C 
ATOM     12  C   UNL A   1      32.782  27.161  26.458  1.00  0.00     0.264 C 
ATOM     13  H   UNL A   1      34.597  27.105  25.561  1.00  0.00     0.348 HD
BRANCH  10  14
ATOM     14  C   UNL A   1      33.519  27.702  24.135  1.00  0.00     0.364 C 
BRANCH  14  15
ATOM     15  C   UNL A   1      32.324  27.461  23.181  1.00  0.00     0.277 C 
ATOM     16  O   UNL A   1      32.383  26.591  22.306  1.00  0.00    -0.268 OA
ATOM     17  N   UNL A   1      31.166  28.180  23.376  1.00  0.00    -0.338 N 
ATOM     18  C   UNL A   1      31.023  29.344  24.195  1.00  0.00     0.119 C 
ATOM     19  C   UNL A   1      29.905  27.836  22.752  1.00  0.00     0.119 C 
ATOM     20  C   UNL A   1      29.810  30.073  23.672  1.00  0.00     0.023 C 
ATOM     21  C   UNL A   1      29.091  29.117  22.748  1.00  0.00     0.023 C 
ENDBRANCH  14  15
ENDBRANCH  10  14
ENDBRANCH   5   7
ENDBRANCH   4   5
ENDBRANCH   3   4
ENDBRANCH   2   3
ENDBRANCH   1   2
BRANCH   1  22
ATOM     22  C   UNL A   1      35.986  20.595  25.007  1.00  0.00     0.202 C 
BRANCH  22  23
ATOM     23  C   UNL A   1      37.474  20.252  24.921  1.00  0.00     0.261 C 
BRANCH  23  24
ATOM     24  O   UNL A   1      38.262  21.403  25.315  1.00  0.00    -0.460 OA
BRANCH  24  25
ATOM     25  C   UNL A   1      39.352  21.159  26.078  1.00  0.00     0.338 C 
ATOM     26  O   UNL A   1      39.996  20.123  26.126  1.00  0.00    -0.246 OA
BRANCH  25  27
ATOM     27  C   UNL A   1      39.767  22.392  26.795  1.00  0.00     0.060 A 
ATOM     28  C   UNL A   1      39.085  23.574  26.484  1.00  0.00     0.016 A 
ATOM     29  C   UNL A   1      40.790  22.415  27.752  1.00  0.00     0.016 A 
ATOM     30  C   UNL A   1      39.441  24.779  27.097  1.00  0.00     0.010 A 
ATOM     31  C   UNL A   1      41.147  23.627  28.369  1.00  0.00     0.010 A 
ATOM     32  C   UNL A   1      40.500  24.825  28.015  1.00  0.00    -0.014 A 
BRANCH  32  33
ATOM     33  C   UNL A   1      41.063  26.158  28.376  1.00  0.00     0.031 A 
ATOM     34  C   UNL A   1      42.471  26.469  27.938  1.00  0.00     0.074 A 
ATOM     35  C   UNL A   1      40.338  27.120  28.979  1.00  0.00     0.049 A 
ATOM     36  N   UNL A   1      43.128  27.599  27.985  1.00  0.00    -0.248 NA
ATOM     37  C   UNL A   1      43.232  25.352  27.359  1.00  0.00     0.031 C 
ATOM     38  C   UNL A   1      38.966  26.981  29.444  1.00  0.00     0.029 A 
ATOM     39  N   UNL A   1      40.661  28.422  29.289  1.00  0.00    -0.354 N 
ATOM     40  C   UNL A   1      44.367  27.335  27.416  1.00  0.00     0.074 A 
ATOM     41  C   UNL A   1      44.392  25.927  27.085  1.00  0.00     0.031 C 
ATOM     42  C   UNL A   1      38.554  28.144  29.976  1.00  0.00     0.029 A 
ATOM     43  C   UNL A   1      39.640  29.118  29.892  1.00  0.00     0.049 A 
ATOM     44  H   UNL A   1      41.541  28.818  29.098  1.00  0.00     0.167 HD
ATOM     45  C   UNL A   1      45.387  28.189  27.166  1.00  0.00     0.037 A 
ATOM     46  C   UNL A   1      39.583  30.395  30.320  1.00  0.00     0.037 A 
ATOM     47  C   UNL A   1      45.391  29.582  27.517  1.00  0.00     0.049 A 
ATOM     48  C   UNL A   1      40.765  31.308  30.104  1.00  0.00     0.074 A 
ATOM     49  C   UNL A   1      46.386  30.521  27.307  1.00  0.00     0.029 A 
ATOM     50  N   UNL A   1      44.355  30.234  28.167  1.00  0.00    -0.354 N 
ATOM     51  N   UNL A   1      41.902  31.064  29.501  1.00  0.00    -0.248 NA
ATOM     52  C   UNL A   1      40.643  32.682  30.614  1.00  0.00     0.031 C 
ATOM     53  C   UNL A   1      45.972  31.730  27.877  1.00  0.00     0.029 A 
ATOM     54  C   UNL A   1      44.697  31.559  28.390  1.00  0.00     0.049 A 
ATOM     55  H   UNL A   1      43.503  29.819  28.432  1.00  0.00     0.167 HD
ATOM     56  C   UNL A   1      42.613  32.259  29.526  1.00  0.00     0.074 A 
ATOM     57  C   UNL A   1      41.773  33.232  30.191  1.00  0.00     0.031 C 
ATOM     58  C   UNL A   1      43.850  32.526  29.039  1.00  0.00     0.037 A 
BRANCH  45  59
ATOM     59  C   UNL A   1      46.599  27.617  26.493  1.00  0.00     0.064 A 
ATOM     60  C   UNL A   1      47.657  27.068  27.235  1.00  0.00     0.173 A 
ATOM     61  C   UNL A   1      46.704  27.616  25.096  1.00  0.00     0.173 A 
ATOM     62  F   UNL A   1      47.612  27.064  28.576  1.00  0.00    -0.203 F 
ATOM     63  C   UNL A   1      48.791  26.568  26.600  1.00  0.00     0.198 A 
ATOM     64  C   UNL A   1      47.826  27.089  24.463  1.00  0.00     0.198 A 
ATOM     65  F   UNL A   1      45.719  28.131  24.343  1.00  0.00    -0.203 F 
ATOM     66  F   UNL A   1      49.813  26.100  27.329  1.00  0.00    -0.200 F 
ATOM     67  C   UNL A   1      48.871  26.574  25.215  1.00  0.00     0.200 A 
ATOM     68  F   UNL A   1      47.900  27.088  23.125  1.00  0.00    -0.200 F 
ATOM     69  F   UNL A   1      49.964  26.094  24.605  1.00  0.00    -0.200 F 
ENDBRANCH  45  59
BRANCH  46  70
ATOM     70  C   UNL A   1      38.358  30.913  30.990  1.00  0.00     0.064 A 
ATOM     71  C   UNL A   1      37.278  31.411  30.247  1.00  0.00     0.173 A 
ATOM     72  C   UNL A   1      38.271  30.982  32.389  1.00  0.00     0.173 A 
ATOM     73  F   UNL A   1      37.324  31.395  28.907  1.00  0.00    -0.203 F 
ATOM     74  C   UNL A   1      36.172  31.983  30.875  1.00  0.00     0.198 A 
ATOM     75  C   UNL A   1      37.153  31.529  33.016  1.00  0.00     0.198 A 
ATOM     76  F   UNL A   1      39.279  30.525  33.146  1.00  0.00    -0.203 F 
ATOM     77  F   UNL A   1      35.183  32.508  30.139  1.00  0.00    -0.200 F 
ATOM     78  C   UNL A   1      36.110  32.040  32.259  1.00  0.00     0.200 A 
ATOM     79  F   UNL A   1      37.094  31.576  34.354  1.00  0.00    -0.200 F 
ATOM     80  F   UNL A   1      35.052  32.600  32.862  1.00  0.00    -0.200 F 
ENDBRANCH  46  70
BRANCH  58  81
ATOM     81  C   UNL A   1      44.358  33.935  29.160  1.00  0.00     0.064 A 
ATOM     82  C   UNL A   1      45.109  34.360  30.267  1.00  0.00     0.173 A 
ATOM     83  C   UNL A   1      44.123  34.863  28.134  1.00  0.00     0.173 A 
ATOM     84  F   UNL A   1      45.353  33.517  31.281  1.00  0.00    -0.203 F 
ATOM     85  C   UNL A   1      45.578  35.669  30.355  1.00  0.00     0.198 A 
ATOM     86  C   UNL A   1      44.622  36.161  28.209  1.00  0.00     0.198 A 
ATOM     87  F   UNL A   1      43.418  34.508  27.048  1.00  0.00    -0.203 F 
ATOM     88  F   UNL A   1      46.249  36.066  31.444  1.00  0.00    -0.200 F 
ATOM     89  C   UNL A   1      45.341  36.565  29.323  1.00  0.00     0.200 A 
ATOM     90  F   UNL A   1      44.405  37.021  27.204  1.00  0.00    -0.200 F 
ATOM     91  F   UNL A   1      45.799  37.822  29.407  1.00  0.00    -0.200 F 
ENDBRANCH  58  81
ENDBRANCH  32  33
ENDBRANCH  25  27
ENDBRANCH  24  25
ENDBRANCH  23  24
ENDBRANCH  22  23
ENDBRANCH   1  22
TORSDOF 16
ENDMDL
