MODEL 1
REMARK VINA RESULT:     -10.0      0.000      0.000
REMARK SMILES CC[C@@H]1CCCC[C@@H]1OCC[C@@H]1CCC[C@]1([NH2+]C)C(=O)OCCOCCOC(=O)c1ccc(-c2c3nc(c(-c4c(F)c(F)c(F)c(F)c4F)c4ccc([nH]4)c(-c4c(F)c(F)c(F)c(F)c4F)c4nc(c(-c5c(F)c(F)c(F)c(F)c5F)c5ccc2[nH]5)C=C4)C=C3)cc1
REMARK SMILES IDX 22 1 21 2 19 3 20 4 16 5 12 6 13 7 14 8 15 9 11 10 10 11
REMARK SMILES IDX 9 12 8 13 3 14 4 15 5 16 7 17 6 18 2 19 1 20 17 21 18 22
REMARK SMILES IDX 23 25 24 26 25 27 26 28 27 29 28 30 29 31 30 32 31 33 92 34
REMARK SMILES IDX 32 35 91 36 33 37 34 38 35 39 85 40 36 41 90 42 84 43 86 44
REMARK SMILES IDX 37 45 89 46 83 47 82 48 38 50 70 51 50 52 69 53 51 54 54 55
REMARK SMILES IDX 68 56 87 57 52 58 53 59 67 61 88 62 55 63 39 64 40 65 48 66
REMARK SMILES IDX 41 67 42 68 46 69 49 70 43 71 44 72 47 73 45 74 71 75 72 76
REMARK SMILES IDX 80 77 73 78 74 79 78 80 81 81 75 82 76 83 79 84 77 85 56 86
REMARK SMILES IDX 57 87 65 88 58 89 59 90 63 91 66 92 60 93 61 94 64 95 62 96
REMARK H PARENT 17 23 17 24 86 49 54 60
REMARK Flexibility Score: inf
ROOT
ATOM      1  C   UNL A   1      33.562  28.520  26.854  1.00  0.00     0.261 C 
ENDROOT
BRANCH   1   2
ATOM      2  O   UNL A   1      33.576  27.857  25.577  1.00  0.00    -0.459 OA
BRANCH   2   3
ATOM      3  C   UNL A   1      32.534  28.168  24.754  1.00  0.00     0.368 C 
ATOM      4  O   UNL A   1      32.266  29.309  24.392  1.00  0.00    -0.245 OA
BRANCH   3   5
ATOM      5  C   UNL A   1      31.669  26.927  24.402  1.00  0.00     0.197 C 
ATOM      6  C   UNL A   1      31.916  26.269  23.005  1.00  0.00     0.065 C 
ATOM      7  C   UNL A   1      31.182  27.161  21.998  1.00  0.00     0.011 C 
ATOM      8  C   UNL A   1      30.021  27.775  22.766  1.00  0.00     0.008 C 
ATOM      9  C   UNL A   1      30.190  27.369  24.231  1.00  0.00     0.081 C 
BRANCH   6  10
ATOM     10  C   UNL A   1      33.325  25.871  22.501  1.00  0.00     0.039 C 
BRANCH  10  11
ATOM     11  C   UNL A   1      33.895  24.496  22.893  1.00  0.00     0.161 C 
BRANCH  11  12
ATOM     12  O   UNL A   1      33.712  24.082  24.258  1.00  0.00    -0.378 OA
BRANCH  12  13
ATOM     13  C   UNL A   1      34.300  22.828  24.592  1.00  0.00     0.121 C 
ATOM     14  C   UNL A   1      34.886  22.766  26.019  1.00  0.00     0.018 C 
ATOM     15  C   UNL A   1      36.271  23.418  26.128  1.00  0.00     0.006 C 
ATOM     16  C   UNL A   1      37.226  22.906  25.057  1.00  0.00     0.000 C 
ATOM     17  C   UNL A   1      35.324  22.476  23.498  1.00  0.00     0.032 C 
ATOM     18  C   UNL A   1      36.663  23.181  23.673  1.00  0.00     0.003 C 
BRANCH  14  19
ATOM     19  C   UNL A   1      33.959  23.336  27.113  1.00  0.00     0.003 C 
ATOM     20  C   UNL A   1      32.755  22.463  27.433  1.00  0.00     0.004 C 
ENDBRANCH  14  19
ENDBRANCH  12  13
ENDBRANCH  11  12
ENDBRANCH  10  11
ENDBRANCH   6  10
BRANCH   5  21
ATOM     21  N   UNL A   1      31.777  25.922  25.492  1.00  0.00    -0.334 N 
ATOM     22  C   UNL A   1      30.501  25.482  26.050  1.00  0.00     0.331 C 
ATOM     23  H   UNL A   1      32.327  26.332  26.246  1.00  0.00     0.347 HD
ATOM     24  H   UNL A   1      32.208  25.097  25.078  1.00  0.00     0.347 HD
ENDBRANCH   5  21
ENDBRANCH   3   5
ENDBRANCH   2   3
ENDBRANCH   1   2
BRANCH   1  25
ATOM     25  C   UNL A   1      34.689  29.550  26.979  1.00  0.00     0.202 C 
BRANCH  25  26
ATOM     26  O   UNL A   1      34.304  30.890  27.293  1.00  0.00    -0.374 OA
BRANCH  26  27
ATOM     27  C   UNL A   1      32.908  31.108  27.483  1.00  0.00     0.202 C 
BRANCH  27  28
ATOM     28  C   UNL A   1      32.401  32.527  27.222  1.00  0.00     0.261 C 
BRANCH  28  29
ATOM     29  O   UNL A   1      33.479  33.472  27.309  1.00  0.00    -0.460 OA
BRANCH  29  30
ATOM     30  C   UNL A   1      33.381  34.315  28.359  1.00  0.00     0.338 C 
ATOM     31  O   UNL A   1      32.487  35.121  28.580  1.00  0.00    -0.246 OA
BRANCH  30  32
ATOM     32  C   UNL A   1      34.427  34.009  29.349  1.00  0.00     0.060 A 
ATOM     33  C   UNL A   1      35.753  34.191  28.936  1.00  0.00     0.016 A 
ATOM     34  C   UNL A   1      34.138  33.515  30.624  1.00  0.00     0.016 A 
ATOM     35  C   UNL A   1      36.797  33.788  29.757  1.00  0.00     0.010 A 
ATOM     36  C   UNL A   1      35.190  33.109  31.450  1.00  0.00     0.010 A 
ATOM     37  C   UNL A   1      36.517  33.191  30.993  1.00  0.00    -0.014 A 
BRANCH  37  38
ATOM     38  C   UNL A   1      37.608  32.481  31.695  1.00  0.00     0.031 A 
ATOM     39  C   UNL A   1      38.272  31.322  31.004  1.00  0.00     0.074 A 
ATOM     40  C   UNL A   1      38.049  32.912  32.889  1.00  0.00     0.049 A 
ATOM     41  N   UNL A   1      39.262  30.567  31.408  1.00  0.00    -0.248 NA
ATOM     42  C   UNL A   1      37.751  30.967  29.673  1.00  0.00     0.031 C 
ATOM     43  C   UNL A   1      37.506  34.052  33.625  1.00  0.00     0.029 A 
ATOM     44  N   UNL A   1      39.059  32.442  33.688  1.00  0.00    -0.354 N 
ATOM     45  C   UNL A   1      39.474  29.648  30.387  1.00  0.00     0.074 A 
ATOM     46  C   UNL A   1      38.489  29.912  29.363  1.00  0.00     0.031 C 
ATOM     47  C   UNL A   1      38.190  34.195  34.772  1.00  0.00     0.029 A 
ATOM     48  C   UNL A   1      39.195  33.137  34.864  1.00  0.00     0.049 A 
ATOM     49  H   UNL A   1      39.632  31.681  33.442  1.00  0.00     0.167 HD
ATOM     50  C   UNL A   1      40.418  28.681  30.309  1.00  0.00     0.037 A 
ATOM     51  C   UNL A   1      40.027  32.924  35.901  1.00  0.00     0.037 A 
ATOM     52  C   UNL A   1      41.397  28.431  31.333  1.00  0.00     0.049 A 
ATOM     53  C   UNL A   1      41.020  31.794  35.821  1.00  0.00     0.074 A 
ATOM     54  C   UNL A   1      42.411  27.492  31.348  1.00  0.00     0.029 A 
ATOM     55  N   UNL A   1      41.475  29.125  32.533  1.00  0.00    -0.354 N 
ATOM     56  N   UNL A   1      41.237  30.948  34.841  1.00  0.00    -0.248 NA
ATOM     57  C   UNL A   1      41.887  31.591  36.988  1.00  0.00     0.031 C 
ATOM     58  C   UNL A   1      43.063  27.574  32.582  1.00  0.00     0.029 A 
ATOM     59  C   UNL A   1      42.499  28.610  33.311  1.00  0.00     0.049 A 
ATOM     60  H   UNL A   1      40.888  29.873  32.792  1.00  0.00     0.167 HD
ATOM     61  C   UNL A   1      42.278  30.132  35.262  1.00  0.00     0.074 A 
ATOM     62  C   UNL A   1      42.664  30.598  36.578  1.00  0.00     0.031 C 
ATOM     63  C   UNL A   1      42.865  29.091  34.620  1.00  0.00     0.037 A 
BRANCH  50  64
ATOM     64  C   UNL A   1      40.415  27.803  29.090  1.00  0.00     0.064 A 
ATOM     65  C   UNL A   1      41.180  28.107  27.953  1.00  0.00     0.173 A 
ATOM     66  C   UNL A   1      39.655  26.623  29.069  1.00  0.00     0.173 A 
ATOM     67  F   UNL A   1      41.914  29.230  27.914  1.00  0.00    -0.203 F 
ATOM     68  C   UNL A   1      41.162  27.280  26.833  1.00  0.00     0.198 A 
ATOM     69  C   UNL A   1      39.664  25.781  27.961  1.00  0.00     0.198 A 
ATOM     70  F   UNL A   1      38.906  26.282  30.130  1.00  0.00    -0.203 F 
ATOM     71  F   UNL A   1      41.860  27.618  25.740  1.00  0.00    -0.200 F 
ATOM     72  C   UNL A   1      40.411  26.114  26.841  1.00  0.00     0.200 A 
ATOM     73  F   UNL A   1      38.948  24.649  27.975  1.00  0.00    -0.200 F 
ATOM     74  F   UNL A   1      40.399  25.314  25.765  1.00  0.00    -0.200 F 
ENDBRANCH  50  64
BRANCH  51  75
ATOM     75  C   UNL A   1      39.948  33.793  37.105  1.00  0.00     0.064 A 
ATOM     76  C   UNL A   1      40.705  34.969  37.204  1.00  0.00     0.173 A 
ATOM     77  C   UNL A   1      39.122  33.458  38.188  1.00  0.00     0.173 A 
ATOM     78  F   UNL A   1      41.528  35.321  36.205  1.00  0.00    -0.203 F 
ATOM     79  C   UNL A   1      40.652  35.765  38.346  1.00  0.00     0.198 A 
ATOM     80  C   UNL A   1      39.045  34.271  39.316  1.00  0.00     0.198 A 
ATOM     81  F   UNL A   1      38.377  32.342  38.145  1.00  0.00    -0.203 F 
ATOM     82  F   UNL A   1      41.422  36.857  38.434  1.00  0.00    -0.200 F 
ATOM     83  C   UNL A   1      39.817  35.419  39.398  1.00  0.00     0.200 A 
ATOM     84  F   UNL A   1      38.226  33.940  40.323  1.00  0.00    -0.200 F 
ATOM     85  F   UNL A   1      39.763  36.188  40.495  1.00  0.00    -0.200 F 
ENDBRANCH  51  75
BRANCH  63  86
ATOM     86  C   UNL A   1      44.004  28.405  35.319  1.00  0.00     0.064 A 
ATOM     87  C   UNL A   1      45.333  28.818  35.142  1.00  0.00     0.173 A 
ATOM     88  C   UNL A   1      43.757  27.351  36.211  1.00  0.00     0.173 A 
ATOM     89  F   UNL A   1      45.624  29.812  34.290  1.00  0.00    -0.203 F 
ATOM     90  C   UNL A   1      46.375  28.180  35.810  1.00  0.00     0.198 A 
ATOM     91  C   UNL A   1      44.797  26.739  36.904  1.00  0.00     0.198 A 
ATOM     92  F   UNL A   1      42.503  26.923  36.424  1.00  0.00    -0.203 F 
ATOM     93  F   UNL A   1      47.642  28.556  35.584  1.00  0.00    -0.200 F 
ATOM     94  C   UNL A   1      46.106  27.148  36.697  1.00  0.00     0.200 A 
ATOM     95  F   UNL A   1      44.534  25.754  37.773  1.00  0.00    -0.200 F 
ATOM     96  F   UNL A   1      47.109  26.541  37.345  1.00  0.00    -0.200 F 
ENDBRANCH  63  86
ENDBRANCH  37  38
ENDBRANCH  30  32
ENDBRANCH  29  30
ENDBRANCH  28  29
ENDBRANCH  27  28
ENDBRANCH  26  27
ENDBRANCH  25  26
ENDBRANCH   1  25
TORSDOF 20
ENDMDL
MODEL 2
REMARK VINA RESULT:      -9.9      1.003      7.411
REMARK SMILES CC[C@@H]1CCCC[C@@H]1OCC[C@@H]1CCC[C@]1([NH2+]C)C(=O)OCCOCCOC(=O)c1ccc(-c2c3nc(c(-c4c(F)c(F)c(F)c(F)c4F)c4ccc([nH]4)c(-c4c(F)c(F)c(F)c(F)c4F)c4nc(c(-c5c(F)c(F)c(F)c(F)c5F)c5ccc2[nH]5)C=C4)C=C3)cc1
REMARK SMILES IDX 22 1 21 2 19 3 20 4 16 5 12 6 13 7 14 8 15 9 11 10 10 11
REMARK SMILES IDX 9 12 8 13 3 14 4 15 5 16 7 17 6 18 2 19 1 20 17 21 18 22
REMARK SMILES IDX 23 25 24 26 25 27 26 28 27 29 28 30 29 31 30 32 31 33 92 34
REMARK SMILES IDX 32 35 91 36 33 37 34 38 35 39 85 40 36 41 90 42 84 43 86 44
REMARK SMILES IDX 37 45 89 46 83 47 82 48 38 50 70 51 50 52 69 53 51 54 54 55
REMARK SMILES IDX 68 56 87 57 52 58 53 59 67 61 88 62 55 63 39 64 40 65 48 66
REMARK SMILES IDX 41 67 42 68 46 69 49 70 43 71 44 72 47 73 45 74 71 75 72 76
REMARK SMILES IDX 80 77 73 78 74 79 78 80 81 81 75 82 76 83 79 84 77 85 56 86
REMARK SMILES IDX 57 87 65 88 58 89 59 90 63 91 66 92 60 93 61 94 64 95 62 96
REMARK H PARENT 17 23 17 24 86 49 54 60
REMARK Flexibility Score: inf
ROOT
ATOM      1  C   UNL A   1      33.458  28.748  26.728  1.00  0.00     0.261 C 
ENDROOT
BRANCH   1   2
ATOM      2  O   UNL A   1      33.841  27.971  25.579  1.00  0.00    -0.459 OA
BRANCH   2   3
ATOM      3  C   UNL A   1      33.025  28.105  24.495  1.00  0.00     0.368 C 
ATOM      4  O   UNL A   1      33.072  29.053  23.717  1.00  0.00    -0.245 OA
BRANCH   3   5
ATOM      5  C   UNL A   1      31.968  26.971  24.407  1.00  0.00     0.197 C 
ATOM      6  C   UNL A   1      32.143  25.931  23.252  1.00  0.00     0.065 C 
ATOM      7  C   UNL A   1      31.612  26.627  21.993  1.00  0.00     0.011 C 
ATOM      8  C   UNL A   1      30.552  27.602  22.482  1.00  0.00     0.008 C 
ATOM      9  C   UNL A   1      30.597  27.582  24.011  1.00  0.00     0.081 C 
BRANCH   6  10
ATOM     10  C   UNL A   1      33.476  25.192  22.982  1.00  0.00     0.039 C 
BRANCH  10  11
ATOM     11  C   UNL A   1      33.456  23.665  22.790  1.00  0.00     0.161 C 
BRANCH  11  12
ATOM     12  O   UNL A   1      34.447  22.908  23.505  1.00  0.00    -0.378 OA
BRANCH  12  13
ATOM     13  C   UNL A   1      34.019  22.387  24.760  1.00  0.00     0.121 C 
ATOM     14  C   UNL A   1      34.947  21.300  25.343  1.00  0.00     0.018 C 
ATOM     15  C   UNL A   1      34.718  19.918  24.718  1.00  0.00     0.006 C 
ATOM     16  C   UNL A   1      33.246  19.526  24.727  1.00  0.00     0.000 C 
ATOM     17  C   UNL A   1      32.558  21.924  24.610  1.00  0.00     0.032 C 
ATOM     18  C   UNL A   1      32.424  20.551  23.965  1.00  0.00     0.003 C 
BRANCH  14  19
ATOM     19  C   UNL A   1      36.449  21.650  25.289  1.00  0.00     0.003 C 
ATOM     20  C   UNL A   1      37.358  20.470  24.977  1.00  0.00     0.004 C 
ENDBRANCH  14  19
ENDBRANCH  12  13
ENDBRANCH  11  12
ENDBRANCH  10  11
ENDBRANCH   6  10
BRANCH   5  21
ATOM     21  N   UNL A   1      31.860  26.291  25.724  1.00  0.00    -0.334 N 
ATOM     22  C   UNL A   1      30.575  25.646  25.979  1.00  0.00     0.331 C 
ATOM     23  H   UNL A   1      32.014  26.988  26.453  1.00  0.00     0.347 HD
ATOM     24  H   UNL A   1      32.558  25.548  25.721  1.00  0.00     0.347 HD
ENDBRANCH   5  21
ENDBRANCH   3   5
ENDBRANCH   2   3
ENDBRANCH   1   2
BRANCH   1  25
ATOM     25  C   UNL A   1      34.528  29.777  27.108  1.00  0.00     0.202 C 
BRANCH  25  26
ATOM     26  O   UNL A   1      34.077  31.109  27.366  1.00  0.00    -0.374 OA
BRANCH  26  27
ATOM     27  C   UNL A   1      32.681  31.337  27.197  1.00  0.00     0.202 C 
BRANCH  27  28
ATOM     28  C   UNL A   1      32.213  32.790  27.294  1.00  0.00     0.261 C 
BRANCH  28  29
ATOM     29  O   UNL A   1      33.338  33.675  27.401  1.00  0.00    -0.460 OA
BRANCH  29  30
ATOM     30  C   UNL A   1      33.343  34.415  28.531  1.00  0.00     0.338 C 
ATOM     31  O   UNL A   1      32.489  35.210  28.899  1.00  0.00    -0.246 OA
BRANCH  30  32
ATOM     32  C   UNL A   1      34.457  33.998  29.400  1.00  0.00     0.060 A 
ATOM     33  C   UNL A   1      35.746  34.350  28.979  1.00  0.00     0.016 A 
ATOM     34  C   UNL A   1      34.266  33.248  30.563  1.00  0.00     0.016 A 
ATOM     35  C   UNL A   1      36.854  33.872  29.664  1.00  0.00     0.010 A 
ATOM     36  C   UNL A   1      35.383  32.766  31.252  1.00  0.00     0.010 A 
ATOM     37  C   UNL A   1      36.676  33.029  30.768  1.00  0.00    -0.014 A 
BRANCH  37  38
ATOM     38  C   UNL A   1      37.845  32.275  31.274  1.00  0.00     0.031 A 
ATOM     39  C   UNL A   1      38.349  32.577  32.657  1.00  0.00     0.074 A 
ATOM     40  C   UNL A   1      38.392  31.288  30.544  1.00  0.00     0.049 A 
ATOM     41  N   UNL A   1      39.335  32.031  33.323  1.00  0.00    -0.248 NA
ATOM     42  C   UNL A   1      37.643  33.638  33.396  1.00  0.00     0.031 C 
ATOM     43  C   UNL A   1      37.950  30.885  29.210  1.00  0.00     0.029 A 
ATOM     44  N   UNL A   1      39.433  30.444  30.827  1.00  0.00    -0.354 N 
ATOM     45  C   UNL A   1      39.371  32.686  34.548  1.00  0.00     0.074 A 
ATOM     46  C   UNL A   1      38.336  33.694  34.523  1.00  0.00     0.031 C 
ATOM     47  C   UNL A   1      38.719  29.867  28.788  1.00  0.00     0.029 A 
ATOM     48  C   UNL A   1      39.723  29.571  29.808  1.00  0.00     0.049 A 
ATOM     49  H   UNL A   1      39.925  30.460  31.679  1.00  0.00     0.167 HD
ATOM     50  C   UNL A   1      40.187  32.454  35.602  1.00  0.00     0.037 A 
ATOM     51  C   UNL A   1      40.704  28.654  29.710  1.00  0.00     0.037 A 
ATOM     52  C   UNL A   1      41.211  31.444  35.617  1.00  0.00     0.049 A 
ATOM     53  C   UNL A   1      41.646  28.465  30.870  1.00  0.00     0.074 A 
ATOM     54  C   UNL A   1      42.080  31.109  36.638  1.00  0.00     0.029 A 
ATOM     55  N   UNL A   1      41.508  30.609  34.548  1.00  0.00    -0.354 N 
ATOM     56  N   UNL A   1      41.656  29.065  32.037  1.00  0.00    -0.248 NA
ATOM     57  C   UNL A   1      42.712  27.469  30.701  1.00  0.00     0.031 C 
ATOM     58  C   UNL A   1      42.944  30.116  36.167  1.00  0.00     0.029 A 
ATOM     59  C   UNL A   1      42.571  29.783  34.874  1.00  0.00     0.049 A 
ATOM     60  H   UNL A   1      41.033  30.605  33.685  1.00  0.00     0.167 HD
ATOM     61  C   UNL A   1      42.707  28.503  32.749  1.00  0.00     0.074 A 
ATOM     62  C   UNL A   1      43.300  27.499  31.889  1.00  0.00     0.031 C 
ATOM     63  C   UNL A   1      43.145  28.789  34.001  1.00  0.00     0.037 A 
BRANCH  50  64
ATOM     64  C   UNL A   1      40.025  33.328  36.813  1.00  0.00     0.064 A 
ATOM     65  C   UNL A   1      39.121  33.016  37.839  1.00  0.00     0.173 A 
ATOM     66  C   UNL A   1      40.808  34.484  36.961  1.00  0.00     0.173 A 
ATOM     67  F   UNL A   1      38.337  31.931  37.742  1.00  0.00    -0.203 F 
ATOM     68  C   UNL A   1      38.986  33.841  38.953  1.00  0.00     0.198 A 
ATOM     69  C   UNL A   1      40.694  35.289  38.091  1.00  0.00     0.198 A 
ATOM     70  F   UNL A   1      41.691  34.830  36.011  1.00  0.00    -0.203 F 
ATOM     71  F   UNL A   1      38.078  33.550  39.896  1.00  0.00    -0.200 F 
ATOM     72  C   UNL A   1      39.778  34.972  39.082  1.00  0.00     0.200 A 
ATOM     73  F   UNL A   1      41.469  36.375  38.219  1.00  0.00    -0.200 F 
ATOM     74  F   UNL A   1      39.652  35.762  40.157  1.00  0.00    -0.200 F 
ENDBRANCH  50  64
BRANCH  51  75
ATOM     75  C   UNL A   1      40.849  27.854  28.465  1.00  0.00     0.064 A 
ATOM     76  C   UNL A   1      41.597  28.328  27.379  1.00  0.00     0.173 A 
ATOM     77  C   UNL A   1      40.229  26.602  28.332  1.00  0.00     0.173 A 
ATOM     78  F   UNL A   1      42.189  29.530  27.448  1.00  0.00    -0.203 F 
ATOM     79  C   UNL A   1      41.706  27.589  26.202  1.00  0.00     0.198 A 
ATOM     80  C   UNL A   1      40.366  25.850  27.167  1.00  0.00     0.198 A 
ATOM     81  F   UNL A   1      39.501  26.101  29.341  1.00  0.00    -0.203 F 
ATOM     82  F   UNL A   1      42.387  28.088  25.162  1.00  0.00    -0.200 F 
ATOM     83  C   UNL A   1      41.096  26.348  26.100  1.00  0.00     0.200 A 
ATOM     84  F   UNL A   1      39.786  24.645  27.079  1.00  0.00    -0.200 F 
ATOM     85  F   UNL A   1      41.205  25.636  24.970  1.00  0.00    -0.200 F 
ENDBRANCH  51  75
BRANCH  63  86
ATOM     86  C   UNL A   1      44.300  27.987  34.526  1.00  0.00     0.064 A 
ATOM     87  C   UNL A   1      44.109  26.766  35.191  1.00  0.00     0.173 A 
ATOM     88  C   UNL A   1      45.619  28.423  34.320  1.00  0.00     0.173 A 
ATOM     89  F   UNL A   1      42.869  26.312  35.424  1.00  0.00    -0.203 F 
ATOM     90  C   UNL A   1      45.193  26.029  35.658  1.00  0.00     0.198 A 
ATOM     91  C   UNL A   1      46.701  27.665  34.757  1.00  0.00     0.198 A 
ATOM     92  F   UNL A   1      45.858  29.578  33.681  1.00  0.00    -0.203 F 
ATOM     93  F   UNL A   1      44.984  24.893  36.339  1.00  0.00    -0.200 F 
ATOM     94  C   UNL A   1      46.488  26.473  35.433  1.00  0.00     0.200 A 
ATOM     95  F   UNL A   1      47.951  28.087  34.524  1.00  0.00    -0.200 F 
ATOM     96  F   UNL A   1      47.530  25.757  35.876  1.00  0.00    -0.200 F 
ENDBRANCH  63  86
ENDBRANCH  37  38
ENDBRANCH  30  32
ENDBRANCH  29  30
ENDBRANCH  28  29
ENDBRANCH  27  28
ENDBRANCH  26  27
ENDBRANCH  25  26
ENDBRANCH   1  25
TORSDOF 20
ENDMDL
MODEL 3
REMARK VINA RESULT:      -9.3      4.643     11.188
REMARK SMILES CC[C@@H]1CCCC[C@@H]1OCC[C@@H]1CCC[C@]1([NH2+]C)C(=O)OCCOCCOC(=O)c1ccc(-c2c3nc(c(-c4c(F)c(F)c(F)c(F)c4F)c4ccc([nH]4)c(-c4c(F)c(F)c(F)c(F)c4F)c4nc(c(-c5c(F)c(F)c(F)c(F)c5F)c5ccc2[nH]5)C=C4)C=C3)cc1
REMARK SMILES IDX 22 1 21 2 19 3 20 4 16 5 12 6 13 7 14 8 15 9 11 10 10 11
REMARK SMILES IDX 9 12 8 13 3 14 4 15 5 16 7 17 6 18 2 19 1 20 17 21 18 22
REMARK SMILES IDX 23 25 24 26 25 27 26 28 27 29 28 30 29 31 30 32 31 33 92 34
REMARK SMILES IDX 32 35 91 36 33 37 34 38 35 39 85 40 36 41 90 42 84 43 86 44
REMARK SMILES IDX 37 45 89 46 83 47 82 48 38 50 70 51 50 52 69 53 51 54 54 55
REMARK SMILES IDX 68 56 87 57 52 58 53 59 67 61 88 62 55 63 39 64 40 65 48 66
REMARK SMILES IDX 41 67 42 68 46 69 49 70 43 71 44 72 47 73 45 74 71 75 72 76
REMARK SMILES IDX 80 77 73 78 74 79 78 80 81 81 75 82 76 83 79 84 77 85 56 86
REMARK SMILES IDX 57 87 65 88 58 89 59 90 63 91 66 92 60 93 61 94 64 95 62 96
REMARK H PARENT 17 23 17 24 86 49 54 60
REMARK Flexibility Score: inf
ROOT
ATOM      1  C   UNL A   1      46.712  28.286  25.213  1.00  0.00     0.261 C 
ENDROOT
BRANCH   1   2
ATOM      2  O   UNL A   1      47.340  28.851  26.378  1.00  0.00    -0.459 OA
BRANCH   2   3
ATOM      3  C   UNL A   1      46.613  28.759  27.528  1.00  0.00     0.368 C 
ATOM      4  O   UNL A   1      46.032  27.741  27.889  1.00  0.00    -0.245 OA
BRANCH   3   5
ATOM      5  C   UNL A   1      46.526  30.114  28.281  1.00  0.00     0.197 C 
ATOM      6  C   UNL A   1      45.134  30.827  28.293  1.00  0.00     0.065 C 
ATOM      7  C   UNL A   1      45.006  31.495  26.919  1.00  0.00     0.011 C 
ATOM      8  C   UNL A   1      46.429  31.808  26.483  1.00  0.00     0.008 C 
ATOM      9  C   UNL A   1      47.363  31.176  27.517  1.00  0.00     0.081 C 
BRANCH   6  10
ATOM     10  C   UNL A   1      43.827  30.108  28.708  1.00  0.00     0.039 C 
BRANCH  10  11
ATOM     11  C   UNL A   1      42.755  30.899  29.479  1.00  0.00     0.161 C 
BRANCH  11  12
ATOM     12  O   UNL A   1      43.177  32.120  30.110  1.00  0.00    -0.378 OA
BRANCH  12  13
ATOM     13  C   UNL A   1      42.559  32.398  31.363  1.00  0.00     0.121 C 
ATOM     14  C   UNL A   1      41.656  33.650  31.358  1.00  0.00     0.018 C 
ATOM     15  C   UNL A   1      42.446  34.959  31.485  1.00  0.00     0.006 C 
ATOM     16  C   UNL A   1      43.425  34.922  32.651  1.00  0.00     0.000 C 
ATOM     17  C   UNL A   1      43.661  32.445  32.437  1.00  0.00     0.032 C 
ATOM     18  C   UNL A   1      44.405  33.774  32.480  1.00  0.00     0.003 C 
BRANCH  14  19
ATOM     19  C   UNL A   1      40.698  33.739  30.152  1.00  0.00     0.003 C 
ATOM     20  C   UNL A   1      40.638  35.110  29.497  1.00  0.00     0.004 C 
ENDBRANCH  14  19
ENDBRANCH  12  13
ENDBRANCH  11  12
ENDBRANCH  10  11
ENDBRANCH   6  10
BRANCH   5  21
ATOM     21  N   UNL A   1      47.053  29.949  29.661  1.00  0.00    -0.334 N 
ATOM     22  C   UNL A   1      48.419  29.442  29.740  1.00  0.00     0.331 C 
ATOM     23  H   UNL A   1      46.444  29.298  30.156  1.00  0.00     0.347 HD
ATOM     24  H   UNL A   1      47.069  30.881  30.074  1.00  0.00     0.347 HD
ENDBRANCH   5  21
ENDBRANCH   3   5
ENDBRANCH   2   3
ENDBRANCH   1   2
BRANCH   1  25
ATOM     25  C   UNL A   1      47.399  26.993  24.760  1.00  0.00     0.202 C 
BRANCH  25  26
ATOM     26  O   UNL A   1      46.547  25.917  24.361  1.00  0.00    -0.374 OA
BRANCH  26  27
ATOM     27  C   UNL A   1      46.906  24.627  24.847  1.00  0.00     0.202 C 
BRANCH  27  28
ATOM     28  C   UNL A   1      45.873  23.516  24.654  1.00  0.00     0.261 C 
BRANCH  28  29
ATOM     29  O   UNL A   1      44.850  23.600  25.659  1.00  0.00    -0.460 OA
BRANCH  29  30
ATOM     30  C   UNL A   1      43.604  23.744  25.157  1.00  0.00     0.338 C 
ATOM     31  O   UNL A   1      43.086  23.087  24.264  1.00  0.00    -0.246 OA
BRANCH  30  32
ATOM     32  C   UNL A   1      42.841  24.705  25.971  1.00  0.00     0.060 A 
ATOM     33  C   UNL A   1      43.372  25.997  26.078  1.00  0.00     0.016 A 
ATOM     34  C   UNL A   1      41.672  24.355  26.652  1.00  0.00     0.016 A 
ATOM     35  C   UNL A   1      42.793  26.916  26.940  1.00  0.00     0.010 A 
ATOM     36  C   UNL A   1      41.089  25.282  27.522  1.00  0.00     0.010 A 
ATOM     37  C   UNL A   1      41.684  26.542  27.710  1.00  0.00    -0.014 A 
BRANCH  37  38
ATOM     38  C   UNL A   1      41.290  27.406  28.845  1.00  0.00     0.031 A 
ATOM     39  C   UNL A   1      42.129  27.379  30.092  1.00  0.00     0.074 A 
ATOM     40  C   UNL A   1      40.254  28.254  28.733  1.00  0.00     0.049 A 
ATOM     41  N   UNL A   1      41.998  28.064  31.200  1.00  0.00    -0.248 NA
ATOM     42  C   UNL A   1      43.277  26.457  30.091  1.00  0.00     0.031 C 
ATOM     43  C   UNL A   1      39.403  28.391  27.552  1.00  0.00     0.029 A 
ATOM     44  N   UNL A   1      39.746  29.162  29.625  1.00  0.00    -0.354 N 
ATOM     45  C   UNL A   1      43.037  27.649  32.024  1.00  0.00     0.074 A 
ATOM     46  C   UNL A   1      43.768  26.628  31.309  1.00  0.00     0.031 C 
ATOM     47  C   UNL A   1      38.475  29.332  27.793  1.00  0.00     0.029 A 
ATOM     48  C   UNL A   1      38.648  29.836  29.154  1.00  0.00     0.049 A 
ATOM     49  H   UNL A   1      40.133  29.316  30.517  1.00  0.00     0.167 HD
ATOM     50  C   UNL A   1      43.358  28.094  33.262  1.00  0.00     0.037 A 
ATOM     51  C   UNL A   1      37.864  30.744  29.766  1.00  0.00     0.037 A 
ATOM     52  C   UNL A   1      42.625  29.114  33.962  1.00  0.00     0.049 A 
ATOM     53  C   UNL A   1      38.199  31.169  31.172  1.00  0.00     0.074 A 
ATOM     54  C   UNL A   1      42.874  29.655  35.210  1.00  0.00     0.029 A 
ATOM     55  N   UNL A   1      41.488  29.743  33.472  1.00  0.00    -0.354 N 
ATOM     56  N   UNL A   1      39.200  30.797  31.935  1.00  0.00    -0.248 NA
ATOM     57  C   UNL A   1      37.299  32.143  31.801  1.00  0.00     0.031 C 
ATOM     58  C   UNL A   1      41.853  30.565  35.502  1.00  0.00     0.029 A 
ATOM     59  C   UNL A   1      41.004  30.642  34.409  1.00  0.00     0.049 A 
ATOM     60  H   UNL A   1      41.085  29.575  32.589  1.00  0.00     0.167 HD
ATOM     61  C   UNL A   1      39.066  31.507  33.119  1.00  0.00     0.074 A 
ATOM     62  C   UNL A   1      37.896  32.349  32.967  1.00  0.00     0.031 C 
ATOM     63  C   UNL A   1      39.837  31.470  34.234  1.00  0.00     0.037 A 
BRANCH  50  64
ATOM     64  C   UNL A   1      44.532  27.456  33.947  1.00  0.00     0.064 A 
ATOM     65  C   UNL A   1      44.406  26.274  34.693  1.00  0.00     0.173 A 
ATOM     66  C   UNL A   1      45.812  28.023  33.833  1.00  0.00     0.173 A 
ATOM     67  F   UNL A   1      43.204  25.697  34.846  1.00  0.00    -0.203 F 
ATOM     68  C   UNL A   1      45.509  25.700  35.321  1.00  0.00     0.198 A 
ATOM     69  C   UNL A   1      46.917  27.430  34.435  1.00  0.00     0.198 A 
ATOM     70  F   UNL A   1      45.991  29.153  33.131  1.00  0.00    -0.203 F 
ATOM     71  F   UNL A   1      45.355  24.599  36.070  1.00  0.00    -0.200 F 
ATOM     72  C   UNL A   1      46.765  26.273  35.185  1.00  0.00     0.200 A 
ATOM     73  F   UNL A   1      48.131  27.978  34.292  1.00  0.00    -0.200 F 
ATOM     74  F   UNL A   1      47.826  25.716  35.784  1.00  0.00    -0.200 F 
ENDBRANCH  50  64
BRANCH  51  75
ATOM     75  C   UNL A   1      36.683  31.302  29.056  1.00  0.00     0.064 A 
ATOM     76  C   UNL A   1      36.652  32.639  28.635  1.00  0.00     0.173 A 
ATOM     77  C   UNL A   1      35.553  30.512  28.796  1.00  0.00     0.173 A 
ATOM     78  F   UNL A   1      37.697  33.443  28.882  1.00  0.00    -0.203 F 
ATOM     79  C   UNL A   1      35.531  33.167  27.998  1.00  0.00     0.198 A 
ATOM     80  C   UNL A   1      34.446  31.032  28.129  1.00  0.00     0.198 A 
ATOM     81  F   UNL A   1      35.530  29.225  29.178  1.00  0.00    -0.203 F 
ATOM     82  F   UNL A   1      35.509  34.460  27.649  1.00  0.00    -0.200 F 
ATOM     83  C   UNL A   1      34.432  32.362  27.739  1.00  0.00     0.200 A 
ATOM     84  F   UNL A   1      33.393  30.245  27.869  1.00  0.00    -0.200 F 
ATOM     85  F   UNL A   1      33.357  32.869  27.121  1.00  0.00    -0.200 F 
ENDBRANCH  51  75
BRANCH  63  86
ATOM     86  C   UNL A   1      39.459  32.385  35.364  1.00  0.00     0.064 A 
ATOM     87  C   UNL A   1      38.611  31.966  36.400  1.00  0.00     0.173 A 
ATOM     88  C   UNL A   1      39.989  33.683  35.434  1.00  0.00     0.173 A 
ATOM     89  F   UNL A   1      38.068  30.740  36.373  1.00  0.00    -0.203 F 
ATOM     90  C   UNL A   1      38.284  32.823  37.447  1.00  0.00     0.198 A 
ATOM     91  C   UNL A   1      39.688  34.524  36.501  1.00  0.00     0.198 A 
ATOM     92  F   UNL A   1      40.813  34.130  34.474  1.00  0.00    -0.203 F 
ATOM     93  F   UNL A   1      37.428  32.419  38.397  1.00  0.00    -0.200 F 
ATOM     94  C   UNL A   1      38.829  34.097  37.502  1.00  0.00     0.200 A 
ATOM     95  F   UNL A   1      40.229  35.748  36.560  1.00  0.00    -0.200 F 
ATOM     96  F   UNL A   1      38.519  34.917  38.515  1.00  0.00    -0.200 F 
ENDBRANCH  63  86
ENDBRANCH  37  38
ENDBRANCH  30  32
ENDBRANCH  29  30
ENDBRANCH  28  29
ENDBRANCH  27  28
ENDBRANCH  26  27
ENDBRANCH  25  26
ENDBRANCH   1  25
TORSDOF 20
ENDMDL
