MODEL 1
REMARK VINA RESULT:     -12.0      0.000      0.000
REMARK SMILES Cc1oc2c(C)c3oc(=O)c(CCC(=O)N[C@H](Cc4ccc(Cl)cc4)C(=O)OCCOCCOC(=O)c4ccc(-c5c6nc(c(-c7c(F)c(F)c(F)c(F)c7F)c7ccc([nH]7)c(-c7c(F)c(F)c(F)c(F)c7F)c7nc(c(-c8c(F)c(F)c(F)c(F)c8F)c8ccc5[nH]8)C=C7)C=C6)cc4)c(C)c3cc2c1C
REMARK SMILES IDX 30 1 29 2 28 3 26 4 27 5 17 6 16 7 14 8 15 9 13 11 12 12
REMARK SMILES IDX 11 13 1 14 2 15 3 16 105 17 4 18 104 19 106 20 5 21 103 22
REMARK SMILES IDX 6 23 7 24 102 25 8 26 100 27 9 28 101 29 10 30 18 31 19 32
REMARK SMILES IDX 20 33 25 34 21 35 24 36 22 37 23 38 31 39 32 40 33 41 34 42
REMARK SMILES IDX 35 43 36 44 37 45 38 46 99 47 39 48 98 49 40 50 41 51 42 52
REMARK SMILES IDX 92 53 43 54 97 55 91 56 93 57 44 58 96 59 90 60 89 61 45 63
REMARK SMILES IDX 77 64 57 65 76 66 58 67 61 68 75 69 94 70 59 71 60 72 74 74
REMARK SMILES IDX 95 75 62 76 46 77 47 78 55 79 48 80 49 81 53 82 56 83 50 84
REMARK SMILES IDX 51 85 54 86 52 87 78 88 79 89 87 90 80 91 81 92 85 93 88 94
REMARK SMILES IDX 82 95 83 96 86 97 84 98 63 99 64 100 72 101 65 102 66 103
REMARK SMILES IDX 70 104 73 105 67 106 68 107 71 108 69 109
REMARK H PARENT 16 10 93 62 61 73
REMARK Flexibility Score: inf
ROOT
ATOM      1  C   UNL A   1      32.979  35.363  28.688  1.00  0.00     0.202 C 
ENDROOT
BRANCH   1   2
ATOM      2  C   UNL A   1      34.465  35.354  28.349  1.00  0.00     0.261 C 
BRANCH   2   3
ATOM      3  O   UNL A   1      34.743  34.181  27.580  1.00  0.00    -0.462 OA
BRANCH   3   4
ATOM      4  C   UNL A   1      35.628  33.353  28.178  1.00  0.00     0.329 C 
ATOM      5  O   UNL A   1      36.685  33.738  28.665  1.00  0.00    -0.250 OA
BRANCH   4   6
ATOM      6  C   UNL A   1      35.209  31.880  28.164  1.00  0.00     0.196 C 
BRANCH   6   7
ATOM      7  N   UNL A   1      33.762  31.963  27.919  1.00  0.00    -0.342 N 
ATOM      8  C   UNL A   1      32.943  31.250  27.116  1.00  0.00     0.221 C 
ATOM      9  O   UNL A   1      31.802  31.670  26.927  1.00  0.00    -0.275 OA
ATOM     10  H   UNL A   1      33.306  32.667  28.436  1.00  0.00     0.164 HD
BRANCH   8  11
ATOM     11  C   UNL A   1      33.431  29.974  26.483  1.00  0.00     0.105 C 
BRANCH  11  12
ATOM     12  C   UNL A   1      32.346  29.296  25.640  1.00  0.00     0.053 C 
BRANCH  12  13
ATOM     13  C   UNL A   1      32.458  27.780  25.586  1.00  0.00     0.042 A 
ATOM     14  C   UNL A   1      36.117  20.269  25.021  1.00  0.00     0.088 C 
ATOM     15  C   UNL A   1      35.359  21.527  24.849  1.00  0.00     0.105 A 
ATOM     16  O   UNL A   1      34.268  21.692  25.646  1.00  0.00    -0.461 OA
ATOM     17  C   UNL A   1      35.574  22.656  24.080  1.00  0.00    -0.002 A 
ATOM     18  C   UNL A   1      33.795  22.956  25.433  1.00  0.00     0.141 A 
ATOM     19  C   UNL A   1      34.515  23.557  24.412  1.00  0.00     0.025 A 
ATOM     20  C   UNL A   1      36.746  22.932  23.215  1.00  0.00     0.049 C 
ATOM     21  C   UNL A   1      32.809  23.596  26.191  1.00  0.00     0.036 A 
ATOM     22  C   UNL A   1      34.182  24.872  24.033  1.00  0.00     0.024 A 
ATOM     23  C   UNL A   1      32.187  22.940  27.384  1.00  0.00     0.052 C 
ATOM     24  C   UNL A   1      32.616  24.960  25.856  1.00  0.00     0.145 A 
ATOM     25  C   UNL A   1      33.264  25.612  24.801  1.00  0.00     0.022 A 
ATOM     26  O   UNL A   1      31.790  25.707  26.725  1.00  0.00    -0.422 OA
ATOM     27  C   UNL A   1      33.103  27.078  24.628  1.00  0.00    -0.030 A 
ATOM     28  C   UNL A   1      31.787  27.088  26.722  1.00  0.00     0.339 A 
ATOM     29  C   UNL A   1      33.788  27.716  23.440  1.00  0.00     0.046 C 
ATOM     30  O   UNL A   1      31.264  27.717  27.637  1.00  0.00    -0.246 OA
ENDBRANCH  12  13
ENDBRANCH  11  12
ENDBRANCH   8  11
ENDBRANCH   6   7
BRANCH   6  31
ATOM     31  C   UNL A   1      35.632  31.039  29.400  1.00  0.00     0.072 C 
BRANCH  31  32
ATOM     32  C   UNL A   1      36.867  30.225  29.150  1.00  0.00    -0.045 A 
ATOM     33  C   UNL A   1      37.225  29.233  30.072  1.00  0.00     0.005 A 
ATOM     34  C   UNL A   1      37.530  30.324  27.922  1.00  0.00     0.005 A 
ATOM     35  C   UNL A   1      38.125  28.243  29.697  1.00  0.00     0.021 A 
ATOM     36  C   UNL A   1      38.455  29.350  27.564  1.00  0.00     0.021 A 
ATOM     37  C   UNL A   1      38.713  28.291  28.435  1.00  0.00     0.041 A 
ATOM     38  Cl  UNL A   1      39.733  27.004  27.927  1.00  0.00    -0.084 Cl
ENDBRANCH  31  32
ENDBRANCH   6  31
ENDBRANCH   4   6
ENDBRANCH   3   4
ENDBRANCH   2   3
ENDBRANCH   1   2
BRANCH   1  39
ATOM     39  O   UNL A   1      32.679  34.971  30.032  1.00  0.00    -0.374 OA
BRANCH  39  40
ATOM     40  C   UNL A   1      33.099  35.851  31.073  1.00  0.00     0.202 C 
BRANCH  40  41
ATOM     41  C   UNL A   1      33.442  35.235  32.430  1.00  0.00     0.261 C 
BRANCH  41  42
ATOM     42  O   UNL A   1      34.385  34.179  32.296  1.00  0.00    -0.460 OA
BRANCH  42  43
ATOM     43  C   UNL A   1      35.554  34.500  32.901  1.00  0.00     0.338 C 
ATOM     44  O   UNL A   1      35.764  35.401  33.686  1.00  0.00    -0.246 OA
BRANCH  43  45
ATOM     45  C   UNL A   1      36.581  33.515  32.570  1.00  0.00     0.060 A 
ATOM     46  C   UNL A   1      36.320  32.195  32.947  1.00  0.00     0.016 A 
ATOM     47  C   UNL A   1      37.816  33.909  32.077  1.00  0.00     0.016 A 
ATOM     48  C   UNL A   1      37.343  31.266  32.955  1.00  0.00     0.010 A 
ATOM     49  C   UNL A   1      38.849  32.990  32.125  1.00  0.00     0.010 A 
ATOM     50  C   UNL A   1      38.623  31.681  32.597  1.00  0.00    -0.014 A 
BRANCH  50  51
ATOM     51  C   UNL A   1      39.719  30.707  32.731  1.00  0.00     0.031 A 
ATOM     52  C   UNL A   1      40.792  30.920  31.718  1.00  0.00     0.074 A 
ATOM     53  C   UNL A   1      40.009  30.178  33.942  1.00  0.00     0.049 A 
ATOM     54  N   UNL A   1      41.625  31.908  31.855  1.00  0.00    -0.248 NA
ATOM     55  C   UNL A   1      40.759  30.367  30.366  1.00  0.00     0.031 C 
ATOM     56  C   UNL A   1      39.608  30.784  35.221  1.00  0.00     0.029 A 
ATOM     57  N   UNL A   1      40.845  29.148  34.312  1.00  0.00    -0.354 N 
ATOM     58  C   UNL A   1      42.132  32.201  30.611  1.00  0.00     0.074 A 
ATOM     59  C   UNL A   1      41.621  31.178  29.724  1.00  0.00     0.031 C 
ATOM     60  C   UNL A   1      40.337  30.236  36.212  1.00  0.00     0.029 A 
ATOM     61  C   UNL A   1      41.160  29.153  35.676  1.00  0.00     0.049 A 
ATOM     62  H   UNL A   1      41.187  28.474  33.680  1.00  0.00     0.167 HD
ATOM     63  C   UNL A   1      42.888  33.310  30.402  1.00  0.00     0.037 A 
ATOM     64  C   UNL A   1      42.409  28.875  36.151  1.00  0.00     0.037 A 
ATOM     65  C   UNL A   1      43.022  34.193  31.527  1.00  0.00     0.049 A 
ATOM     66  C   UNL A   1      43.209  30.039  35.603  1.00  0.00     0.074 A 
ATOM     67  C   UNL A   1      42.500  35.400  31.939  1.00  0.00     0.029 A 
ATOM     68  N   UNL A   1      43.836  33.796  32.562  1.00  0.00    -0.354 N 
ATOM     69  N   UNL A   1      43.218  31.262  36.069  1.00  0.00    -0.248 NA
ATOM     70  C   UNL A   1      43.751  29.901  34.251  1.00  0.00     0.031 C 
ATOM     71  C   UNL A   1      42.659  35.418  33.363  1.00  0.00     0.029 A 
ATOM     72  C   UNL A   1      43.247  34.208  33.730  1.00  0.00     0.049 A 
ATOM     73  H   UNL A   1      44.685  33.306  32.479  1.00  0.00     0.167 HD
ATOM     74  C   UNL A   1      43.516  32.075  34.971  1.00  0.00     0.074 A 
ATOM     75  C   UNL A   1      43.865  31.172  33.897  1.00  0.00     0.031 C 
ATOM     76  C   UNL A   1      43.290  33.422  34.942  1.00  0.00     0.037 A 
BRANCH  63  77
ATOM     77  C   UNL A   1      43.714  33.547  29.212  1.00  0.00     0.064 A 
ATOM     78  C   UNL A   1      43.159  34.395  28.240  1.00  0.00     0.173 A 
ATOM     79  C   UNL A   1      44.863  32.826  28.890  1.00  0.00     0.173 A 
ATOM     80  F   UNL A   1      42.042  35.088  28.518  1.00  0.00    -0.203 F 
ATOM     81  C   UNL A   1      43.705  34.485  26.969  1.00  0.00     0.198 A 
ATOM     82  C   UNL A   1      45.420  32.930  27.614  1.00  0.00     0.198 A 
ATOM     83  F   UNL A   1      45.415  31.990  29.782  1.00  0.00    -0.203 F 
ATOM     84  F   UNL A   1      43.113  35.256  26.047  1.00  0.00    -0.200 F 
ATOM     85  C   UNL A   1      44.830  33.745  26.653  1.00  0.00     0.200 A 
ATOM     86  F   UNL A   1      46.508  32.215  27.298  1.00  0.00    -0.200 F 
ATOM     87  F   UNL A   1      45.339  33.806  25.415  1.00  0.00    -0.200 F 
ENDBRANCH  63  77
BRANCH  64  88
ATOM     88  C   UNL A   1      42.832  27.441  36.018  1.00  0.00     0.064 A 
ATOM     89  C   UNL A   1      41.921  26.433  36.404  1.00  0.00     0.173 A 
ATOM     90  C   UNL A   1      44.064  26.993  35.520  1.00  0.00     0.173 A 
ATOM     91  F   UNL A   1      40.770  26.759  37.011  1.00  0.00    -0.203 F 
ATOM     92  C   UNL A   1      42.162  25.082  36.155  1.00  0.00     0.198 A 
ATOM     93  C   UNL A   1      44.294  25.643  35.241  1.00  0.00     0.198 A 
ATOM     94  F   UNL A   1      45.064  27.848  35.271  1.00  0.00    -0.203 F 
ATOM     95  F   UNL A   1      41.242  24.167  36.488  1.00  0.00    -0.200 F 
ATOM     96  C   UNL A   1      43.334  24.691  35.536  1.00  0.00     0.200 A 
ATOM     97  F   UNL A   1      45.441  25.271  34.656  1.00  0.00    -0.200 F 
ATOM     98  F   UNL A   1      43.539  23.404  35.227  1.00  0.00    -0.200 F 
ENDBRANCH  64  88
BRANCH  76  99
ATOM     99  C   UNL A   1      42.877  34.037  36.234  1.00  0.00     0.064 A 
ATOM    100  C   UNL A   1      41.516  34.177  36.534  1.00  0.00     0.173 A 
ATOM    101  C   UNL A   1      43.811  34.424  37.207  1.00  0.00     0.173 A 
ATOM    102  F   UNL A   1      40.585  33.806  35.639  1.00  0.00    -0.203 F 
ATOM    103  C   UNL A   1      41.103  34.657  37.772  1.00  0.00     0.198 A 
ATOM    104  C   UNL A   1      43.393  34.879  38.455  1.00  0.00     0.198 A 
ATOM    105  F   UNL A   1      45.130  34.329  36.972  1.00  0.00    -0.203 F 
ATOM    106  F   UNL A   1      39.795  34.766  38.043  1.00  0.00    -0.200 F 
ATOM    107  C   UNL A   1      42.041  34.992  38.736  1.00  0.00     0.200 A 
ATOM    108  F   UNL A   1      44.299  35.181  39.397  1.00  0.00    -0.200 F 
ATOM    109  F   UNL A   1      41.639  35.405  39.947  1.00  0.00    -0.200 F 
ENDBRANCH  76  99
ENDBRANCH  50  51
ENDBRANCH  43  45
ENDBRANCH  42  43
ENDBRANCH  41  42
ENDBRANCH  40  41
ENDBRANCH  39  40
ENDBRANCH   1  39
TORSDOF 20
ENDMDL
MODEL 2
REMARK VINA RESULT:     -11.5      3.882     10.482
REMARK SMILES Cc1oc2c(C)c3oc(=O)c(CCC(=O)N[C@H](Cc4ccc(Cl)cc4)C(=O)OCCOCCOC(=O)c4ccc(-c5c6nc(c(-c7c(F)c(F)c(F)c(F)c7F)c7ccc([nH]7)c(-c7c(F)c(F)c(F)c(F)c7F)c7nc(c(-c8c(F)c(F)c(F)c(F)c8F)c8ccc5[nH]8)C=C7)C=C6)cc4)c(C)c3cc2c1C
REMARK SMILES IDX 30 1 29 2 28 3 26 4 27 5 17 6 16 7 14 8 15 9 13 11 12 12
REMARK SMILES IDX 11 13 1 14 2 15 3 16 105 17 4 18 104 19 106 20 5 21 103 22
REMARK SMILES IDX 6 23 7 24 102 25 8 26 100 27 9 28 101 29 10 30 18 31 19 32
REMARK SMILES IDX 20 33 25 34 21 35 24 36 22 37 23 38 31 39 32 40 33 41 34 42
REMARK SMILES IDX 35 43 36 44 37 45 38 46 99 47 39 48 98 49 40 50 41 51 42 52
REMARK SMILES IDX 92 53 43 54 97 55 91 56 93 57 44 58 96 59 90 60 89 61 45 63
REMARK SMILES IDX 77 64 57 65 76 66 58 67 61 68 75 69 94 70 59 71 60 72 74 74
REMARK SMILES IDX 95 75 62 76 46 77 47 78 55 79 48 80 49 81 53 82 56 83 50 84
REMARK SMILES IDX 51 85 54 86 52 87 78 88 79 89 87 90 80 91 81 92 85 93 88 94
REMARK SMILES IDX 82 95 83 96 86 97 84 98 63 99 64 100 72 101 65 102 66 103
REMARK SMILES IDX 70 104 73 105 67 106 68 107 71 108 69 109
REMARK H PARENT 16 10 93 62 61 73
REMARK Flexibility Score: inf
ROOT
ATOM      1  C   UNL A   1      34.980  24.171  24.959  1.00  0.00     0.202 C 
ENDROOT
BRANCH   1   2
ATOM      2  C   UNL A   1      34.719  24.554  23.508  1.00  0.00     0.261 C 
BRANCH   2   3
ATOM      3  O   UNL A   1      33.846  25.686  23.492  1.00  0.00    -0.462 OA
BRANCH   3   4
ATOM      4  C   UNL A   1      33.161  25.812  22.333  1.00  0.00     0.329 C 
ATOM      5  O   UNL A   1      33.679  26.168  21.282  1.00  0.00    -0.250 OA
BRANCH   4   6
ATOM      6  C   UNL A   1      31.667  25.500  22.458  1.00  0.00     0.196 C 
BRANCH   6   7
ATOM      7  N   UNL A   1      31.042  26.718  21.921  1.00  0.00    -0.342 N 
ATOM      8  C   UNL A   1      31.055  27.999  22.347  1.00  0.00     0.221 C 
ATOM      9  O   UNL A   1      30.261  28.790  21.837  1.00  0.00    -0.275 OA
ATOM     10  H   UNL A   1      30.518  26.571  21.099  1.00  0.00     0.164 HD
BRANCH   8  11
ATOM     11  C   UNL A   1      32.026  28.429  23.413  1.00  0.00     0.105 C 
BRANCH  11  12
ATOM     12  C   UNL A   1      31.377  28.479  24.801  1.00  0.00     0.053 C 
BRANCH  12  13
ATOM     13  C   UNL A   1      32.099  29.376  25.793  1.00  0.00     0.042 A 
ATOM     14  C   UNL A   1      38.493  33.361  29.448  1.00  0.00     0.088 C 
ATOM     15  C   UNL A   1      37.359  32.497  29.058  1.00  0.00     0.105 A 
ATOM     16  O   UNL A   1      36.138  33.094  28.989  1.00  0.00    -0.461 OA
ATOM     17  C   UNL A   1      37.278  31.178  28.651  1.00  0.00    -0.002 A 
ATOM     18  C   UNL A   1      35.261  32.174  28.488  1.00  0.00     0.141 A 
ATOM     19  C   UNL A   1      35.900  30.951  28.347  1.00  0.00     0.025 A 
ATOM     20  C   UNL A   1      38.410  30.247  28.427  1.00  0.00     0.049 C 
ATOM     21  C   UNL A   1      33.950  32.436  28.075  1.00  0.00     0.036 A 
ATOM     22  C   UNL A   1      35.167  29.860  27.842  1.00  0.00     0.024 A 
ATOM     23  C   UNL A   1      33.379  33.818  28.108  1.00  0.00     0.052 C 
ATOM     24  C   UNL A   1      33.311  31.337  27.448  1.00  0.00     0.145 A 
ATOM     25  C   UNL A   1      33.874  30.062  27.326  1.00  0.00     0.022 A 
ATOM     26  O   UNL A   1      32.072  31.606  26.826  1.00  0.00    -0.422 OA
ATOM     27  C   UNL A   1      33.182  29.022  26.521  1.00  0.00    -0.030 A 
ATOM     28  C   UNL A   1      31.513  30.741  25.905  1.00  0.00     0.339 A 
ATOM     29  C   UNL A   1      33.815  27.650  26.469  1.00  0.00     0.046 C 
ATOM     30  O   UNL A   1      30.578  31.098  25.194  1.00  0.00    -0.246 OA
ENDBRANCH  12  13
ENDBRANCH  11  12
ENDBRANCH   8  11
ENDBRANCH   6   7
BRANCH   6  31
ATOM     31  C   UNL A   1      31.177  25.060  23.865  1.00  0.00     0.072 C 
BRANCH  31  32
ATOM     32  C   UNL A   1      31.301  23.581  24.084  1.00  0.00    -0.045 A 
ATOM     33  C   UNL A   1      31.673  22.764  23.008  1.00  0.00     0.005 A 
ATOM     34  C   UNL A   1      31.239  23.061  25.380  1.00  0.00     0.005 A 
ATOM     35  C   UNL A   1      32.143  21.481  23.253  1.00  0.00     0.021 A 
ATOM     36  C   UNL A   1      31.680  21.764  25.618  1.00  0.00     0.021 A 
ATOM     37  C   UNL A   1      32.171  20.998  24.560  1.00  0.00     0.041 A 
ATOM     38  Cl  UNL A   1      32.863  19.457  24.878  1.00  0.00    -0.084 Cl
ENDBRANCH  31  32
ENDBRANCH   6  31
ENDBRANCH   4   6
ENDBRANCH   3   4
ENDBRANCH   2   3
ENDBRANCH   1   2
BRANCH   1  39
ATOM     39  O   UNL A   1      35.128  22.764  25.181  1.00  0.00    -0.374 OA
BRANCH  39  40
ATOM     40  C   UNL A   1      36.403  22.309  25.630  1.00  0.00     0.202 C 
BRANCH  40  41
ATOM     41  C   UNL A   1      37.599  23.242  25.439  1.00  0.00     0.261 C 
BRANCH  41  42
ATOM     42  O   UNL A   1      37.980  23.854  26.665  1.00  0.00    -0.460 OA
BRANCH  42  43
ATOM     43  C   UNL A   1      39.301  23.669  26.904  1.00  0.00     0.338 C 
ATOM     44  O   UNL A   1      40.016  22.782  26.487  1.00  0.00    -0.246 OA
BRANCH  43  45
ATOM     45  C   UNL A   1      39.834  24.785  27.681  1.00  0.00     0.060 A 
ATOM     46  C   UNL A   1      39.111  25.980  27.631  1.00  0.00     0.016 A 
ATOM     47  C   UNL A   1      41.083  24.706  28.278  1.00  0.00     0.016 A 
ATOM     48  C   UNL A   1      39.688  27.154  28.072  1.00  0.00     0.010 A 
ATOM     49  C   UNL A   1      41.678  25.889  28.681  1.00  0.00     0.010 A 
ATOM     50  C   UNL A   1      40.998  27.116  28.545  1.00  0.00    -0.014 A 
BRANCH  50  51
ATOM     51  C   UNL A   1      41.636  28.397  28.894  1.00  0.00     0.031 A 
ATOM     52  C   UNL A   1      42.050  28.451  30.324  1.00  0.00     0.074 A 
ATOM     53  C   UNL A   1      42.312  29.093  27.952  1.00  0.00     0.049 A 
ATOM     54  N   UNL A   1      43.102  27.796  30.719  1.00  0.00    -0.248 NA
ATOM     55  C   UNL A   1      41.164  28.845  31.418  1.00  0.00     0.031 C 
ATOM     56  C   UNL A   1      42.831  28.504  26.708  1.00  0.00     0.029 A 
ATOM     57  N   UNL A   1      42.843  30.364  27.963  1.00  0.00    -0.354 N 
ATOM     58  C   UNL A   1      42.971  27.574  32.070  1.00  0.00     0.074 A 
ATOM     59  C   UNL A   1      41.788  28.300  32.479  1.00  0.00     0.031 C 
ATOM     60  C   UNL A   1      43.743  29.339  26.175  1.00  0.00     0.029 A 
ATOM     61  C   UNL A   1      43.787  30.578  26.951  1.00  0.00     0.049 A 
ATOM     62  H   UNL A   1      42.583  31.055  28.615  1.00  0.00     0.167 HD
ATOM     63  C   UNL A   1      43.824  26.750  32.733  1.00  0.00     0.037 A 
ATOM     64  C   UNL A   1      44.941  31.280  27.149  1.00  0.00     0.037 A 
ATOM     65  C   UNL A   1      44.781  26.057  31.917  1.00  0.00     0.049 A 
ATOM     66  C   UNL A   1      45.674  30.389  28.130  1.00  0.00     0.074 A 
ATOM     67  C   UNL A   1      44.955  24.786  31.411  1.00  0.00     0.029 A 
ATOM     68  N   UNL A   1      45.832  26.780  31.403  1.00  0.00    -0.354 N 
ATOM     69  N   UNL A   1      46.306  29.278  27.848  1.00  0.00    -0.248 NA
ATOM     70  C   UNL A   1      45.382  30.576  29.552  1.00  0.00     0.031 C 
ATOM     71  C   UNL A   1      45.808  24.944  30.271  1.00  0.00     0.029 A 
ATOM     72  C   UNL A   1      46.081  26.305  30.141  1.00  0.00     0.049 A 
ATOM     73  H   UNL A   1      46.315  27.507  31.858  1.00  0.00     0.167 HD
ATOM     74  C   UNL A   1      46.248  28.511  29.015  1.00  0.00     0.074 A 
ATOM     75  C   UNL A   1      45.698  29.382  30.030  1.00  0.00     0.031 C 
ATOM     76  C   UNL A   1      46.479  27.165  29.050  1.00  0.00     0.037 A 
BRANCH  63  77
ATOM     77  C   UNL A   1      43.960  26.687  34.194  1.00  0.00     0.064 A 
ATOM     78  C   UNL A   1      44.712  27.715  34.784  1.00  0.00     0.173 A 
ATOM     79  C   UNL A   1      43.604  25.588  34.974  1.00  0.00     0.173 A 
ATOM     80  F   UNL A   1      45.083  28.778  34.048  1.00  0.00    -0.203 F 
ATOM     81  C   UNL A   1      45.140  27.628  36.099  1.00  0.00     0.198 A 
ATOM     82  C   UNL A   1      44.023  25.509  36.304  1.00  0.00     0.198 A 
ATOM     83  F   UNL A   1      42.902  24.575  34.446  1.00  0.00    -0.203 F 
ATOM     84  F   UNL A   1      45.909  28.598  36.612  1.00  0.00    -0.200 F 
ATOM     85  C   UNL A   1      44.803  26.520  36.857  1.00  0.00     0.200 A 
ATOM     86  F   UNL A   1      43.705  24.439  37.044  1.00  0.00    -0.200 F 
ATOM     87  F   UNL A   1      45.244  26.419  38.119  1.00  0.00    -0.200 F 
ENDBRANCH  63  77
BRANCH  64  88
ATOM     88  C   UNL A   1      44.757  32.756  27.345  1.00  0.00     0.064 A 
ATOM     89  C   UNL A   1      43.990  33.470  26.397  1.00  0.00     0.173 A 
ATOM     90  C   UNL A   1      45.270  33.512  28.409  1.00  0.00     0.173 A 
ATOM     91  F   UNL A   1      43.566  32.864  25.278  1.00  0.00    -0.203 F 
ATOM     92  C   UNL A   1      43.627  34.802  26.591  1.00  0.00     0.198 A 
ATOM     93  C   UNL A   1      44.881  34.838  28.621  1.00  0.00     0.198 A 
ATOM     94  F   UNL A   1      46.139  32.983  29.279  1.00  0.00    -0.203 F 
ATOM     95  F   UNL A   1      42.848  35.420  25.691  1.00  0.00    -0.200 F 
ATOM     96  C   UNL A   1      44.040  35.475  27.725  1.00  0.00     0.200 A 
ATOM     97  F   UNL A   1      45.301  35.487  29.715  1.00  0.00    -0.200 F 
ATOM     98  F   UNL A   1      43.633  36.730  27.954  1.00  0.00    -0.200 F 
ENDBRANCH  64  88
BRANCH  76  99
ATOM     99  C   UNL A   1      46.998  26.564  27.790  1.00  0.00     0.064 A 
ATOM    100  C   UNL A   1      46.102  26.022  26.859  1.00  0.00     0.173 A 
ATOM    101  C   UNL A   1      48.362  26.584  27.461  1.00  0.00     0.173 A 
ATOM    102  F   UNL A   1      44.786  25.995  27.124  1.00  0.00    -0.203 F 
ATOM    103  C   UNL A   1      46.550  25.544  25.633  1.00  0.00     0.198 A 
ATOM    104  C   UNL A   1      48.802  26.129  26.221  1.00  0.00     0.198 A 
ATOM    105  F   UNL A   1      49.270  27.077  28.319  1.00  0.00    -0.203 F 
ATOM    106  F   UNL A   1      45.673  25.045  24.750  1.00  0.00    -0.200 F 
ATOM    107  C   UNL A   1      47.896  25.612  25.308  1.00  0.00     0.200 A 
ATOM    108  F   UNL A   1      50.101  26.216  25.896  1.00  0.00    -0.200 F 
ATOM    109  F   UNL A   1      48.317  25.199  24.104  1.00  0.00    -0.200 F 
ENDBRANCH  76  99
ENDBRANCH  50  51
ENDBRANCH  43  45
ENDBRANCH  42  43
ENDBRANCH  41  42
ENDBRANCH  40  41
ENDBRANCH  39  40
ENDBRANCH   1  39
TORSDOF 20
ENDMDL
MODEL 3
REMARK VINA RESULT:     -11.5      3.369      6.379
REMARK SMILES Cc1oc2c(C)c3oc(=O)c(CCC(=O)N[C@H](Cc4ccc(Cl)cc4)C(=O)OCCOCCOC(=O)c4ccc(-c5c6nc(c(-c7c(F)c(F)c(F)c(F)c7F)c7ccc([nH]7)c(-c7c(F)c(F)c(F)c(F)c7F)c7nc(c(-c8c(F)c(F)c(F)c(F)c8F)c8ccc5[nH]8)C=C7)C=C6)cc4)c(C)c3cc2c1C
REMARK SMILES IDX 30 1 29 2 28 3 26 4 27 5 17 6 16 7 14 8 15 9 13 11 12 12
REMARK SMILES IDX 11 13 1 14 2 15 3 16 105 17 4 18 104 19 106 20 5 21 103 22
REMARK SMILES IDX 6 23 7 24 102 25 8 26 100 27 9 28 101 29 10 30 18 31 19 32
REMARK SMILES IDX 20 33 25 34 21 35 24 36 22 37 23 38 31 39 32 40 33 41 34 42
REMARK SMILES IDX 35 43 36 44 37 45 38 46 99 47 39 48 98 49 40 50 41 51 42 52
REMARK SMILES IDX 92 53 43 54 97 55 91 56 93 57 44 58 96 59 90 60 89 61 45 63
REMARK SMILES IDX 77 64 57 65 76 66 58 67 61 68 75 69 94 70 59 71 60 72 74 74
REMARK SMILES IDX 95 75 62 76 46 77 47 78 55 79 48 80 49 81 53 82 56 83 50 84
REMARK SMILES IDX 51 85 54 86 52 87 78 88 79 89 87 90 80 91 81 92 85 93 88 94
REMARK SMILES IDX 82 95 83 96 86 97 84 98 63 99 64 100 72 101 65 102 66 103
REMARK SMILES IDX 70 104 73 105 67 106 68 107 71 108 69 109
REMARK H PARENT 16 10 93 62 61 73
REMARK Flexibility Score: inf
ROOT
ATOM      1  C   UNL A   1      34.221  30.814  27.292  1.00  0.00     0.202 C 
ENDROOT
BRANCH   1   2
ATOM      2  C   UNL A   1      33.599  29.447  27.036  1.00  0.00     0.261 C 
BRANCH   2   3
ATOM      3  O   UNL A   1      33.317  29.335  25.639  1.00  0.00    -0.462 OA
BRANCH   3   4
ATOM      4  C   UNL A   1      31.994  29.283  25.367  1.00  0.00     0.329 C 
ATOM      5  O   UNL A   1      31.266  30.268  25.383  1.00  0.00    -0.250 OA
BRANCH   4   6
ATOM      6  C   UNL A   1      31.476  27.873  25.069  1.00  0.00     0.196 C 
BRANCH   6   7
ATOM      7  N   UNL A   1      30.417  28.125  24.081  1.00  0.00    -0.342 N 
ATOM      8  C   UNL A   1      30.418  28.092  22.731  1.00  0.00     0.221 C 
ATOM      9  O   UNL A   1      29.450  28.564  22.136  1.00  0.00    -0.275 OA
ATOM     10  H   UNL A   1      29.546  28.361  24.477  1.00  0.00     0.164 HD
BRANCH   8  11
ATOM     11  C   UNL A   1      31.580  27.482  21.993  1.00  0.00     0.105 C 
BRANCH  11  12
ATOM     12  C   UNL A   1      31.324  26.016  21.624  1.00  0.00     0.053 C 
BRANCH  12  13
ATOM     13  C   UNL A   1      32.196  25.024  22.378  1.00  0.00     0.042 A 
ATOM     14  C   UNL A   1      35.302  17.603  24.701  1.00  0.00     0.088 C 
ATOM     15  C   UNL A   1      34.638  18.917  24.570  1.00  0.00     0.105 A 
ATOM     16  O   UNL A   1      35.454  20.005  24.508  1.00  0.00    -0.461 OA
ATOM     17  C   UNL A   1      33.317  19.291  24.407  1.00  0.00    -0.002 A 
ATOM     18  C   UNL A   1      34.667  21.092  24.254  1.00  0.00     0.141 A 
ATOM     19  C   UNL A   1      33.332  20.714  24.270  1.00  0.00     0.025 A 
ATOM     20  C   UNL A   1      32.152  18.389  24.247  1.00  0.00     0.049 C 
ATOM     21  C   UNL A   1      35.125  22.371  23.920  1.00  0.00     0.036 A 
ATOM     22  C   UNL A   1      32.350  21.694  24.030  1.00  0.00     0.024 A 
ATOM     23  C   UNL A   1      36.583  22.666  23.763  1.00  0.00     0.052 C 
ATOM     24  C   UNL A   1      34.097  23.275  23.553  1.00  0.00     0.145 A 
ATOM     25  C   UNL A   1      32.730  22.980  23.604  1.00  0.00     0.022 A 
ATOM     26  O   UNL A   1      34.515  24.509  23.006  1.00  0.00    -0.422 OA
ATOM     27  C   UNL A   1      31.744  23.946  23.056  1.00  0.00    -0.030 A 
ATOM     28  C   UNL A   1      33.653  25.327  22.303  1.00  0.00     0.339 A 
ATOM     29  C   UNL A   1      30.280  23.591  23.186  1.00  0.00     0.046 C 
ATOM     30  O   UNL A   1      34.080  26.259  21.627  1.00  0.00    -0.246 OA
ENDBRANCH  12  13
ENDBRANCH  11  12
ENDBRANCH   8  11
ENDBRANCH   6   7
BRANCH   6  31
ATOM     31  C   UNL A   1      31.056  27.025  26.301  1.00  0.00     0.072 C 
BRANCH  31  32
ATOM     32  C   UNL A   1      31.726  25.684  26.335  1.00  0.00    -0.045 A 
ATOM     33  C   UNL A   1      33.119  25.616  26.198  1.00  0.00     0.005 A 
ATOM     34  C   UNL A   1      30.993  24.548  26.694  1.00  0.00     0.005 A 
ATOM     35  C   UNL A   1      33.789  24.463  26.584  1.00  0.00     0.021 A 
ATOM     36  C   UNL A   1      31.666  23.384  27.048  1.00  0.00     0.021 A 
ATOM     37  C   UNL A   1      33.061  23.363  27.034  1.00  0.00     0.041 A 
ATOM     38  Cl  UNL A   1      33.896  21.980  27.622  1.00  0.00    -0.084 Cl
ENDBRANCH  31  32
ENDBRANCH   6  31
ENDBRANCH   4   6
ENDBRANCH   3   4
ENDBRANCH   2   3
ENDBRANCH   1   2
BRANCH   1  39
ATOM     39  O   UNL A   1      33.440  31.669  28.134  1.00  0.00    -0.374 OA
BRANCH  39  40
ATOM     40  C   UNL A   1      33.626  33.075  27.981  1.00  0.00     0.202 C 
BRANCH  40  41
ATOM     41  C   UNL A   1      34.336  33.825  29.108  1.00  0.00     0.261 C 
BRANCH  41  42
ATOM     42  O   UNL A   1      35.224  32.972  29.819  1.00  0.00    -0.460 OA
BRANCH  42  43
ATOM     43  C   UNL A   1      36.471  33.029  29.291  1.00  0.00     0.338 C 
ATOM     44  O   UNL A   1      36.825  33.592  28.277  1.00  0.00    -0.246 OA
BRANCH  43  45
ATOM     45  C   UNL A   1      37.429  32.390  30.189  1.00  0.00     0.060 A 
ATOM     46  C   UNL A   1      38.541  31.792  29.589  1.00  0.00     0.016 A 
ATOM     47  C   UNL A   1      37.147  32.231  31.538  1.00  0.00     0.016 A 
ATOM     48  C   UNL A   1      39.325  30.914  30.312  1.00  0.00     0.010 A 
ATOM     49  C   UNL A   1      37.907  31.319  32.249  1.00  0.00     0.010 A 
ATOM     50  C   UNL A   1      38.971  30.634  31.629  1.00  0.00    -0.014 A 
BRANCH  50  51
ATOM     51  C   UNL A   1      39.746  29.603  32.340  1.00  0.00     0.031 A 
ATOM     52  C   UNL A   1      39.774  28.308  31.603  1.00  0.00     0.074 A 
ATOM     53  C   UNL A   1      40.774  29.963  33.142  1.00  0.00     0.049 A 
ATOM     54  N   UNL A   1      40.527  28.178  30.551  1.00  0.00    -0.248 NA
ATOM     55  C   UNL A   1      38.735  27.286  31.706  1.00  0.00     0.031 C 
ATOM     56  C   UNL A   1      41.466  31.259  33.058  1.00  0.00     0.029 A 
ATOM     57  N   UNL A   1      41.535  29.239  34.032  1.00  0.00    -0.354 N 
ATOM     58  C   UNL A   1      40.005  27.160  29.788  1.00  0.00     0.074 A 
ATOM     59  C   UNL A   1      38.933  26.586  30.573  1.00  0.00     0.031 C 
ATOM     60  C   UNL A   1      42.638  31.172  33.716  1.00  0.00     0.029 A 
ATOM     61  C   UNL A   1      42.733  29.873  34.380  1.00  0.00     0.049 A 
ATOM     62  H   UNL A   1      41.263  28.362  34.390  1.00  0.00     0.167 HD
ATOM     63  C   UNL A   1      40.466  26.913  28.534  1.00  0.00     0.037 A 
ATOM     64  C   UNL A   1      43.915  29.203  34.518  1.00  0.00     0.037 A 
ATOM     65  C   UNL A   1      41.437  27.844  28.033  1.00  0.00     0.049 A 
ATOM     66  C   UNL A   1      44.166  28.735  33.099  1.00  0.00     0.074 A 
ATOM     67  C   UNL A   1      41.470  28.903  27.152  1.00  0.00     0.029 A 
ATOM     68  N   UNL A   1      42.712  27.781  28.545  1.00  0.00    -0.354 N 
ATOM     69  N   UNL A   1      44.605  29.466  32.107  1.00  0.00    -0.248 NA
ATOM     70  C   UNL A   1      43.557  27.467  32.695  1.00  0.00     0.031 C 
ATOM     71  C   UNL A   1      42.605  29.687  27.539  1.00  0.00     0.029 A 
ATOM     72  C   UNL A   1      43.178  29.066  28.649  1.00  0.00     0.049 A 
ATOM     73  H   UNL A   1      43.200  26.962  28.794  1.00  0.00     0.167 HD
ATOM     74  C   UNL A   1      44.086  28.874  30.951  1.00  0.00     0.074 A 
ATOM     75  C   UNL A   1      43.483  27.632  31.384  1.00  0.00     0.031 C 
ATOM     76  C   UNL A   1      44.017  29.504  29.742  1.00  0.00     0.037 A 
BRANCH  63  77
ATOM     77  C   UNL A   1      40.199  25.687  27.772  1.00  0.00     0.064 A 
ATOM     78  C   UNL A   1      38.905  25.565  27.240  1.00  0.00     0.173 A 
ATOM     79  C   UNL A   1      41.038  24.574  27.744  1.00  0.00     0.173 A 
ATOM     80  F   UNL A   1      38.070  26.618  27.270  1.00  0.00    -0.203 F 
ATOM     81  C   UNL A   1      38.444  24.358  26.740  1.00  0.00     0.198 A 
ATOM     82  C   UNL A   1      40.577  23.362  27.227  1.00  0.00     0.198 A 
ATOM     83  F   UNL A   1      42.275  24.640  28.259  1.00  0.00    -0.203 F 
ATOM     84  F   UNL A   1      37.183  24.261  26.298  1.00  0.00    -0.200 F 
ATOM     85  C   UNL A   1      39.277  23.253  26.742  1.00  0.00     0.200 A 
ATOM     86  F   UNL A   1      41.376  22.286  27.227  1.00  0.00    -0.200 F 
ATOM     87  F   UNL A   1      38.822  22.076  26.290  1.00  0.00    -0.200 F 
ENDBRANCH  63  77
BRANCH  64  88
ATOM     88  C   UNL A   1      43.996  28.304  35.716  1.00  0.00     0.064 A 
ATOM     89  C   UNL A   1      45.085  28.460  36.602  1.00  0.00     0.173 A 
ATOM     90  C   UNL A   1      43.067  27.311  36.060  1.00  0.00     0.173 A 
ATOM     91  F   UNL A   1      46.093  29.291  36.294  1.00  0.00    -0.203 F 
ATOM     92  C   UNL A   1      45.149  27.789  37.823  1.00  0.00     0.198 A 
ATOM     93  C   UNL A   1      43.113  26.662  37.297  1.00  0.00     0.198 A 
ATOM     94  F   UNL A   1      42.083  26.962  35.222  1.00  0.00    -0.203 F 
ATOM     95  F   UNL A   1      46.175  28.015  38.656  1.00  0.00    -0.200 F 
ATOM     96  C   UNL A   1      44.140  26.918  38.188  1.00  0.00     0.200 A 
ATOM     97  F   UNL A   1      42.138  25.806  37.635  1.00  0.00    -0.200 F 
ATOM     98  F   UNL A   1      44.158  26.328  39.390  1.00  0.00    -0.200 F 
ENDBRANCH  64  88
BRANCH  76  99
ATOM     99  C   UNL A   1      44.710  30.819  29.656  1.00  0.00     0.064 A 
ATOM    100  C   UNL A   1      43.995  31.999  29.898  1.00  0.00     0.173 A 
ATOM    101  C   UNL A   1      46.088  30.921  29.410  1.00  0.00     0.173 A 
ATOM    102  F   UNL A   1      42.677  31.951  30.153  1.00  0.00    -0.203 F 
ATOM    103  C   UNL A   1      44.638  33.232  29.921  1.00  0.00     0.198 A 
ATOM    104  C   UNL A   1      46.732  32.155  29.461  1.00  0.00     0.198 A 
ATOM    105  F   UNL A   1      46.825  29.827  29.156  1.00  0.00    -0.203 F 
ATOM    106  F   UNL A   1      43.936  34.346  30.171  1.00  0.00    -0.200 F 
ATOM    107  C   UNL A   1      46.007  33.307  29.719  1.00  0.00     0.200 A 
ATOM    108  F   UNL A   1      48.060  32.225  29.289  1.00  0.00    -0.200 F 
ATOM    109  F   UNL A   1      46.632  34.491  29.795  1.00  0.00    -0.200 F 
ENDBRANCH  76  99
ENDBRANCH  50  51
ENDBRANCH  43  45
ENDBRANCH  42  43
ENDBRANCH  41  42
ENDBRANCH  40  41
ENDBRANCH  39  40
ENDBRANCH   1  39
TORSDOF 20
ENDMDL
