MODEL 1
REMARK VINA RESULT:      -9.6      0.000      0.000
REMARK SMILES CCN(C(=O)N(CCOC)CC(=O)OCCOCCOC(=O)c1ccc(-c2c3nc(c(-c4c(F)c(F)c(F)c(F)c4F)c4ccc([nH]4)c(-c4c(F)c(F)c(F)c(F)c4F)c4nc(c(-c5c(F)c(F)c(F)c(F)c5F)c5ccc2[nH]5)C=C4)C=C3)cc1)C1CCCC1
REMARK SMILES IDX 16 1 15 2 14 3 12 4 13 5 11 6 6 7 4 8 5 9 3 10 2 11 1 12
REMARK SMILES IDX 86 13 87 14 90 15 88 16 89 17 7 18 8 19 9 20 10 21 17 22
REMARK SMILES IDX 18 23 19 24 20 25 21 26 22 27 23 28 24 29 85 30 25 31 84 32
REMARK SMILES IDX 26 33 27 34 28 35 78 36 29 37 83 38 77 39 79 40 30 41 82 42
REMARK SMILES IDX 76 43 75 44 31 46 63 47 43 48 62 49 44 50 47 51 61 52 80 53
REMARK SMILES IDX 45 54 46 55 60 57 81 58 48 59 32 60 33 61 41 62 34 63 35 64
REMARK SMILES IDX 39 65 42 66 36 67 37 68 40 69 38 70 64 71 65 72 73 73 66 74
REMARK SMILES IDX 67 75 71 76 74 77 68 78 69 79 72 80 70 81 49 82 50 83 58 84
REMARK SMILES IDX 51 85 52 86 56 87 59 88 53 89 54 90 57 91 55 92
REMARK H PARENT 79 45 47 56
REMARK Flexibility Score: inf
ROOT
ATOM      1  C   UNL A   1      40.342  21.004  26.097  1.00  0.00     0.202 C 
ENDROOT
BRANCH   1   2
ATOM      2  C   UNL A   1      39.303  22.128  26.193  1.00  0.00     0.261 C 
BRANCH   2   3
ATOM      3  O   UNL A   1      37.969  21.757  25.774  1.00  0.00    -0.462 OA
BRANCH   3   4
ATOM      4  C   UNL A   1      37.176  22.807  25.409  1.00  0.00     0.325 C 
ATOM      5  O   UNL A   1      37.335  23.959  25.812  1.00  0.00    -0.250 OA
BRANCH   4   6
ATOM      6  C   UNL A   1      35.991  22.460  24.504  1.00  0.00     0.244 C 
BRANCH   6   7
ATOM      7  N   UNL A   1      34.740  21.842  25.006  1.00  0.00    -0.311 N 
BRANCH   7   8
ATOM      8  C   UNL A   1      33.816  22.735  25.534  1.00  0.00     0.320 C 
ATOM      9  O   UNL A   1      33.792  22.835  26.765  1.00  0.00    -0.248 OA
BRANCH   8  10
ATOM     10  N   UNL A   1      32.940  23.488  24.761  1.00  0.00    -0.322 N 
BRANCH  10  11
ATOM     11  C   UNL A   1      32.223  23.055  23.556  1.00  0.00     0.118 C 
ATOM     12  C   UNL A   1      30.856  23.720  23.419  1.00  0.00     0.027 C 
ENDBRANCH  10  11
BRANCH  10  13
ATOM     13  C   UNL A   1      32.662  24.924  25.082  1.00  0.00     0.087 C 
ATOM     14  C   UNL A   1      31.996  25.378  26.390  1.00  0.00     0.025 C 
ATOM     15  C   UNL A   1      33.920  25.810  24.980  1.00  0.00     0.025 C 
ATOM     16  C   UNL A   1      32.271  26.878  26.421  1.00  0.00     0.002 C 
ATOM     17  C   UNL A   1      33.684  27.023  25.874  1.00  0.00     0.002 C 
ENDBRANCH  10  13
ENDBRANCH   8  10
ENDBRANCH   7   8
BRANCH   7  18
ATOM     18  C   UNL A   1      34.791  20.371  25.042  1.00  0.00     0.150 C 
BRANCH  18  19
ATOM     19  C   UNL A   1      33.538  19.698  24.465  1.00  0.00     0.181 C 
BRANCH  19  20
ATOM     20  O   UNL A   1      33.550  18.301  24.770  1.00  0.00    -0.383 OA
ATOM     21  C   UNL A   1      33.455  17.473  23.623  1.00  0.00     0.194 C 
ENDBRANCH  19  20
ENDBRANCH  18  19
ENDBRANCH   7  18
ENDBRANCH   6   7
ENDBRANCH   4   6
ENDBRANCH   3   4
ENDBRANCH   2   3
ENDBRANCH   1   2
BRANCH   1  22
ATOM     22  O   UNL A   1      41.614  21.234  26.697  1.00  0.00    -0.374 OA
BRANCH  22  23
ATOM     23  C   UNL A   1      42.762  20.942  25.906  1.00  0.00     0.202 C 
BRANCH  23  24
ATOM     24  C   UNL A   1      43.662  22.128  25.557  1.00  0.00     0.261 C 
BRANCH  24  25
ATOM     25  O   UNL A   1      42.971  23.260  25.009  1.00  0.00    -0.460 OA
BRANCH  25  26
ATOM     26  C   UNL A   1      43.638  24.425  25.117  1.00  0.00     0.338 C 
ATOM     27  O   UNL A   1      44.648  24.780  24.512  1.00  0.00    -0.246 OA
BRANCH  26  28
ATOM     28  C   UNL A   1      42.941  25.328  26.035  1.00  0.00     0.060 A 
ATOM     29  C   UNL A   1      43.474  26.607  26.231  1.00  0.00     0.016 A 
ATOM     30  C   UNL A   1      41.874  24.866  26.809  1.00  0.00     0.016 A 
ATOM     31  C   UNL A   1      42.970  27.414  27.247  1.00  0.00     0.010 A 
ATOM     32  C   UNL A   1      41.370  25.679  27.828  1.00  0.00     0.010 A 
ATOM     33  C   UNL A   1      41.942  26.940  28.076  1.00  0.00    -0.014 A 
BRANCH  33  34
ATOM     34  C   UNL A   1      41.554  27.721  29.274  1.00  0.00     0.031 A 
ATOM     35  C   UNL A   1      40.334  28.598  29.220  1.00  0.00     0.074 A 
ATOM     36  C   UNL A   1      42.269  27.621  30.407  1.00  0.00     0.049 A 
ATOM     37  N   UNL A   1      39.815  29.356  30.153  1.00  0.00    -0.248 NA
ATOM     38  C   UNL A   1      39.599  28.623  27.945  1.00  0.00     0.031 C 
ATOM     39  C   UNL A   1      43.455  26.785  30.580  1.00  0.00     0.029 A 
ATOM     40  N   UNL A   1      42.101  28.227  31.625  1.00  0.00    -0.354 N 
ATOM     41  C   UNL A   1      38.696  29.946  29.580  1.00  0.00     0.074 A 
ATOM     42  C   UNL A   1      38.628  29.485  28.210  1.00  0.00     0.031 C 
ATOM     43  C   UNL A   1      43.914  26.934  31.834  1.00  0.00     0.029 A 
ATOM     44  C   UNL A   1      43.066  27.893  32.541  1.00  0.00     0.049 A 
ATOM     45  H   UNL A   1      41.360  28.844  31.823  1.00  0.00     0.167 HD
ATOM     46  C   UNL A   1      37.800  30.787  30.152  1.00  0.00     0.037 A 
ATOM     47  C   UNL A   1      43.251  28.324  33.804  1.00  0.00     0.037 A 
ATOM     48  C   UNL A   1      37.872  31.241  31.516  1.00  0.00     0.049 A 
ATOM     49  C   UNL A   1      42.271  29.301  34.398  1.00  0.00     0.074 A 
ATOM     50  C   UNL A   1      37.000  32.073  32.197  1.00  0.00     0.029 A 
ATOM     51  N   UNL A   1      38.882  30.905  32.406  1.00  0.00    -0.354 N 
ATOM     52  N   UNL A   1      41.197  29.825  33.860  1.00  0.00    -0.248 NA
ATOM     53  C   UNL A   1      42.529  29.742  35.776  1.00  0.00     0.031 C 
ATOM     54  C   UNL A   1      37.506  32.275  33.486  1.00  0.00     0.029 A 
ATOM     55  C   UNL A   1      38.670  31.534  33.621  1.00  0.00     0.049 A 
ATOM     56  H   UNL A   1      39.638  30.308  32.202  1.00  0.00     0.167 HD
ATOM     57  C   UNL A   1      40.639  30.640  34.837  1.00  0.00     0.074 A 
ATOM     58  C   UNL A   1      41.486  30.528  36.007  1.00  0.00     0.031 C 
ATOM     59  C   UNL A   1      39.526  31.411  34.773  1.00  0.00     0.037 A 
BRANCH  46  60
ATOM     60  C   UNL A   1      36.672  31.284  29.297  1.00  0.00     0.064 A 
ATOM     61  C   UNL A   1      35.592  30.459  28.950  1.00  0.00     0.173 A 
ATOM     62  C   UNL A   1      36.654  32.613  28.847  1.00  0.00     0.173 A 
ATOM     63  F   UNL A   1      35.569  29.176  29.345  1.00  0.00    -0.203 F 
ATOM     64  C   UNL A   1      34.545  30.940  28.169  1.00  0.00     0.198 A 
ATOM     65  C   UNL A   1      35.594  33.098  28.086  1.00  0.00     0.198 A 
ATOM     66  F   UNL A   1      37.661  33.444  29.153  1.00  0.00    -0.203 F 
ATOM     67  F   UNL A   1      33.542  30.124  27.817  1.00  0.00    -0.200 F 
ATOM     68  C   UNL A   1      34.544  32.260  27.742  1.00  0.00     0.200 A 
ATOM     69  F   UNL A   1      35.589  34.377  27.684  1.00  0.00    -0.200 F 
ATOM     70  F   UNL A   1      33.532  32.724  26.996  1.00  0.00    -0.200 F 
ENDBRANCH  46  60
BRANCH  47  71
ATOM     71  C   UNL A   1      44.412  27.833  34.589  1.00  0.00     0.064 A 
ATOM     72  C   UNL A   1      44.325  26.663  35.355  1.00  0.00     0.173 A 
ATOM     73  C   UNL A   1      45.631  28.525  34.587  1.00  0.00     0.173 A 
ATOM     74  F   UNL A   1      43.172  25.979  35.405  1.00  0.00    -0.203 F 
ATOM     75  C   UNL A   1      45.411  26.211  36.100  1.00  0.00     0.198 A 
ATOM     76  C   UNL A   1      46.724  28.059  35.312  1.00  0.00     0.198 A 
ATOM     77  F   UNL A   1      45.764  29.650  33.869  1.00  0.00    -0.203 F 
ATOM     78  F   UNL A   1      45.292  25.109  36.854  1.00  0.00    -0.200 F 
ATOM     79  C   UNL A   1      46.612  26.905  36.074  1.00  0.00     0.200 A 
ATOM     80  F   UNL A   1      47.885  28.725  35.274  1.00  0.00    -0.200 F 
ATOM     81  F   UNL A   1      47.659  26.465  36.785  1.00  0.00    -0.200 F 
ENDBRANCH  47  71
BRANCH  59  82
ATOM     82  C   UNL A   1      39.152  32.179  36.007  1.00  0.00     0.064 A 
ATOM     83  C   UNL A   1      39.627  33.479  36.232  1.00  0.00     0.173 A 
ATOM     84  C   UNL A   1      38.280  31.622  36.954  1.00  0.00     0.173 A 
ATOM     85  F   UNL A   1      40.476  34.048  35.363  1.00  0.00    -0.203 F 
ATOM     86  C   UNL A   1      39.260  34.185  37.375  1.00  0.00     0.198 A 
ATOM     87  C   UNL A   1      37.894  32.341  38.082  1.00  0.00     0.198 A 
ATOM     88  F   UNL A   1      37.794  30.384  36.780  1.00  0.00    -0.203 F 
ATOM     89  F   UNL A   1      39.760  35.409  37.593  1.00  0.00    -0.200 F 
ATOM     90  C   UNL A   1      38.390  33.619  38.294  1.00  0.00     0.200 A 
ATOM     91  F   UNL A   1      37.045  31.797  38.963  1.00  0.00    -0.200 F 
ATOM     92  F   UNL A   1      38.034  34.302  39.391  1.00  0.00    -0.200 F 
ENDBRANCH  59  82
ENDBRANCH  33  34
ENDBRANCH  26  28
ENDBRANCH  25  26
ENDBRANCH  24  25
ENDBRANCH  23  24
ENDBRANCH  22  23
ENDBRANCH   1  22
TORSDOF 22
ENDMDL
MODEL 2
REMARK VINA RESULT:      -9.4      3.301      8.964
REMARK SMILES CCN(C(=O)N(CCOC)CC(=O)OCCOCCOC(=O)c1ccc(-c2c3nc(c(-c4c(F)c(F)c(F)c(F)c4F)c4ccc([nH]4)c(-c4c(F)c(F)c(F)c(F)c4F)c4nc(c(-c5c(F)c(F)c(F)c(F)c5F)c5ccc2[nH]5)C=C4)C=C3)cc1)C1CCCC1
REMARK SMILES IDX 16 1 15 2 14 3 12 4 13 5 11 6 6 7 4 8 5 9 3 10 2 11 1 12
REMARK SMILES IDX 86 13 87 14 90 15 88 16 89 17 7 18 8 19 9 20 10 21 17 22
REMARK SMILES IDX 18 23 19 24 20 25 21 26 22 27 23 28 24 29 85 30 25 31 84 32
REMARK SMILES IDX 26 33 27 34 28 35 78 36 29 37 83 38 77 39 79 40 30 41 82 42
REMARK SMILES IDX 76 43 75 44 31 46 63 47 43 48 62 49 44 50 47 51 61 52 80 53
REMARK SMILES IDX 45 54 46 55 60 57 81 58 48 59 32 60 33 61 41 62 34 63 35 64
REMARK SMILES IDX 39 65 42 66 36 67 37 68 40 69 38 70 64 71 65 72 73 73 66 74
REMARK SMILES IDX 67 75 71 76 74 77 68 78 69 79 72 80 70 81 49 82 50 83 58 84
REMARK SMILES IDX 51 85 52 86 56 87 59 88 53 89 54 90 57 91 55 92
REMARK H PARENT 79 45 47 56
REMARK Flexibility Score: inf
ROOT
ATOM      1  C   UNL A   1      32.498  29.991  25.771  1.00  0.00     0.202 C 
ENDROOT
BRANCH   1   2
ATOM      2  C   UNL A   1      33.485  29.068  25.044  1.00  0.00     0.261 C 
BRANCH   2   3
ATOM      3  O   UNL A   1      33.345  29.045  23.605  1.00  0.00    -0.462 OA
BRANCH   3   4
ATOM      4  C   UNL A   1      33.751  27.884  23.014  1.00  0.00     0.325 C 
ATOM      5  O   UNL A   1      34.003  27.776  21.814  1.00  0.00    -0.250 OA
BRANCH   4   6
ATOM      6  C   UNL A   1      33.808  26.658  23.930  1.00  0.00     0.244 C 
BRANCH   6   7
ATOM      7  N   UNL A   1      32.614  25.851  24.281  1.00  0.00    -0.311 N 
BRANCH   7   8
ATOM      8  C   UNL A   1      32.843  24.836  25.202  1.00  0.00     0.320 C 
ATOM      9  O   UNL A   1      32.840  25.165  26.393  1.00  0.00    -0.248 OA
BRANCH   8  10
ATOM     10  N   UNL A   1      33.078  23.512  24.851  1.00  0.00    -0.322 N 
BRANCH  10  11
ATOM     11  C   UNL A   1      32.097  22.423  24.787  1.00  0.00     0.118 C 
ATOM     12  C   UNL A   1      31.037  22.527  25.879  1.00  0.00     0.027 C 
ENDBRANCH  10  11
BRANCH  10  13
ATOM     13  C   UNL A   1      34.459  23.030  24.527  1.00  0.00     0.087 C 
ATOM     14  C   UNL A   1      35.131  23.266  23.166  1.00  0.00     0.025 C 
ATOM     15  C   UNL A   1      35.510  23.508  25.548  1.00  0.00     0.025 C 
ATOM     16  C   UNL A   1      36.598  22.949  23.441  1.00  0.00     0.002 C 
ATOM     17  C   UNL A   1      36.858  23.504  24.834  1.00  0.00     0.002 C 
ENDBRANCH  10  13
ENDBRANCH   8  10
ENDBRANCH   7   8
BRANCH   7  18
ATOM     18  C   UNL A   1      31.445  26.142  23.436  1.00  0.00     0.150 C 
BRANCH  18  19
ATOM     19  C   UNL A   1      30.279  26.785  24.198  1.00  0.00     0.181 C 
BRANCH  19  20
ATOM     20  O   UNL A   1      30.190  28.175  23.873  1.00  0.00    -0.383 OA
ATOM     21  C   UNL A   1      30.022  28.421  22.487  1.00  0.00     0.194 C 
ENDBRANCH  19  20
ENDBRANCH  18  19
ENDBRANCH   7  18
ENDBRANCH   6   7
ENDBRANCH   4   6
ENDBRANCH   3   4
ENDBRANCH   2   3
ENDBRANCH   1   2
BRANCH   1  22
ATOM     22  O   UNL A   1      32.691  30.186  27.170  1.00  0.00    -0.374 OA
BRANCH  22  23
ATOM     23  C   UNL A   1      33.347  31.385  27.569  1.00  0.00     0.202 C 
BRANCH  23  24
ATOM     24  C   UNL A   1      32.485  32.649  27.603  1.00  0.00     0.261 C 
BRANCH  24  25
ATOM     25  O   UNL A   1      33.221  33.875  27.481  1.00  0.00    -0.460 OA
BRANCH  25  26
ATOM     26  C   UNL A   1      33.292  34.597  28.616  1.00  0.00     0.338 C 
ATOM     27  O   UNL A   1      32.502  35.446  29.025  1.00  0.00    -0.246 OA
BRANCH  26  28
ATOM     28  C   UNL A   1      34.445  34.179  29.415  1.00  0.00     0.060 A 
ATOM     29  C   UNL A   1      35.723  34.397  28.888  1.00  0.00     0.016 A 
ATOM     30  C   UNL A   1      34.266  33.442  30.588  1.00  0.00     0.016 A 
ATOM     31  C   UNL A   1      36.831  33.828  29.512  1.00  0.00     0.010 A 
ATOM     32  C   UNL A   1      35.379  32.872  31.211  1.00  0.00     0.010 A 
ATOM     33  C   UNL A   1      36.660  33.031  30.653  1.00  0.00    -0.014 A 
BRANCH  33  34
ATOM     34  C   UNL A   1      37.814  32.269  31.187  1.00  0.00     0.031 A 
ATOM     35  C   UNL A   1      38.334  32.584  32.562  1.00  0.00     0.074 A 
ATOM     36  C   UNL A   1      38.368  31.283  30.460  1.00  0.00     0.049 A 
ATOM     37  N   UNL A   1      39.325  32.036  33.220  1.00  0.00    -0.248 NA
ATOM     38  C   UNL A   1      37.648  33.661  33.293  1.00  0.00     0.031 C 
ATOM     39  C   UNL A   1      37.931  30.876  29.127  1.00  0.00     0.029 A 
ATOM     40  N   UNL A   1      39.417  30.448  30.743  1.00  0.00    -0.354 N 
ATOM     41  C   UNL A   1      39.378  32.698  34.440  1.00  0.00     0.074 A 
ATOM     42  C   UNL A   1      38.344  33.711  34.419  1.00  0.00     0.031 C 
ATOM     43  C   UNL A   1      38.711  29.867  28.703  1.00  0.00     0.029 A 
ATOM     44  C   UNL A   1      39.715  29.578  29.725  1.00  0.00     0.049 A 
ATOM     45  H   UNL A   1      39.911  30.471  31.594  1.00  0.00     0.167 HD
ATOM     46  C   UNL A   1      40.209  32.472  35.486  1.00  0.00     0.037 A 
ATOM     47  C   UNL A   1      40.695  28.659  29.627  1.00  0.00     0.037 A 
ATOM     48  C   UNL A   1      41.235  31.462  35.502  1.00  0.00     0.049 A 
ATOM     49  C   UNL A   1      41.639  28.465  30.783  1.00  0.00     0.074 A 
ATOM     50  C   UNL A   1      42.111  31.137  36.523  1.00  0.00     0.029 A 
ATOM     51  N   UNL A   1      41.526  30.619  34.440  1.00  0.00    -0.354 N 
ATOM     52  N   UNL A   1      41.660  29.071  31.945  1.00  0.00    -0.248 NA
ATOM     53  C   UNL A   1      42.694  27.456  30.613  1.00  0.00     0.031 C 
ATOM     54  C   UNL A   1      42.962  30.126  36.062  1.00  0.00     0.029 A 
ATOM     55  C   UNL A   1      42.587  29.791  34.771  1.00  0.00     0.049 A 
ATOM     56  H   UNL A   1      41.050  30.611  33.579  1.00  0.00     0.167 HD
ATOM     57  C   UNL A   1      42.712  28.505  32.653  1.00  0.00     0.074 A 
ATOM     58  C   UNL A   1      43.296  27.494  31.795  1.00  0.00     0.031 C 
ATOM     59  C   UNL A   1      43.155  28.793  33.901  1.00  0.00     0.037 A 
BRANCH  46  60
ATOM     60  C   UNL A   1      40.053  33.344  36.697  1.00  0.00     0.064 A 
ATOM     61  C   UNL A   1      39.132  33.038  37.711  1.00  0.00     0.173 A 
ATOM     62  C   UNL A   1      40.859  34.481  36.862  1.00  0.00     0.173 A 
ATOM     63  F   UNL A   1      38.330  31.969  37.593  1.00  0.00    -0.203 F 
ATOM     64  C   UNL A   1      39.010  33.850  38.836  1.00  0.00     0.198 A 
ATOM     65  C   UNL A   1      40.751  35.277  38.000  1.00  0.00     0.198 A 
ATOM     66  F   UNL A   1      41.757  34.816  35.924  1.00  0.00    -0.203 F 
ATOM     67  F   UNL A   1      38.098  33.561  39.774  1.00  0.00    -0.200 F 
ATOM     68  C   UNL A   1      39.823  34.964  38.982  1.00  0.00     0.200 A 
ATOM     69  F   UNL A   1      41.545  36.346  38.146  1.00  0.00    -0.200 F 
ATOM     70  F   UNL A   1      39.710  35.740  40.069  1.00  0.00    -0.200 F 
ENDBRANCH  46  60
BRANCH  47  71
ATOM     71  C   UNL A   1      40.831  27.855  28.385  1.00  0.00     0.064 A 
ATOM     72  C   UNL A   1      40.229  26.595  28.269  1.00  0.00     0.173 A 
ATOM     73  C   UNL A   1      41.566  28.333  27.291  1.00  0.00     0.173 A 
ATOM     74  F   UNL A   1      39.534  26.087  29.298  1.00  0.00    -0.203 F 
ATOM     75  C   UNL A   1      40.368  25.838  27.108  1.00  0.00     0.198 A 
ATOM     76  C   UNL A   1      41.683  27.586  26.122  1.00  0.00     0.198 A 
ATOM     77  F   UNL A   1      42.161  29.534  27.354  1.00  0.00    -0.203 F 
ATOM     78  F   UNL A   1      39.813  24.621  27.035  1.00  0.00    -0.200 F 
ATOM     79  C   UNL A   1      41.089  26.336  26.033  1.00  0.00     0.200 A 
ATOM     80  F   UNL A   1      42.370  28.077  25.081  1.00  0.00    -0.200 F 
ATOM     81  F   UNL A   1      41.216  25.610  24.914  1.00  0.00    -0.200 F 
ENDBRANCH  47  71
BRANCH  59  82
ATOM     82  C   UNL A   1      44.316  27.995  34.418  1.00  0.00     0.064 A 
ATOM     83  C   UNL A   1      44.125  26.839  35.189  1.00  0.00     0.173 A 
ATOM     84  C   UNL A   1      45.631  28.370  34.106  1.00  0.00     0.173 A 
ATOM     85  F   UNL A   1      42.885  26.450  35.525  1.00  0.00    -0.203 F 
ATOM     86  C   UNL A   1      45.211  26.101  35.649  1.00  0.00     0.198 A 
ATOM     87  C   UNL A   1      46.714  27.614  34.546  1.00  0.00     0.198 A 
ATOM     88  F   UNL A   1      45.865  29.465  33.367  1.00  0.00    -0.203 F 
ATOM     89  F   UNL A   1      45.008  25.024  36.421  1.00  0.00    -0.200 F 
ATOM     90  C   UNL A   1      46.504  26.484  35.322  1.00  0.00     0.200 A 
ATOM     91  F   UNL A   1      47.961  27.979  34.220  1.00  0.00    -0.200 F 
ATOM     92  F   UNL A   1      47.548  25.768  35.762  1.00  0.00    -0.200 F 
ENDBRANCH  59  82
ENDBRANCH  33  34
ENDBRANCH  26  28
ENDBRANCH  25  26
ENDBRANCH  24  25
ENDBRANCH  23  24
ENDBRANCH  22  23
ENDBRANCH   1  22
TORSDOF 22
ENDMDL
MODEL 3
REMARK VINA RESULT:      -9.4      3.701      8.556
REMARK SMILES CCN(C(=O)N(CCOC)CC(=O)OCCOCCOC(=O)c1ccc(-c2c3nc(c(-c4c(F)c(F)c(F)c(F)c4F)c4ccc([nH]4)c(-c4c(F)c(F)c(F)c(F)c4F)c4nc(c(-c5c(F)c(F)c(F)c(F)c5F)c5ccc2[nH]5)C=C4)C=C3)cc1)C1CCCC1
REMARK SMILES IDX 16 1 15 2 14 3 12 4 13 5 11 6 6 7 4 8 5 9 3 10 2 11 1 12
REMARK SMILES IDX 86 13 87 14 90 15 88 16 89 17 7 18 8 19 9 20 10 21 17 22
REMARK SMILES IDX 18 23 19 24 20 25 21 26 22 27 23 28 24 29 85 30 25 31 84 32
REMARK SMILES IDX 26 33 27 34 28 35 78 36 29 37 83 38 77 39 79 40 30 41 82 42
REMARK SMILES IDX 76 43 75 44 31 46 63 47 43 48 62 49 44 50 47 51 61 52 80 53
REMARK SMILES IDX 45 54 46 55 60 57 81 58 48 59 32 60 33 61 41 62 34 63 35 64
REMARK SMILES IDX 39 65 42 66 36 67 37 68 40 69 38 70 64 71 65 72 73 73 66 74
REMARK SMILES IDX 67 75 71 76 74 77 68 78 69 79 72 80 70 81 49 82 50 83 58 84
REMARK SMILES IDX 51 85 52 86 56 87 59 88 53 89 54 90 57 91 55 92
REMARK H PARENT 79 45 47 56
REMARK Flexibility Score: inf
ROOT
ATOM      1  C   UNL A   1      34.690  29.821  27.299  1.00  0.00     0.202 C 
ENDROOT
BRANCH   1   2
ATOM      2  C   UNL A   1      33.849  28.843  26.468  1.00  0.00     0.261 C 
BRANCH   2   3
ATOM      3  O   UNL A   1      32.849  28.116  27.218  1.00  0.00    -0.462 OA
BRANCH   3   4
ATOM      4  C   UNL A   1      31.824  27.619  26.464  1.00  0.00     0.325 C 
ATOM      5  O   UNL A   1      30.968  26.847  26.895  1.00  0.00    -0.250 OA
BRANCH   4   6
ATOM      6  C   UNL A   1      31.833  28.020  24.986  1.00  0.00     0.244 C 
BRANCH   6   7
ATOM      7  N   UNL A   1      30.860  27.495  23.998  1.00  0.00    -0.311 N 
BRANCH   7   8
ATOM      8  C   UNL A   1      31.154  26.231  23.501  1.00  0.00     0.320 C 
ATOM      9  O   UNL A   1      30.203  25.447  23.400  1.00  0.00    -0.248 OA
BRANCH   8  10
ATOM     10  N   UNL A   1      32.431  25.821  23.135  1.00  0.00    -0.322 N 
BRANCH  10  11
ATOM     11  C   UNL A   1      33.163  26.183  21.915  1.00  0.00     0.118 C 
ATOM     12  C   UNL A   1      32.648  25.445  20.684  1.00  0.00     0.027 C 
ENDBRANCH  10  11
BRANCH  10  13
ATOM     13  C   UNL A   1      33.213  24.871  23.987  1.00  0.00     0.087 C 
ATOM     14  C   UNL A   1      34.459  25.291  24.784  1.00  0.00     0.025 C 
ATOM     15  C   UNL A   1      32.337  24.144  25.026  1.00  0.00     0.025 C 
ATOM     16  C   UNL A   1      34.663  24.129  25.751  1.00  0.00     0.002 C 
ATOM     17  C   UNL A   1      33.257  23.721  26.167  1.00  0.00     0.002 C 
ENDBRANCH  10  13
ENDBRANCH   8  10
ENDBRANCH   7   8
BRANCH   7  18
ATOM     18  C   UNL A   1      29.868  28.494  23.570  1.00  0.00     0.150 C 
BRANCH  18  19
ATOM     19  C   UNL A   1      30.305  29.310  22.345  1.00  0.00     0.181 C 
BRANCH  19  20
ATOM     20  O   UNL A   1      29.173  29.600  21.522  1.00  0.00    -0.383 OA
ATOM     21  C   UNL A   1      28.852  30.980  21.471  1.00  0.00     0.194 C 
ENDBRANCH  19  20
ENDBRANCH  18  19
ENDBRANCH   7  18
ENDBRANCH   6   7
ENDBRANCH   4   6
ENDBRANCH   3   4
ENDBRANCH   2   3
ENDBRANCH   1   2
BRANCH   1  22
ATOM     22  O   UNL A   1      34.301  31.192  27.289  1.00  0.00    -0.374 OA
BRANCH  22  23
ATOM     23  C   UNL A   1      32.944  31.480  27.610  1.00  0.00     0.202 C 
BRANCH  23  24
ATOM     24  C   UNL A   1      32.459  32.895  27.293  1.00  0.00     0.261 C 
BRANCH  24  25
ATOM     25  O   UNL A   1      33.462  33.913  27.431  1.00  0.00    -0.460 OA
BRANCH  25  26
ATOM     26  C   UNL A   1      33.388  34.614  28.579  1.00  0.00     0.338 C 
ATOM     27  O   UNL A   1      32.515  35.408  28.929  1.00  0.00    -0.246 OA
BRANCH  26  28
ATOM     28  C   UNL A   1      34.489  34.248  29.472  1.00  0.00     0.060 A 
ATOM     29  C   UNL A   1      35.795  34.512  29.047  1.00  0.00     0.016 A 
ATOM     30  C   UNL A   1      34.244  33.514  30.635  1.00  0.00     0.016 A 
ATOM     31  C   UNL A   1      36.870  33.992  29.763  1.00  0.00     0.010 A 
ATOM     32  C   UNL A   1      35.325  32.993  31.351  1.00  0.00     0.010 A 
ATOM     33  C   UNL A   1      36.640  33.197  30.896  1.00  0.00    -0.014 A 
BRANCH  33  34
ATOM     34  C   UNL A   1      37.776  32.485  31.529  1.00  0.00     0.031 A 
ATOM     35  C   UNL A   1      38.444  31.358  30.792  1.00  0.00     0.074 A 
ATOM     36  C   UNL A   1      38.223  32.867  32.738  1.00  0.00     0.049 A 
ATOM     37  N   UNL A   1      39.454  30.610  31.160  1.00  0.00    -0.248 NA
ATOM     38  C   UNL A   1      37.902  31.030  29.464  1.00  0.00     0.031 C 
ATOM     39  C   UNL A   1      37.667  33.961  33.532  1.00  0.00     0.029 A 
ATOM     40  N   UNL A   1      39.246  32.376  33.506  1.00  0.00    -0.354 N 
ATOM     41  C   UNL A   1      39.669  29.726  30.110  1.00  0.00     0.074 A 
ATOM     42  C   UNL A   1      38.665  30.007  29.106  1.00  0.00     0.031 C 
ATOM     43  C   UNL A   1      38.355  34.056  34.682  1.00  0.00     0.029 A 
ATOM     44  C   UNL A   1      39.382  33.016  34.712  1.00  0.00     0.049 A 
ATOM     45  H   UNL A   1      39.828  31.635  33.220  1.00  0.00     0.167 HD
ATOM     46  C   UNL A   1      40.626  28.774  29.992  1.00  0.00     0.037 A 
ATOM     47  C   UNL A   1      40.231  32.779  35.730  1.00  0.00     0.037 A 
ATOM     48  C   UNL A   1      41.623  28.501  30.993  1.00  0.00     0.049 A 
ATOM     49  C   UNL A   1      41.251  31.679  35.596  1.00  0.00     0.074 A 
ATOM     50  C   UNL A   1      42.652  27.576  30.958  1.00  0.00     0.029 A 
ATOM     51  N   UNL A   1      41.711  29.150  32.216  1.00  0.00    -0.354 N 
ATOM     52  N   UNL A   1      41.469  30.872  34.586  1.00  0.00    -0.248 NA
ATOM     53  C   UNL A   1      42.143  31.461  36.742  1.00  0.00     0.031 C 
ATOM     54  C   UNL A   1      43.335  27.634  32.178  1.00  0.00     0.029 A 
ATOM     55  C   UNL A   1      42.759  28.626  32.956  1.00  0.00     0.049 A 
ATOM     56  H   UNL A   1      41.114  29.874  32.515  1.00  0.00     0.167 HD
ATOM     57  C   UNL A   1      42.534  30.066  34.964  1.00  0.00     0.074 A 
ATOM     58  C   UNL A   1      42.929  30.492  36.291  1.00  0.00     0.031 C 
ATOM     59  C   UNL A   1      43.134  29.063  34.276  1.00  0.00     0.037 A 
BRANCH  46  60
ATOM     60  C   UNL A   1      40.631  27.947  28.741  1.00  0.00     0.064 A 
ATOM     61  C   UNL A   1      41.387  28.315  27.618  1.00  0.00     0.173 A 
ATOM     62  C   UNL A   1      39.897  26.753  28.676  1.00  0.00     0.173 A 
ATOM     63  F   UNL A   1      42.096  29.455  27.625  1.00  0.00    -0.203 F 
ATOM     64  C   UNL A   1      41.393  27.528  26.469  1.00  0.00     0.198 A 
ATOM     65  C   UNL A   1      39.925  25.956  27.534  1.00  0.00     0.198 A 
ATOM     66  F   UNL A   1      39.160  26.354  29.723  1.00  0.00    -0.203 F 
ATOM     67  F   UNL A   1      42.092  27.918  25.394  1.00  0.00    -0.200 F 
ATOM     68  C   UNL A   1      40.667  26.347  26.431  1.00  0.00     0.200 A 
ATOM     69  F   UNL A   1      39.232  24.809  27.503  1.00  0.00    -0.200 F 
ATOM     70  F   UNL A   1      40.679  25.586  25.327  1.00  0.00    -0.200 F 
ENDBRANCH  46  60
BRANCH  47  71
ATOM     71  C   UNL A   1      40.151  33.600  36.965  1.00  0.00     0.064 A 
ATOM     72  C   UNL A   1      40.938  34.748  37.123  1.00  0.00     0.173 A 
ATOM     73  C   UNL A   1      39.284  33.251  38.010  1.00  0.00     0.173 A 
ATOM     74  F   UNL A   1      41.799  35.108  36.159  1.00  0.00    -0.203 F 
ATOM     75  C   UNL A   1      40.870  35.510  38.287  1.00  0.00     0.198 A 
ATOM     76  C   UNL A   1      39.198  34.028  39.163  1.00  0.00     0.198 A 
ATOM     77  F   UNL A   1      38.509  32.161  37.906  1.00  0.00    -0.203 F 
ATOM     78  F   UNL A   1      41.660  36.583  38.431  1.00  0.00    -0.200 F 
ATOM     79  C   UNL A   1      39.996  35.153  39.304  1.00  0.00     0.200 A 
ATOM     80  F   UNL A   1      38.343  33.687  40.136  1.00  0.00    -0.200 F 
ATOM     81  F   UNL A   1      39.926  35.891  40.420  1.00  0.00    -0.200 F 
ENDBRANCH  47  71
BRANCH  59  82
ATOM     82  C   UNL A   1      44.289  28.372  34.939  1.00  0.00     0.064 A 
ATOM     83  C   UNL A   1      45.605  28.830  34.782  1.00  0.00     0.173 A 
ATOM     84  C   UNL A   1      44.070  27.262  35.769  1.00  0.00     0.173 A 
ATOM     85  F   UNL A   1      45.864  29.878  33.986  1.00  0.00    -0.203 F 
ATOM     86  C   UNL A   1      46.664  28.186  35.415  1.00  0.00     0.198 A 
ATOM     87  C   UNL A   1      45.130  26.638  36.422  1.00  0.00     0.198 A 
ATOM     88  F   UNL A   1      42.829  26.790  35.955  1.00  0.00    -0.203 F 
ATOM     89  F   UNL A   1      47.919  28.614  35.218  1.00  0.00    -0.200 F 
ATOM     90  C   UNL A   1      46.427  27.096  36.239  1.00  0.00     0.200 A 
ATOM     91  F   UNL A   1      44.897  25.592  37.226  1.00  0.00    -0.200 F 
ATOM     92  F   UNL A   1      47.448  26.482  36.852  1.00  0.00    -0.200 F 
ENDBRANCH  59  82
ENDBRANCH  33  34
ENDBRANCH  26  28
ENDBRANCH  25  26
ENDBRANCH  24  25
ENDBRANCH  23  24
ENDBRANCH  22  23
ENDBRANCH   1  22
TORSDOF 22
ENDMDL
