MODEL 1
REMARK VINA RESULT:     -11.3      0.000      0.000
REMARK SMILES C[C@@](O)(CNC(=O)Cc1ccc(F)cc1F)C(=O)OCCOCCOC(=O)c1ccc(-c2c3nc(c(-c4c(F)c(F)c(F)c(F)c4F)c4ccc([nH]4)c(-c4c(F)c(F)c(F)c(F)c4F)c4nc(c(-c5c(F)c(F)c(F)c(F)c5F)c5ccc2[nH]5)C=C4)C=C3)cc1
REMARK SMILES IDX 21 1 20 2 19 3 17 4 18 5 2 6 1 7 3 8 4 10 5 11 6 12 7 14
REMARK SMILES IDX 8 15 9 16 10 17 15 18 11 19 14 20 16 21 12 22 13 23 22 24
REMARK SMILES IDX 23 25 24 26 25 27 26 28 27 29 28 30 29 31 90 32 30 33 89 34
REMARK SMILES IDX 31 35 32 36 33 37 83 38 34 39 88 40 82 41 84 42 35 43 87 44
REMARK SMILES IDX 81 45 80 46 36 48 68 49 48 50 67 51 49 52 52 53 66 54 85 55
REMARK SMILES IDX 50 56 51 57 65 59 86 60 53 61 37 62 38 63 46 64 39 65 40 66
REMARK SMILES IDX 44 67 47 68 41 69 42 70 45 71 43 72 69 73 70 74 78 75 71 76
REMARK SMILES IDX 72 77 76 78 79 79 73 80 74 81 77 82 75 83 54 84 55 85 63 86
REMARK SMILES IDX 56 87 57 88 61 89 64 90 58 91 59 92 62 93 60 94
REMARK H PARENT 3 9 5 13 84 47 52 58
REMARK Flexibility Score: inf
ROOT
ATOM      1  C   UNL A   1      41.071  20.914  26.567  1.00  0.00     0.202 C 
ENDROOT
BRANCH   1   2
ATOM      2  C   UNL A   1      39.882  21.813  26.952  1.00  0.00     0.261 C 
BRANCH   2   3
ATOM      3  O   UNL A   1      39.095  22.272  25.824  1.00  0.00    -0.461 OA
BRANCH   3   4
ATOM      4  C   UNL A   1      38.088  21.456  25.416  1.00  0.00     0.339 C 
ATOM      5  O   UNL A   1      38.270  20.315  25.004  1.00  0.00    -0.249 OA
BRANCH   4   6
ATOM      6  C   UNL A   1      36.692  22.140  25.408  1.00  0.00     0.176 C 
ATOM      7  C   UNL A   1      36.372  22.525  23.956  1.00  0.00     0.057 C 
BRANCH   6   8
ATOM      8  O   UNL A   1      36.761  23.362  26.168  1.00  0.00    -0.377 OA
ATOM      9  H   UNL A   1      37.243  24.033  25.660  1.00  0.00     0.212 HD
ENDBRANCH   6   8
BRANCH   6  10
ATOM     10  C   UNL A   1      35.511  21.326  26.003  1.00  0.00     0.162 C 
BRANCH  10  11
ATOM     11  N   UNL A   1      35.138  20.093  25.325  1.00  0.00    -0.352 N 
ATOM     12  C   UNL A   1      33.911  19.614  24.964  1.00  0.00     0.224 C 
ATOM     13  H   UNL A   1      35.894  19.509  25.086  1.00  0.00     0.163 HD
ATOM     14  O   UNL A   1      33.904  18.563  24.311  1.00  0.00    -0.275 OA
BRANCH  12  15
ATOM     15  C   UNL A   1      32.601  20.361  25.209  1.00  0.00     0.138 C 
BRANCH  15  16
ATOM     16  C   UNL A   1      32.273  21.627  24.453  1.00  0.00    -0.003 A 
ATOM     17  C   UNL A   1      32.781  21.827  23.161  1.00  0.00     0.010 A 
ATOM     18  C   UNL A   1      31.449  22.620  24.971  1.00  0.00     0.129 A 
ATOM     19  C   UNL A   1      32.545  23.030  22.485  1.00  0.00     0.040 A 
ATOM     20  C   UNL A   1      31.233  23.832  24.334  1.00  0.00     0.078 A 
ATOM     21  F   UNL A   1      30.873  22.421  26.152  1.00  0.00    -0.207 F 
ATOM     22  C   UNL A   1      31.807  24.036  23.098  1.00  0.00     0.126 A 
ATOM     23  F   UNL A   1      31.626  25.209  22.478  1.00  0.00    -0.207 F 
ENDBRANCH  15  16
ENDBRANCH  12  15
ENDBRANCH  10  11
ENDBRANCH   6  10
ENDBRANCH   4   6
ENDBRANCH   3   4
ENDBRANCH   2   3
ENDBRANCH   1   2
BRANCH   1  24
ATOM     24  O   UNL A   1      41.907  21.433  25.534  1.00  0.00    -0.374 OA
BRANCH  24  25
ATOM     25  C   UNL A   1      43.315  21.307  25.732  1.00  0.00     0.202 C 
BRANCH  25  26
ATOM     26  C   UNL A   1      44.178  22.265  24.900  1.00  0.00     0.261 C 
BRANCH  26  27
ATOM     27  O   UNL A   1      43.519  23.518  24.622  1.00  0.00    -0.460 OA
BRANCH  27  28
ATOM     28  C   UNL A   1      44.179  24.629  25.016  1.00  0.00     0.338 C 
ATOM     29  O   UNL A   1      45.260  25.021  24.611  1.00  0.00    -0.246 OA
BRANCH  28  30
ATOM     30  C   UNL A   1      43.354  25.424  25.959  1.00  0.00     0.060 A 
ATOM     31  C   UNL A   1      43.678  26.776  26.116  1.00  0.00     0.016 A 
ATOM     32  C   UNL A   1      42.327  24.867  26.727  1.00  0.00     0.016 A 
ATOM     33  C   UNL A   1      43.030  27.555  27.079  1.00  0.00     0.010 A 
ATOM     34  C   UNL A   1      41.654  25.660  27.671  1.00  0.00     0.010 A 
ATOM     35  C   UNL A   1      42.034  26.998  27.894  1.00  0.00    -0.014 A 
BRANCH  35  36
ATOM     36  C   UNL A   1      41.515  27.764  29.070  1.00  0.00     0.031 A 
ATOM     37  C   UNL A   1      42.231  27.659  30.394  1.00  0.00     0.074 A 
ATOM     38  C   UNL A   1      40.452  28.587  28.978  1.00  0.00     0.049 A 
ATOM     39  N   UNL A   1      41.949  28.230  31.539  1.00  0.00    -0.248 NA
ATOM     40  C   UNL A   1      43.421  26.797  30.434  1.00  0.00     0.031 C 
ATOM     41  C   UNL A   1      39.690  28.841  27.763  1.00  0.00     0.029 A 
ATOM     42  N   UNL A   1      39.826  29.363  29.927  1.00  0.00    -0.354 N 
ATOM     43  C   UNL A   1      42.921  27.793  32.429  1.00  0.00     0.074 A 
ATOM     44  C   UNL A   1      43.764  26.863  31.710  1.00  0.00     0.031 C 
ATOM     45  C   UNL A   1      38.683  29.685  28.035  1.00  0.00     0.029 A 
ATOM     46  C   UNL A   1      38.727  30.039  29.452  1.00  0.00     0.049 A 
ATOM     47  H   UNL A   1      40.137  29.429  30.859  1.00  0.00     0.167 HD
ATOM     48  C   UNL A   1      43.118  28.154  33.720  1.00  0.00     0.037 A 
ATOM     49  C   UNL A   1      37.853  30.854  30.078  1.00  0.00     0.037 A 
ATOM     50  C   UNL A   1      42.312  29.107  34.437  1.00  0.00     0.049 A 
ATOM     51  C   UNL A   1      38.052  31.196  31.530  1.00  0.00     0.074 A 
ATOM     52  C   UNL A   1      42.482  29.571  35.730  1.00  0.00     0.029 A 
ATOM     53  N   UNL A   1      41.187  29.736  33.931  1.00  0.00    -0.354 N 
ATOM     54  N   UNL A   1      39.002  30.810  32.346  1.00  0.00    -0.248 NA
ATOM     55  C   UNL A   1      37.069  32.101  32.146  1.00  0.00     0.031 C 
ATOM     56  C   UNL A   1      41.423  30.434  36.028  1.00  0.00     0.029 A 
ATOM     57  C   UNL A   1      40.628  30.556  34.900  1.00  0.00     0.049 A 
ATOM     58  H   UNL A   1      40.835  29.619  33.018  1.00  0.00     0.167 HD
ATOM     59  C   UNL A   1      38.748  31.440  33.557  1.00  0.00     0.074 A 
ATOM     60  C   UNL A   1      37.561  32.247  33.369  1.00  0.00     0.031 C 
ATOM     61  C   UNL A   1      39.443  31.356  34.718  1.00  0.00     0.037 A 
BRANCH  48  62
ATOM     62  C   UNL A   1      44.260  27.511  34.453  1.00  0.00     0.064 A 
ATOM     63  C   UNL A   1      44.058  26.326  35.175  1.00  0.00     0.173 A 
ATOM     64  C   UNL A   1      45.538  28.091  34.486  1.00  0.00     0.173 A 
ATOM     65  F   UNL A   1      42.854  25.734  35.184  1.00  0.00    -0.203 F 
ATOM     66  C   UNL A   1      45.092  25.749  35.908  1.00  0.00     0.198 A 
ATOM     67  C   UNL A   1      46.577  27.492  35.190  1.00  0.00     0.198 A 
ATOM     68  F   UNL A   1      45.786  29.219  33.802  1.00  0.00    -0.203 F 
ATOM     69  F   UNL A   1      44.867  24.632  36.614  1.00  0.00    -0.200 F 
ATOM     70  C   UNL A   1      46.352  26.327  35.908  1.00  0.00     0.200 A 
ATOM     71  F   UNL A   1      47.802  28.037  35.168  1.00  0.00    -0.200 F 
ATOM     72  F   UNL A   1      47.350  25.759  36.599  1.00  0.00    -0.200 F 
ENDBRANCH  48  62
BRANCH  49  73
ATOM     73  C   UNL A   1      36.711  31.425  29.314  1.00  0.00     0.064 A 
ATOM     74  C   UNL A   1      36.685  32.781  28.954  1.00  0.00     0.173 A 
ATOM     75  C   UNL A   1      35.618  30.631  28.941  1.00  0.00     0.173 A 
ATOM     76  F   UNL A   1      37.710  33.582  29.283  1.00  0.00    -0.203 F 
ATOM     77  C   UNL A   1      35.599  33.325  28.270  1.00  0.00     0.198 A 
ATOM     78  C   UNL A   1      34.544  31.170  28.235  1.00  0.00     0.198 A 
ATOM     79  F   UNL A   1      35.609  29.323  29.236  1.00  0.00    -0.203 F 
ATOM     80  F   UNL A   1      35.587  34.630  27.966  1.00  0.00    -0.200 F 
ATOM     81  C   UNL A   1      34.531  32.519  27.909  1.00  0.00     0.200 A 
ATOM     82  F   UNL A   1      33.526  30.383  27.863  1.00  0.00    -0.200 F 
ATOM     83  F   UNL A   1      33.492  33.039  27.242  1.00  0.00    -0.200 F 
ENDBRANCH  49  73
BRANCH  61  84
ATOM     84  C   UNL A   1      38.955  32.158  35.893  1.00  0.00     0.064 A 
ATOM     85  C   UNL A   1      39.342  33.498  36.052  1.00  0.00     0.173 A 
ATOM     86  C   UNL A   1      38.175  31.579  36.904  1.00  0.00     0.173 A 
ATOM     87  F   UNL A   1      40.096  34.101  35.119  1.00  0.00    -0.203 F 
ATOM     88  C   UNL A   1      38.982  34.221  37.186  1.00  0.00     0.198 A 
ATOM     89  C   UNL A   1      37.790  32.313  38.023  1.00  0.00     0.198 A 
ATOM     90  F   UNL A   1      37.769  30.304  36.797  1.00  0.00    -0.203 F 
ATOM     91  F   UNL A   1      39.397  35.486  37.335  1.00  0.00    -0.200 F 
ATOM     92  C   UNL A   1      38.202  33.630  38.169  1.00  0.00     0.200 A 
ATOM     93  F   UNL A   1      37.015  31.748  38.959  1.00  0.00    -0.200 F 
ATOM     94  F   UNL A   1      37.847  34.328  39.256  1.00  0.00    -0.200 F 
ENDBRANCH  61  84
ENDBRANCH  35  36
ENDBRANCH  28  30
ENDBRANCH  27  28
ENDBRANCH  26  27
ENDBRANCH  25  26
ENDBRANCH  24  25
ENDBRANCH   1  24
TORSDOF 19
ENDMDL
MODEL 2
REMARK VINA RESULT:     -11.0      3.451      8.701
REMARK SMILES C[C@@](O)(CNC(=O)Cc1ccc(F)cc1F)C(=O)OCCOCCOC(=O)c1ccc(-c2c3nc(c(-c4c(F)c(F)c(F)c(F)c4F)c4ccc([nH]4)c(-c4c(F)c(F)c(F)c(F)c4F)c4nc(c(-c5c(F)c(F)c(F)c(F)c5F)c5ccc2[nH]5)C=C4)C=C3)cc1
REMARK SMILES IDX 21 1 20 2 19 3 17 4 18 5 2 6 1 7 3 8 4 10 5 11 6 12 7 14
REMARK SMILES IDX 8 15 9 16 10 17 15 18 11 19 14 20 16 21 12 22 13 23 22 24
REMARK SMILES IDX 23 25 24 26 25 27 26 28 27 29 28 30 29 31 90 32 30 33 89 34
REMARK SMILES IDX 31 35 32 36 33 37 83 38 34 39 88 40 82 41 84 42 35 43 87 44
REMARK SMILES IDX 81 45 80 46 36 48 68 49 48 50 67 51 49 52 52 53 66 54 85 55
REMARK SMILES IDX 50 56 51 57 65 59 86 60 53 61 37 62 38 63 46 64 39 65 40 66
REMARK SMILES IDX 44 67 47 68 41 69 42 70 45 71 43 72 69 73 70 74 78 75 71 76
REMARK SMILES IDX 72 77 76 78 79 79 73 80 74 81 77 82 75 83 54 84 55 85 63 86
REMARK SMILES IDX 56 87 57 88 61 89 64 90 58 91 59 92 62 93 60 94
REMARK H PARENT 3 9 5 13 84 47 52 58
REMARK Flexibility Score: inf
ROOT
ATOM      1  C   UNL A   1      30.412  28.855  23.586  1.00  0.00     0.202 C 
ENDROOT
BRANCH   1   2
ATOM      2  C   UNL A   1      29.754  27.513  23.217  1.00  0.00     0.261 C 
BRANCH   2   3
ATOM      3  O   UNL A   1      29.564  26.616  24.340  1.00  0.00    -0.461 OA
BRANCH   3   4
ATOM      4  C   UNL A   1      30.241  25.439  24.297  1.00  0.00     0.339 C 
ATOM      5  O   UNL A   1      30.064  24.591  23.428  1.00  0.00    -0.249 OA
BRANCH   4   6
ATOM      6  C   UNL A   1      31.178  25.210  25.516  1.00  0.00     0.176 C 
ATOM      7  C   UNL A   1      31.023  23.745  25.952  1.00  0.00     0.057 C 
BRANCH   6   8
ATOM      8  O   UNL A   1      30.734  26.031  26.613  1.00  0.00    -0.377 OA
ATOM      9  H   UNL A   1      30.760  26.965  26.350  1.00  0.00     0.212 HD
ENDBRANCH   6   8
BRANCH   6  10
ATOM     10  C   UNL A   1      32.683  25.536  25.312  1.00  0.00     0.162 C 
BRANCH  10  11
ATOM     11  N   UNL A   1      33.114  25.895  23.968  1.00  0.00    -0.352 N 
ATOM     12  C   UNL A   1      33.997  25.280  23.127  1.00  0.00     0.224 C 
ATOM     13  H   UNL A   1      32.702  26.712  23.608  1.00  0.00     0.163 HD
ATOM     14  O   UNL A   1      34.103  25.769  21.994  1.00  0.00    -0.275 OA
BRANCH  12  15
ATOM     15  C   UNL A   1      34.734  23.987  23.464  1.00  0.00     0.138 C 
BRANCH  15  16
ATOM     16  C   UNL A   1      33.979  22.744  23.874  1.00  0.00    -0.003 A 
ATOM     17  C   UNL A   1      34.287  22.099  25.081  1.00  0.00     0.010 A 
ATOM     18  C   UNL A   1      32.950  22.203  23.111  1.00  0.00     0.129 A 
ATOM     19  C   UNL A   1      33.646  20.905  25.430  1.00  0.00     0.040 A 
ATOM     20  C   UNL A   1      32.328  21.004  23.421  1.00  0.00     0.078 A 
ATOM     21  F   UNL A   1      32.568  22.841  22.010  1.00  0.00    -0.207 F 
ATOM     22  C   UNL A   1      32.703  20.349  24.574  1.00  0.00     0.126 A 
ATOM     23  F   UNL A   1      32.128  19.178  24.877  1.00  0.00    -0.207 F 
ENDBRANCH  15  16
ENDBRANCH  12  15
ENDBRANCH  10  11
ENDBRANCH   6  10
ENDBRANCH   4   6
ENDBRANCH   3   4
ENDBRANCH   2   3
ENDBRANCH   1   2
BRANCH   1  24
ATOM     24  O   UNL A   1      31.729  28.751  24.125  1.00  0.00    -0.374 OA
BRANCH  24  25
ATOM     25  C   UNL A   1      31.879  29.079  25.506  1.00  0.00     0.202 C 
BRANCH  25  26
ATOM     26  C   UNL A   1      32.511  30.449  25.785  1.00  0.00     0.261 C 
BRANCH  26  27
ATOM     27  O   UNL A   1      32.649  30.727  27.194  1.00  0.00    -0.460 OA
BRANCH  27  28
ATOM     28  C   UNL A   1      33.440  31.776  27.512  1.00  0.00     0.338 C 
ATOM     29  O   UNL A   1      33.115  32.949  27.563  1.00  0.00    -0.246 OA
BRANCH  28  30
ATOM     30  C   UNL A   1      34.788  31.311  27.923  1.00  0.00     0.060 A 
ATOM     31  C   UNL A   1      34.925  29.963  28.272  1.00  0.00     0.016 A 
ATOM     32  C   UNL A   1      35.887  32.167  28.033  1.00  0.00     0.016 A 
ATOM     33  C   UNL A   1      36.131  29.482  28.792  1.00  0.00     0.010 A 
ATOM     34  C   UNL A   1      37.108  31.674  28.523  1.00  0.00     0.010 A 
ATOM     35  C   UNL A   1      37.228  30.339  28.957  1.00  0.00    -0.014 A 
BRANCH  35  36
ATOM     36  C   UNL A   1      38.427  29.880  29.724  1.00  0.00     0.031 A 
ATOM     37  C   UNL A   1      38.650  30.394  31.125  1.00  0.00     0.074 A 
ATOM     38  C   UNL A   1      39.298  28.981  29.224  1.00  0.00     0.049 A 
ATOM     39  N   UNL A   1      39.623  30.131  31.962  1.00  0.00    -0.248 NA
ATOM     40  C   UNL A   1      37.643  31.326  31.653  1.00  0.00     0.031 C 
ATOM     41  C   UNL A   1      39.194  28.350  27.916  1.00  0.00     0.029 A 
ATOM     42  N   UNL A   1      40.446  28.441  29.759  1.00  0.00    -0.354 N 
ATOM     43  C   UNL A   1      39.346  30.867  33.107  1.00  0.00     0.074 A 
ATOM     44  C   UNL A   1      38.149  31.633  32.837  1.00  0.00     0.031 C 
ATOM     45  C   UNL A   1      40.242  27.533  27.728  1.00  0.00     0.029 A 
ATOM     46  C   UNL A   1      41.099  27.577  28.912  1.00  0.00     0.049 A 
ATOM     47  H   UNL A   1      40.770  28.654  30.664  1.00  0.00     0.167 HD
ATOM     48  C   UNL A   1      40.007  30.883  34.289  1.00  0.00     0.037 A 
ATOM     49  C   UNL A   1      42.252  26.894  29.063  1.00  0.00     0.037 A 
ATOM     50  C   UNL A   1      41.175  30.099  34.587  1.00  0.00     0.049 A 
ATOM     51  C   UNL A   1      43.006  26.972  30.363  1.00  0.00     0.074 A 
ATOM     52  C   UNL A   1      41.870  30.014  35.781  1.00  0.00     0.029 A 
ATOM     53  N   UNL A   1      41.825  29.269  33.687  1.00  0.00    -0.354 N 
ATOM     54  N   UNL A   1      42.707  27.638  31.452  1.00  0.00    -0.248 NA
ATOM     55  C   UNL A   1      44.249  26.192  30.464  1.00  0.00     0.031 C 
ATOM     56  C   UNL A   1      42.976  29.182  35.587  1.00  0.00     0.029 A 
ATOM     57  C   UNL A   1      42.937  28.698  34.290  1.00  0.00     0.049 A 
ATOM     58  H   UNL A   1      41.540  29.108  32.759  1.00  0.00     0.167 HD
ATOM     59  C   UNL A   1      43.705  27.339  32.371  1.00  0.00     0.074 A 
ATOM     60  C   UNL A   1      44.613  26.420  31.719  1.00  0.00     0.031 C 
ATOM     61  C   UNL A   1      43.847  27.788  33.642  1.00  0.00     0.037 A 
BRANCH  48  62
ATOM     62  C   UNL A   1      39.479  31.789  35.366  1.00  0.00     0.064 A 
ATOM     63  C   UNL A   1      39.934  33.112  35.461  1.00  0.00     0.173 A 
ATOM     64  C   UNL A   1      38.567  31.336  36.331  1.00  0.00     0.173 A 
ATOM     65  F   UNL A   1      40.811  33.594  34.568  1.00  0.00    -0.203 F 
ATOM     66  C   UNL A   1      39.499  33.946  36.487  1.00  0.00     0.198 A 
ATOM     67  C   UNL A   1      38.108  32.183  37.335  1.00  0.00     0.198 A 
ATOM     68  F   UNL A   1      38.093  30.082  36.277  1.00  0.00    -0.203 F 
ATOM     69  F   UNL A   1      39.970  35.198  36.575  1.00  0.00    -0.200 F 
ATOM     70  C   UNL A   1      38.581  33.485  37.418  1.00  0.00     0.200 A 
ATOM     71  F   UNL A   1      37.200  31.744  38.217  1.00  0.00    -0.200 F 
ATOM     72  F   UNL A   1      38.150  34.295  38.394  1.00  0.00    -0.200 F 
ENDBRANCH  48  62
BRANCH  49  73
ATOM     73  C   UNL A   1      42.752  26.050  27.945  1.00  0.00     0.064 A 
ATOM     74  C   UNL A   1      43.635  26.568  26.985  1.00  0.00     0.173 A 
ATOM     75  C   UNL A   1      42.347  24.716  27.805  1.00  0.00     0.173 A 
ATOM     76  F   UNL A   1      44.057  27.838  27.077  1.00  0.00    -0.203 F 
ATOM     77  C   UNL A   1      44.076  25.789  25.916  1.00  0.00     0.198 A 
ATOM     78  C   UNL A   1      42.808  23.930  26.750  1.00  0.00     0.198 A 
ATOM     79  F   UNL A   1      41.527  24.167  28.712  1.00  0.00    -0.203 F 
ATOM     80  F   UNL A   1      44.895  26.319  24.997  1.00  0.00    -0.200 F 
ATOM     81  C   UNL A   1      43.664  24.471  25.801  1.00  0.00     0.200 A 
ATOM     82  F   UNL A   1      42.431  22.648  26.656  1.00  0.00    -0.200 F 
ATOM     83  F   UNL A   1      44.096  23.719  24.780  1.00  0.00    -0.200 F 
ENDBRANCH  49  73
BRANCH  61  84
ATOM     84  C   UNL A   1      45.024  27.296  34.437  1.00  0.00     0.064 A 
ATOM     85  C   UNL A   1      44.914  26.149  35.241  1.00  0.00     0.173 A 
ATOM     86  C   UNL A   1      46.235  28.003  34.470  1.00  0.00     0.173 A 
ATOM     87  F   UNL A   1      43.776  25.439  35.255  1.00  0.00    -0.203 F 
ATOM     88  C   UNL A   1      45.964  25.742  36.060  1.00  0.00     0.198 A 
ATOM     89  C   UNL A   1      47.295  27.575  35.266  1.00  0.00     0.198 A 
ATOM     90  F   UNL A   1      46.397  29.099  33.713  1.00  0.00    -0.203 F 
ATOM     91  F   UNL A   1      45.820  24.668  36.849  1.00  0.00    -0.200 F 
ATOM     92  C   UNL A   1      47.155  26.452  36.069  1.00  0.00     0.200 A 
ATOM     93  F   UNL A   1      48.453  28.248  35.254  1.00  0.00    -0.200 F 
ATOM     94  F   UNL A   1      48.169  26.054  36.850  1.00  0.00    -0.200 F 
ENDBRANCH  61  84
ENDBRANCH  35  36
ENDBRANCH  28  30
ENDBRANCH  27  28
ENDBRANCH  26  27
ENDBRANCH  25  26
ENDBRANCH  24  25
ENDBRANCH   1  24
TORSDOF 19
ENDMDL
MODEL 3
REMARK VINA RESULT:     -10.9      1.511      2.814
REMARK SMILES C[C@@](O)(CNC(=O)Cc1ccc(F)cc1F)C(=O)OCCOCCOC(=O)c1ccc(-c2c3nc(c(-c4c(F)c(F)c(F)c(F)c4F)c4ccc([nH]4)c(-c4c(F)c(F)c(F)c(F)c4F)c4nc(c(-c5c(F)c(F)c(F)c(F)c5F)c5ccc2[nH]5)C=C4)C=C3)cc1
REMARK SMILES IDX 21 1 20 2 19 3 17 4 18 5 2 6 1 7 3 8 4 10 5 11 6 12 7 14
REMARK SMILES IDX 8 15 9 16 10 17 15 18 11 19 14 20 16 21 12 22 13 23 22 24
REMARK SMILES IDX 23 25 24 26 25 27 26 28 27 29 28 30 29 31 90 32 30 33 89 34
REMARK SMILES IDX 31 35 32 36 33 37 83 38 34 39 88 40 82 41 84 42 35 43 87 44
REMARK SMILES IDX 81 45 80 46 36 48 68 49 48 50 67 51 49 52 52 53 66 54 85 55
REMARK SMILES IDX 50 56 51 57 65 59 86 60 53 61 37 62 38 63 46 64 39 65 40 66
REMARK SMILES IDX 44 67 47 68 41 69 42 70 45 71 43 72 69 73 70 74 78 75 71 76
REMARK SMILES IDX 72 77 76 78 79 79 73 80 74 81 77 82 75 83 54 84 55 85 63 86
REMARK SMILES IDX 56 87 57 88 61 89 64 90 58 91 59 92 62 93 60 94
REMARK H PARENT 3 9 5 13 84 47 52 58
REMARK Flexibility Score: inf
ROOT
ATOM      1  C   UNL A   1      41.274  20.557  26.178  1.00  0.00     0.202 C 
ENDROOT
BRANCH   1   2
ATOM      2  C   UNL A   1      40.060  21.257  26.814  1.00  0.00     0.261 C 
BRANCH   2   3
ATOM      3  O   UNL A   1      38.968  21.504  25.894  1.00  0.00    -0.461 OA
BRANCH   3   4
ATOM      4  C   UNL A   1      38.361  22.716  25.985  1.00  0.00     0.339 C 
ATOM      5  O   UNL A   1      38.911  23.713  26.444  1.00  0.00    -0.249 OA
BRANCH   4   6
ATOM      6  C   UNL A   1      36.865  22.702  25.564  1.00  0.00     0.176 C 
ATOM      7  C   UNL A   1      36.800  23.043  24.068  1.00  0.00     0.057 C 
BRANCH   6   8
ATOM      8  O   UNL A   1      36.166  23.744  26.270  1.00  0.00    -0.377 OA
ATOM      9  H   UNL A   1      36.631  23.943  27.098  1.00  0.00     0.212 HD
ENDBRANCH   6   8
BRANCH   6  10
ATOM     10  C   UNL A   1      36.075  21.391  25.834  1.00  0.00     0.162 C 
BRANCH  10  11
ATOM     11  N   UNL A   1      34.646  21.510  26.087  1.00  0.00    -0.352 N 
ATOM     12  C   UNL A   1      33.585  20.893  25.488  1.00  0.00     0.224 C 
ATOM     13  H   UNL A   1      34.407  22.136  26.808  1.00  0.00     0.163 HD
ATOM     14  O   UNL A   1      32.472  21.125  25.977  1.00  0.00    -0.275 OA
BRANCH  12  15
ATOM     15  C   UNL A   1      33.720  19.866  24.367  1.00  0.00     0.138 C 
BRANCH  15  16
ATOM     16  C   UNL A   1      33.599  18.386  24.647  1.00  0.00    -0.003 A 
ATOM     17  C   UNL A   1      32.350  17.827  24.954  1.00  0.00     0.010 A 
ATOM     18  C   UNL A   1      34.685  17.519  24.590  1.00  0.00     0.129 A 
ATOM     19  C   UNL A   1      32.242  16.473  25.290  1.00  0.00     0.040 A 
ATOM     20  C   UNL A   1      34.606  16.183  24.954  1.00  0.00     0.078 A 
ATOM     21  F   UNL A   1      35.864  17.996  24.209  1.00  0.00    -0.207 F 
ATOM     22  C   UNL A   1      33.380  15.676  25.327  1.00  0.00     0.126 A 
ATOM     23  F   UNL A   1      33.291  14.394  25.702  1.00  0.00    -0.207 F 
ENDBRANCH  15  16
ENDBRANCH  12  15
ENDBRANCH  10  11
ENDBRANCH   6  10
ENDBRANCH   4   6
ENDBRANCH   3   4
ENDBRANCH   2   3
ENDBRANCH   1   2
BRANCH   1  24
ATOM     24  O   UNL A   1      42.132  21.409  25.421  1.00  0.00    -0.374 OA
BRANCH  24  25
ATOM     25  C   UNL A   1      43.535  21.197  25.573  1.00  0.00     0.202 C 
BRANCH  25  26
ATOM     26  C   UNL A   1      44.428  22.302  24.992  1.00  0.00     0.261 C 
BRANCH  26  27
ATOM     27  O   UNL A   1      43.701  23.513  24.694  1.00  0.00    -0.460 OA
BRANCH  27  28
ATOM     28  C   UNL A   1      44.324  24.667  25.020  1.00  0.00     0.338 C 
ATOM     29  O   UNL A   1      45.361  25.098  24.548  1.00  0.00    -0.246 OA
BRANCH  28  30
ATOM     30  C   UNL A   1      43.508  25.449  25.982  1.00  0.00     0.060 A 
ATOM     31  C   UNL A   1      43.853  26.792  26.175  1.00  0.00     0.016 A 
ATOM     32  C   UNL A   1      42.472  24.888  26.733  1.00  0.00     0.016 A 
ATOM     33  C   UNL A   1      43.215  27.555  27.157  1.00  0.00     0.010 A 
ATOM     34  C   UNL A   1      41.809  25.667  27.697  1.00  0.00     0.010 A 
ATOM     35  C   UNL A   1      42.209  26.993  27.955  1.00  0.00    -0.014 A 
BRANCH  35  36
ATOM     36  C   UNL A   1      41.699  27.735  29.150  1.00  0.00     0.031 A 
ATOM     37  C   UNL A   1      42.415  27.592  30.470  1.00  0.00     0.074 A 
ATOM     38  C   UNL A   1      40.644  28.571  29.080  1.00  0.00     0.049 A 
ATOM     39  N   UNL A   1      42.141  28.138  31.629  1.00  0.00    -0.248 NA
ATOM     40  C   UNL A   1      43.597  26.717  30.487  1.00  0.00     0.031 C 
ATOM     41  C   UNL A   1      39.883  28.861  27.872  1.00  0.00     0.029 A 
ATOM     42  N   UNL A   1      40.027  29.331  30.047  1.00  0.00    -0.354 N 
ATOM     43  C   UNL A   1      43.109  27.671  32.507  1.00  0.00     0.074 A 
ATOM     44  C   UNL A   1      43.942  26.750  31.765  1.00  0.00     0.031 C 
ATOM     45  C   UNL A   1      38.884  29.709  28.165  1.00  0.00     0.029 A 
ATOM     46  C   UNL A   1      38.934  30.029  29.591  1.00  0.00     0.049 A 
ATOM     47  H   UNL A   1      40.340  29.371  30.981  1.00  0.00     0.167 HD
ATOM     48  C   UNL A   1      43.312  27.999  33.805  1.00  0.00     0.037 A 
ATOM     49  C   UNL A   1      38.069  30.837  30.237  1.00  0.00     0.037 A 
ATOM     50  C   UNL A   1      42.517  28.942  34.546  1.00  0.00     0.049 A 
ATOM     51  C   UNL A   1      38.274  31.143  31.696  1.00  0.00     0.074 A 
ATOM     52  C   UNL A   1      42.692  29.374  35.849  1.00  0.00     0.029 A 
ATOM     53  N   UNL A   1      41.397  29.595  34.057  1.00  0.00    -0.354 N 
ATOM     54  N   UNL A   1      39.221  30.728  32.502  1.00  0.00    -0.248 NA
ATOM     55  C   UNL A   1      37.301  32.042  32.335  1.00  0.00     0.031 C 
ATOM     56  C   UNL A   1      41.643  30.240  36.170  1.00  0.00     0.029 A 
ATOM     57  C   UNL A   1      40.848  30.397  35.047  1.00  0.00     0.049 A 
ATOM     58  H   UNL A   1      41.043  29.503  33.143  1.00  0.00     0.167 HD
ATOM     59  C   UNL A   1      38.975  31.332  33.728  1.00  0.00     0.074 A 
ATOM     60  C   UNL A   1      37.796  32.154  33.560  1.00  0.00     0.031 C 
ATOM     61  C   UNL A   1      39.671  31.213  34.885  1.00  0.00     0.037 A 
BRANCH  48  62
ATOM     62  C   UNL A   1      44.449  27.328  34.522  1.00  0.00     0.064 A 
ATOM     63  C   UNL A   1      44.259  26.081  35.135  1.00  0.00     0.173 A 
ATOM     64  C   UNL A   1      45.707  27.937  34.646  1.00  0.00     0.173 A 
ATOM     65  F   UNL A   1      43.073  25.458  35.053  1.00  0.00    -0.203 F 
ATOM     66  C   UNL A   1      45.285  25.472  35.852  1.00  0.00     0.198 A 
ATOM     67  C   UNL A   1      46.741  27.309  35.334  1.00  0.00     0.198 A 
ATOM     68  F   UNL A   1      45.943  29.124  34.067  1.00  0.00    -0.203 F 
ATOM     69  F   UNL A   1      45.071  24.294  36.455  1.00  0.00    -0.200 F 
ATOM     70  C   UNL A   1      46.527  26.082  35.944  1.00  0.00     0.200 A 
ATOM     71  F   UNL A   1      47.948  27.886  35.398  1.00  0.00    -0.200 F 
ATOM     72  F   UNL A   1      47.518  25.485  36.619  1.00  0.00    -0.200 F 
ENDBRANCH  48  62
BRANCH  49  73
ATOM     73  C   UNL A   1      36.933  31.437  29.488  1.00  0.00     0.064 A 
ATOM     74  C   UNL A   1      35.847  30.653  29.068  1.00  0.00     0.173 A 
ATOM     75  C   UNL A   1      36.915  32.801  29.165  1.00  0.00     0.173 A 
ATOM     76  F   UNL A   1      35.813  29.344  29.356  1.00  0.00    -0.203 F 
ATOM     77  C   UNL A   1      34.800  31.207  28.334  1.00  0.00     0.198 A 
ATOM     78  C   UNL A   1      35.854  33.359  28.453  1.00  0.00     0.198 A 
ATOM     79  F   UNL A   1      37.915  33.597  29.569  1.00  0.00    -0.203 F 
ATOM     80  F   UNL A   1      33.790  30.429  27.919  1.00  0.00    -0.200 F 
ATOM     81  C   UNL A   1      34.803  32.559  28.030  1.00  0.00     0.200 A 
ATOM     82  F   UNL A   1      35.847  34.671  28.184  1.00  0.00    -0.200 F 
ATOM     83  F   UNL A   1      33.790  33.093  27.334  1.00  0.00    -0.200 F 
ENDBRANCH  49  73
BRANCH  61  84
ATOM     84  C   UNL A   1      39.193  31.991  36.079  1.00  0.00     0.064 A 
ATOM     85  C   UNL A   1      38.218  31.456  36.937  1.00  0.00     0.173 A 
ATOM     86  C   UNL A   1      39.634  33.299  36.328  1.00  0.00     0.173 A 
ATOM     87  F   UNL A   1      37.753  30.212  36.741  1.00  0.00    -0.203 F 
ATOM     88  C   UNL A   1      37.692  32.207  37.985  1.00  0.00     0.198 A 
ATOM     89  C   UNL A   1      39.130  34.036  37.397  1.00  0.00     0.198 A 
ATOM     90  F   UNL A   1      40.572  33.855  35.545  1.00  0.00    -0.203 F 
ATOM     91  F   UNL A   1      36.734  31.688  38.766  1.00  0.00    -0.200 F 
ATOM     92  C   UNL A   1      38.152  33.494  38.218  1.00  0.00     0.200 A 
ATOM     93  F   UNL A   1      39.593  35.271  37.634  1.00  0.00    -0.200 F 
ATOM     94  F   UNL A   1      37.653  34.213  39.233  1.00  0.00    -0.200 F 
ENDBRANCH  61  84
ENDBRANCH  35  36
ENDBRANCH  28  30
ENDBRANCH  27  28
ENDBRANCH  26  27
ENDBRANCH  25  26
ENDBRANCH  24  25
ENDBRANCH   1  24
TORSDOF 19
ENDMDL
