MODEL 1
REMARK VINA RESULT:     -12.4      0.000      0.000
REMARK SMILES C[N@@H+]1CCN(C(=O)c2cc(-n3cccn3)ccc2Cl)C[C@H]1C(=O)OCCOCCOC(=O)c1ccc(-c2c3nc(c(-c4c(F)c(F)c(F)c(F)c4F)c4ccc([nH]4)c(-c4c(F)c(F)c(F)c(F)c4F)c4nc(c(-c5c(F)c(F)c(F)c(F)c5F)c5ccc2[nH]5)C=C4)C=C3)cc1
REMARK SMILES IDX 26 1 25 2 24 3 22 4 23 5 21 6 1 7 2 8 3 9 4 11 20 12 5 13
REMARK SMILES IDX 6 14 7 15 8 16 9 17 18 18 10 19 17 20 19 21 16 22 11 23
REMARK SMILES IDX 12 24 15 25 13 26 14 27 27 28 28 29 29 30 30 31 31 32 32 33
REMARK SMILES IDX 33 34 34 35 95 36 35 37 94 38 36 39 37 40 38 41 88 42 39 43
REMARK SMILES IDX 93 44 87 45 89 46 40 47 92 48 86 49 85 50 41 52 73 53 53 54
REMARK SMILES IDX 72 55 54 56 57 57 71 58 90 59 55 60 56 61 70 63 91 64 58 65
REMARK SMILES IDX 42 66 43 67 51 68 44 69 45 70 49 71 52 72 46 73 47 74 50 75
REMARK SMILES IDX 48 76 74 77 75 78 83 79 76 80 77 81 81 82 84 83 78 84 79 85
REMARK SMILES IDX 82 86 80 87 59 88 60 89 68 90 61 91 62 92 66 93 69 94 63 95
REMARK SMILES IDX 64 96 67 97 65 98
REMARK H PARENT 2 10 89 51 57 62
REMARK Flexibility Score: inf
ROOT
ATOM      1  C   UNL A   1      36.929  23.521  24.339  1.00  0.00     0.202 C 
ENDROOT
BRANCH   1   2
ATOM      2  C   UNL A   1      35.793  23.027  23.444  1.00  0.00     0.261 C 
BRANCH   2   3
ATOM      3  O   UNL A   1      34.831  24.053  23.133  1.00  0.00    -0.459 OA
BRANCH   3   4
ATOM      4  C   UNL A   1      33.630  23.573  22.722  1.00  0.00     0.366 C 
ATOM      5  O   UNL A   1      33.297  23.480  21.540  1.00  0.00    -0.245 OA
BRANCH   4   6
ATOM      6  C   UNL A   1      32.645  23.238  23.820  1.00  0.00     0.314 C 
ATOM      7  C   UNL A   1      32.643  20.778  23.646  1.00  0.00     0.333 C 
ATOM      8  N   UNL A   1      32.723  21.923  24.544  1.00  0.00    -0.323 N 
ATOM      9  C   UNL A   1      31.554  21.874  25.477  1.00  0.00     0.284 C 
ATOM     10  H   UNL A   1      33.621  21.865  25.024  1.00  0.00     0.348 HD
ATOM     11  C   UNL A   1      31.510  23.063  26.466  1.00  0.00     0.181 C 
ATOM     12  C   UNL A   1      32.793  24.377  24.838  1.00  0.00     0.197 C 
ATOM     13  N   UNL A   1      31.671  24.342  25.774  1.00  0.00    -0.326 N 
BRANCH  13  14
ATOM     14  C   UNL A   1      30.777  25.377  25.985  1.00  0.00     0.255 C 
ATOM     15  O   UNL A   1      29.703  25.252  26.566  1.00  0.00    -0.269 OA
BRANCH  14  16
ATOM     16  C   UNL A   1      31.148  26.724  25.517  1.00  0.00     0.060 A 
ATOM     17  C   UNL A   1      32.181  27.379  26.198  1.00  0.00     0.043 A 
ATOM     18  C   UNL A   1      30.474  27.357  24.464  1.00  0.00     0.053 A 
ATOM     19  C   UNL A   1      32.494  28.697  25.852  1.00  0.00     0.065 A 
ATOM     20  C   UNL A   1      30.859  28.640  24.068  1.00  0.00     0.023 A 
ATOM     21  Cl  UNL A   1      29.153  26.626  23.628  1.00  0.00    -0.083 Cl
ATOM     22  C   UNL A   1      31.849  29.324  24.777  1.00  0.00     0.030 A 
BRANCH  19  23
ATOM     23  N   UNL A   1      33.432  29.415  26.629  1.00  0.00    -0.241 N 
ATOM     24  C   UNL A   1      34.623  28.933  27.125  1.00  0.00     0.115 A 
ATOM     25  N   UNL A   1      33.250  30.720  26.935  1.00  0.00    -0.177 NA
ATOM     26  C   UNL A   1      35.212  29.966  27.813  1.00  0.00     0.042 A 
ATOM     27  C   UNL A   1      34.300  31.026  27.702  1.00  0.00     0.135 A 
ENDBRANCH  19  23
ENDBRANCH  14  16
ENDBRANCH  13  14
ENDBRANCH   4   6
ENDBRANCH   3   4
ENDBRANCH   2   3
ENDBRANCH   1   2
BRANCH   1  28
ATOM     28  O   UNL A   1      37.212  22.766  25.513  1.00  0.00    -0.374 OA
BRANCH  28  29
ATOM     29  C   UNL A   1      37.912  21.532  25.387  1.00  0.00     0.202 C 
BRANCH  29  30
ATOM     30  C   UNL A   1      39.244  21.423  26.120  1.00  0.00     0.261 C 
BRANCH  30  31
ATOM     31  O   UNL A   1      39.588  22.660  26.746  1.00  0.00    -0.460 OA
BRANCH  31  32
ATOM     32  C   UNL A   1      40.878  22.796  27.128  1.00  0.00     0.338 C 
ATOM     33  O   UNL A   1      41.638  21.922  27.476  1.00  0.00    -0.246 OA
BRANCH  32  34
ATOM     34  C   UNL A   1      41.182  24.236  27.187  1.00  0.00     0.060 A 
ATOM     35  C   UNL A   1      41.955  24.639  28.269  1.00  0.00     0.016 A 
ATOM     36  C   UNL A   1      40.528  25.168  26.362  1.00  0.00     0.016 A 
ATOM     37  C   UNL A   1      41.860  25.950  28.676  1.00  0.00     0.010 A 
ATOM     38  C   UNL A   1      40.442  26.485  26.765  1.00  0.00     0.010 A 
ATOM     39  C   UNL A   1      41.027  26.837  27.972  1.00  0.00    -0.014 A 
BRANCH  39  40
ATOM     40  C   UNL A   1      40.908  28.179  28.505  1.00  0.00     0.031 A 
ATOM     41  C   UNL A   1      42.034  29.033  28.074  1.00  0.00     0.074 A 
ATOM     42  C   UNL A   1      39.925  28.585  29.331  1.00  0.00     0.049 A 
ATOM     43  N   UNL A   1      43.048  29.377  28.793  1.00  0.00    -0.248 NA
ATOM     44  C   UNL A   1      42.169  29.346  26.645  1.00  0.00     0.031 C 
ATOM     45  C   UNL A   1      38.659  27.920  29.647  1.00  0.00     0.029 A 
ATOM     46  N   UNL A   1      39.846  29.748  30.040  1.00  0.00    -0.354 N 
ATOM     47  C   UNL A   1      43.870  30.117  27.954  1.00  0.00     0.074 A 
ATOM     48  C   UNL A   1      43.368  29.932  26.618  1.00  0.00     0.031 C 
ATOM     49  C   UNL A   1      37.848  28.789  30.299  1.00  0.00     0.029 A 
ATOM     50  C   UNL A   1      38.591  30.005  30.580  1.00  0.00     0.049 A 
ATOM     51  H   UNL A   1      40.612  30.353  30.159  1.00  0.00     0.167 HD
ATOM     52  C   UNL A   1      44.724  31.032  28.482  1.00  0.00     0.037 A 
ATOM     53  C   UNL A   1      38.202  31.160  31.178  1.00  0.00     0.037 A 
ATOM     54  C   UNL A   1      44.913  30.804  29.893  1.00  0.00     0.049 A 
ATOM     55  C   UNL A   1      39.433  31.836  31.651  1.00  0.00     0.074 A 
ATOM     56  C   UNL A   1      45.554  29.870  30.676  1.00  0.00     0.029 A 
ATOM     57  N   UNL A   1      43.995  31.437  30.689  1.00  0.00    -0.354 N 
ATOM     58  N   UNL A   1      40.183  31.377  32.614  1.00  0.00    -0.248 NA
ATOM     59  C   UNL A   1      40.060  32.828  30.790  1.00  0.00     0.031 C 
ATOM     60  C   UNL A   1      44.789  29.783  31.880  1.00  0.00     0.029 A 
ATOM     61  C   UNL A   1      43.740  30.702  31.813  1.00  0.00     0.049 A 
ATOM     62  H   UNL A   1      43.577  32.303  30.481  1.00  0.00     0.167 HD
ATOM     63  C   UNL A   1      41.476  31.672  32.219  1.00  0.00     0.074 A 
ATOM     64  C   UNL A   1      41.329  32.694  31.186  1.00  0.00     0.031 C 
ATOM     65  C   UNL A   1      42.507  30.843  32.557  1.00  0.00     0.037 A 
BRANCH  52  66
ATOM     66  C   UNL A   1      44.952  32.396  27.873  1.00  0.00     0.064 A 
ATOM     67  C   UNL A   1      46.233  32.721  27.384  1.00  0.00     0.173 A 
ATOM     68  C   UNL A   1      44.075  33.489  28.057  1.00  0.00     0.173 A 
ATOM     69  F   UNL A   1      47.158  31.765  27.211  1.00  0.00    -0.203 F 
ATOM     70  C   UNL A   1      46.620  34.044  27.155  1.00  0.00     0.198 A 
ATOM     71  C   UNL A   1      44.449  34.801  27.779  1.00  0.00     0.198 A 
ATOM     72  F   UNL A   1      42.873  33.353  28.627  1.00  0.00    -0.203 F 
ATOM     73  F   UNL A   1      47.885  34.317  26.805  1.00  0.00    -0.200 F 
ATOM     74  C   UNL A   1      45.729  35.083  27.355  1.00  0.00     0.200 A 
ATOM     75  F   UNL A   1      43.580  35.795  28.011  1.00  0.00    -0.200 F 
ATOM     76  F   UNL A   1      46.115  36.355  27.191  1.00  0.00    -0.200 F 
ENDBRANCH  52  66
BRANCH  53  77
ATOM     77  C   UNL A   1      36.917  31.889  31.028  1.00  0.00     0.064 A 
ATOM     78  C   UNL A   1      36.041  32.048  32.117  1.00  0.00     0.173 A 
ATOM     79  C   UNL A   1      36.676  32.707  29.909  1.00  0.00     0.173 A 
ATOM     80  F   UNL A   1      36.228  31.344  33.243  1.00  0.00    -0.203 F 
ATOM     81  C   UNL A   1      35.008  32.993  32.099  1.00  0.00     0.198 A 
ATOM     82  C   UNL A   1      35.643  33.649  29.890  1.00  0.00     0.198 A 
ATOM     83  F   UNL A   1      37.499  32.684  28.852  1.00  0.00    -0.203 F 
ATOM     84  F   UNL A   1      34.236  33.165  33.181  1.00  0.00    -0.200 F 
ATOM     85  C   UNL A   1      34.819  33.802  30.989  1.00  0.00     0.200 A 
ATOM     86  F   UNL A   1      35.499  34.454  28.829  1.00  0.00    -0.200 F 
ATOM     87  F   UNL A   1      33.876  34.754  30.996  1.00  0.00    -0.200 F 
ENDBRANCH  53  77
BRANCH  65  88
ATOM     88  C   UNL A   1      42.280  29.899  33.703  1.00  0.00     0.064 A 
ATOM     89  C   UNL A   1      41.756  28.601  33.582  1.00  0.00     0.173 A 
ATOM     90  C   UNL A   1      42.699  30.311  34.975  1.00  0.00     0.173 A 
ATOM     91  F   UNL A   1      41.408  28.103  32.386  1.00  0.00    -0.203 F 
ATOM     92  C   UNL A   1      41.623  27.773  34.697  1.00  0.00     0.198 A 
ATOM     93  C   UNL A   1      42.603  29.469  36.077  1.00  0.00     0.198 A 
ATOM     94  F   UNL A   1      43.245  31.526  35.141  1.00  0.00    -0.203 F 
ATOM     95  F   UNL A   1      41.101  26.544  34.565  1.00  0.00    -0.200 F 
ATOM     96  C   UNL A   1      42.054  28.205  35.942  1.00  0.00     0.200 A 
ATOM     97  F   UNL A   1      43.063  29.878  37.268  1.00  0.00    -0.200 F 
ATOM     98  F   UNL A   1      41.960  27.398  37.007  1.00  0.00    -0.200 F 
ENDBRANCH  65  88
ENDBRANCH  39  40
ENDBRANCH  32  34
ENDBRANCH  31  32
ENDBRANCH  30  31
ENDBRANCH  29  30
ENDBRANCH  28  29
ENDBRANCH   1  28
TORSDOF 17
ENDMDL
MODEL 2
REMARK VINA RESULT:     -12.4      3.270      8.761
REMARK SMILES C[N@@H+]1CCN(C(=O)c2cc(-n3cccn3)ccc2Cl)C[C@H]1C(=O)OCCOCCOC(=O)c1ccc(-c2c3nc(c(-c4c(F)c(F)c(F)c(F)c4F)c4ccc([nH]4)c(-c4c(F)c(F)c(F)c(F)c4F)c4nc(c(-c5c(F)c(F)c(F)c(F)c5F)c5ccc2[nH]5)C=C4)C=C3)cc1
REMARK SMILES IDX 26 1 25 2 24 3 22 4 23 5 21 6 1 7 2 8 3 9 4 11 20 12 5 13
REMARK SMILES IDX 6 14 7 15 8 16 9 17 18 18 10 19 17 20 19 21 16 22 11 23
REMARK SMILES IDX 12 24 15 25 13 26 14 27 27 28 28 29 29 30 30 31 31 32 32 33
REMARK SMILES IDX 33 34 34 35 95 36 35 37 94 38 36 39 37 40 38 41 88 42 39 43
REMARK SMILES IDX 93 44 87 45 89 46 40 47 92 48 86 49 85 50 41 52 73 53 53 54
REMARK SMILES IDX 72 55 54 56 57 57 71 58 90 59 55 60 56 61 70 63 91 64 58 65
REMARK SMILES IDX 42 66 43 67 51 68 44 69 45 70 49 71 52 72 46 73 47 74 50 75
REMARK SMILES IDX 48 76 74 77 75 78 83 79 76 80 77 81 81 82 84 83 78 84 79 85
REMARK SMILES IDX 82 86 80 87 59 88 60 89 68 90 61 91 62 92 66 93 69 94 63 95
REMARK SMILES IDX 64 96 67 97 65 98
REMARK H PARENT 2 10 89 51 57 62
REMARK Flexibility Score: inf
ROOT
ATOM      1  C   UNL A   1      34.471  33.081  28.025  1.00  0.00     0.202 C 
ENDROOT
BRANCH   1   2
ATOM      2  C   UNL A   1      34.124  31.597  28.132  1.00  0.00     0.261 C 
BRANCH   2   3
ATOM      3  O   UNL A   1      34.189  30.908  26.868  1.00  0.00    -0.459 OA
BRANCH   3   4
ATOM      4  C   UNL A   1      33.685  29.649  26.904  1.00  0.00     0.366 C 
ATOM      5  O   UNL A   1      34.047  28.788  27.706  1.00  0.00    -0.245 OA
BRANCH   4   6
ATOM      6  C   UNL A   1      32.695  29.305  25.812  1.00  0.00     0.314 C 
ATOM      7  C   UNL A   1      31.055  31.115  26.148  1.00  0.00     0.333 C 
ATOM      8  N   UNL A   1      31.853  30.376  25.178  1.00  0.00    -0.323 N 
ATOM      9  C   UNL A   1      30.923  29.687  24.229  1.00  0.00     0.284 C 
ATOM     10  H   UNL A   1      32.467  31.049  24.720  1.00  0.00     0.348 HD
ATOM     11  C   UNL A   1      31.654  28.837  23.164  1.00  0.00     0.181 C 
ATOM     12  C   UNL A   1      33.536  28.623  24.725  1.00  0.00     0.197 C 
ATOM     13  N   UNL A   1      32.650  27.955  23.773  1.00  0.00    -0.326 N 
BRANCH  13  14
ATOM     14  C   UNL A   1      32.671  26.603  23.477  1.00  0.00     0.255 C 
ATOM     15  O   UNL A   1      32.597  26.145  22.341  1.00  0.00    -0.269 OA
BRANCH  14  16
ATOM     16  C   UNL A   1      32.827  25.650  24.590  1.00  0.00     0.060 A 
ATOM     17  C   UNL A   1      34.058  24.992  24.704  1.00  0.00     0.043 A 
ATOM     18  C   UNL A   1      31.782  25.367  25.480  1.00  0.00     0.053 A 
ATOM     19  C   UNL A   1      34.212  24.005  25.683  1.00  0.00     0.065 A 
ATOM     20  C   UNL A   1      31.981  24.446  26.510  1.00  0.00     0.023 A 
ATOM     21  Cl  UNL A   1      30.224  26.099  25.352  1.00  0.00    -0.083 Cl
ATOM     22  C   UNL A   1      33.184  23.742  26.598  1.00  0.00     0.030 A 
BRANCH  19  23
ATOM     23  N   UNL A   1      35.397  23.234  25.710  1.00  0.00    -0.241 N 
ATOM     24  C   UNL A   1      36.687  23.716  25.716  1.00  0.00     0.115 A 
ATOM     25  N   UNL A   1      35.364  21.883  25.779  1.00  0.00    -0.177 NA
ATOM     26  C   UNL A   1      37.519  22.624  25.750  1.00  0.00     0.042 A 
ATOM     27  C   UNL A   1      36.650  21.522  25.739  1.00  0.00     0.135 A 
ENDBRANCH  19  23
ENDBRANCH  14  16
ENDBRANCH  13  14
ENDBRANCH   4   6
ENDBRANCH   3   4
ENDBRANCH   2   3
ENDBRANCH   1   2
BRANCH   1  28
ATOM     28  O   UNL A   1      34.158  33.908  29.141  1.00  0.00    -0.374 OA
BRANCH  28  29
ATOM     29  C   UNL A   1      33.315  35.039  28.946  1.00  0.00     0.202 C 
BRANCH  29  30
ATOM     30  C   UNL A   1      32.906  35.811  30.195  1.00  0.00     0.261 C 
BRANCH  30  31
ATOM     31  O   UNL A   1      32.989  34.986  31.358  1.00  0.00    -0.460 OA
BRANCH  31  32
ATOM     32  C   UNL A   1      33.737  35.467  32.377  1.00  0.00     0.338 C 
ATOM     33  O   UNL A   1      33.679  36.566  32.878  1.00  0.00    -0.246 OA
BRANCH  32  34
ATOM     34  C   UNL A   1      34.757  34.455  32.703  1.00  0.00     0.060 A 
ATOM     35  C   UNL A   1      36.055  34.938  32.835  1.00  0.00     0.016 A 
ATOM     36  C   UNL A   1      34.490  33.078  32.629  1.00  0.00     0.016 A 
ATOM     37  C   UNL A   1      37.093  34.059  32.631  1.00  0.00     0.010 A 
ATOM     38  C   UNL A   1      35.532  32.195  32.436  1.00  0.00     0.010 A 
ATOM     39  C   UNL A   1      36.815  32.712  32.340  1.00  0.00    -0.014 A 
BRANCH  39  40
ATOM     40  C   UNL A   1      37.952  31.861  32.053  1.00  0.00     0.031 A 
ATOM     41  C   UNL A   1      38.749  31.597  33.268  1.00  0.00     0.074 A 
ATOM     42  C   UNL A   1      38.274  31.408  30.825  1.00  0.00     0.049 A 
ATOM     43  N   UNL A   1      39.874  32.146  33.576  1.00  0.00    -0.248 NA
ATOM     44  C   UNL A   1      38.133  30.826  34.357  1.00  0.00     0.031 C 
ATOM     45  C   UNL A   1      37.464  31.411  29.605  1.00  0.00     0.029 A 
ATOM     46  N   UNL A   1      39.421  30.787  30.430  1.00  0.00    -0.354 N 
ATOM     47  C   UNL A   1      40.209  31.645  34.826  1.00  0.00     0.074 A 
ATOM     48  C   UNL A   1      39.039  30.972  35.325  1.00  0.00     0.031 C 
ATOM     49  C   UNL A   1      38.054  30.621  28.675  1.00  0.00     0.029 A 
ATOM     50  C   UNL A   1      39.348  30.191  29.176  1.00  0.00     0.049 A 
ATOM     51  H   UNL A   1      40.233  30.762  30.985  1.00  0.00     0.167 HD
ATOM     52  C   UNL A   1      41.512  31.603  35.209  1.00  0.00     0.037 A 
ATOM     53  C   UNL A   1      40.282  29.374  28.626  1.00  0.00     0.037 A 
ATOM     54  C   UNL A   1      42.319  32.462  34.381  1.00  0.00     0.049 A 
ATOM     55  C   UNL A   1      41.568  29.677  29.296  1.00  0.00     0.074 A 
ATOM     56  C   UNL A   1      42.492  33.819  34.222  1.00  0.00     0.029 A 
ATOM     57  N   UNL A   1      42.798  31.859  33.248  1.00  0.00    -0.354 N 
ATOM     58  N   UNL A   1      42.207  30.805  29.152  1.00  0.00    -0.248 NA
ATOM     59  C   UNL A   1      41.962  28.879  30.447  1.00  0.00     0.031 C 
ATOM     60  C   UNL A   1      42.829  34.008  32.846  1.00  0.00     0.029 A 
ATOM     61  C   UNL A   1      42.901  32.760  32.226  1.00  0.00     0.049 A 
ATOM     62  H   UNL A   1      43.036  30.906  33.180  1.00  0.00     0.167 HD
ATOM     63  C   UNL A   1      42.743  31.062  30.401  1.00  0.00     0.074 A 
ATOM     64  C   UNL A   1      42.698  29.782  31.101  1.00  0.00     0.031 C 
ATOM     65  C   UNL A   1      42.888  32.348  30.838  1.00  0.00     0.037 A 
BRANCH  52  66
ATOM     66  C   UNL A   1      42.119  30.428  35.942  1.00  0.00     0.064 A 
ATOM     67  C   UNL A   1      43.092  30.669  36.931  1.00  0.00     0.173 A 
ATOM     68  C   UNL A   1      42.032  29.094  35.485  1.00  0.00     0.173 A 
ATOM     69  F   UNL A   1      43.288  31.908  37.407  1.00  0.00    -0.203 F 
ATOM     70  C   UNL A   1      43.951  29.661  37.380  1.00  0.00     0.198 A 
ATOM     71  C   UNL A   1      42.855  28.082  35.973  1.00  0.00     0.198 A 
ATOM     72  F   UNL A   1      41.242  28.737  34.466  1.00  0.00    -0.203 F 
ATOM     73  F   UNL A   1      44.941  29.961  38.233  1.00  0.00    -0.200 F 
ATOM     74  C   UNL A   1      43.833  28.370  36.899  1.00  0.00     0.200 A 
ATOM     75  F   UNL A   1      42.745  26.845  35.468  1.00  0.00    -0.200 F 
ATOM     76  F   UNL A   1      44.690  27.416  37.285  1.00  0.00    -0.200 F 
ENDBRANCH  52  66
BRANCH  53  77
ATOM     77  C   UNL A   1      40.072  28.117  27.865  1.00  0.00     0.064 A 
ATOM     78  C   UNL A   1      40.776  27.861  26.674  1.00  0.00     0.173 A 
ATOM     79  C   UNL A   1      39.423  27.015  28.452  1.00  0.00     0.173 A 
ATOM     80  F   UNL A   1      41.466  28.844  26.074  1.00  0.00    -0.203 F 
ATOM     81  C   UNL A   1      40.854  26.576  26.125  1.00  0.00     0.198 A 
ATOM     82  C   UNL A   1      39.498  25.732  27.902  1.00  0.00     0.198 A 
ATOM     83  F   UNL A   1      38.788  27.139  29.626  1.00  0.00    -0.203 F 
ATOM     84  F   UNL A   1      41.592  26.359  25.027  1.00  0.00    -0.200 F 
ATOM     85  C   UNL A   1      40.225  25.511  26.748  1.00  0.00     0.200 A 
ATOM     86  F   UNL A   1      38.921  24.703  28.539  1.00  0.00    -0.200 F 
ATOM     87  F   UNL A   1      40.355  24.267  26.263  1.00  0.00    -0.200 F 
ENDBRANCH  53  77
BRANCH  65  88
ATOM     88  C   UNL A   1      42.882  33.431  29.797  1.00  0.00     0.064 A 
ATOM     89  C   UNL A   1      43.970  33.754  28.968  1.00  0.00     0.173 A 
ATOM     90  C   UNL A   1      41.677  34.111  29.576  1.00  0.00     0.173 A 
ATOM     91  F   UNL A   1      45.132  33.092  29.062  1.00  0.00    -0.203 F 
ATOM     92  C   UNL A   1      43.860  34.745  27.993  1.00  0.00     0.198 A 
ATOM     93  C   UNL A   1      41.558  35.069  28.576  1.00  0.00     0.198 A 
ATOM     94  F   UNL A   1      40.593  33.812  30.311  1.00  0.00    -0.203 F 
ATOM     95  F   UNL A   1      44.916  35.055  27.226  1.00  0.00    -0.200 F 
ATOM     96  C   UNL A   1      42.652  35.396  27.792  1.00  0.00     0.200 A 
ATOM     97  F   UNL A   1      40.376  35.661  28.359  1.00  0.00    -0.200 F 
ATOM     98  F   UNL A   1      42.535  36.322  26.831  1.00  0.00    -0.200 F 
ENDBRANCH  65  88
ENDBRANCH  39  40
ENDBRANCH  32  34
ENDBRANCH  31  32
ENDBRANCH  30  31
ENDBRANCH  29  30
ENDBRANCH  28  29
ENDBRANCH   1  28
TORSDOF 17
ENDMDL
MODEL 3
REMARK VINA RESULT:     -12.1      3.271      8.748
REMARK SMILES C[N@@H+]1CCN(C(=O)c2cc(-n3cccn3)ccc2Cl)C[C@H]1C(=O)OCCOCCOC(=O)c1ccc(-c2c3nc(c(-c4c(F)c(F)c(F)c(F)c4F)c4ccc([nH]4)c(-c4c(F)c(F)c(F)c(F)c4F)c4nc(c(-c5c(F)c(F)c(F)c(F)c5F)c5ccc2[nH]5)C=C4)C=C3)cc1
REMARK SMILES IDX 26 1 25 2 24 3 22 4 23 5 21 6 1 7 2 8 3 9 4 11 20 12 5 13
REMARK SMILES IDX 6 14 7 15 8 16 9 17 18 18 10 19 17 20 19 21 16 22 11 23
REMARK SMILES IDX 12 24 15 25 13 26 14 27 27 28 28 29 29 30 30 31 31 32 32 33
REMARK SMILES IDX 33 34 34 35 95 36 35 37 94 38 36 39 37 40 38 41 88 42 39 43
REMARK SMILES IDX 93 44 87 45 89 46 40 47 92 48 86 49 85 50 41 52 73 53 53 54
REMARK SMILES IDX 72 55 54 56 57 57 71 58 90 59 55 60 56 61 70 63 91 64 58 65
REMARK SMILES IDX 42 66 43 67 51 68 44 69 45 70 49 71 52 72 46 73 47 74 50 75
REMARK SMILES IDX 48 76 74 77 75 78 83 79 76 80 77 81 81 82 84 83 78 84 79 85
REMARK SMILES IDX 82 86 80 87 59 88 60 89 68 90 61 91 62 92 66 93 69 94 63 95
REMARK SMILES IDX 64 96 67 97 65 98
REMARK H PARENT 2 10 89 51 57 62
REMARK Flexibility Score: inf
ROOT
ATOM      1  C   UNL A   1      33.881  28.911  25.579  1.00  0.00     0.202 C 
ENDROOT
BRANCH   1   2
ATOM      2  C   UNL A   1      32.678  29.112  24.657  1.00  0.00     0.261 C 
BRANCH   2   3
ATOM      3  O   UNL A   1      32.688  28.235  23.514  1.00  0.00    -0.459 OA
BRANCH   3   4
ATOM      4  C   UNL A   1      31.588  27.448  23.418  1.00  0.00     0.366 C 
ATOM      5  O   UNL A   1      30.532  27.806  22.895  1.00  0.00    -0.245 OA
BRANCH   4   6
ATOM      6  C   UNL A   1      31.684  26.096  24.093  1.00  0.00     0.314 C 
ATOM      7  C   UNL A   1      30.812  26.679  26.324  1.00  0.00     0.333 C 
ATOM      8  N   UNL A   1      30.755  25.735  25.217  1.00  0.00    -0.323 N 
ATOM      9  C   UNL A   1      31.187  24.392  25.717  1.00  0.00     0.284 C 
ATOM     10  H   UNL A   1      29.797  25.742  24.866  1.00  0.00     0.348 HD
ATOM     11  C   UNL A   1      31.198  23.303  24.619  1.00  0.00     0.181 C 
ATOM     12  C   UNL A   1      31.512  25.080  22.956  1.00  0.00     0.197 C 
ATOM     13  N   UNL A   1      31.911  23.755  23.424  1.00  0.00    -0.326 N 
BRANCH  13  14
ATOM     14  C   UNL A   1      32.907  22.976  22.860  1.00  0.00     0.255 C 
ATOM     15  O   UNL A   1      33.156  22.940  21.658  1.00  0.00    -0.269 OA
BRANCH  14  16
ATOM     16  C   UNL A   1      33.748  22.164  23.757  1.00  0.00     0.060 A 
ATOM     17  C   UNL A   1      34.845  22.796  24.356  1.00  0.00     0.043 A 
ATOM     18  C   UNL A   1      33.502  20.802  23.976  1.00  0.00     0.053 A 
ATOM     19  C   UNL A   1      35.726  22.036  25.131  1.00  0.00     0.065 A 
ATOM     20  C   UNL A   1      34.338  20.076  24.828  1.00  0.00     0.023 A 
ATOM     21  Cl  UNL A   1      32.204  19.954  23.218  1.00  0.00    -0.083 Cl
ATOM     22  C   UNL A   1      35.467  20.682  25.384  1.00  0.00     0.030 A 
BRANCH  19  23
ATOM     23  N   UNL A   1      36.913  22.631  25.617  1.00  0.00    -0.241 N 
ATOM     24  C   UNL A   1      38.114  21.997  25.842  1.00  0.00     0.115 A 
ATOM     25  N   UNL A   1      36.987  23.957  25.877  1.00  0.00    -0.177 NA
ATOM     26  C   UNL A   1      38.987  22.952  26.304  1.00  0.00     0.042 A 
ATOM     27  C   UNL A   1      38.224  24.129  26.351  1.00  0.00     0.135 A 
ENDBRANCH  19  23
ENDBRANCH  14  16
ENDBRANCH  13  14
ENDBRANCH   4   6
ENDBRANCH   3   4
ENDBRANCH   2   3
ENDBRANCH   1   2
BRANCH   1  28
ATOM     28  O   UNL A   1      33.748  29.341  26.930  1.00  0.00    -0.374 OA
BRANCH  28  29
ATOM     29  C   UNL A   1      32.834  30.389  27.234  1.00  0.00     0.202 C 
BRANCH  29  30
ATOM     30  C   UNL A   1      33.437  31.751  27.558  1.00  0.00     0.261 C 
BRANCH  30  31
ATOM     31  O   UNL A   1      34.391  31.651  28.616  1.00  0.00    -0.460 OA
BRANCH  31  32
ATOM     32  C   UNL A   1      35.626  32.136  28.354  1.00  0.00     0.338 C 
ATOM     33  O   UNL A   1      35.918  33.035  27.599  1.00  0.00    -0.246 OA
BRANCH  32  34
ATOM     34  C   UNL A   1      36.603  31.284  29.053  1.00  0.00     0.060 A 
ATOM     35  C   UNL A   1      37.856  31.853  29.252  1.00  0.00     0.016 A 
ATOM     36  C   UNL A   1      36.375  29.914  29.269  1.00  0.00     0.016 A 
ATOM     37  C   UNL A   1      38.929  31.007  29.414  1.00  0.00     0.010 A 
ATOM     38  C   UNL A   1      37.451  29.067  29.442  1.00  0.00     0.010 A 
ATOM     39  C   UNL A   1      38.723  29.617  29.412  1.00  0.00    -0.014 A 
BRANCH  39  40
ATOM     40  C   UNL A   1      39.906  28.785  29.501  1.00  0.00     0.031 A 
ATOM     41  C   UNL A   1      40.337  28.607  30.903  1.00  0.00     0.074 A 
ATOM     42  C   UNL A   1      40.563  28.278  28.439  1.00  0.00     0.049 A 
ATOM     43  N   UNL A   1      41.325  29.204  31.477  1.00  0.00    -0.248 NA
ATOM     44  C   UNL A   1      39.452  27.877  31.821  1.00  0.00     0.031 C 
ATOM     45  C   UNL A   1      40.124  28.194  27.044  1.00  0.00     0.029 A 
ATOM     46  N   UNL A   1      41.783  27.670  28.414  1.00  0.00    -0.354 N 
ATOM     47  C   UNL A   1      41.306  28.778  32.798  1.00  0.00     0.074 A 
ATOM     48  C   UNL A   1      40.052  28.099  32.992  1.00  0.00     0.031 C 
ATOM     49  C   UNL A   1      40.960  27.375  26.361  1.00  0.00     0.029 A 
ATOM     50  C   UNL A   1      42.069  27.008  27.225  1.00  0.00     0.049 A 
ATOM     51  H   UNL A   1      42.409  27.698  29.172  1.00  0.00     0.167 HD
ATOM     52  C   UNL A   1      42.450  28.793  33.529  1.00  0.00     0.037 A 
ATOM     53  C   UNL A   1      43.129  26.191  27.003  1.00  0.00     0.037 A 
ATOM     54  C   UNL A   1      43.445  29.631  32.908  1.00  0.00     0.049 A 
ATOM     55  C   UNL A   1      44.175  26.565  27.984  1.00  0.00     0.074 A 
ATOM     56  C   UNL A   1      43.638  30.982  32.725  1.00  0.00     0.029 A 
ATOM     57  N   UNL A   1      44.228  28.983  31.990  1.00  0.00    -0.354 N 
ATOM     58  N   UNL A   1      44.814  27.702  27.958  1.00  0.00    -0.248 NA
ATOM     59  C   UNL A   1      44.244  25.839  29.244  1.00  0.00     0.031 C 
ATOM     60  C   UNL A   1      44.341  31.109  31.489  1.00  0.00     0.029 A 
ATOM     61  C   UNL A   1      44.600  29.832  30.986  1.00  0.00     0.049 A 
ATOM     62  H   UNL A   1      44.488  28.036  32.046  1.00  0.00     0.167 HD
ATOM     63  C   UNL A   1      44.978  28.039  29.290  1.00  0.00     0.074 A 
ATOM     64  C   UNL A   1      44.757  26.795  30.023  1.00  0.00     0.031 C 
ATOM     65  C   UNL A   1      44.978  29.349  29.675  1.00  0.00     0.037 A 
BRANCH  52  66
ATOM     66  C   UNL A   1      42.845  27.675  34.468  1.00  0.00     0.064 A 
ATOM     67  C   UNL A   1      43.258  26.442  33.927  1.00  0.00     0.173 A 
ATOM     68  C   UNL A   1      42.515  27.658  35.843  1.00  0.00     0.173 A 
ATOM     69  F   UNL A   1      43.554  26.335  32.623  1.00  0.00    -0.203 F 
ATOM     70  C   UNL A   1      43.279  25.272  34.692  1.00  0.00     0.198 A 
ATOM     71  C   UNL A   1      42.588  26.501  36.613  1.00  0.00     0.198 A 
ATOM     72  F   UNL A   1      41.994  28.720  36.466  1.00  0.00    -0.203 F 
ATOM     73  F   UNL A   1      43.563  24.100  34.108  1.00  0.00    -0.200 F 
ATOM     74  C   UNL A   1      42.942  25.302  36.033  1.00  0.00     0.200 A 
ATOM     75  F   UNL A   1      42.225  26.546  37.903  1.00  0.00    -0.200 F 
ATOM     76  F   UNL A   1      42.908  24.174  36.755  1.00  0.00    -0.200 F 
ENDBRANCH  52  66
BRANCH  53  77
ATOM     77  C   UNL A   1      43.157  24.890  26.288  1.00  0.00     0.064 A 
ATOM     78  C   UNL A   1      44.023  24.676  25.201  1.00  0.00     0.173 A 
ATOM     79  C   UNL A   1      42.570  23.742  26.852  1.00  0.00     0.173 A 
ATOM     80  F   UNL A   1      44.664  25.710  24.635  1.00  0.00    -0.203 F 
ATOM     81  C   UNL A   1      44.311  23.389  24.730  1.00  0.00     0.198 A 
ATOM     82  C   UNL A   1      42.855  22.458  26.380  1.00  0.00     0.198 A 
ATOM     83  F   UNL A   1      41.789  23.833  27.937  1.00  0.00    -0.203 F 
ATOM     84  F   UNL A   1      45.196  23.220  23.737  1.00  0.00    -0.200 F 
ATOM     85  C   UNL A   1      43.736  22.281  25.330  1.00  0.00     0.200 A 
ATOM     86  F   UNL A   1      42.326  21.392  26.997  1.00  0.00    -0.200 F 
ATOM     87  F   UNL A   1      44.063  21.045  24.927  1.00  0.00    -0.200 F 
ENDBRANCH  53  77
BRANCH  65  88
ATOM     88  C   UNL A   1      45.248  30.375  28.612  1.00  0.00     0.064 A 
ATOM     89  C   UNL A   1      44.266  30.972  27.804  1.00  0.00     0.173 A 
ATOM     90  C   UNL A   1      46.565  30.834  28.474  1.00  0.00     0.173 A 
ATOM     91  F   UNL A   1      42.972  30.647  27.933  1.00  0.00    -0.203 F 
ATOM     92  C   UNL A   1      44.602  31.954  26.872  1.00  0.00     0.198 A 
ATOM     93  C   UNL A   1      46.891  31.842  27.573  1.00  0.00     0.198 A 
ATOM     94  F   UNL A   1      47.537  30.328  29.250  1.00  0.00    -0.203 F 
ATOM     95  F   UNL A   1      43.653  32.497  26.094  1.00  0.00    -0.200 F 
ATOM     96  C   UNL A   1      45.912  32.394  26.763  1.00  0.00     0.200 A 
ATOM     97  F   UNL A   1      48.151  32.292  27.505  1.00  0.00    -0.200 F 
ATOM     98  F   UNL A   1      46.230  33.362  25.893  1.00  0.00    -0.200 F 
ENDBRANCH  65  88
ENDBRANCH  39  40
ENDBRANCH  32  34
ENDBRANCH  31  32
ENDBRANCH  30  31
ENDBRANCH  29  30
ENDBRANCH  28  29
ENDBRANCH   1  28
TORSDOF 17
ENDMDL
