MODEL 1
REMARK VINA RESULT:     -12.2      0.000      0.000
REMARK SMILES Cc1cc(=O)c(Oc2ccc(C(=O)OCCOCCOC(=O)c3ccc(-c4c5nc(c(-c6c(F)c(F)c(F)c(F)c6F)c6ccc([nH]6)c(-c6c(F)c(F)c(F)c(F)c6F)c6nc(c(-c7c(F)c(F)c(F)c(F)c7F)c7ccc4[nH]7)C=C6)C=C5)cc3)cc2)c(-c2ccc(S(C)(=O)=O)cc2)o1
REMARK SMILES IDX 16 1 15 2 14 3 12 4 13 5 11 6 8 7 9 8 87 9 10 10 86 11 7 12
REMARK SMILES IDX 6 13 1 14 2 15 3 16 99 17 4 18 88 19 5 20 89 21 90 22 98 23
REMARK SMILES IDX 91 24 97 25 92 26 93 27 94 28 95 29 96 30 17 31 18 32 19 33
REMARK SMILES IDX 20 34 21 35 22 36 23 37 24 38 85 39 25 40 84 41 26 42 27 43
REMARK SMILES IDX 28 44 78 45 29 46 83 47 77 48 79 49 30 50 82 51 76 52 75 53
REMARK SMILES IDX 31 55 63 56 43 57 62 58 44 59 47 60 61 61 80 62 45 63 46 64
REMARK SMILES IDX 60 66 81 67 48 68 32 69 33 70 41 71 34 72 35 73 39 74 42 75
REMARK SMILES IDX 36 76 37 77 40 78 38 79 64 80 65 81 73 82 66 83 67 84 71 85
REMARK SMILES IDX 74 86 68 87 69 88 72 89 70 90 49 91 50 92 58 93 51 94 52 95
REMARK SMILES IDX 56 96 59 97 53 98 54 99 57 100 55 101
REMARK H PARENT 79 54 47 65
REMARK Flexibility Score: inf
ROOT
ATOM      1  C   UNL A   1      41.750  21.448  27.410  1.00  0.00     0.202 C 
ENDROOT
BRANCH   1   2
ATOM      2  C   UNL A   1      40.961  21.935  26.187  1.00  0.00     0.261 C 
BRANCH   2   3
ATOM      3  O   UNL A   1      39.560  22.070  26.490  1.00  0.00    -0.460 OA
BRANCH   3   4
ATOM      4  C   UNL A   1      38.726  21.319  25.725  1.00  0.00     0.338 C 
ATOM      5  O   UNL A   1      38.785  20.112  25.561  1.00  0.00    -0.246 OA
BRANCH   4   6
ATOM      6  C   UNL A   1      37.620  22.156  25.178  1.00  0.00     0.060 A 
ATOM      7  C   UNL A   1      35.684  23.920  24.171  1.00  0.00     0.127 A 
ATOM      8  C   UNL A   1      36.205  24.122  25.445  1.00  0.00     0.048 A 
ATOM      9  C   UNL A   1      36.068  22.794  23.434  1.00  0.00     0.048 A 
ATOM     10  C   UNL A   1      37.193  23.260  25.934  1.00  0.00     0.019 A 
ATOM     11  C   UNL A   1      37.033  21.914  23.931  1.00  0.00     0.019 A 
BRANCH   7  12
ATOM     12  O   UNL A   1      34.673  24.672  23.649  1.00  0.00    -0.449 OA
BRANCH  12  13
ATOM     13  C   UNL A   1      33.400  24.798  24.180  1.00  0.00     0.217 A 
ATOM     14  C   UNL A   1      29.644  25.671  26.140  1.00  0.00     0.088 C 
ATOM     15  C   UNL A   1      30.950  25.512  25.431  1.00  0.00     0.105 A 
ATOM     16  C   UNL A   1      31.771  26.523  25.144  1.00  0.00     0.098 A 
ATOM     17  O   UNL A   1      31.240  24.213  25.097  1.00  0.00    -0.457 OA
ATOM     18  C   UNL A   1      33.044  26.230  24.467  1.00  0.00     0.228 A 
ATOM     19  C   UNL A   1      32.461  23.881  24.521  1.00  0.00     0.180 A 
ATOM     20  O   UNL A   1      33.791  27.162  24.175  1.00  0.00    -0.285 OA
BRANCH  19  21
ATOM     21  C   UNL A   1      32.511  22.419  24.384  1.00  0.00     0.021 A 
ATOM     22  C   UNL A   1      33.091  21.653  25.412  1.00  0.00     0.013 A 
ATOM     23  C   UNL A   1      32.151  21.795  23.190  1.00  0.00     0.013 A 
ATOM     24  C   UNL A   1      33.242  20.270  25.286  1.00  0.00     0.021 A 
ATOM     25  C   UNL A   1      32.357  20.423  23.048  1.00  0.00     0.021 A 
ATOM     26  C   UNL A   1      32.864  19.658  24.099  1.00  0.00     0.067 A 
BRANCH  26  27
ATOM     27  S   UNL A   1      32.909  17.885  23.955  1.00  0.00     0.175 S 
ATOM     28  C   UNL A   1      34.582  17.446  24.318  1.00  0.00     0.163 C 
ATOM     29  O   UNL A   1      32.060  17.337  24.995  1.00  0.00    -0.224 OA
ATOM     30  O   UNL A   1      32.665  17.578  22.563  1.00  0.00    -0.224 OA
ENDBRANCH  26  27
ENDBRANCH  19  21
ENDBRANCH  12  13
ENDBRANCH   7  12
ENDBRANCH   4   6
ENDBRANCH   3   4
ENDBRANCH   2   3
ENDBRANCH   1   2
BRANCH   1  31
ATOM     31  O   UNL A   1      42.223  20.109  27.316  1.00  0.00    -0.374 OA
BRANCH  31  32
ATOM     32  C   UNL A   1      42.000  19.481  26.055  1.00  0.00     0.202 C 
BRANCH  32  33
ATOM     33  C   UNL A   1      43.117  18.506  25.693  1.00  0.00     0.261 C 
BRANCH  33  34
ATOM     34  O   UNL A   1      44.344  19.203  25.604  1.00  0.00    -0.460 OA
BRANCH  34  35
ATOM     35  C   UNL A   1      44.625  19.805  24.428  1.00  0.00     0.338 C 
ATOM     36  O   UNL A   1      44.558  19.375  23.306  1.00  0.00    -0.246 OA
BRANCH  35  37
ATOM     37  C   UNL A   1      44.801  21.208  24.837  1.00  0.00     0.060 A 
ATOM     38  C   UNL A   1      45.310  21.485  26.115  1.00  0.00     0.016 A 
ATOM     39  C   UNL A   1      44.275  22.210  24.021  1.00  0.00     0.016 A 
ATOM     40  C   UNL A   1      45.232  22.767  26.609  1.00  0.00     0.010 A 
ATOM     41  C   UNL A   1      44.266  23.515  24.491  1.00  0.00     0.010 A 
ATOM     42  C   UNL A   1      44.752  23.787  25.778  1.00  0.00    -0.014 A 
BRANCH  42  43
ATOM     43  C   UNL A   1      44.957  25.169  26.222  1.00  0.00     0.031 A 
ATOM     44  C   UNL A   1      43.846  25.956  26.819  1.00  0.00     0.074 A 
ATOM     45  C   UNL A   1      46.208  25.644  26.093  1.00  0.00     0.049 A 
ATOM     46  N   UNL A   1      43.874  27.175  27.284  1.00  0.00    -0.248 NA
ATOM     47  C   UNL A   1      42.531  25.301  26.906  1.00  0.00     0.031 C 
ATOM     48  C   UNL A   1      47.332  24.890  25.523  1.00  0.00     0.029 A 
ATOM     49  N   UNL A   1      46.755  26.840  26.448  1.00  0.00    -0.354 N 
ATOM     50  C   UNL A   1      42.587  27.439  27.717  1.00  0.00     0.074 A 
ATOM     51  C   UNL A   1      41.787  26.266  27.434  1.00  0.00     0.031 C 
ATOM     52  C   UNL A   1      48.446  25.625  25.616  1.00  0.00     0.029 A 
ATOM     53  C   UNL A   1      48.099  26.921  26.181  1.00  0.00     0.049 A 
ATOM     54  H   UNL A   1      46.240  27.574  26.856  1.00  0.00     0.167 HD
ATOM     55  C   UNL A   1      42.137  28.570  28.307  1.00  0.00     0.037 A 
ATOM     56  C   UNL A   1      48.949  27.942  26.360  1.00  0.00     0.037 A 
ATOM     57  C   UNL A   1      42.975  29.715  28.556  1.00  0.00     0.049 A 
ATOM     58  C   UNL A   1      48.401  29.201  26.962  1.00  0.00     0.074 A 
ATOM     59  C   UNL A   1      42.637  30.921  29.143  1.00  0.00     0.029 A 
ATOM     60  N   UNL A   1      44.323  29.795  28.224  1.00  0.00    -0.354 N 
ATOM     61  N   UNL A   1      47.184  29.444  27.387  1.00  0.00    -0.248 NA
ATOM     62  C   UNL A   1      49.331  30.321  27.105  1.00  0.00     0.031 C 
ATOM     63  C   UNL A   1      43.764  31.747  29.116  1.00  0.00     0.029 A 
ATOM     64  C   UNL A   1      44.825  31.039  28.571  1.00  0.00     0.049 A 
ATOM     65  H   UNL A   1      44.844  29.073  27.804  1.00  0.00     0.167 HD
ATOM     66  C   UNL A   1      47.201  30.745  27.862  1.00  0.00     0.074 A 
ATOM     67  C   UNL A   1      48.561  31.225  27.694  1.00  0.00     0.031 C 
ATOM     68  C   UNL A   1      46.188  31.478  28.384  1.00  0.00     0.037 A 
BRANCH  55  69
ATOM     69  C   UNL A   1      40.691  28.631  28.703  1.00  0.00     0.064 A 
ATOM     70  C   UNL A   1      40.269  28.297  29.999  1.00  0.00     0.173 A 
ATOM     71  C   UNL A   1      39.722  29.085  27.796  1.00  0.00     0.173 A 
ATOM     72  F   UNL A   1      41.152  27.841  30.901  1.00  0.00    -0.203 F 
ATOM     73  C   UNL A   1      38.930  28.405  30.368  1.00  0.00     0.198 A 
ATOM     74  C   UNL A   1      38.389  29.218  28.176  1.00  0.00     0.198 A 
ATOM     75  F   UNL A   1      40.070  29.414  26.543  1.00  0.00    -0.203 F 
ATOM     76  F   UNL A   1      38.546  28.048  31.601  1.00  0.00    -0.200 F 
ATOM     77  C   UNL A   1      37.993  28.876  29.459  1.00  0.00     0.200 A 
ATOM     78  F   UNL A   1      37.487  29.683  27.301  1.00  0.00    -0.200 F 
ATOM     79  F   UNL A   1      36.709  28.995  29.821  1.00  0.00    -0.200 F 
ENDBRANCH  55  69
BRANCH  56  80
ATOM     80  C   UNL A   1      50.373  27.786  25.979  1.00  0.00     0.064 A 
ATOM     81  C   UNL A   1      51.342  27.466  26.939  1.00  0.00     0.173 A 
ATOM     82  C   UNL A   1      50.787  27.881  24.641  1.00  0.00     0.173 A 
ATOM     83  F   UNL A   1      50.995  27.365  28.230  1.00  0.00    -0.203 F 
ATOM     84  C   UNL A   1      52.671  27.258  26.578  1.00  0.00     0.198 A 
ATOM     85  C   UNL A   1      52.109  27.642  24.276  1.00  0.00     0.198 A 
ATOM     86  F   UNL A   1      49.896  28.165  23.680  1.00  0.00    -0.203 F 
ATOM     87  F   UNL A   1      53.581  26.979  27.520  1.00  0.00    -0.200 F 
ATOM     88  C   UNL A   1      53.052  27.337  25.246  1.00  0.00     0.200 A 
ATOM     89  F   UNL A   1      52.467  27.690  22.986  1.00  0.00    -0.200 F 
ATOM     90  F   UNL A   1      54.326  27.115  24.899  1.00  0.00    -0.200 F 
ENDBRANCH  56  80
BRANCH  68  91
ATOM     91  C   UNL A   1      46.520  32.872  28.822  1.00  0.00     0.064 A 
ATOM     92  C   UNL A   1      46.994  33.137  30.115  1.00  0.00     0.173 A 
ATOM     93  C   UNL A   1      46.424  33.940  27.920  1.00  0.00     0.173 A 
ATOM     94  F   UNL A   1      47.085  32.148  31.018  1.00  0.00    -0.203 F 
ATOM     95  C   UNL A   1      47.344  34.429  30.493  1.00  0.00     0.198 A 
ATOM     96  C   UNL A   1      46.810  35.225  28.291  1.00  0.00     0.198 A 
ATOM     97  F   UNL A   1      45.980  33.734  26.671  1.00  0.00    -0.203 F 
ATOM     98  F   UNL A   1      47.753  34.669  31.747  1.00  0.00    -0.200 F 
ATOM     99  C   UNL A   1      47.264  35.468  29.579  1.00  0.00     0.200 A 
ATOM    100  F   UNL A   1      46.748  36.223  27.400  1.00  0.00    -0.200 F 
ATOM    101  F   UNL A   1      47.621  36.708  29.940  1.00  0.00    -0.200 F 
ENDBRANCH  68  91
ENDBRANCH  42  43
ENDBRANCH  35  37
ENDBRANCH  34  35
ENDBRANCH  33  34
ENDBRANCH  32  33
ENDBRANCH  31  32
ENDBRANCH   1  31
TORSDOF 18
ENDMDL
MODEL 2
REMARK VINA RESULT:     -12.1      6.730     12.241
REMARK SMILES Cc1cc(=O)c(Oc2ccc(C(=O)OCCOCCOC(=O)c3ccc(-c4c5nc(c(-c6c(F)c(F)c(F)c(F)c6F)c6ccc([nH]6)c(-c6c(F)c(F)c(F)c(F)c6F)c6nc(c(-c7c(F)c(F)c(F)c(F)c7F)c7ccc4[nH]7)C=C6)C=C5)cc3)cc2)c(-c2ccc(S(C)(=O)=O)cc2)o1
REMARK SMILES IDX 16 1 15 2 14 3 12 4 13 5 11 6 8 7 9 8 87 9 10 10 86 11 7 12
REMARK SMILES IDX 6 13 1 14 2 15 3 16 99 17 4 18 88 19 5 20 89 21 90 22 98 23
REMARK SMILES IDX 91 24 97 25 92 26 93 27 94 28 95 29 96 30 17 31 18 32 19 33
REMARK SMILES IDX 20 34 21 35 22 36 23 37 24 38 85 39 25 40 84 41 26 42 27 43
REMARK SMILES IDX 28 44 78 45 29 46 83 47 77 48 79 49 30 50 82 51 76 52 75 53
REMARK SMILES IDX 31 55 63 56 43 57 62 58 44 59 47 60 61 61 80 62 45 63 46 64
REMARK SMILES IDX 60 66 81 67 48 68 32 69 33 70 41 71 34 72 35 73 39 74 42 75
REMARK SMILES IDX 36 76 37 77 40 78 38 79 64 80 65 81 73 82 66 83 67 84 71 85
REMARK SMILES IDX 74 86 68 87 69 88 72 89 70 90 49 91 50 92 58 93 51 94 52 95
REMARK SMILES IDX 56 96 59 97 53 98 54 99 57 100 55 101
REMARK H PARENT 79 54 47 65
REMARK Flexibility Score: inf
ROOT
ATOM      1  C   UNL A   1      34.407  33.064  29.295  1.00  0.00     0.202 C 
ENDROOT
BRANCH   1   2
ATOM      2  C   UNL A   1      34.701  32.533  27.885  1.00  0.00     0.261 C 
BRANCH   2   3
ATOM      3  O   UNL A   1      33.937  31.347  27.604  1.00  0.00    -0.460 OA
BRANCH   3   4
ATOM      4  C   UNL A   1      34.666  30.255  27.255  1.00  0.00     0.338 C 
ATOM      5  O   UNL A   1      35.882  30.192  27.177  1.00  0.00    -0.246 OA
BRANCH   4   6
ATOM      6  C   UNL A   1      33.782  29.068  27.080  1.00  0.00     0.060 A 
ATOM      7  C   UNL A   1      32.287  26.704  26.856  1.00  0.00     0.127 A 
ATOM      8  C   UNL A   1      33.544  26.783  26.267  1.00  0.00     0.048 A 
ATOM      9  C   UNL A   1      31.742  27.829  27.484  1.00  0.00     0.048 A 
ATOM     10  C   UNL A   1      34.303  27.951  26.406  1.00  0.00     0.019 A 
ATOM     11  C   UNL A   1      32.484  29.009  27.600  1.00  0.00     0.019 A 
BRANCH   7  12
ATOM     12  O   UNL A   1      31.459  25.630  26.710  1.00  0.00    -0.449 OA
BRANCH  12  13
ATOM     13  C   UNL A   1      31.382  24.811  25.595  1.00  0.00     0.217 A 
ATOM     14  C   UNL A   1      31.673  22.030  22.296  1.00  0.00     0.088 C 
ATOM     15  C   UNL A   1      31.609  22.880  23.523  1.00  0.00     0.105 A 
ATOM     16  C   UNL A   1      32.148  22.540  24.695  1.00  0.00     0.098 A 
ATOM     17  O   UNL A   1      30.939  24.063  23.339  1.00  0.00    -0.457 OA
ATOM     18  C   UNL A   1      32.041  23.480  25.822  1.00  0.00     0.228 A 
ATOM     19  C   UNL A   1      30.873  25.011  24.354  1.00  0.00     0.180 A 
ATOM     20  O   UNL A   1      32.510  23.158  26.911  1.00  0.00    -0.285 OA
BRANCH  19  21
ATOM     21  C   UNL A   1      30.191  26.196  23.819  1.00  0.00     0.021 A 
ATOM     22  C   UNL A   1      30.960  27.279  23.352  1.00  0.00     0.013 A 
ATOM     23  C   UNL A   1      28.807  26.337  23.920  1.00  0.00     0.013 A 
ATOM     24  C   UNL A   1      30.355  28.461  22.920  1.00  0.00     0.021 A 
ATOM     25  C   UNL A   1      28.214  27.541  23.541  1.00  0.00     0.021 A 
ATOM     26  C   UNL A   1      28.975  28.583  23.009  1.00  0.00     0.067 A 
BRANCH  26  27
ATOM     27  S   UNL A   1      28.159  30.015  22.337  1.00  0.00     0.175 S 
ATOM     28  C   UNL A   1      29.141  31.384  22.872  1.00  0.00     0.163 C 
ATOM     29  O   UNL A   1      28.245  29.932  20.892  1.00  0.00    -0.224 OA
ATOM     30  O   UNL A   1      26.877  30.107  22.998  1.00  0.00    -0.224 OA
ENDBRANCH  26  27
ENDBRANCH  19  21
ENDBRANCH  12  13
ENDBRANCH   7  12
ENDBRANCH   4   6
ENDBRANCH   3   4
ENDBRANCH   2   3
ENDBRANCH   1   2
BRANCH   1  31
ATOM     31  O   UNL A   1      34.510  34.477  29.430  1.00  0.00    -0.374 OA
BRANCH  31  32
ATOM     32  C   UNL A   1      33.375  35.208  28.970  1.00  0.00     0.202 C 
BRANCH  32  33
ATOM     33  C   UNL A   1      32.801  36.118  30.052  1.00  0.00     0.261 C 
BRANCH  33  34
ATOM     34  O   UNL A   1      32.497  35.355  31.203  1.00  0.00    -0.460 OA
BRANCH  34  35
ATOM     35  C   UNL A   1      32.817  35.891  32.400  1.00  0.00     0.338 C 
ATOM     36  O   UNL A   1      32.200  36.660  33.090  1.00  0.00    -0.246 OA
BRANCH  35  37
ATOM     37  C   UNL A   1      34.007  35.111  32.776  1.00  0.00     0.060 A 
ATOM     38  C   UNL A   1      35.278  35.668  32.572  1.00  0.00     0.016 A 
ATOM     39  C   UNL A   1      33.838  33.775  33.140  1.00  0.00     0.016 A 
ATOM     40  C   UNL A   1      36.390  34.863  32.666  1.00  0.00     0.010 A 
ATOM     41  C   UNL A   1      34.965  32.983  33.308  1.00  0.00     0.010 A 
ATOM     42  C   UNL A   1      36.234  33.534  33.079  1.00  0.00    -0.014 A 
BRANCH  42  43
ATOM     43  C   UNL A   1      37.446  32.798  33.453  1.00  0.00     0.031 A 
ATOM     44  C   UNL A   1      38.039  31.783  32.542  1.00  0.00     0.074 A 
ATOM     45  C   UNL A   1      37.992  33.135  34.633  1.00  0.00     0.049 A 
ATOM     46  N   UNL A   1      39.118  31.072  32.715  1.00  0.00    -0.248 NA
ATOM     47  C   UNL A   1      37.336  31.526  31.275  1.00  0.00     0.031 C 
ATOM     48  C   UNL A   1      37.443  34.143  35.550  1.00  0.00     0.029 A 
ATOM     49  N   UNL A   1      39.126  32.705  35.254  1.00  0.00    -0.354 N 
ATOM     50  C   UNL A   1      39.228  30.279  31.586  1.00  0.00     0.074 A 
ATOM     51  C   UNL A   1      38.088  30.571  30.743  1.00  0.00     0.031 C 
ATOM     52  C   UNL A   1      38.271  34.288  36.590  1.00  0.00     0.029 A 
ATOM     53  C   UNL A   1      39.362  33.336  36.449  1.00  0.00     0.049 A 
ATOM     54  H   UNL A   1      39.718  32.010  34.883  1.00  0.00     0.167 HD
ATOM     55  C   UNL A   1      40.211  29.396  31.297  1.00  0.00     0.037 A 
ATOM     56  C   UNL A   1      40.348  33.147  37.339  1.00  0.00     0.037 A 
ATOM     57  C   UNL A   1      41.319  29.134  32.180  1.00  0.00     0.049 A 
ATOM     58  C   UNL A   1      41.387  32.118  37.011  1.00  0.00     0.074 A 
ATOM     59  C   UNL A   1      42.377  28.261  32.002  1.00  0.00     0.029 A 
ATOM     60  N   UNL A   1      41.507  29.747  33.415  1.00  0.00    -0.354 N 
ATOM     61  N   UNL A   1      41.499  31.379  35.933  1.00  0.00    -0.248 NA
ATOM     62  C   UNL A   1      42.428  31.891  38.015  1.00  0.00     0.031 C 
ATOM     63  C   UNL A   1      43.172  28.305  33.151  1.00  0.00     0.029 A 
ATOM     64  C   UNL A   1      42.650  29.251  34.021  1.00  0.00     0.049 A 
ATOM     65  H   UNL A   1      40.915  30.431  33.801  1.00  0.00     0.167 HD
ATOM     66  C   UNL A   1      42.631  30.604  36.119  1.00  0.00     0.074 A 
ATOM     67  C   UNL A   1      43.183  30.988  37.407  1.00  0.00     0.031 C 
ATOM     68  C   UNL A   1      43.164  29.660  35.307  1.00  0.00     0.037 A 
BRANCH  55  69
ATOM     69  C   UNL A   1      40.126  28.647  30.000  1.00  0.00     0.064 A 
ATOM     70  C   UNL A   1      40.741  29.124  28.833  1.00  0.00     0.173 A 
ATOM     71  C   UNL A   1      39.472  27.407  29.934  1.00  0.00     0.173 A 
ATOM     72  F   UNL A   1      41.366  30.312  28.836  1.00  0.00    -0.203 F 
ATOM     73  C   UNL A   1      40.697  28.395  27.648  1.00  0.00     0.198 A 
ATOM     74  C   UNL A   1      39.452  26.667  28.755  1.00  0.00     0.198 A 
ATOM     75  F   UNL A   1      38.864  26.905  31.020  1.00  0.00    -0.203 F 
ATOM     76  F   UNL A   1      41.264  28.888  26.538  1.00  0.00    -0.200 F 
ATOM     77  C   UNL A   1      40.062  27.162  27.612  1.00  0.00     0.200 A 
ATOM     78  F   UNL A   1      38.848  25.471  28.725  1.00  0.00    -0.200 F 
ATOM     79  F   UNL A   1      40.035  26.453  26.476  1.00  0.00    -0.200 F 
ENDBRANCH  55  69
BRANCH  56  80
ATOM     80  C   UNL A   1      40.382  33.960  38.578  1.00  0.00     0.064 A 
ATOM     81  C   UNL A   1      39.693  33.547  39.726  1.00  0.00     0.173 A 
ATOM     82  C   UNL A   1      41.158  35.127  38.666  1.00  0.00     0.173 A 
ATOM     83  F   UNL A   1      38.937  32.441  39.690  1.00  0.00    -0.203 F 
ATOM     84  C   UNL A   1      39.770  34.275  40.911  1.00  0.00     0.198 A 
ATOM     85  C   UNL A   1      41.261  35.835  39.860  1.00  0.00     0.198 A 
ATOM     86  F   UNL A   1      41.853  35.555  37.603  1.00  0.00    -0.203 F 
ATOM     87  F   UNL A   1      39.080  33.873  41.986  1.00  0.00    -0.200 F 
ATOM     88  C   UNL A   1      40.561  35.413  40.981  1.00  0.00     0.200 A 
ATOM     89  F   UNL A   1      42.048  36.917  39.931  1.00  0.00    -0.200 F 
ATOM     90  F   UNL A   1      40.651  36.099  42.127  1.00  0.00    -0.200 F 
ENDBRANCH  56  80
BRANCH  68  91
ATOM     91  C   UNL A   1      44.416  28.988  35.784  1.00  0.00     0.064 A 
ATOM     92  C   UNL A   1      44.369  27.808  36.540  1.00  0.00     0.173 A 
ATOM     93  C   UNL A   1      45.673  29.496  35.427  1.00  0.00     0.173 A 
ATOM     94  F   UNL A   1      43.188  27.295  36.921  1.00  0.00    -0.203 F 
ATOM     95  C   UNL A   1      45.539  27.169  36.935  1.00  0.00     0.198 A 
ATOM     96  C   UNL A   1      46.840  28.834  35.794  1.00  0.00     0.198 A 
ATOM     97  F   UNL A   1      45.768  30.620  34.701  1.00  0.00    -0.203 F 
ATOM     98  F   UNL A   1      45.473  26.066  37.695  1.00  0.00    -0.200 F 
ATOM     99  C   UNL A   1      46.772  27.675  36.552  1.00  0.00     0.200 A 
ATOM    100  F   UNL A   1      48.029  29.315  35.407  1.00  0.00    -0.200 F 
ATOM    101  F   UNL A   1      47.898  27.047  36.917  1.00  0.00    -0.200 F 
ENDBRANCH  68  91
ENDBRANCH  42  43
ENDBRANCH  35  37
ENDBRANCH  34  35
ENDBRANCH  33  34
ENDBRANCH  32  33
ENDBRANCH  31  32
ENDBRANCH   1  31
TORSDOF 18
ENDMDL
MODEL 3
REMARK VINA RESULT:     -11.9      0.341      6.994
REMARK SMILES Cc1cc(=O)c(Oc2ccc(C(=O)OCCOCCOC(=O)c3ccc(-c4c5nc(c(-c6c(F)c(F)c(F)c(F)c6F)c6ccc([nH]6)c(-c6c(F)c(F)c(F)c(F)c6F)c6nc(c(-c7c(F)c(F)c(F)c(F)c7F)c7ccc4[nH]7)C=C6)C=C5)cc3)cc2)c(-c2ccc(S(C)(=O)=O)cc2)o1
REMARK SMILES IDX 16 1 15 2 14 3 12 4 13 5 11 6 8 7 9 8 87 9 10 10 86 11 7 12
REMARK SMILES IDX 6 13 1 14 2 15 3 16 99 17 4 18 88 19 5 20 89 21 90 22 98 23
REMARK SMILES IDX 91 24 97 25 92 26 93 27 94 28 95 29 96 30 17 31 18 32 19 33
REMARK SMILES IDX 20 34 21 35 22 36 23 37 24 38 85 39 25 40 84 41 26 42 27 43
REMARK SMILES IDX 28 44 78 45 29 46 83 47 77 48 79 49 30 50 82 51 76 52 75 53
REMARK SMILES IDX 31 55 63 56 43 57 62 58 44 59 47 60 61 61 80 62 45 63 46 64
REMARK SMILES IDX 60 66 81 67 48 68 32 69 33 70 41 71 34 72 35 73 39 74 42 75
REMARK SMILES IDX 36 76 37 77 40 78 38 79 64 80 65 81 73 82 66 83 67 84 71 85
REMARK SMILES IDX 74 86 68 87 69 88 72 89 70 90 49 91 50 92 58 93 51 94 52 95
REMARK SMILES IDX 56 96 59 97 53 98 54 99 57 100 55 101
REMARK H PARENT 79 54 47 65
REMARK Flexibility Score: inf
ROOT
ATOM      1  C   UNL A   1      41.255  21.047  27.612  1.00  0.00     0.202 C 
ENDROOT
BRANCH   1   2
ATOM      2  C   UNL A   1      40.776  21.828  26.381  1.00  0.00     0.261 C 
BRANCH   2   3
ATOM      3  O   UNL A   1      39.370  22.123  26.463  1.00  0.00    -0.460 OA
BRANCH   3   4
ATOM      4  C   UNL A   1      38.574  21.393  25.640  1.00  0.00     0.338 C 
ATOM      5  O   UNL A   1      38.671  20.198  25.412  1.00  0.00    -0.246 OA
BRANCH   4   6
ATOM      6  C   UNL A   1      37.457  22.228  25.114  1.00  0.00     0.060 A 
ATOM      7  C   UNL A   1      35.489  23.993  24.172  1.00  0.00     0.127 A 
ATOM      8  C   UNL A   1      35.930  24.090  25.486  1.00  0.00     0.048 A 
ATOM      9  C   UNL A   1      35.969  22.964  23.352  1.00  0.00     0.048 A 
ATOM     10  C   UNL A   1      36.935  23.231  25.946  1.00  0.00     0.019 A 
ATOM     11  C   UNL A   1      36.951  22.084  23.817  1.00  0.00     0.019 A 
BRANCH   7  12
ATOM     12  O   UNL A   1      34.469  24.745  23.666  1.00  0.00    -0.449 OA
BRANCH  12  13
ATOM     13  C   UNL A   1      33.193  24.839  24.195  1.00  0.00     0.217 A 
ATOM     14  C   UNL A   1      29.414  25.611  26.153  1.00  0.00     0.088 C 
ATOM     15  C   UNL A   1      30.724  25.487  25.446  1.00  0.00     0.105 A 
ATOM     16  C   UNL A   1      31.523  26.518  25.169  1.00  0.00     0.098 A 
ATOM     17  O   UNL A   1      31.045  24.197  25.103  1.00  0.00    -0.457 OA
ATOM     18  C   UNL A   1      32.804  26.260  24.493  1.00  0.00     0.228 A 
ATOM     19  C   UNL A   1      32.274  23.897  24.527  1.00  0.00     0.180 A 
ATOM     20  O   UNL A   1      33.530  27.210  24.209  1.00  0.00    -0.285 OA
BRANCH  19  21
ATOM     21  C   UNL A   1      32.358  22.438  24.379  1.00  0.00     0.021 A 
ATOM     22  C   UNL A   1      32.816  21.664  25.462  1.00  0.00     0.013 A 
ATOM     23  C   UNL A   1      32.154  21.827  23.143  1.00  0.00     0.013 A 
ATOM     24  C   UNL A   1      32.998  20.285  25.338  1.00  0.00     0.021 A 
ATOM     25  C   UNL A   1      32.392  20.459  23.010  1.00  0.00     0.021 A 
ATOM     26  C   UNL A   1      32.775  19.685  24.106  1.00  0.00     0.067 A 
BRANCH  26  27
ATOM     27  S   UNL A   1      32.858  17.914  23.947  1.00  0.00     0.175 S 
ATOM     28  C   UNL A   1      34.557  17.517  24.231  1.00  0.00     0.163 C 
ATOM     29  O   UNL A   1      32.071  17.339  25.019  1.00  0.00    -0.224 OA
ATOM     30  O   UNL A   1      32.560  17.610  22.565  1.00  0.00    -0.224 OA
ENDBRANCH  26  27
ENDBRANCH  19  21
ENDBRANCH  12  13
ENDBRANCH   7  12
ENDBRANCH   4   6
ENDBRANCH   3   4
ENDBRANCH   2   3
ENDBRANCH   1   2
BRANCH   1  31
ATOM     31  O   UNL A   1      42.448  20.299  27.414  1.00  0.00    -0.374 OA
BRANCH  31  32
ATOM     32  C   UNL A   1      42.253  18.986  26.890  1.00  0.00     0.202 C 
BRANCH  32  33
ATOM     33  C   UNL A   1      42.812  18.842  25.477  1.00  0.00     0.261 C 
BRANCH  33  34
ATOM     34  O   UNL A   1      44.164  19.257  25.457  1.00  0.00    -0.460 OA
BRANCH  34  35
ATOM     35  C   UNL A   1      44.607  19.855  24.330  1.00  0.00     0.338 C 
ATOM     36  O   UNL A   1      44.622  19.449  23.197  1.00  0.00    -0.246 OA
BRANCH  35  37
ATOM     37  C   UNL A   1      44.844  21.233  24.789  1.00  0.00     0.060 A 
ATOM     38  C   UNL A   1      45.324  21.444  26.090  1.00  0.00     0.016 A 
ATOM     39  C   UNL A   1      44.403  22.286  23.987  1.00  0.00     0.016 A 
ATOM     40  C   UNL A   1      45.299  22.713  26.621  1.00  0.00     0.010 A 
ATOM     41  C   UNL A   1      44.448  23.576  24.497  1.00  0.00     0.010 A 
ATOM     42  C   UNL A   1      44.904  23.782  25.807  1.00  0.00    -0.014 A 
BRANCH  42  43
ATOM     43  C   UNL A   1      45.169  25.137  26.300  1.00  0.00     0.031 A 
ATOM     44  C   UNL A   1      46.520  25.746  26.182  1.00  0.00     0.074 A 
ATOM     45  C   UNL A   1      44.111  25.788  26.814  1.00  0.00     0.049 A 
ATOM     46  N   UNL A   1      46.905  26.939  26.543  1.00  0.00    -0.248 NA
ATOM     47  C   UNL A   1      47.580  24.917  25.588  1.00  0.00     0.031 C 
ATOM     48  C   UNL A   1      42.760  25.224  26.932  1.00  0.00     0.029 A 
ATOM     49  N   UNL A   1      43.986  27.054  27.302  1.00  0.00    -0.354 N 
ATOM     50  C   UNL A   1      48.251  27.008  26.225  1.00  0.00     0.074 A 
ATOM     51  C   UNL A   1      48.628  25.727  25.669  1.00  0.00     0.031 C 
ATOM     52  C   UNL A   1      41.933  26.160  27.410  1.00  0.00     0.029 A 
ATOM     53  C   UNL A   1      42.709  27.358  27.699  1.00  0.00     0.049 A 
ATOM     54  H   UNL A   1      44.737  27.689  27.363  1.00  0.00     0.167 HD
ATOM     55  C   UNL A   1      49.076  28.068  26.386  1.00  0.00     0.037 A 
ATOM     56  C   UNL A   1      42.226  28.480  28.254  1.00  0.00     0.037 A 
ATOM     57  C   UNL A   1      48.650  29.319  26.957  1.00  0.00     0.049 A 
ATOM     58  C   UNL A   1      43.185  29.611  28.471  1.00  0.00     0.074 A 
ATOM     59  C   UNL A   1      49.392  30.466  27.176  1.00  0.00     0.029 A 
ATOM     60  N   UNL A   1      47.361  29.584  27.407  1.00  0.00    -0.354 N 
ATOM     61  N   UNL A   1      44.456  29.682  28.154  1.00  0.00    -0.248 NA
ATOM     62  C   UNL A   1      42.652  30.809  29.122  1.00  0.00     0.031 C 
ATOM     63  C   UNL A   1      48.567  31.402  27.806  1.00  0.00     0.029 A 
ATOM     64  C   UNL A   1      47.293  30.868  27.925  1.00  0.00     0.049 A 
ATOM     65  H   UNL A   1      46.607  28.953  27.363  1.00  0.00     0.167 HD
ATOM     66  C   UNL A   1      44.878  30.938  28.555  1.00  0.00     0.074 A 
ATOM     67  C   UNL A   1      43.714  31.603  29.114  1.00  0.00     0.031 C 
ATOM     68  C   UNL A   1      46.112  31.491  28.474  1.00  0.00     0.037 A 
BRANCH  55  69
ATOM     69  C   UNL A   1      50.507  27.916  25.960  1.00  0.00     0.064 A 
ATOM     70  C   UNL A   1      51.525  27.641  26.885  1.00  0.00     0.173 A 
ATOM     71  C   UNL A   1      50.859  27.988  24.603  1.00  0.00     0.173 A 
ATOM     72  F   UNL A   1      51.247  27.578  28.196  1.00  0.00    -0.203 F 
ATOM     73  C   UNL A   1      52.841  27.454  26.471  1.00  0.00     0.198 A 
ATOM     74  C   UNL A   1      52.171  27.774  24.188  1.00  0.00     0.198 A 
ATOM     75  F   UNL A   1      49.925  28.252  23.676  1.00  0.00    -0.203 F 
ATOM     76  F   UNL A   1      53.802  27.225  27.377  1.00  0.00    -0.200 F 
ATOM     77  C   UNL A   1      53.161  27.510  25.122  1.00  0.00     0.200 A 
ATOM     78  F   UNL A   1      52.476  27.817  22.884  1.00  0.00    -0.200 F 
ATOM     79  F   UNL A   1      54.424  27.312  24.723  1.00  0.00    -0.200 F 
ENDBRANCH  55  69
BRANCH  56  80
ATOM     80  C   UNL A   1      40.789  28.563  28.608  1.00  0.00     0.064 A 
ATOM     81  C   UNL A   1      40.346  28.229  29.894  1.00  0.00     0.173 A 
ATOM     82  C   UNL A   1      39.837  29.043  27.694  1.00  0.00     0.173 A 
ATOM     83  F   UNL A   1      41.217  27.765  30.802  1.00  0.00    -0.203 F 
ATOM     84  C   UNL A   1      39.006  28.363  30.250  1.00  0.00     0.198 A 
ATOM     85  C   UNL A   1      38.504  29.207  28.060  1.00  0.00     0.198 A 
ATOM     86  F   UNL A   1      40.212  29.395  26.455  1.00  0.00    -0.203 F 
ATOM     87  F   UNL A   1      38.605  28.013  31.479  1.00  0.00    -0.200 F 
ATOM     88  C   UNL A   1      38.088  28.861  29.336  1.00  0.00     0.200 A 
ATOM     89  F   UNL A   1      37.627  29.715  27.184  1.00  0.00    -0.200 F 
ATOM     90  F   UNL A   1      36.804  29.009  29.688  1.00  0.00    -0.200 F 
ENDBRANCH  56  80
BRANCH  68  91
ATOM     91  C   UNL A   1      46.259  32.890  28.992  1.00  0.00     0.064 A 
ATOM     92  C   UNL A   1      46.025  34.001  28.170  1.00  0.00     0.173 A 
ATOM     93  C   UNL A   1      46.575  33.117  30.339  1.00  0.00     0.173 A 
ATOM     94  F   UNL A   1      45.739  33.832  26.869  1.00  0.00    -0.203 F 
ATOM     95  C   UNL A   1      46.119  35.293  28.676  1.00  0.00     0.198 A 
ATOM     96  C   UNL A   1      46.631  34.410  30.850  1.00  0.00     0.198 A 
ATOM     97  F   UNL A   1      46.802  32.085  31.165  1.00  0.00    -0.203 F 
ATOM     98  F   UNL A   1      45.935  36.343  27.863  1.00  0.00    -0.200 F 
ATOM     99  C   UNL A   1      46.409  35.496  30.017  1.00  0.00     0.200 A 
ATOM    100  F   UNL A   1      46.894  34.603  32.149  1.00  0.00    -0.200 F 
ATOM    101  F   UNL A   1      46.479  36.741  30.507  1.00  0.00    -0.200 F 
ENDBRANCH  68  91
ENDBRANCH  42  43
ENDBRANCH  35  37
ENDBRANCH  34  35
ENDBRANCH  33  34
ENDBRANCH  32  33
ENDBRANCH  31  32
ENDBRANCH   1  31
TORSDOF 18
ENDMDL
