MODEL 1
REMARK VINA RESULT:     -12.0      0.000      0.000
REMARK SMILES C=C[C@@H]1[C@@H](O)C[C@@H]2[C@@]3(CC[C@@]4(C)[C@@H]([C@H](C)CCC=C(C)C)CC[C@@]24C)C[C@@]13CCC(=O)OCCOCCOC(=O)c1ccc(-c2c3nc(c(-c4c(F)c(F)c(F)c(F)c4F)c4ccc([nH]4)c(-c4c(F)c(F)c(F)c(F)c4F)c4nc(c(-c5c(F)c(F)c(F)c(F)c5F)c5ccc2[nH]5)C=C4)C=C3)cc1
REMARK SMILES IDX 33 1 32 2 30 3 31 4 29 5 28 6 27 7 3 8 4 9 6 10 8 11 26 12
REMARK SMILES IDX 7 13 9 14 24 15 10 16 11 17 23 18 25 19 12 20 13 21 22 22
REMARK SMILES IDX 2 23 1 24 5 25 14 27 15 28 16 29 17 30 18 31 19 32 20 33
REMARK SMILES IDX 21 34 34 35 35 36 36 37 37 38 38 39 39 40 40 41 41 42 42 43
REMARK SMILES IDX 103 44 43 45 102 46 44 47 45 48 46 49 96 50 47 51 101 52
REMARK SMILES IDX 95 53 97 54 48 55 100 56 94 57 93 58 49 60 81 61 61 62 80 63
REMARK SMILES IDX 62 64 65 65 79 66 98 67 63 68 64 69 78 71 99 72 66 73 50 74
REMARK SMILES IDX 51 75 59 76 52 77 53 78 57 79 60 80 54 81 55 82 58 83 56 84
REMARK SMILES IDX 82 85 83 86 91 87 84 88 85 89 89 90 92 91 86 92 87 93 90 94
REMARK SMILES IDX 88 95 67 96 68 97 76 98 69 99 70 100 74 101 77 102 71 103
REMARK SMILES IDX 72 104 75 105 73 106
REMARK H PARENT 5 26 97 59 65 70
REMARK Flexibility Score: inf
ROOT
ATOM      1  C   UNL A   1      34.631  21.545  26.494  1.00  0.00     0.261 C 
ENDROOT
BRANCH   1   2
ATOM      2  O   UNL A   1      33.790  22.425  27.210  1.00  0.00    -0.463 OA
BRANCH   2   3
ATOM      3  C   UNL A   1      33.380  23.441  26.379  1.00  0.00     0.305 C 
ATOM      4  O   UNL A   1      34.096  24.153  25.684  1.00  0.00    -0.252 OA
BRANCH   3   5
ATOM      5  C   UNL A   1      31.929  23.693  26.533  1.00  0.00     0.123 C 
BRANCH   5   6
ATOM      6  C   UNL A   1      31.176  23.028  25.377  1.00  0.00     0.020 C 
BRANCH   6   7
ATOM      7  C   UNL A   1      31.261  23.760  24.021  1.00  0.00    -0.014 C 
ATOM      8  C   UNL A   1      32.189  23.126  22.936  1.00  0.00     0.047 C 
ATOM      9  C   UNL A   1      33.038  24.186  22.178  1.00  0.00     0.122 C 
ATOM     10  C   UNL A   1      32.299  25.492  21.910  1.00  0.00     0.037 C 
ATOM     11  C   UNL A   1      30.806  25.289  23.931  1.00  0.00    -0.019 C 
ATOM     12  C   UNL A   1      29.980  24.148  23.354  1.00  0.00     0.016 C 
ATOM     13  C   UNL A   1      31.925  26.156  23.243  1.00  0.00     0.005 C 
ATOM     14  C   UNL A   1      29.860  26.037  24.858  1.00  0.00     0.008 C 
ATOM     15  C   UNL A   1      31.604  27.691  23.085  1.00  0.00    -0.023 C 
ATOM     16  C   UNL A   1      30.020  27.556  24.882  1.00  0.00     0.008 C 
ATOM     17  C   UNL A   1      31.313  28.350  24.487  1.00  0.00    -0.024 C 
ATOM     18  C   UNL A   1      32.754  28.589  22.595  1.00  0.00     0.008 C 
ATOM     19  C   UNL A   1      30.442  27.736  22.063  1.00  0.00     0.012 C 
ATOM     20  C   UNL A   1      30.736  29.834  24.389  1.00  0.00     0.012 C 
ATOM     21  C   UNL A   1      32.831  28.733  25.154  1.00  0.00    -0.002 C 
ATOM     22  C   UNL A   1      33.488  29.207  23.800  1.00  0.00     0.005 C 
BRANCH   8  23
ATOM     23  C   UNL A   1      33.074  21.960  23.326  1.00  0.00    -0.028 C 
ATOM     24  C   UNL A   1      32.680  20.679  23.378  1.00  0.00     0.004 C 
ENDBRANCH   8  23
BRANCH   9  25
ATOM     25  O   UNL A   1      33.460  23.674  20.907  1.00  0.00    -0.392 OA
ATOM     26  H   UNL A   1      34.407  23.466  20.941  1.00  0.00     0.210 HD
ENDBRANCH   9  25
BRANCH  21  27
ATOM     27  C   UNL A   1      34.110  28.337  26.204  1.00  0.00    -0.010 C 
ATOM     28  C   UNL A   1      34.498  26.855  26.238  1.00  0.00     0.008 C 
BRANCH  27  29
ATOM     29  C   UNL A   1      34.767  29.155  27.486  1.00  0.00     0.008 C 
BRANCH  29  30
ATOM     30  C   UNL A   1      35.150  30.692  27.703  1.00  0.00     0.027 C 
BRANCH  30  31
ATOM     31  C   UNL A   1      34.187  31.841  27.760  1.00  0.00    -0.028 C 
ATOM     32  C   UNL A   1      34.598  33.095  28.083  1.00  0.00    -0.080 C 
ATOM     33  C   UNL A   1      33.653  33.997  28.826  1.00  0.00     0.039 C 
ATOM     34  C   UNL A   1      36.014  33.642  27.992  1.00  0.00     0.039 C 
ENDBRANCH  30  31
ENDBRANCH  29  30
ENDBRANCH  27  29
ENDBRANCH  21  27
ENDBRANCH   6   7
ENDBRANCH   5   6
ENDBRANCH   3   5
ENDBRANCH   2   3
ENDBRANCH   1   2
BRANCH   1  35
ATOM     35  C   UNL A   1      36.035  21.963  26.016  1.00  0.00     0.202 C 
BRANCH  35  36
ATOM     36  O   UNL A   1      36.794  20.926  25.439  1.00  0.00    -0.374 OA
BRANCH  36  37
ATOM     37  C   UNL A   1      38.201  21.226  25.467  1.00  0.00     0.202 C 
BRANCH  37  38
ATOM     38  C   UNL A   1      39.021  19.923  25.367  1.00  0.00     0.261 C 
BRANCH  38  39
ATOM     39  O   UNL A   1      40.019  19.624  26.395  1.00  0.00    -0.460 OA
BRANCH  39  40
ATOM     40  C   UNL A   1      41.340  19.885  26.205  1.00  0.00     0.338 C 
ATOM     41  O   UNL A   1      42.118  19.134  25.622  1.00  0.00    -0.246 OA
BRANCH  40  42
ATOM     42  C   UNL A   1      41.719  21.289  26.670  1.00  0.00     0.060 A 
ATOM     43  C   UNL A   1      41.665  22.358  25.752  1.00  0.00     0.016 A 
ATOM     44  C   UNL A   1      41.954  21.619  28.013  1.00  0.00     0.016 A 
ATOM     45  C   UNL A   1      41.672  23.716  26.182  1.00  0.00     0.010 A 
ATOM     46  C   UNL A   1      41.993  22.982  28.438  1.00  0.00     0.010 A 
ATOM     47  C   UNL A   1      41.808  24.062  27.535  1.00  0.00    -0.014 A 
BRANCH  47  48
ATOM     48  C   UNL A   1      42.127  25.502  27.918  1.00  0.00     0.031 A 
ATOM     49  C   UNL A   1      43.472  25.972  27.426  1.00  0.00     0.074 A 
ATOM     50  C   UNL A   1      41.341  26.423  28.545  1.00  0.00     0.049 A 
ATOM     51  N   UNL A   1      44.027  27.154  27.484  1.00  0.00    -0.248 NA
ATOM     52  C   UNL A   1      44.280  24.963  26.717  1.00  0.00     0.031 C 
ATOM     53  C   UNL A   1      39.957  26.245  28.955  1.00  0.00     0.029 A 
ATOM     54  N   UNL A   1      41.595  27.729  28.955  1.00  0.00    -0.354 N 
ATOM     55  C   UNL A   1      45.220  27.031  26.790  1.00  0.00     0.074 A 
ATOM     56  C   UNL A   1      45.345  25.657  26.374  1.00  0.00     0.031 C 
ATOM     57  C   UNL A   1      39.522  27.306  29.661  1.00  0.00     0.029 A 
ATOM     58  C   UNL A   1      40.559  28.329  29.659  1.00  0.00     0.049 A 
ATOM     59  H   UNL A   1      42.442  28.191  28.763  1.00  0.00     0.167 HD
ATOM     60  C   UNL A   1      46.128  27.983  26.483  1.00  0.00     0.037 A 
ATOM     61  C   UNL A   1      40.417  29.568  30.192  1.00  0.00     0.037 A 
ATOM     62  C   UNL A   1      46.040  29.348  26.899  1.00  0.00     0.049 A 
ATOM     63  C   UNL A   1      41.501  30.589  29.932  1.00  0.00     0.074 A 
ATOM     64  C   UNL A   1      46.941  30.370  26.676  1.00  0.00     0.029 A 
ATOM     65  N   UNL A   1      44.996  29.877  27.643  1.00  0.00    -0.354 N 
ATOM     66  N   UNL A   1      42.601  30.456  29.232  1.00  0.00    -0.248 NA
ATOM     67  C   UNL A   1      41.312  31.941  30.489  1.00  0.00     0.031 C 
ATOM     68  C   UNL A   1      46.475  31.507  27.338  1.00  0.00     0.029 A 
ATOM     69  C   UNL A   1      45.249  31.210  27.914  1.00  0.00     0.049 A 
ATOM     70  H   UNL A   1      44.198  29.380  27.933  1.00  0.00     0.167 HD
ATOM     71  C   UNL A   1      43.208  31.704  29.229  1.00  0.00     0.074 A 
ATOM     72  C   UNL A   1      42.349  32.593  29.982  1.00  0.00     0.031 C 
ATOM     73  C   UNL A   1      44.373  32.082  28.651  1.00  0.00     0.037 A 
BRANCH  60  74
ATOM     74  C   UNL A   1      47.322  27.519  25.710  1.00  0.00     0.064 A 
ATOM     75  C   UNL A   1      48.487  27.065  26.349  1.00  0.00     0.173 A 
ATOM     76  C   UNL A   1      47.331  27.629  24.313  1.00  0.00     0.173 A 
ATOM     77  F   UNL A   1      48.539  26.993  27.688  1.00  0.00    -0.203 F 
ATOM     78  C   UNL A   1      49.635  26.783  25.616  1.00  0.00     0.198 A 
ATOM     79  C   UNL A   1      48.470  27.313  23.582  1.00  0.00     0.198 A 
ATOM     80  F   UNL A   1      46.248  28.081  23.664  1.00  0.00    -0.203 F 
ATOM     81  F   UNL A   1      50.765  26.442  26.250  1.00  0.00    -0.200 F 
ATOM     82  C   UNL A   1      49.624  26.903  24.234  1.00  0.00     0.200 A 
ATOM     83  F   UNL A   1      48.461  27.435  22.248  1.00  0.00    -0.200 F 
ATOM     84  F   UNL A   1      50.736  26.650  23.531  1.00  0.00    -0.200 F 
ENDBRANCH  60  74
BRANCH  61  85
ATOM     85  C   UNL A   1      39.209  29.968  30.997  1.00  0.00     0.064 A 
ATOM     86  C   UNL A   1      38.120  30.651  30.424  1.00  0.00     0.173 A 
ATOM     87  C   UNL A   1      39.174  29.785  32.389  1.00  0.00     0.173 A 
ATOM     88  F   UNL A   1      38.103  30.896  29.105  1.00  0.00    -0.203 F 
ATOM     89  C   UNL A   1      37.080  31.166  31.208  1.00  0.00     0.198 A 
ATOM     90  C   UNL A   1      38.120  30.272  33.168  1.00  0.00     0.198 A 
ATOM     91  F   UNL A   1      40.186  29.158  33.007  1.00  0.00    -0.203 F 
ATOM     92  F   UNL A   1      36.103  31.884  30.636  1.00  0.00    -0.200 F 
ATOM     93  C   UNL A   1      37.081  30.976  32.580  1.00  0.00     0.200 A 
ATOM     94  F   UNL A   1      38.126  30.087  34.496  1.00  0.00    -0.200 F 
ATOM     95  F   UNL A   1      36.097  31.487  33.333  1.00  0.00    -0.200 F 
ENDBRANCH  61  85
BRANCH  73  96
ATOM     96  C   UNL A   1      44.785  33.518  28.776  1.00  0.00     0.064 A 
ATOM     97  C   UNL A   1      45.547  33.974  29.861  1.00  0.00     0.173 A 
ATOM     98  C   UNL A   1      44.490  34.425  27.747  1.00  0.00     0.173 A 
ATOM     99  F   UNL A   1      45.845  33.145  30.872  1.00  0.00    -0.203 F 
ATOM    100  C   UNL A   1      45.986  35.293  29.918  1.00  0.00     0.198 A 
ATOM    101  C   UNL A   1      44.961  35.733  27.792  1.00  0.00     0.198 A 
ATOM    102  F   UNL A   1      43.772  34.033  26.684  1.00  0.00    -0.203 F 
ATOM    103  F   UNL A   1      46.683  35.718  30.982  1.00  0.00    -0.200 F 
ATOM    104  C   UNL A   1      45.704  36.167  28.879  1.00  0.00     0.200 A 
ATOM    105  F   UNL A   1      44.706  36.569  26.776  1.00  0.00    -0.200 F 
ATOM    106  F   UNL A   1      46.149  37.430  28.925  1.00  0.00    -0.200 F 
ENDBRANCH  73  96
ENDBRANCH  47  48
ENDBRANCH  40  42
ENDBRANCH  39  40
ENDBRANCH  38  39
ENDBRANCH  37  38
ENDBRANCH  36  37
ENDBRANCH  35  36
ENDBRANCH   1  35
TORSDOF 22
ENDMDL
MODEL 2
REMARK VINA RESULT:     -11.2      1.723      2.790
REMARK SMILES C=C[C@@H]1[C@@H](O)C[C@@H]2[C@@]3(CC[C@@]4(C)[C@@H]([C@H](C)CCC=C(C)C)CC[C@@]24C)C[C@@]13CCC(=O)OCCOCCOC(=O)c1ccc(-c2c3nc(c(-c4c(F)c(F)c(F)c(F)c4F)c4ccc([nH]4)c(-c4c(F)c(F)c(F)c(F)c4F)c4nc(c(-c5c(F)c(F)c(F)c(F)c5F)c5ccc2[nH]5)C=C4)C=C3)cc1
REMARK SMILES IDX 33 1 32 2 30 3 31 4 29 5 28 6 27 7 3 8 4 9 6 10 8 11 26 12
REMARK SMILES IDX 7 13 9 14 24 15 10 16 11 17 23 18 25 19 12 20 13 21 22 22
REMARK SMILES IDX 2 23 1 24 5 25 14 27 15 28 16 29 17 30 18 31 19 32 20 33
REMARK SMILES IDX 21 34 34 35 35 36 36 37 37 38 38 39 39 40 40 41 41 42 42 43
REMARK SMILES IDX 103 44 43 45 102 46 44 47 45 48 46 49 96 50 47 51 101 52
REMARK SMILES IDX 95 53 97 54 48 55 100 56 94 57 93 58 49 60 81 61 61 62 80 63
REMARK SMILES IDX 62 64 65 65 79 66 98 67 63 68 64 69 78 71 99 72 66 73 50 74
REMARK SMILES IDX 51 75 59 76 52 77 53 78 57 79 60 80 54 81 55 82 58 83 56 84
REMARK SMILES IDX 82 85 83 86 91 87 84 88 85 89 89 90 92 91 86 92 87 93 90 94
REMARK SMILES IDX 88 95 67 96 68 97 76 98 69 99 70 100 74 101 77 102 71 103
REMARK SMILES IDX 72 104 75 105 73 106
REMARK H PARENT 5 26 97 59 65 70
REMARK Flexibility Score: inf
ROOT
ATOM      1  C   UNL A   1      34.180  22.002  27.259  1.00  0.00     0.261 C 
ENDROOT
BRANCH   1   2
ATOM      2  O   UNL A   1      33.863  23.370  27.407  1.00  0.00    -0.463 OA
BRANCH   2   3
ATOM      3  C   UNL A   1      32.574  23.588  26.982  1.00  0.00     0.305 C 
ATOM      4  O   UNL A   1      31.803  24.449  27.390  1.00  0.00    -0.252 OA
BRANCH   3   5
ATOM      5  C   UNL A   1      32.146  22.529  26.039  1.00  0.00     0.123 C 
BRANCH   5   6
ATOM      6  C   UNL A   1      30.886  22.989  25.301  1.00  0.00     0.020 C 
BRANCH   6   7
ATOM      7  C   UNL A   1      31.118  23.576  23.893  1.00  0.00    -0.014 C 
ATOM      8  C   UNL A   1      32.027  22.750  22.927  1.00  0.00     0.047 C 
ATOM      9  C   UNL A   1      33.023  23.641  22.131  1.00  0.00     0.122 C 
ATOM     10  C   UNL A   1      32.444  24.984  21.703  1.00  0.00     0.037 C 
ATOM     11  C   UNL A   1      30.836  25.128  23.639  1.00  0.00    -0.019 C 
ATOM     12  C   UNL A   1      29.922  24.028  23.117  1.00  0.00     0.016 C 
ATOM     13  C   UNL A   1      32.076  25.807  22.946  1.00  0.00     0.005 C 
ATOM     14  C   UNL A   1      29.930  26.054  24.436  1.00  0.00     0.008 C 
ATOM     15  C   UNL A   1      31.930  27.345  22.632  1.00  0.00    -0.023 C 
ATOM     16  C   UNL A   1      30.250  27.545  24.334  1.00  0.00     0.008 C 
ATOM     17  C   UNL A   1      31.640  28.161  23.949  1.00  0.00    -0.024 C 
ATOM     18  C   UNL A   1      33.193  28.069  22.134  1.00  0.00     0.008 C 
ATOM     19  C   UNL A   1      30.833  27.411  21.541  1.00  0.00     0.012 C 
ATOM     20  C   UNL A   1      31.233  29.679  23.683  1.00  0.00     0.012 C 
ATOM     21  C   UNL A   1      33.154  28.448  24.670  1.00  0.00    -0.002 C 
ATOM     22  C   UNL A   1      33.927  28.720  23.322  1.00  0.00     0.005 C 
BRANCH   8  23
ATOM     23  C   UNL A   1      32.760  21.542  23.474  1.00  0.00    -0.028 C 
ATOM     24  C   UNL A   1      32.454  20.267  23.196  1.00  0.00     0.004 C 
ENDBRANCH   8  23
BRANCH   9  25
ATOM     25  O   UNL A   1      33.451  22.969  20.939  1.00  0.00    -0.392 OA
ATOM     26  H   UNL A   1      33.443  22.010  21.088  1.00  0.00     0.210 HD
ENDBRANCH   9  25
BRANCH  21  27
ATOM     27  C   UNL A   1      34.328  28.025  25.827  1.00  0.00    -0.010 C 
ATOM     28  C   UNL A   1      34.424  26.530  26.150  1.00  0.00     0.008 C 
BRANCH  27  29
ATOM     29  C   UNL A   1      35.122  28.932  26.963  1.00  0.00     0.008 C 
BRANCH  29  30
ATOM     30  C   UNL A   1      34.653  30.141  27.899  1.00  0.00     0.027 C 
BRANCH  30  31
ATOM     31  C   UNL A   1      33.557  31.118  27.592  1.00  0.00    -0.028 C 
ATOM     32  C   UNL A   1      32.305  30.700  27.268  1.00  0.00    -0.080 C 
ATOM     33  C   UNL A   1      31.493  31.523  26.308  1.00  0.00     0.039 C 
ATOM     34  C   UNL A   1      31.687  29.346  27.580  1.00  0.00     0.039 C 
ENDBRANCH  30  31
ENDBRANCH  29  30
ENDBRANCH  27  29
ENDBRANCH  21  27
ENDBRANCH   6   7
ENDBRANCH   5   6
ENDBRANCH   3   5
ENDBRANCH   2   3
ENDBRANCH   1   2
BRANCH   1  35
ATOM     35  C   UNL A   1      35.542  21.532  26.712  1.00  0.00     0.202 C 
BRANCH  35  36
ATOM     36  O   UNL A   1      35.796  21.892  25.374  1.00  0.00    -0.374 OA
BRANCH  36  37
ATOM     37  C   UNL A   1      36.374  20.800  24.636  1.00  0.00     0.202 C 
BRANCH  37  38
ATOM     38  C   UNL A   1      37.860  20.634  25.015  1.00  0.00     0.261 C 
BRANCH  38  39
ATOM     39  O   UNL A   1      38.643  21.816  25.378  1.00  0.00    -0.460 OA
BRANCH  39  40
ATOM     40  C   UNL A   1      39.446  21.831  26.476  1.00  0.00     0.338 C 
ATOM     41  O   UNL A   1      40.033  20.847  26.918  1.00  0.00    -0.246 OA
BRANCH  40  42
ATOM     42  C   UNL A   1      39.653  23.244  27.014  1.00  0.00     0.060 A 
ATOM     43  C   UNL A   1      40.666  23.478  27.966  1.00  0.00     0.016 A 
ATOM     44  C   UNL A   1      39.006  24.373  26.488  1.00  0.00     0.016 A 
ATOM     45  C   UNL A   1      41.135  24.792  28.255  1.00  0.00     0.010 A 
ATOM     46  C   UNL A   1      39.457  25.691  26.802  1.00  0.00     0.010 A 
ATOM     47  C   UNL A   1      40.563  25.927  27.660  1.00  0.00    -0.014 A 
BRANCH  47  48
ATOM     48  C   UNL A   1      40.870  27.310  28.222  1.00  0.00     0.031 A 
ATOM     49  C   UNL A   1      42.337  27.656  28.198  1.00  0.00     0.074 A 
ATOM     50  C   UNL A   1      40.012  28.282  28.642  1.00  0.00     0.049 A 
ATOM     51  N   UNL A   1      42.947  28.771  28.506  1.00  0.00    -0.248 NA
ATOM     52  C   UNL A   1      43.234  26.598  27.701  1.00  0.00     0.031 C 
ATOM     53  C   UNL A   1      38.559  28.234  28.596  1.00  0.00     0.029 A 
ATOM     54  N   UNL A   1      40.238  29.538  29.201  1.00  0.00    -0.354 N 
ATOM     55  C   UNL A   1      44.281  28.552  28.202  1.00  0.00     0.074 A 
ATOM     56  C   UNL A   1      44.410  27.189  27.749  1.00  0.00     0.031 C 
ATOM     57  C   UNL A   1      38.021  29.305  29.208  1.00  0.00     0.029 A 
ATOM     58  C   UNL A   1      39.091  30.214  29.595  1.00  0.00     0.049 A 
ATOM     59  H   UNL A   1      41.140  29.916  29.309  1.00  0.00     0.167 HD
ATOM     60  C   UNL A   1      45.319  29.415  28.254  1.00  0.00     0.037 A 
ATOM     61  C   UNL A   1      38.899  31.439  30.144  1.00  0.00     0.037 A 
ATOM     62  C   UNL A   1      45.225  30.764  28.719  1.00  0.00     0.049 A 
ATOM     63  C   UNL A   1      40.095  32.351  30.300  1.00  0.00     0.074 A 
ATOM     64  C   UNL A   1      46.236  31.694  28.854  1.00  0.00     0.029 A 
ATOM     65  N   UNL A   1      44.052  31.370  29.143  1.00  0.00    -0.354 N 
ATOM     66  N   UNL A   1      41.342  32.132  29.962  1.00  0.00    -0.248 NA
ATOM     67  C   UNL A   1      39.860  33.692  30.866  1.00  0.00     0.031 C 
ATOM     68  C   UNL A   1      45.688  32.847  29.420  1.00  0.00     0.029 A 
ATOM     69  C   UNL A   1      44.323  32.657  29.571  1.00  0.00     0.049 A 
ATOM     70  H   UNL A   1      43.163  30.947  29.140  1.00  0.00     0.167 HD
ATOM     71  C   UNL A   1      42.026  33.309  30.232  1.00  0.00     0.074 A 
ATOM     72  C   UNL A   1      41.056  34.252  30.747  1.00  0.00     0.031 C 
ATOM     73  C   UNL A   1      43.341  33.585  30.065  1.00  0.00     0.037 A 
BRANCH  60  74
ATOM     74  C   UNL A   1      46.649  28.860  27.852  1.00  0.00     0.064 A 
ATOM     75  C   UNL A   1      47.038  28.772  26.505  1.00  0.00     0.173 A 
ATOM     76  C   UNL A   1      47.498  28.318  28.825  1.00  0.00     0.173 A 
ATOM     77  F   UNL A   1      46.230  29.232  25.537  1.00  0.00    -0.203 F 
ATOM     78  C   UNL A   1      48.211  28.117  26.147  1.00  0.00     0.198 A 
ATOM     79  C   UNL A   1      48.687  27.695  28.464  1.00  0.00     0.198 A 
ATOM     80  F   UNL A   1      47.155  28.359  30.121  1.00  0.00    -0.203 F 
ATOM     81  F   UNL A   1      48.519  27.959  24.852  1.00  0.00    -0.200 F 
ATOM     82  C   UNL A   1      49.035  27.582  27.126  1.00  0.00     0.200 A 
ATOM     83  F   UNL A   1      49.480  27.173  29.410  1.00  0.00    -0.200 F 
ATOM     84  F   UNL A   1      50.155  26.934  26.778  1.00  0.00    -0.200 F 
ENDBRANCH  60  74
BRANCH  61  85
ATOM     85  C   UNL A   1      37.540  31.931  30.568  1.00  0.00     0.064 A 
ATOM     86  C   UNL A   1      36.675  32.596  29.680  1.00  0.00     0.173 A 
ATOM     87  C   UNL A   1      37.129  31.855  31.909  1.00  0.00     0.173 A 
ATOM     88  F   UNL A   1      37.019  32.740  28.392  1.00  0.00    -0.203 F 
ATOM     89  C   UNL A   1      35.489  33.196  30.121  1.00  0.00     0.198 A 
ATOM     90  C   UNL A   1      35.929  32.428  32.343  1.00  0.00     0.198 A 
ATOM     91  F   UNL A   1      37.912  31.251  32.816  1.00  0.00    -0.203 F 
ATOM     92  F   UNL A   1      34.731  33.893  29.262  1.00  0.00    -0.200 F 
ATOM     93  C   UNL A   1      35.117  33.111  31.452  1.00  0.00     0.200 A 
ATOM     94  F   UNL A   1      35.575  32.345  33.633  1.00  0.00    -0.200 F 
ATOM     95  F   UNL A   1      33.992  33.704  31.879  1.00  0.00    -0.200 F 
ENDBRANCH  61  85
BRANCH  73  96
ATOM     96  C   UNL A   1      43.816  34.964  30.410  1.00  0.00     0.064 A 
ATOM     97  C   UNL A   1      43.790  36.008  29.475  1.00  0.00     0.173 A 
ATOM     98  C   UNL A   1      44.214  35.263  31.723  1.00  0.00     0.173 A 
ATOM     99  F   UNL A   1      43.425  35.769  28.206  1.00  0.00    -0.203 F 
ATOM    100  C   UNL A   1      44.160  37.300  29.838  1.00  0.00     0.198 A 
ATOM    101  C   UNL A   1      44.549  36.561  32.089  1.00  0.00     0.198 A 
ATOM    102  F   UNL A   1      44.247  34.299  32.655  1.00  0.00    -0.203 F 
ATOM    103  F   UNL A   1      44.162  38.276  28.919  1.00  0.00    -0.200 F 
ATOM    104  C   UNL A   1      44.527  37.578  31.146  1.00  0.00     0.200 A 
ATOM    105  F   UNL A   1      44.882  36.832  33.359  1.00  0.00    -0.200 F 
ATOM    106  F   UNL A   1      44.859  38.827  31.499  1.00  0.00    -0.200 F 
ENDBRANCH  73  96
ENDBRANCH  47  48
ENDBRANCH  40  42
ENDBRANCH  39  40
ENDBRANCH  38  39
ENDBRANCH  37  38
ENDBRANCH  36  37
ENDBRANCH  35  36
ENDBRANCH   1  35
TORSDOF 22
ENDMDL
MODEL 3
REMARK VINA RESULT:     -10.8      5.398     10.765
REMARK SMILES C=C[C@@H]1[C@@H](O)C[C@@H]2[C@@]3(CC[C@@]4(C)[C@@H]([C@H](C)CCC=C(C)C)CC[C@@]24C)C[C@@]13CCC(=O)OCCOCCOC(=O)c1ccc(-c2c3nc(c(-c4c(F)c(F)c(F)c(F)c4F)c4ccc([nH]4)c(-c4c(F)c(F)c(F)c(F)c4F)c4nc(c(-c5c(F)c(F)c(F)c(F)c5F)c5ccc2[nH]5)C=C4)C=C3)cc1
REMARK SMILES IDX 33 1 32 2 30 3 31 4 29 5 28 6 27 7 3 8 4 9 6 10 8 11 26 12
REMARK SMILES IDX 7 13 9 14 24 15 10 16 11 17 23 18 25 19 12 20 13 21 22 22
REMARK SMILES IDX 2 23 1 24 5 25 14 27 15 28 16 29 17 30 18 31 19 32 20 33
REMARK SMILES IDX 21 34 34 35 35 36 36 37 37 38 38 39 39 40 40 41 41 42 42 43
REMARK SMILES IDX 103 44 43 45 102 46 44 47 45 48 46 49 96 50 47 51 101 52
REMARK SMILES IDX 95 53 97 54 48 55 100 56 94 57 93 58 49 60 81 61 61 62 80 63
REMARK SMILES IDX 62 64 65 65 79 66 98 67 63 68 64 69 78 71 99 72 66 73 50 74
REMARK SMILES IDX 51 75 59 76 52 77 53 78 57 79 60 80 54 81 55 82 58 83 56 84
REMARK SMILES IDX 82 85 83 86 91 87 84 88 85 89 89 90 92 91 86 92 87 93 90 94
REMARK SMILES IDX 88 95 67 96 68 97 76 98 69 99 70 100 74 101 77 102 71 103
REMARK SMILES IDX 72 104 75 105 73 106
REMARK H PARENT 5 26 97 59 65 70
REMARK Flexibility Score: inf
ROOT
ATOM      1  C   UNL A   1      47.982  26.553  28.121  1.00  0.00     0.261 C 
ENDROOT
BRANCH   1   2
ATOM      2  O   UNL A   1      48.134  27.478  29.177  1.00  0.00    -0.463 OA
BRANCH   2   3
ATOM      3  C   UNL A   1      46.973  27.526  29.912  1.00  0.00     0.305 C 
ATOM      4  O   UNL A   1      46.743  26.934  30.960  1.00  0.00    -0.252 OA
BRANCH   3   5
ATOM      5  C   UNL A   1      45.927  28.289  29.191  1.00  0.00     0.123 C 
BRANCH   5   6
ATOM      6  C   UNL A   1      46.179  29.788  29.374  1.00  0.00     0.020 C 
BRANCH   6   7
ATOM      7  C   UNL A   1      45.088  30.720  28.804  1.00  0.00    -0.014 C 
ATOM      8  C   UNL A   1      45.173  31.052  27.279  1.00  0.00     0.047 C 
ATOM      9  C   UNL A   1      44.892  32.551  26.976  1.00  0.00     0.122 C 
ATOM     10  C   UNL A   1      43.808  33.166  27.852  1.00  0.00     0.037 C 
ATOM     11  C   UNL A   1      44.243  31.633  29.805  1.00  0.00    -0.019 C 
ATOM     12  C   UNL A   1      43.662  30.403  29.122  1.00  0.00     0.016 C 
ATOM     13  C   UNL A   1      44.250  33.131  29.322  1.00  0.00     0.005 C 
ATOM     14  C   UNL A   1      44.003  31.414  31.291  1.00  0.00     0.008 C 
ATOM     15  C   UNL A   1      43.446  34.147  30.221  1.00  0.00    -0.023 C 
ATOM     16  C   UNL A   1      43.647  32.663  32.096  1.00  0.00     0.008 C 
ATOM     17  C   UNL A   1      43.991  34.141  31.699  1.00  0.00    -0.024 C 
ATOM     18  C   UNL A   1      43.597  35.639  29.879  1.00  0.00     0.008 C 
ATOM     19  C   UNL A   1      41.966  33.724  30.045  1.00  0.00     0.012 C 
ATOM     20  C   UNL A   1      43.073  34.949  32.723  1.00  0.00     0.012 C 
ATOM     21  C   UNL A   1      45.332  35.188  31.712  1.00  0.00    -0.002 C 
ATOM     22  C   UNL A   1      44.705  36.266  30.745  1.00  0.00     0.005 C 
BRANCH   8  23
ATOM     23  C   UNL A   1      46.394  30.603  26.503  1.00  0.00    -0.028 C 
ATOM     24  C   UNL A   1      46.388  29.690  25.522  1.00  0.00     0.004 C 
ENDBRANCH   8  23
BRANCH   9  25
ATOM     25  O   UNL A   1      44.475  32.716  25.614  1.00  0.00    -0.392 OA
ATOM     26  H   UNL A   1      44.459  31.852  25.174  1.00  0.00     0.210 HD
ENDBRANCH   9  25
BRANCH  21  27
ATOM     27  C   UNL A   1      47.019  35.407  31.657  1.00  0.00    -0.010 C 
ATOM     28  C   UNL A   1      47.627  36.132  32.863  1.00  0.00     0.008 C 
BRANCH  27  29
ATOM     29  C   UNL A   1      48.091  35.344  30.396  1.00  0.00     0.008 C 
BRANCH  29  30
ATOM     30  C   UNL A   1      48.207  34.379  29.126  1.00  0.00     0.027 C 
BRANCH  30  31
ATOM     31  C   UNL A   1      47.546  34.591  27.796  1.00  0.00    -0.028 C 
ATOM     32  C   UNL A   1      48.126  34.169  26.641  1.00  0.00    -0.080 C 
ATOM     33  C   UNL A   1      47.898  34.963  25.386  1.00  0.00     0.039 C 
ATOM     34  C   UNL A   1      49.196  33.099  26.497  1.00  0.00     0.039 C 
ENDBRANCH  30  31
ENDBRANCH  29  30
ENDBRANCH  27  29
ENDBRANCH  21  27
ENDBRANCH   6   7
ENDBRANCH   5   6
ENDBRANCH   3   5
ENDBRANCH   2   3
ENDBRANCH   1   2
BRANCH   1  35
ATOM     35  C   UNL A   1      47.667  25.066  28.375  1.00  0.00     0.202 C 
BRANCH  35  36
ATOM     36  O   UNL A   1      47.765  24.240  27.238  1.00  0.00    -0.374 OA
BRANCH  36  37
ATOM     37  C   UNL A   1      47.369  24.939  26.044  1.00  0.00     0.202 C 
BRANCH  37  38
ATOM     38  C   UNL A   1      46.442  24.047  25.193  1.00  0.00     0.261 C 
BRANCH  38  39
ATOM     39  O   UNL A   1      45.260  24.638  24.565  1.00  0.00    -0.460 OA
BRANCH  39  40
ATOM     40  C   UNL A   1      44.005  24.187  24.839  1.00  0.00     0.338 C 
ATOM     41  O   UNL A   1      43.499  23.193  24.327  1.00  0.00    -0.246 OA
BRANCH  40  42
ATOM     42  C   UNL A   1      43.349  24.976  25.970  1.00  0.00     0.060 A 
ATOM     43  C   UNL A   1      43.807  26.277  26.260  1.00  0.00     0.016 A 
ATOM     44  C   UNL A   1      42.190  24.549  26.636  1.00  0.00     0.016 A 
ATOM     45  C   UNL A   1      43.042  27.182  27.051  1.00  0.00     0.010 A 
ATOM     46  C   UNL A   1      41.441  25.449  27.454  1.00  0.00     0.010 A 
ATOM     47  C   UNL A   1      41.829  26.800  27.644  1.00  0.00    -0.014 A 
BRANCH  47  48
ATOM     48  C   UNL A   1      41.209  27.677  28.725  1.00  0.00     0.031 A 
ATOM     49  C   UNL A   1      41.909  27.578  30.056  1.00  0.00     0.074 A 
ATOM     50  C   UNL A   1      40.195  28.584  28.626  1.00  0.00     0.049 A 
ATOM     51  N   UNL A   1      41.716  28.244  31.164  1.00  0.00    -0.248 NA
ATOM     52  C   UNL A   1      43.026  26.618  30.118  1.00  0.00     0.031 C 
ATOM     53  C   UNL A   1      39.491  28.967  27.411  1.00  0.00     0.029 A 
ATOM     54  N   UNL A   1      39.564  29.375  29.582  1.00  0.00    -0.354 N 
ATOM     55  C   UNL A   1      42.708  27.808  32.028  1.00  0.00     0.074 A 
ATOM     56  C   UNL A   1      43.460  26.782  31.351  1.00  0.00     0.031 C 
ATOM     57  C   UNL A   1      38.463  29.790  27.689  1.00  0.00     0.029 A 
ATOM     58  C   UNL A   1      38.490  30.116  29.107  1.00  0.00     0.049 A 
ATOM     59  H   UNL A   1      39.855  29.405  30.522  1.00  0.00     0.167 HD
ATOM     60  C   UNL A   1      43.004  28.244  33.272  1.00  0.00     0.037 A 
ATOM     61  C   UNL A   1      37.657  31.001  29.709  1.00  0.00     0.037 A 
ATOM     62  C   UNL A   1      42.264  29.245  33.976  1.00  0.00     0.049 A 
ATOM     63  C   UNL A   1      37.940  31.392  31.142  1.00  0.00     0.074 A 
ATOM     64  C   UNL A   1      42.463  29.711  35.260  1.00  0.00     0.029 A 
ATOM     65  N   UNL A   1      41.168  29.920  33.460  1.00  0.00    -0.354 N 
ATOM     66  N   UNL A   1      38.915  30.995  31.923  1.00  0.00    -0.248 NA
ATOM     67  C   UNL A   1      37.044  32.382  31.768  1.00  0.00     0.031 C 
ATOM     68  C   UNL A   1      41.449  30.626  35.547  1.00  0.00     0.029 A 
ATOM     69  C   UNL A   1      40.660  30.780  34.417  1.00  0.00     0.049 A 
ATOM     70  H   UNL A   1      40.807  29.803  32.552  1.00  0.00     0.167 HD
ATOM     71  C   UNL A   1      38.776  31.710  33.104  1.00  0.00     0.074 A 
ATOM     72  C   UNL A   1      37.634  32.583  32.938  1.00  0.00     0.031 C 
ATOM     73  C   UNL A   1      39.532  31.652  34.227  1.00  0.00     0.037 A 
BRANCH  60  74
ATOM     74  C   UNL A   1      44.152  27.560  33.946  1.00  0.00     0.064 A 
ATOM     75  C   UNL A   1      45.467  28.042  33.840  1.00  0.00     0.173 A 
ATOM     76  C   UNL A   1      43.941  26.350  34.619  1.00  0.00     0.173 A 
ATOM     77  F   UNL A   1      45.720  29.171  33.158  1.00  0.00    -0.203 F 
ATOM     78  C   UNL A   1      46.534  27.309  34.347  1.00  0.00     0.198 A 
ATOM     79  C   UNL A   1      45.008  25.638  35.155  1.00  0.00     0.198 A 
ATOM     80  F   UNL A   1      42.704  25.841  34.723  1.00  0.00    -0.203 F 
ATOM     81  F   UNL A   1      47.790  27.737  34.154  1.00  0.00    -0.200 F 
ATOM     82  C   UNL A   1      46.304  26.111  35.006  1.00  0.00     0.200 A 
ATOM     83  F   UNL A   1      44.785  24.478  35.786  1.00  0.00    -0.200 F 
ATOM     84  F   UNL A   1      47.335  25.396  35.476  1.00  0.00    -0.200 F 
ENDBRANCH  60  74
BRANCH  61  85
ATOM     85  C   UNL A   1      36.492  31.630  28.992  1.00  0.00     0.064 A 
ATOM     86  C   UNL A   1      36.436  33.009  28.720  1.00  0.00     0.173 A 
ATOM     87  C   UNL A   1      35.348  30.880  28.675  1.00  0.00     0.173 A 
ATOM     88  F   UNL A   1      37.478  33.796  29.031  1.00  0.00    -0.203 F 
ATOM     89  C   UNL A   1      35.281  33.611  28.206  1.00  0.00     0.198 A 
ATOM     90  C   UNL A   1      34.205  31.477  28.133  1.00  0.00     0.198 A 
ATOM     91  F   UNL A   1      35.321  29.562  28.924  1.00  0.00    -0.203 F 
ATOM     92  F   UNL A   1      35.237  34.941  28.038  1.00  0.00    -0.200 F 
ATOM     93  C   UNL A   1      34.166  32.844  27.912  1.00  0.00     0.200 A 
ATOM     94  F   UNL A   1      33.127  30.730  27.852  1.00  0.00    -0.200 F 
ATOM     95  F   UNL A   1      33.053  33.423  27.440  1.00  0.00    -0.200 F 
ENDBRANCH  61  85
BRANCH  73  96
ATOM     96  C   UNL A   1      39.178  32.569  35.358  1.00  0.00     0.064 A 
ATOM     97  C   UNL A   1      38.473  32.115  36.482  1.00  0.00     0.173 A 
ATOM     98  C   UNL A   1      39.634  33.896  35.356  1.00  0.00     0.173 A 
ATOM     99  F   UNL A   1      38.009  30.857  36.525  1.00  0.00    -0.203 F 
ATOM    100  C   UNL A   1      38.223  32.963  37.557  1.00  0.00     0.198 A 
ATOM    101  C   UNL A   1      39.414  34.729  36.447  1.00  0.00     0.198 A 
ATOM    102  F   UNL A   1      40.322  34.374  34.308  1.00  0.00    -0.203 F 
ATOM    103  F   UNL A   1      37.517  32.519  38.606  1.00  0.00    -0.200 F 
ATOM    104  C   UNL A   1      38.704  34.263  37.545  1.00  0.00     0.200 A 
ATOM    105  F   UNL A   1      39.898  35.979  36.443  1.00  0.00    -0.200 F 
ATOM    106  F   UNL A   1      38.484  35.070  38.592  1.00  0.00    -0.200 F 
ENDBRANCH  73  96
ENDBRANCH  47  48
ENDBRANCH  40  42
ENDBRANCH  39  40
ENDBRANCH  38  39
ENDBRANCH  37  38
ENDBRANCH  36  37
ENDBRANCH  35  36
ENDBRANCH   1  35
TORSDOF 22
ENDMDL
