MODEL 1
REMARK VINA RESULT:     -12.3      0.000      0.000
REMARK SMILES CNc1nc(C(=O)N2C[C@@H](C(=O)OCCOCCOC(=O)c3ccc(-c4c5nc(c(-c6c(F)c(F)c(F)c(F)c6F)c6ccc([nH]6)c(-c6c(F)c(F)c(F)c(F)c6F)c6nc(c(-c7c(F)c(F)c(F)c(F)c7F)c7ccc4[nH]7)C=C6)C=C5)cc3)[C@H](c3ccccc3C)C2)cs1
REMARK SMILES IDX 15 1 14 2 13 3 11 4 12 5 10 6 8 7 9 8 93 9 85 10 6 11 7 12
REMARK SMILES IDX 5 13 3 14 4 15 95 16 94 17 2 18 1 19 86 21 87 22 91 23 88 24
REMARK SMILES IDX 90 25 92 26 89 27 16 28 17 29 18 30 19 31 20 32 21 33 22 34
REMARK SMILES IDX 23 35 84 36 24 37 83 38 25 39 26 40 27 41 77 42 28 43 82 44
REMARK SMILES IDX 76 45 78 46 29 47 81 48 75 49 74 50 30 52 62 53 42 54 61 55
REMARK SMILES IDX 43 56 46 57 60 58 79 59 44 60 45 61 59 63 80 64 47 65 31 66
REMARK SMILES IDX 32 67 40 68 33 69 34 70 38 71 41 72 35 73 36 74 39 75 37 76
REMARK SMILES IDX 63 77 64 78 72 79 65 80 66 81 70 82 73 83 67 84 68 85 71 86
REMARK SMILES IDX 69 87 48 88 49 89 57 90 50 91 51 92 55 93 58 94 52 95 53 96
REMARK SMILES IDX 56 97 54 98
REMARK H PARENT 2 20 78 51 46 62
REMARK Flexibility Score: inf
ROOT
ATOM      1  C   UNL A   1      39.271  22.079  26.455  1.00  0.00     0.202 C 
ENDROOT
BRANCH   1   2
ATOM      2  C   UNL A   1      38.422  21.393  25.384  1.00  0.00     0.261 C 
BRANCH   2   3
ATOM      3  O   UNL A   1      37.040  21.760  25.521  1.00  0.00    -0.463 OA
BRANCH   3   4
ATOM      4  C   UNL A   1      36.436  22.259  24.407  1.00  0.00     0.311 C 
ATOM      5  O   UNL A   1      37.005  22.832  23.489  1.00  0.00    -0.252 OA
BRANCH   4   6
ATOM      6  C   UNL A   1      34.956  21.995  24.452  1.00  0.00     0.128 C 
ATOM      7  N   UNL A   1      33.277  22.716  25.940  1.00  0.00    -0.336 N 
ATOM      8  C   UNL A   1      34.236  23.226  24.986  1.00  0.00     0.136 C 
ATOM      9  C   UNL A   1      33.788  21.498  26.532  1.00  0.00     0.129 C 
ATOM     10  C   UNL A   1      34.639  20.833  25.426  1.00  0.00     0.055 C 
BRANCH   7  11
ATOM     11  C   UNL A   1      32.197  23.397  26.481  1.00  0.00     0.273 C 
ATOM     12  O   UNL A   1      31.525  22.913  27.391  1.00  0.00    -0.267 OA
BRANCH  11  13
ATOM     13  C   UNL A   1      31.850  24.704  25.901  1.00  0.00     0.141 A 
ATOM     14  C   UNL A   1      30.734  26.086  24.549  1.00  0.00     0.183 A 
ATOM     15  N   UNL A   1      31.015  24.829  24.791  1.00  0.00    -0.215 NA
ATOM     16  S   UNL A   1      31.530  27.211  25.578  1.00  0.00    -0.105 S 
ATOM     17  C   UNL A   1      32.216  25.914  26.461  1.00  0.00     0.102 A 
BRANCH  14  18
ATOM     18  N   UNL A   1      29.880  26.511  23.599  1.00  0.00    -0.365 N 
ATOM     19  C   UNL A   1      28.467  26.594  23.866  1.00  0.00     0.142 C 
ATOM     20  H   UNL A   1      30.223  26.766  22.713  1.00  0.00     0.162 HD
ENDBRANCH  14  18
ENDBRANCH  11  13
ENDBRANCH   7  11
BRANCH  10  21
ATOM     21  C   UNL A   1      34.051  19.642  24.661  1.00  0.00    -0.039 A 
ATOM     22  C   UNL A   1      32.746  19.682  24.140  1.00  0.00     0.004 A 
ATOM     23  C   UNL A   1      34.810  18.459  24.451  1.00  0.00    -0.048 A 
ATOM     24  C   UNL A   1      32.199  18.595  23.452  1.00  0.00     0.000 A 
ATOM     25  C   UNL A   1      34.255  17.390  23.723  1.00  0.00     0.004 A 
ATOM     26  C   UNL A   1      36.236  18.283  24.907  1.00  0.00     0.044 C 
ATOM     27  C   UNL A   1      32.954  17.451  23.239  1.00  0.00     0.000 A 
ENDBRANCH  10  21
ENDBRANCH   4   6
ENDBRANCH   3   4
ENDBRANCH   2   3
ENDBRANCH   1   2
BRANCH   1  28
ATOM     28  O   UNL A   1      40.336  21.302  27.001  1.00  0.00    -0.374 OA
BRANCH  28  29
ATOM     29  C   UNL A   1      41.352  20.838  26.117  1.00  0.00     0.202 C 
BRANCH  29  30
ATOM     30  C   UNL A   1      42.583  21.738  25.941  1.00  0.00     0.261 C 
BRANCH  30  31
ATOM     31  O   UNL A   1      42.426  22.747  24.925  1.00  0.00    -0.460 OA
BRANCH  31  32
ATOM     32  C   UNL A   1      43.257  23.806  25.051  1.00  0.00     0.338 C 
ATOM     33  O   UNL A   1      44.372  23.941  24.554  1.00  0.00    -0.246 OA
BRANCH  32  34
ATOM     34  C   UNL A   1      42.629  24.894  25.815  1.00  0.00     0.060 A 
ATOM     35  C   UNL A   1      43.376  26.056  26.043  1.00  0.00     0.016 A 
ATOM     36  C   UNL A   1      41.404  24.699  26.456  1.00  0.00     0.016 A 
ATOM     37  C   UNL A   1      42.925  27.007  26.959  1.00  0.00     0.010 A 
ATOM     38  C   UNL A   1      40.958  25.650  27.381  1.00  0.00     0.010 A 
ATOM     39  C   UNL A   1      41.738  26.786  27.668  1.00  0.00    -0.014 A 
BRANCH  39  40
ATOM     40  C   UNL A   1      41.394  27.650  28.823  1.00  0.00     0.031 A 
ATOM     41  C   UNL A   1      42.205  27.541  30.086  1.00  0.00     0.074 A 
ATOM     42  C   UNL A   1      40.380  28.529  28.751  1.00  0.00     0.049 A 
ATOM     43  N   UNL A   1      42.040  28.145  31.236  1.00  0.00    -0.248 NA
ATOM     44  C   UNL A   1      43.355  26.625  30.045  1.00  0.00     0.031 C 
ATOM     45  C   UNL A   1      39.547  28.758  27.574  1.00  0.00     0.029 A 
ATOM     46  N   UNL A   1      39.873  29.381  29.699  1.00  0.00    -0.354 N 
ATOM     47  C   UNL A   1      43.057  27.675  32.057  1.00  0.00     0.074 A 
ATOM     48  C   UNL A   1      43.821  26.721  31.282  1.00  0.00     0.031 C 
ATOM     49  C   UNL A   1      38.617  29.681  27.875  1.00  0.00     0.029 A 
ATOM     50  C   UNL A   1      38.772  30.081  29.273  1.00  0.00     0.049 A 
ATOM     51  H   UNL A   1      40.262  29.482  30.597  1.00  0.00     0.167 HD
ATOM     52  C   UNL A   1      43.332  28.012  33.340  1.00  0.00     0.037 A 
ATOM     53  C   UNL A   1      37.967  30.927  29.944  1.00  0.00     0.037 A 
ATOM     54  C   UNL A   1      42.576  28.962  34.112  1.00  0.00     0.049 A 
ATOM     55  C   UNL A   1      38.255  31.242  31.388  1.00  0.00     0.074 A 
ATOM     56  C   UNL A   1      42.786  29.382  35.414  1.00  0.00     0.029 A 
ATOM     57  N   UNL A   1      41.456  29.636  33.651  1.00  0.00    -0.354 N 
ATOM     58  N   UNL A   1      39.226  30.805  32.153  1.00  0.00    -0.248 NA
ATOM     59  C   UNL A   1      37.334  32.170  32.062  1.00  0.00     0.031 C 
ATOM     60  C   UNL A   1      41.770  30.281  35.754  1.00  0.00     0.029 A 
ATOM     61  C   UNL A   1      40.951  30.454  34.649  1.00  0.00     0.049 A 
ATOM     62  H   UNL A   1      41.075  29.548  32.747  1.00  0.00     0.167 HD
ATOM     63  C   UNL A   1      39.049  31.421  33.385  1.00  0.00     0.074 A 
ATOM     64  C   UNL A   1      37.881  32.268  33.266  1.00  0.00     0.031 C 
ATOM     65  C   UNL A   1      39.791  31.298  34.513  1.00  0.00     0.037 A 
BRANCH  52  66
ATOM     66  C   UNL A   1      44.490  27.323  33.999  1.00  0.00     0.064 A 
ATOM     67  C   UNL A   1      44.337  26.095  34.659  1.00  0.00     0.173 A 
ATOM     68  C   UNL A   1      45.772  27.890  33.952  1.00  0.00     0.173 A 
ATOM     69  F   UNL A   1      43.128  25.520  34.742  1.00  0.00    -0.203 F 
ATOM     70  C   UNL A   1      45.422  25.472  35.271  1.00  0.00     0.198 A 
ATOM     71  C   UNL A   1      46.859  27.252  34.544  1.00  0.00     0.198 A 
ATOM     72  F   UNL A   1      45.972  29.061  33.330  1.00  0.00    -0.203 F 
ATOM     73  F   UNL A   1      45.245  24.322  35.936  1.00  0.00    -0.200 F 
ATOM     74  C   UNL A   1      46.682  26.048  35.209  1.00  0.00     0.200 A 
ATOM     75  F   UNL A   1      48.078  27.806  34.477  1.00  0.00    -0.200 F 
ATOM     76  F   UNL A   1      47.724  25.448  35.799  1.00  0.00    -0.200 F 
ENDBRANCH  52  66
BRANCH  53  77
ATOM     77  C   UNL A   1      36.798  31.528  29.255  1.00  0.00     0.064 A 
ATOM     78  C   UNL A   1      35.680  30.754  28.919  1.00  0.00     0.173 A 
ATOM     79  C   UNL A   1      36.774  32.892  28.924  1.00  0.00     0.173 A 
ATOM     80  F   UNL A   1      35.668  29.442  29.194  1.00  0.00    -0.203 F 
ATOM     81  C   UNL A   1      34.584  31.319  28.270  1.00  0.00     0.198 A 
ATOM     82  C   UNL A   1      35.669  33.459  28.295  1.00  0.00     0.198 A 
ATOM     83  F   UNL A   1      37.821  33.673  29.224  1.00  0.00    -0.203 F 
ATOM     84  F   UNL A   1      33.541  30.550  27.930  1.00  0.00    -0.200 F 
ATOM     85  C   UNL A   1      34.577  32.672  27.965  1.00  0.00     0.200 A 
ATOM     86  F   UNL A   1      35.662  34.769  28.013  1.00  0.00    -0.200 F 
ATOM     87  F   UNL A   1      33.519  33.216  27.348  1.00  0.00    -0.200 F 
ENDBRANCH  53  77
BRANCH  65  88
ATOM     88  C   UNL A   1      39.388  32.122  35.700  1.00  0.00     0.064 A 
ATOM     89  C   UNL A   1      39.870  33.425  35.888  1.00  0.00     0.173 A 
ATOM     90  C   UNL A   1      38.468  31.619  36.632  1.00  0.00     0.173 A 
ATOM     91  F   UNL A   1      40.763  33.944  35.031  1.00  0.00    -0.203 F 
ATOM     92  C   UNL A   1      39.458  34.189  36.976  1.00  0.00     0.198 A 
ATOM     93  C   UNL A   1      38.040  32.395  37.706  1.00  0.00     0.198 A 
ATOM     94  F   UNL A   1      37.974  30.380  36.493  1.00  0.00    -0.203 F 
ATOM     95  F   UNL A   1      39.958  35.420  37.157  1.00  0.00    -0.200 F 
ATOM     96  C   UNL A   1      38.539  33.677  37.879  1.00  0.00     0.200 A 
ATOM     97  F   UNL A   1      37.143  31.901  38.572  1.00  0.00    -0.200 F 
ATOM     98  F   UNL A   1      38.137  34.417  38.923  1.00  0.00    -0.200 F 
ENDBRANCH  65  88
ENDBRANCH  39  40
ENDBRANCH  32  34
ENDBRANCH  31  32
ENDBRANCH  30  31
ENDBRANCH  29  30
ENDBRANCH  28  29
ENDBRANCH   1  28
TORSDOF 18
ENDMDL
MODEL 2
REMARK VINA RESULT:     -12.3      3.096      7.922
REMARK SMILES CNc1nc(C(=O)N2C[C@@H](C(=O)OCCOCCOC(=O)c3ccc(-c4c5nc(c(-c6c(F)c(F)c(F)c(F)c6F)c6ccc([nH]6)c(-c6c(F)c(F)c(F)c(F)c6F)c6nc(c(-c7c(F)c(F)c(F)c(F)c7F)c7ccc4[nH]7)C=C6)C=C5)cc3)[C@H](c3ccccc3C)C2)cs1
REMARK SMILES IDX 15 1 14 2 13 3 11 4 12 5 10 6 8 7 9 8 93 9 85 10 6 11 7 12
REMARK SMILES IDX 5 13 3 14 4 15 95 16 94 17 2 18 1 19 86 21 87 22 91 23 88 24
REMARK SMILES IDX 90 25 92 26 89 27 16 28 17 29 18 30 19 31 20 32 21 33 22 34
REMARK SMILES IDX 23 35 84 36 24 37 83 38 25 39 26 40 27 41 77 42 28 43 82 44
REMARK SMILES IDX 76 45 78 46 29 47 81 48 75 49 74 50 30 52 62 53 42 54 61 55
REMARK SMILES IDX 43 56 46 57 60 58 79 59 44 60 45 61 59 63 80 64 47 65 31 66
REMARK SMILES IDX 32 67 40 68 33 69 34 70 38 71 41 72 35 73 36 74 39 75 37 76
REMARK SMILES IDX 63 77 64 78 72 79 65 80 66 81 70 82 73 83 67 84 68 85 71 86
REMARK SMILES IDX 69 87 48 88 49 89 57 90 50 91 51 92 55 93 58 94 52 95 53 96
REMARK SMILES IDX 56 97 54 98
REMARK H PARENT 2 20 78 51 46 62
REMARK Flexibility Score: inf
ROOT
ATOM      1  C   UNL A   1      33.764  28.355  23.987  1.00  0.00     0.202 C 
ENDROOT
BRANCH   1   2
ATOM      2  C   UNL A   1      33.192  26.955  23.764  1.00  0.00     0.261 C 
BRANCH   2   3
ATOM      3  O   UNL A   1      34.234  25.967  23.819  1.00  0.00    -0.463 OA
BRANCH   3   4
ATOM      4  C   UNL A   1      34.402  25.336  25.014  1.00  0.00     0.311 C 
ATOM      5  O   UNL A   1      34.498  25.889  26.100  1.00  0.00    -0.252 OA
BRANCH   4   6
ATOM      6  C   UNL A   1      34.440  23.845  24.817  1.00  0.00     0.128 C 
ATOM      7  N   UNL A   1      32.907  22.147  25.381  1.00  0.00    -0.336 N 
ATOM      8  C   UNL A   1      33.031  23.331  24.559  1.00  0.00     0.136 C 
ATOM      9  C   UNL A   1      33.740  22.288  26.555  1.00  0.00     0.129 C 
ATOM     10  C   UNL A   1      34.947  23.139  26.100  1.00  0.00     0.055 C 
BRANCH   7  11
ATOM     11  C   UNL A   1      31.930  21.167  25.287  1.00  0.00     0.273 C 
ATOM     12  O   UNL A   1      30.745  21.421  25.504  1.00  0.00    -0.267 OA
BRANCH  11  13
ATOM     13  C   UNL A   1      32.361  19.798  24.963  1.00  0.00     0.141 A 
ATOM     14  C   UNL A   1      32.775  17.649  25.403  1.00  0.00     0.183 A 
ATOM     15  N   UNL A   1      32.533  18.819  25.942  1.00  0.00    -0.215 NA
ATOM     16  S   UNL A   1      32.908  17.661  23.689  1.00  0.00    -0.105 S 
ATOM     17  C   UNL A   1      32.519  19.328  23.672  1.00  0.00     0.102 A 
BRANCH  14  18
ATOM     18  N   UNL A   1      32.894  16.499  26.093  1.00  0.00    -0.365 N 
ATOM     19  C   UNL A   1      32.779  15.227  25.427  1.00  0.00     0.142 C 
ATOM     20  H   UNL A   1      33.061  16.527  27.062  1.00  0.00     0.162 HD
ENDBRANCH  14  18
ENDBRANCH  11  13
ENDBRANCH   7  11
BRANCH  10  21
ATOM     21  C   UNL A   1      36.283  22.438  25.830  1.00  0.00    -0.039 A 
ATOM     22  C   UNL A   1      36.330  21.158  25.250  1.00  0.00     0.004 A 
ATOM     23  C   UNL A   1      37.517  23.063  26.154  1.00  0.00    -0.048 A 
ATOM     24  C   UNL A   1      37.544  20.507  25.013  1.00  0.00     0.000 A 
ATOM     25  C   UNL A   1      38.730  22.406  25.872  1.00  0.00     0.004 A 
ATOM     26  C   UNL A   1      37.631  24.449  26.735  1.00  0.00     0.044 C 
ATOM     27  C   UNL A   1      38.744  21.132  25.319  1.00  0.00     0.000 A 
ENDBRANCH  10  21
ENDBRANCH   4   6
ENDBRANCH   3   4
ENDBRANCH   2   3
ENDBRANCH   1   2
BRANCH   1  28
ATOM     28  O   UNL A   1      33.294  29.047  25.144  1.00  0.00    -0.374 OA
BRANCH  28  29
ATOM     29  C   UNL A   1      31.998  29.636  25.095  1.00  0.00     0.202 C 
BRANCH  29  30
ATOM     30  C   UNL A   1      31.751  30.844  26.009  1.00  0.00     0.261 C 
BRANCH  30  31
ATOM     31  O   UNL A   1      32.475  30.790  27.254  1.00  0.00    -0.460 OA
BRANCH  31  32
ATOM     32  C   UNL A   1      33.278  31.853  27.483  1.00  0.00     0.338 C 
ATOM     33  O   UNL A   1      32.959  33.039  27.489  1.00  0.00    -0.246 OA
BRANCH  32  34
ATOM     34  C   UNL A   1      34.641  31.430  27.838  1.00  0.00     0.060 A 
ATOM     35  C   UNL A   1      34.856  30.078  28.130  1.00  0.00     0.016 A 
ATOM     36  C   UNL A   1      35.644  32.374  28.063  1.00  0.00     0.016 A 
ATOM     37  C   UNL A   1      36.060  29.670  28.704  1.00  0.00     0.010 A 
ATOM     38  C   UNL A   1      36.848  31.965  28.648  1.00  0.00     0.010 A 
ATOM     39  C   UNL A   1      37.044  30.620  29.011  1.00  0.00    -0.014 A 
BRANCH  39  40
ATOM     40  C   UNL A   1      38.202  30.239  29.856  1.00  0.00     0.031 A 
ATOM     41  C   UNL A   1      39.213  29.265  29.315  1.00  0.00     0.074 A 
ATOM     42  C   UNL A   1      38.360  30.757  31.085  1.00  0.00     0.049 A 
ATOM     43  N   UNL A   1      40.260  28.740  29.901  1.00  0.00    -0.248 NA
ATOM     44  C   UNL A   1      39.015  28.822  27.926  1.00  0.00     0.031 C 
ATOM     45  C   UNL A   1      37.474  31.738  31.706  1.00  0.00     0.029 A 
ATOM     46  N   UNL A   1      39.319  30.515  32.036  1.00  0.00    -0.354 N 
ATOM     47  C   UNL A   1      40.837  27.899  28.959  1.00  0.00     0.074 A 
ATOM     48  C   UNL A   1      40.015  27.968  27.769  1.00  0.00     0.031 C 
ATOM     49  C   UNL A   1      37.922  32.003  32.945  1.00  0.00     0.029 A 
ATOM     50  C   UNL A   1      39.105  31.187  33.213  1.00  0.00     0.049 A 
ATOM     51  H   UNL A   1      40.087  29.917  31.887  1.00  0.00     0.167 HD
ATOM     52  C   UNL A   1      41.956  27.143  29.072  1.00  0.00     0.037 A 
ATOM     53  C   UNL A   1      39.774  31.127  34.381  1.00  0.00     0.037 A 
ATOM     54  C   UNL A   1      42.776  27.075  30.252  1.00  0.00     0.049 A 
ATOM     55  C   UNL A   1      40.979  30.233  34.505  1.00  0.00     0.074 A 
ATOM     56  C   UNL A   1      43.937  26.350  30.458  1.00  0.00     0.029 A 
ATOM     57  N   UNL A   1      42.516  27.757  31.431  1.00  0.00    -0.354 N 
ATOM     58  N   UNL A   1      41.527  29.453  33.606  1.00  0.00    -0.248 NA
ATOM     59  C   UNL A   1      41.659  30.214  35.809  1.00  0.00     0.031 C 
ATOM     60  C   UNL A   1      44.358  26.563  31.775  1.00  0.00     0.029 A 
ATOM     61  C   UNL A   1      43.483  27.454  32.377  1.00  0.00     0.049 A 
ATOM     62  H   UNL A   1      41.757  28.367  31.576  1.00  0.00     0.167 HD
ATOM     63  C   UNL A   1      42.627  28.872  34.222  1.00  0.00     0.074 A 
ATOM     64  C   UNL A   1      42.674  29.392  35.572  1.00  0.00     0.031 C 
ATOM     65  C   UNL A   1      43.520  27.987  33.714  1.00  0.00     0.037 A 
BRANCH  52  66
ATOM     66  C   UNL A   1      42.340  26.303  27.891  1.00  0.00     0.064 A 
ATOM     67  C   UNL A   1      41.802  25.023  27.691  1.00  0.00     0.173 A 
ATOM     68  C   UNL A   1      43.244  26.793  26.936  1.00  0.00     0.173 A 
ATOM     69  F   UNL A   1      40.945  24.505  28.583  1.00  0.00    -0.203 F 
ATOM     70  C   UNL A   1      42.176  24.253  26.592  1.00  0.00     0.198 A 
ATOM     71  C   UNL A   1      43.596  26.030  25.826  1.00  0.00     0.198 A 
ATOM     72  F   UNL A   1      43.783  28.013  27.079  1.00  0.00    -0.203 F 
ATOM     73  F   UNL A   1      41.685  23.015  26.445  1.00  0.00    -0.200 F 
ATOM     74  C   UNL A   1      43.068  24.759  25.658  1.00  0.00     0.200 A 
ATOM     75  F   UNL A   1      44.452  26.524  24.920  1.00  0.00    -0.200 F 
ATOM     76  F   UNL A   1      43.426  24.018  24.602  1.00  0.00    -0.200 F 
ENDBRANCH  52  66
BRANCH  53  77
ATOM     77  C   UNL A   1      39.306  31.935  35.535  1.00  0.00     0.064 A 
ATOM     78  C   UNL A   1      38.378  31.420  36.449  1.00  0.00     0.173 A 
ATOM     79  C   UNL A   1      39.784  33.237  35.749  1.00  0.00     0.173 A 
ATOM     80  F   UNL A   1      37.876  30.189  36.270  1.00  0.00    -0.203 F 
ATOM     81  C   UNL A   1      37.937  32.180  37.530  1.00  0.00     0.198 A 
ATOM     82  C   UNL A   1      39.359  33.986  36.843  1.00  0.00     0.198 A 
ATOM     83  F   UNL A   1      40.672  33.774  34.901  1.00  0.00    -0.203 F 
ATOM     84  F   UNL A   1      37.023  31.677  38.371  1.00  0.00    -0.200 F 
ATOM     85  C   UNL A   1      38.433  33.460  37.730  1.00  0.00     0.200 A 
ATOM     86  F   UNL A   1      39.850  35.218  37.039  1.00  0.00    -0.200 F 
ATOM     87  F   UNL A   1      38.015  34.186  38.775  1.00  0.00    -0.200 F 
ENDBRANCH  53  77
BRANCH  65  88
ATOM     88  C   UNL A   1      44.646  27.551  34.605  1.00  0.00     0.064 A 
ATOM     89  C   UNL A   1      44.571  26.372  35.359  1.00  0.00     0.173 A 
ATOM     90  C   UNL A   1      45.833  28.296  34.663  1.00  0.00     0.173 A 
ATOM     91  F   UNL A   1      43.451  25.632  35.347  1.00  0.00    -0.203 F 
ATOM     92  C   UNL A   1      45.640  25.963  36.153  1.00  0.00     0.198 A 
ATOM     93  C   UNL A   1      46.908  27.872  35.440  1.00  0.00     0.198 A 
ATOM     94  F   UNL A   1      45.955  29.429  33.956  1.00  0.00    -0.203 F 
ATOM     95  F   UNL A   1      45.535  24.850  36.894  1.00  0.00    -0.200 F 
ATOM     96  C   UNL A   1      46.808  26.709  36.187  1.00  0.00     0.200 A 
ATOM     97  F   UNL A   1      48.040  28.589  35.463  1.00  0.00    -0.200 F 
ATOM     98  F   UNL A   1      47.839  26.309  36.947  1.00  0.00    -0.200 F 
ENDBRANCH  65  88
ENDBRANCH  39  40
ENDBRANCH  32  34
ENDBRANCH  31  32
ENDBRANCH  30  31
ENDBRANCH  29  30
ENDBRANCH  28  29
ENDBRANCH   1  28
TORSDOF 18
ENDMDL
MODEL 3
REMARK VINA RESULT:     -12.2      3.352      8.787
REMARK SMILES CNc1nc(C(=O)N2C[C@@H](C(=O)OCCOCCOC(=O)c3ccc(-c4c5nc(c(-c6c(F)c(F)c(F)c(F)c6F)c6ccc([nH]6)c(-c6c(F)c(F)c(F)c(F)c6F)c6nc(c(-c7c(F)c(F)c(F)c(F)c7F)c7ccc4[nH]7)C=C6)C=C5)cc3)[C@H](c3ccccc3C)C2)cs1
REMARK SMILES IDX 15 1 14 2 13 3 11 4 12 5 10 6 8 7 9 8 93 9 85 10 6 11 7 12
REMARK SMILES IDX 5 13 3 14 4 15 95 16 94 17 2 18 1 19 86 21 87 22 91 23 88 24
REMARK SMILES IDX 90 25 92 26 89 27 16 28 17 29 18 30 19 31 20 32 21 33 22 34
REMARK SMILES IDX 23 35 84 36 24 37 83 38 25 39 26 40 27 41 77 42 28 43 82 44
REMARK SMILES IDX 76 45 78 46 29 47 81 48 75 49 74 50 30 52 62 53 42 54 61 55
REMARK SMILES IDX 43 56 46 57 60 58 79 59 44 60 45 61 59 63 80 64 47 65 31 66
REMARK SMILES IDX 32 67 40 68 33 69 34 70 38 71 41 72 35 73 36 74 39 75 37 76
REMARK SMILES IDX 63 77 64 78 72 79 65 80 66 81 70 82 73 83 67 84 68 85 71 86
REMARK SMILES IDX 69 87 48 88 49 89 57 90 50 91 51 92 55 93 58 94 52 95 53 96
REMARK SMILES IDX 56 97 54 98
REMARK H PARENT 2 20 78 51 46 62
REMARK Flexibility Score: inf
ROOT
ATOM      1  C   UNL A   1      32.623  30.120  26.929  1.00  0.00     0.202 C 
ENDROOT
BRANCH   1   2
ATOM      2  C   UNL A   1      32.946  29.008  25.931  1.00  0.00     0.261 C 
BRANCH   2   3
ATOM      3  O   UNL A   1      33.143  29.549  24.615  1.00  0.00    -0.463 OA
BRANCH   3   4
ATOM      4  C   UNL A   1      33.519  28.665  23.650  1.00  0.00     0.311 C 
ATOM      5  O   UNL A   1      34.433  28.831  22.854  1.00  0.00    -0.252 OA
BRANCH   4   6
ATOM      6  C   UNL A   1      32.658  27.433  23.703  1.00  0.00     0.128 C 
ATOM      7  N   UNL A   1      32.899  25.305  22.721  1.00  0.00    -0.336 N 
ATOM      8  C   UNL A   1      33.541  26.194  23.664  1.00  0.00     0.136 C 
ATOM      9  C   UNL A   1      32.196  26.086  21.726  1.00  0.00     0.129 C 
ATOM     10  C   UNL A   1      31.731  27.363  22.463  1.00  0.00     0.055 C 
BRANCH   7  11
ATOM     11  C   UNL A   1      33.149  23.952  22.549  1.00  0.00     0.273 C 
ATOM     12  O   UNL A   1      33.466  23.494  21.451  1.00  0.00    -0.267 OA
BRANCH  11  13
ATOM     13  C   UNL A   1      32.980  23.069  23.713  1.00  0.00     0.141 A 
ATOM     14  C   UNL A   1      31.912  22.250  25.494  1.00  0.00     0.183 A 
ATOM     15  N   UNL A   1      31.944  23.237  24.633  1.00  0.00    -0.215 NA
ATOM     16  S   UNL A   1      33.181  21.102  25.321  1.00  0.00    -0.105 S 
ATOM     17  C   UNL A   1      33.747  21.940  23.938  1.00  0.00     0.102 A 
BRANCH  14  18
ATOM     18  N   UNL A   1      30.968  22.092  26.441  1.00  0.00    -0.365 N 
ATOM     19  C   UNL A   1      30.069  23.168  26.769  1.00  0.00     0.142 C 
ATOM     20  H   UNL A   1      30.892  21.233  26.914  1.00  0.00     0.162 HD
ENDBRANCH  14  18
ENDBRANCH  11  13
ENDBRANCH   7  11
BRANCH  10  21
ATOM     21  C   UNL A   1      30.263  27.475  22.888  1.00  0.00    -0.039 A 
ATOM     22  C   UNL A   1      29.628  26.438  23.596  1.00  0.00     0.004 A 
ATOM     23  C   UNL A   1      29.498  28.633  22.584  1.00  0.00    -0.048 A 
ATOM     24  C   UNL A   1      28.285  26.528  23.975  1.00  0.00     0.000 A 
ATOM     25  C   UNL A   1      28.159  28.719  23.010  1.00  0.00     0.004 A 
ATOM     26  C   UNL A   1      30.050  29.843  21.877  1.00  0.00     0.044 C 
ATOM     27  C   UNL A   1      27.552  27.670  23.687  1.00  0.00     0.000 A 
ENDBRANCH  10  21
ENDBRANCH   4   6
ENDBRANCH   3   4
ENDBRANCH   2   3
ENDBRANCH   1   2
BRANCH   1  28
ATOM     28  O   UNL A   1      31.376  30.788  26.741  1.00  0.00    -0.374 OA
BRANCH  28  29
ATOM     29  C   UNL A   1      31.395  32.188  26.477  1.00  0.00     0.202 C 
BRANCH  29  30
ATOM     30  C   UNL A   1      32.118  33.076  27.499  1.00  0.00     0.261 C 
BRANCH  30  31
ATOM     31  O   UNL A   1      33.422  33.512  27.072  1.00  0.00    -0.460 OA
BRANCH  31  32
ATOM     32  C   UNL A   1      34.201  34.007  28.061  1.00  0.00     0.338 C 
ATOM     33  O   UNL A   1      33.986  34.999  28.752  1.00  0.00    -0.246 OA
BRANCH  32  34
ATOM     34  C   UNL A   1      35.362  33.142  28.313  1.00  0.00     0.060 A 
ATOM     35  C   UNL A   1      35.127  31.804  28.650  1.00  0.00     0.016 A 
ATOM     36  C   UNL A   1      36.647  33.682  28.402  1.00  0.00     0.016 A 
ATOM     37  C   UNL A   1      36.168  31.012  29.134  1.00  0.00     0.010 A 
ATOM     38  C   UNL A   1      37.688  32.888  28.897  1.00  0.00     0.010 A 
ATOM     39  C   UNL A   1      37.444  31.564  29.305  1.00  0.00    -0.014 A 
BRANCH  39  40
ATOM     40  C   UNL A   1      38.479  30.817  30.061  1.00  0.00     0.031 A 
ATOM     41  C   UNL A   1      38.679  31.118  31.521  1.00  0.00     0.074 A 
ATOM     42  C   UNL A   1      39.227  29.874  29.462  1.00  0.00     0.049 A 
ATOM     43  N   UNL A   1      39.567  30.641  32.356  1.00  0.00    -0.248 NA
ATOM     44  C   UNL A   1      37.753  32.094  32.119  1.00  0.00     0.031 C 
ATOM     45  C   UNL A   1      39.102  29.462  28.067  1.00  0.00     0.029 A 
ATOM     46  N   UNL A   1      40.250  29.106  29.955  1.00  0.00    -0.354 N 
ATOM     47  C   UNL A   1      39.314  31.263  33.572  1.00  0.00     0.074 A 
ATOM     48  C   UNL A   1      38.204  32.167  33.363  1.00  0.00     0.031 C 
ATOM     49  C   UNL A   1      40.029  28.524  27.808  1.00  0.00     0.029 A 
ATOM     50  C   UNL A   1      40.830  28.295  29.011  1.00  0.00     0.049 A 
ATOM     51  H   UNL A   1      40.541  29.132  30.895  1.00  0.00     0.167 HD
ATOM     52  C   UNL A   1      39.947  31.091  34.758  1.00  0.00     0.037 A 
ATOM     53  C   UNL A   1      41.901  27.483  29.102  1.00  0.00     0.037 A 
ATOM     54  C   UNL A   1      41.049  30.190  34.969  1.00  0.00     0.049 A 
ATOM     55  C   UNL A   1      42.627  27.353  30.414  1.00  0.00     0.074 A 
ATOM     56  C   UNL A   1      41.746  29.935  36.138  1.00  0.00     0.029 A 
ATOM     57  N   UNL A   1      41.619  29.400  33.983  1.00  0.00    -0.354 N 
ATOM     58  N   UNL A   1      42.374  27.933  31.562  1.00  0.00    -0.248 NA
ATOM     59  C   UNL A   1      43.790  26.453  30.442  1.00  0.00     0.031 C 
ATOM     60  C   UNL A   1      42.763  29.019  35.850  1.00  0.00     0.029 A 
ATOM     61  C   UNL A   1      42.673  28.671  34.511  1.00  0.00     0.049 A 
ATOM     62  H   UNL A   1      41.320  29.361  33.046  1.00  0.00     0.167 HD
ATOM     63  C   UNL A   1      43.324  27.451  32.453  1.00  0.00     0.074 A 
ATOM     64  C   UNL A   1      44.158  26.526  31.715  1.00  0.00     0.031 C 
ATOM     65  C   UNL A   1      43.489  27.747  33.766  1.00  0.00     0.037 A 
BRANCH  52  66
ATOM     66  C   UNL A   1      39.475  31.920  35.915  1.00  0.00     0.064 A 
ATOM     67  C   UNL A   1      38.456  31.477  36.771  1.00  0.00     0.173 A 
ATOM     68  C   UNL A   1      40.064  33.165  36.181  1.00  0.00     0.173 A 
ATOM     69  F   UNL A   1      37.853  30.300  36.550  1.00  0.00    -0.203 F 
ATOM     70  C   UNL A   1      38.026  32.263  37.838  1.00  0.00     0.198 A 
ATOM     71  C   UNL A   1      39.648  33.937  37.263  1.00  0.00     0.198 A 
ATOM     72  F   UNL A   1      41.045  33.631  35.394  1.00  0.00    -0.203 F 
ATOM     73  F   UNL A   1      37.020  31.842  38.616  1.00  0.00    -0.200 F 
ATOM     74  C   UNL A   1      38.625  33.490  38.085  1.00  0.00     0.200 A 
ATOM     75  F   UNL A   1      40.233  35.118  37.506  1.00  0.00    -0.200 F 
ATOM     76  F   UNL A   1      38.210  34.244  39.111  1.00  0.00    -0.200 F 
ENDBRANCH  52  66
BRANCH  53  77
ATOM     77  C   UNL A   1      42.358  26.737  27.904  1.00  0.00     0.064 A 
ATOM     78  C   UNL A   1      43.264  27.306  27.000  1.00  0.00     0.173 A 
ATOM     79  C   UNL A   1      41.902  25.436  27.643  1.00  0.00     0.173 A 
ATOM     80  F   UNL A   1      43.707  28.557  27.195  1.00  0.00    -0.203 F 
ATOM     81  C   UNL A   1      43.690  26.606  25.873  1.00  0.00     0.198 A 
ATOM     82  C   UNL A   1      42.347  24.728  26.529  1.00  0.00     0.198 A 
ATOM     83  F   UNL A   1      41.034  24.849  28.479  1.00  0.00    -0.203 F 
ATOM     84  F   UNL A   1      44.532  27.185  25.006  1.00  0.00    -0.200 F 
ATOM     85  C   UNL A   1      43.238  25.315  25.643  1.00  0.00     0.200 A 
ATOM     86  F   UNL A   1      41.915  23.478  26.317  1.00  0.00    -0.200 F 
ATOM     87  F   UNL A   1      43.655  24.639  24.564  1.00  0.00    -0.200 F 
ENDBRANCH  53  77
BRANCH  65  88
ATOM     88  C   UNL A   1      44.588  27.040  34.502  1.00  0.00     0.064 A 
ATOM     89  C   UNL A   1      45.863  27.607  34.640  1.00  0.00     0.173 A 
ATOM     90  C   UNL A   1      44.346  25.804  35.119  1.00  0.00     0.173 A 
ATOM     91  F   UNL A   1      46.147  28.781  34.055  1.00  0.00    -0.203 F 
ATOM     92  C   UNL A   1      46.861  26.953  35.357  1.00  0.00     0.198 A 
ATOM     93  C   UNL A   1      45.340  25.165  35.856  1.00  0.00     0.198 A 
ATOM     94  F   UNL A   1      43.141  25.223  35.021  1.00  0.00    -0.203 F 
ATOM     95  F   UNL A   1      48.084  27.496  35.448  1.00  0.00    -0.200 F 
ATOM     96  C   UNL A   1      46.597  25.737  35.970  1.00  0.00     0.200 A 
ATOM     97  F   UNL A   1      45.079  23.994  36.456  1.00  0.00    -0.200 F 
ATOM     98  F   UNL A   1      47.558  25.113  36.666  1.00  0.00    -0.200 F 
ENDBRANCH  65  88
ENDBRANCH  39  40
ENDBRANCH  32  34
ENDBRANCH  31  32
ENDBRANCH  30  31
ENDBRANCH  29  30
ENDBRANCH  28  29
ENDBRANCH   1  28
TORSDOF 18
ENDMDL
