MODEL 1
REMARK VINA RESULT:     -11.5      0.000      0.000
REMARK SMILES [NH3+][C@@]1(C(=O)OCCOCCOC(=O)c2ccc(-c3c4nc(c(-c5c(F)c(F)c(F)c(F)c5F)c5ccc([nH]5)c(-c5c(F)c(F)c(F)c(F)c5F)c5nc(c(-c6c(F)c(F)c(F)c(F)c6F)c6ccc3[nH]6)C=C5)C=C4)cc2)CC[C@@H]([N@H+]2CC[C@H]([NH+]3CCOCC3)C2)C1
REMARK SMILES IDX 8 1 7 2 6 3 5 4 3 5 4 6 2 7 77 8 91 9 78 10 79 11 1 12 80 16
REMARK SMILES IDX 81 17 90 18 82 20 83 21 84 22 85 23 89 24 86 26 88 27 87 28
REMARK SMILES IDX 9 29 10 30 11 31 12 32 13 33 14 34 15 35 76 36 16 37 75 38
REMARK SMILES IDX 17 39 18 40 19 41 69 42 20 43 74 44 68 45 70 46 21 47 73 48
REMARK SMILES IDX 67 49 66 50 22 52 54 53 34 54 53 55 35 56 38 57 52 58 71 59
REMARK SMILES IDX 36 60 37 61 51 63 72 64 39 65 23 66 24 67 32 68 25 69 26 70
REMARK SMILES IDX 30 71 33 72 27 73 28 74 31 75 29 76 55 77 56 78 64 79 57 80
REMARK SMILES IDX 58 81 62 82 65 83 59 84 60 85 63 86 61 87 40 88 41 89 49 90
REMARK SMILES IDX 42 91 43 92 47 93 50 94 44 95 45 96 48 97 46 98
REMARK H PARENT 1 13 1 14 1 15 80 19 84 25 70 51 38 62
REMARK Flexibility Score: inf
ROOT
ATOM      1  O   UNL A   1      41.726  19.493  25.514  1.00  0.00    -0.374 OA
ENDROOT
BRANCH   1   2
ATOM      2  C   UNL A   1      40.421  19.629  26.074  1.00  0.00     0.202 C 
BRANCH   2   3
ATOM      3  C   UNL A   1      39.881  21.055  26.210  1.00  0.00     0.261 C 
BRANCH   3   4
ATOM      4  O   UNL A   1      38.550  21.157  25.678  1.00  0.00    -0.459 OA
BRANCH   4   5
ATOM      5  C   UNL A   1      37.936  22.353  25.870  1.00  0.00     0.368 C 
ATOM      6  O   UNL A   1      38.506  23.385  26.215  1.00  0.00    -0.245 OA
BRANCH   5   7
ATOM      7  C   UNL A   1      36.412  22.304  25.585  1.00  0.00     0.198 C 
ATOM      8  C   UNL A   1      36.172  22.804  24.154  1.00  0.00     0.087 C 
ATOM      9  C   UNL A   1      35.538  23.189  26.505  1.00  0.00     0.145 C 
ATOM     10  C   UNL A   1      35.603  24.206  24.324  1.00  0.00     0.072 C 
ATOM     11  C   UNL A   1      34.760  24.159  25.603  1.00  0.00     0.191 C 
BRANCH   7  12
ATOM     12  N   UNL A   1      35.990  20.882  25.703  1.00  0.00    -0.343 N 
ATOM     13  H   UNL A   1      34.981  20.814  25.570  1.00  0.00     0.345 HD
ATOM     14  H   UNL A   1      36.235  20.530  26.629  1.00  0.00     0.345 HD
ATOM     15  H   UNL A   1      36.465  20.326  24.992  1.00  0.00     0.345 HD
ENDBRANCH   7  12
BRANCH  11  16
ATOM     16  N   UNL A   1      33.350  23.844  25.351  1.00  0.00    -0.327 N 
ATOM     17  C   UNL A   1      32.737  22.795  26.163  1.00  0.00     0.269 C 
ATOM     18  C   UNL A   1      32.455  25.005  25.472  1.00  0.00     0.328 C 
ATOM     19  H   UNL A   1      33.428  23.504  24.393  1.00  0.00     0.348 HD
ATOM     20  C   UNL A   1      31.272  22.904  25.791  1.00  0.00     0.132 C 
ATOM     21  C   UNL A   1      31.031  24.402  25.598  1.00  0.00     0.245 C 
BRANCH  21  22
ATOM     22  N   UNL A   1      30.037  24.827  24.602  1.00  0.00    -0.324 N 
ATOM     23  C   UNL A   1      30.410  24.531  23.206  1.00  0.00     0.291 C 
ATOM     24  C   UNL A   1      29.543  26.214  24.698  1.00  0.00     0.291 C 
ATOM     25  H   UNL A   1      29.251  24.235  24.871  1.00  0.00     0.348 HD
ATOM     26  C   UNL A   1      31.220  25.629  22.491  1.00  0.00     0.221 C 
ATOM     27  C   UNL A   1      30.372  27.273  23.955  1.00  0.00     0.221 C 
ATOM     28  O   UNL A   1      30.588  26.909  22.589  1.00  0.00    -0.370 OA
ENDBRANCH  21  22
ENDBRANCH  11  16
ENDBRANCH   5   7
ENDBRANCH   4   5
ENDBRANCH   3   4
ENDBRANCH   2   3
ENDBRANCH   1   2
BRANCH   1  29
ATOM     29  C   UNL A   1      42.791  20.218  26.128  1.00  0.00     0.202 C 
BRANCH  29  30
ATOM     30  C   UNL A   1      43.556  21.210  25.241  1.00  0.00     0.261 C 
BRANCH  30  31
ATOM     31  O   UNL A   1      42.802  22.412  24.990  1.00  0.00    -0.460 OA
BRANCH  31  32
ATOM     32  C   UNL A   1      43.529  23.555  24.988  1.00  0.00     0.338 C 
ATOM     33  O   UNL A   1      44.415  23.873  24.205  1.00  0.00    -0.246 OA
BRANCH  32  34
ATOM     34  C   UNL A   1      42.977  24.500  25.973  1.00  0.00     0.060 A 
ATOM     35  C   UNL A   1      43.500  25.799  25.991  1.00  0.00     0.016 A 
ATOM     36  C   UNL A   1      42.010  24.111  26.903  1.00  0.00     0.016 A 
ATOM     37  C   UNL A   1      43.068  26.714  26.950  1.00  0.00     0.010 A 
ATOM     38  C   UNL A   1      41.590  25.027  27.874  1.00  0.00     0.010 A 
ATOM     39  C   UNL A   1      42.129  26.326  27.913  1.00  0.00    -0.014 A 
BRANCH  39  40
ATOM     40  C   UNL A   1      41.770  27.257  29.011  1.00  0.00     0.031 A 
ATOM     41  C   UNL A   1      42.565  27.241  30.285  1.00  0.00     0.074 A 
ATOM     42  C   UNL A   1      40.747  28.117  28.864  1.00  0.00     0.049 A 
ATOM     43  N   UNL A   1      42.383  27.928  31.384  1.00  0.00    -0.248 NA
ATOM     44  C   UNL A   1      43.722  26.333  30.325  1.00  0.00     0.031 C 
ATOM     45  C   UNL A   1      39.929  28.255  27.661  1.00  0.00     0.029 A 
ATOM     46  N   UNL A   1      40.214  29.028  29.742  1.00  0.00    -0.354 N 
ATOM     47  C   UNL A   1      43.397  27.534  32.247  1.00  0.00     0.074 A 
ATOM     48  C   UNL A   1      44.179  26.532  31.554  1.00  0.00     0.031 C 
ATOM     49  C   UNL A   1      38.983  29.183  27.883  1.00  0.00     0.029 A 
ATOM     50  C   UNL A   1      39.107  29.676  29.253  1.00  0.00     0.049 A 
ATOM     51  H   UNL A   1      40.590  29.200  30.635  1.00  0.00     0.167 HD
ATOM     52  C   UNL A   1      43.653  27.974  33.503  1.00  0.00     0.037 A 
ATOM     53  C   UNL A   1      38.271  30.543  29.855  1.00  0.00     0.037 A 
ATOM     54  C   UNL A   1      42.873  28.969  34.192  1.00  0.00     0.049 A 
ATOM     55  C   UNL A   1      38.525  30.946  31.285  1.00  0.00     0.074 A 
ATOM     56  C   UNL A   1      43.078  29.508  35.450  1.00  0.00     0.029 A 
ATOM     57  N   UNL A   1      41.729  29.567  33.684  1.00  0.00    -0.354 N 
ATOM     58  N   UNL A   1      39.504  30.595  32.082  1.00  0.00    -0.248 NA
ATOM     59  C   UNL A   1      37.553  31.863  31.899  1.00  0.00     0.031 C 
ATOM     60  C   UNL A   1      42.027  30.389  35.727  1.00  0.00     0.029 A 
ATOM     61  C   UNL A   1      41.195  30.438  34.619  1.00  0.00     0.049 A 
ATOM     62  H   UNL A   1      41.352  29.397  32.790  1.00  0.00     0.167 HD
ATOM     63  C   UNL A   1      39.276  31.257  33.282  1.00  0.00     0.074 A 
ATOM     64  C   UNL A   1      38.076  32.047  33.102  1.00  0.00     0.031 C 
ATOM     65  C   UNL A   1      39.995  31.211  34.431  1.00  0.00     0.037 A 
BRANCH  52  66
ATOM     66  C   UNL A   1      44.814  27.363  34.231  1.00  0.00     0.064 A 
ATOM     67  C   UNL A   1      46.098  27.925  34.174  1.00  0.00     0.173 A 
ATOM     68  C   UNL A   1      44.627  26.232  35.038  1.00  0.00     0.173 A 
ATOM     69  F   UNL A   1      46.330  29.002  33.407  1.00  0.00    -0.203 F 
ATOM     70  C   UNL A   1      47.155  27.364  34.885  1.00  0.00     0.198 A 
ATOM     71  C   UNL A   1      45.681  25.689  35.767  1.00  0.00     0.198 A 
ATOM     72  F   UNL A   1      43.417  25.659  35.130  1.00  0.00    -0.203 F 
ATOM     73  F   UNL A   1      48.383  27.897  34.788  1.00  0.00    -0.200 F 
ATOM     74  C   UNL A   1      46.946  26.252  35.686  1.00  0.00     0.200 A 
ATOM     75  F   UNL A   1      45.474  24.621  36.550  1.00  0.00    -0.200 F 
ATOM     76  F   UNL A   1      47.963  25.720  36.377  1.00  0.00    -0.200 F 
ENDBRANCH  52  66
BRANCH  53  77
ATOM     77  C   UNL A   1      37.089  31.063  29.121  1.00  0.00     0.064 A 
ATOM     78  C   UNL A   1      37.047  32.385  28.656  1.00  0.00     0.173 A 
ATOM     79  C   UNL A   1      35.966  30.254  28.888  1.00  0.00     0.173 A 
ATOM     80  F   UNL A   1      38.083  33.206  28.880  1.00  0.00    -0.203 F 
ATOM     81  C   UNL A   1      35.922  32.880  28.000  1.00  0.00     0.198 A 
ATOM     82  C   UNL A   1      34.854  30.742  28.207  1.00  0.00     0.198 A 
ATOM     83  F   UNL A   1      35.954  28.983  29.317  1.00  0.00    -0.203 F 
ATOM     84  F   UNL A   1      35.891  34.161  27.605  1.00  0.00    -0.200 F 
ATOM     85  C   UNL A   1      34.830  32.057  27.769  1.00  0.00     0.200 A 
ATOM     86  F   UNL A   1      33.806  29.940  27.978  1.00  0.00    -0.200 F 
ATOM     87  F   UNL A   1      33.751  32.534  27.135  1.00  0.00    -0.200 F 
ENDBRANCH  53  77
BRANCH  65  88
ATOM     88  C   UNL A   1      39.509  32.046  35.581  1.00  0.00     0.064 A 
ATOM     89  C   UNL A   1      39.929  33.373  35.749  1.00  0.00     0.173 A 
ATOM     90  C   UNL A   1      38.584  31.527  36.499  1.00  0.00     0.173 A 
ATOM     91  F   UNL A   1      40.826  33.910  34.909  1.00  0.00    -0.203 F 
ATOM     92  C   UNL A   1      39.456  34.145  36.809  1.00  0.00     0.198 A 
ATOM     93  C   UNL A   1      38.091  32.310  37.540  1.00  0.00     0.198 A 
ATOM     94  F   UNL A   1      38.146  30.265  36.379  1.00  0.00    -0.203 F 
ATOM     95  F   UNL A   1      39.905  35.396  36.975  1.00  0.00    -0.200 F 
ATOM     96  C   UNL A   1      38.533  33.615  37.697  1.00  0.00     0.200 A 
ATOM     97  F   UNL A   1      37.189  31.801  38.391  1.00  0.00    -0.200 F 
ATOM     98  F   UNL A   1      38.072  34.362  38.711  1.00  0.00    -0.200 F 
ENDBRANCH  65  88
ENDBRANCH  39  40
ENDBRANCH  32  34
ENDBRANCH  31  32
ENDBRANCH  30  31
ENDBRANCH  29  30
ENDBRANCH   1  29
TORSDOF 17
ENDMDL
MODEL 2
REMARK VINA RESULT:     -11.4      3.383      8.817
REMARK SMILES [NH3+][C@@]1(C(=O)OCCOCCOC(=O)c2ccc(-c3c4nc(c(-c5c(F)c(F)c(F)c(F)c5F)c5ccc([nH]5)c(-c5c(F)c(F)c(F)c(F)c5F)c5nc(c(-c6c(F)c(F)c(F)c(F)c6F)c6ccc3[nH]6)C=C5)C=C4)cc2)CC[C@@H]([N@H+]2CC[C@H]([NH+]3CCOCC3)C2)C1
REMARK SMILES IDX 8 1 7 2 6 3 5 4 3 5 4 6 2 7 77 8 91 9 78 10 79 11 1 12 80 16
REMARK SMILES IDX 81 17 90 18 82 20 83 21 84 22 85 23 89 24 86 26 88 27 87 28
REMARK SMILES IDX 9 29 10 30 11 31 12 32 13 33 14 34 15 35 76 36 16 37 75 38
REMARK SMILES IDX 17 39 18 40 19 41 69 42 20 43 74 44 68 45 70 46 21 47 73 48
REMARK SMILES IDX 67 49 66 50 22 52 54 53 34 54 53 55 35 56 38 57 52 58 71 59
REMARK SMILES IDX 36 60 37 61 51 63 72 64 39 65 23 66 24 67 32 68 25 69 26 70
REMARK SMILES IDX 30 71 33 72 27 73 28 74 31 75 29 76 55 77 56 78 64 79 57 80
REMARK SMILES IDX 58 81 62 82 65 83 59 84 60 85 63 86 61 87 40 88 41 89 49 90
REMARK SMILES IDX 42 91 43 92 47 93 50 94 44 95 45 96 48 97 46 98
REMARK H PARENT 1 13 1 14 1 15 80 19 84 25 70 51 38 62
REMARK Flexibility Score: inf
ROOT
ATOM      1  O   UNL A   1      32.200  30.000  27.156  1.00  0.00    -0.374 OA
ENDROOT
BRANCH   1   2
ATOM      2  C   UNL A   1      31.652  28.685  27.231  1.00  0.00     0.202 C 
BRANCH   2   3
ATOM      3  C   UNL A   1      31.990  27.738  26.077  1.00  0.00     0.261 C 
BRANCH   3   4
ATOM      4  O   UNL A   1      32.117  26.383  26.540  1.00  0.00    -0.459 OA
BRANCH   4   5
ATOM      5  C   UNL A   1      31.180  25.518  26.073  1.00  0.00     0.368 C 
ATOM      6  O   UNL A   1      30.029  25.824  25.777  1.00  0.00    -0.245 OA
BRANCH   5   7
ATOM      7  C   UNL A   1      31.717  24.069  25.920  1.00  0.00     0.198 C 
ATOM      8  C   UNL A   1      33.233  24.090  26.157  1.00  0.00     0.087 C 
ATOM      9  C   UNL A   1      31.503  23.428  24.529  1.00  0.00     0.145 C 
ATOM     10  C   UNL A   1      33.843  23.944  24.769  1.00  0.00     0.072 C 
ATOM     11  C   UNL A   1      32.887  23.034  23.989  1.00  0.00     0.191 C 
BRANCH   7  12
ATOM     12  N   UNL A   1      31.052  23.243  26.965  1.00  0.00    -0.343 N 
ATOM     13  H   UNL A   1      31.742  22.641  27.413  1.00  0.00     0.345 HD
ATOM     14  H   UNL A   1      30.328  22.669  26.533  1.00  0.00     0.345 HD
ATOM     15  H   UNL A   1      30.629  23.854  27.663  1.00  0.00     0.345 HD
ENDBRANCH   7  12
BRANCH  11  16
ATOM     16  N   UNL A   1      33.250  21.616  24.069  1.00  0.00    -0.327 N 
ATOM     17  C   UNL A   1      34.513  21.278  24.720  1.00  0.00     0.269 C 
ATOM     18  C   UNL A   1      32.234  20.783  24.731  1.00  0.00     0.328 C 
ATOM     19  H   UNL A   1      33.338  21.414  23.073  1.00  0.00     0.348 HD
ATOM     20  C   UNL A   1      34.442  19.766  24.815  1.00  0.00     0.132 C 
ATOM     21  C   UNL A   1      32.968  19.464  25.091  1.00  0.00     0.245 C 
BRANCH  21  22
ATOM     22  N   UNL A   1      32.399  18.218  24.557  1.00  0.00    -0.324 N 
ATOM     23  C   UNL A   1      32.480  17.069  25.480  1.00  0.00     0.291 C 
ATOM     24  C   UNL A   1      32.838  17.804  23.211  1.00  0.00     0.291 C 
ATOM     25  H   UNL A   1      31.423  18.497  24.456  1.00  0.00     0.348 HD
ATOM     26  C   UNL A   1      33.766  16.227  25.375  1.00  0.00     0.221 C 
ATOM     27  C   UNL A   1      34.115  16.950  23.156  1.00  0.00     0.221 C 
ATOM     28  O   UNL A   1      34.030  15.820  24.029  1.00  0.00    -0.370 OA
ENDBRANCH  21  22
ENDBRANCH  11  16
ENDBRANCH   5   7
ENDBRANCH   4   5
ENDBRANCH   3   4
ENDBRANCH   2   3
ENDBRANCH   1   2
BRANCH   1  29
ATOM     29  C   UNL A   1      31.501  30.968  26.375  1.00  0.00     0.202 C 
BRANCH  29  30
ATOM     30  C   UNL A   1      31.559  32.424  26.858  1.00  0.00     0.261 C 
BRANCH  30  31
ATOM     31  O   UNL A   1      32.891  32.970  26.789  1.00  0.00    -0.460 OA
BRANCH  31  32
ATOM     32  C   UNL A   1      33.274  33.685  27.873  1.00  0.00     0.338 C 
ATOM     33  O   UNL A   1      32.645  34.568  28.443  1.00  0.00    -0.246 OA
BRANCH  32  34
ATOM     34  C   UNL A   1      34.516  33.123  28.430  1.00  0.00     0.060 A 
ATOM     35  C   UNL A   1      34.509  31.772  28.801  1.00  0.00     0.016 A 
ATOM     36  C   UNL A   1      35.649  33.912  28.642  1.00  0.00     0.016 A 
ATOM     37  C   UNL A   1      35.632  31.206  29.401  1.00  0.00     0.010 A 
ATOM     38  C   UNL A   1      36.770  33.345  29.260  1.00  0.00     0.010 A 
ATOM     39  C   UNL A   1      36.761  31.995  29.658  1.00  0.00    -0.014 A 
BRANCH  39  40
ATOM     40  C   UNL A   1      37.902  31.426  30.415  1.00  0.00     0.031 A 
ATOM     41  C   UNL A   1      38.795  30.413  29.760  1.00  0.00     0.074 A 
ATOM     42  C   UNL A   1      38.143  31.823  31.677  1.00  0.00     0.049 A 
ATOM     43  N   UNL A   1      39.807  29.752  30.262  1.00  0.00    -0.248 NA
ATOM     44  C   UNL A   1      38.513  30.104  28.349  1.00  0.00     0.031 C 
ATOM     45  C   UNL A   1      37.374  32.830  32.405  1.00  0.00     0.029 A 
ATOM     46  N   UNL A   1      39.100  31.414  32.573  1.00  0.00    -0.354 N 
ATOM     47  C   UNL A   1      40.280  28.948  29.233  1.00  0.00     0.074 A 
ATOM     48  C   UNL A   1      39.432  29.186  28.084  1.00  0.00     0.031 C 
ATOM     49  C   UNL A   1      37.876  32.947  33.646  1.00  0.00     0.029 A 
ATOM     50  C   UNL A   1      38.976  31.999  33.810  1.00  0.00     0.049 A 
ATOM     51  H   UNL A   1      39.805  30.766  32.351  1.00  0.00     0.167 HD
ATOM     52  C   UNL A   1      41.331  28.093  29.247  1.00  0.00     0.037 A 
ATOM     53  C   UNL A   1      39.653  31.770  34.951  1.00  0.00     0.037 A 
ATOM     54  C   UNL A   1      42.173  27.856  30.391  1.00  0.00     0.049 A 
ATOM     55  C   UNL A   1      40.759  30.746  34.964  1.00  0.00     0.074 A 
ATOM     56  C   UNL A   1      43.285  27.038  30.489  1.00  0.00     0.029 A 
ATOM     57  N   UNL A   1      41.987  28.428  31.640  1.00  0.00    -0.354 N 
ATOM     58  N   UNL A   1      41.221  30.015  33.980  1.00  0.00    -0.248 NA
ATOM     59  C   UNL A   1      41.431  30.512  36.250  1.00  0.00     0.031 C 
ATOM     60  C   UNL A   1      43.738  27.072  31.813  1.00  0.00     0.029 A 
ATOM     61  C   UNL A   1      42.938  27.951  32.526  1.00  0.00     0.049 A 
ATOM     62  H   UNL A   1      41.282  29.079  31.865  1.00  0.00     0.167 HD
ATOM     63  C   UNL A   1      42.245  29.249  34.521  1.00  0.00     0.074 A 
ATOM     64  C   UNL A   1      42.351  29.617  35.917  1.00  0.00     0.031 C 
ATOM     65  C   UNL A   1      43.026  28.320  33.916  1.00  0.00     0.037 A 
BRANCH  52  66
ATOM     66  C   UNL A   1      41.619  27.325  27.991  1.00  0.00     0.064 A 
ATOM     67  C   UNL A   1      42.494  27.816  27.011  1.00  0.00     0.173 A 
ATOM     68  C   UNL A   1      41.054  26.056  27.792  1.00  0.00     0.173 A 
ATOM     69  F   UNL A   1      43.050  29.029  27.150  1.00  0.00    -0.203 F 
ATOM     70  C   UNL A   1      42.776  27.072  25.868  1.00  0.00     0.198 A 
ATOM     71  C   UNL A   1      41.359  25.306  26.661  1.00  0.00     0.198 A 
ATOM     72  F   UNL A   1      40.215  25.539  28.703  1.00  0.00    -0.203 F 
ATOM     73  F   UNL A   1      43.588  27.577  24.926  1.00  0.00    -0.200 F 
ATOM     74  C   UNL A   1      42.215  25.816  25.697  1.00  0.00     0.200 A 
ATOM     75  F   UNL A   1      40.825  24.086  26.502  1.00  0.00    -0.200 F 
ATOM     76  F   UNL A   1      42.498  25.097  24.601  1.00  0.00    -0.200 F 
ENDBRANCH  52  66
BRANCH  53  77
ATOM     77  C   UNL A   1      39.282  32.499  36.191  1.00  0.00     0.064 A 
ATOM     78  C   UNL A   1      39.832  33.753  36.488  1.00  0.00     0.173 A 
ATOM     79  C   UNL A   1      38.386  31.944  37.117  1.00  0.00     0.173 A 
ATOM     80  F   UNL A   1      40.716  34.312  35.649  1.00  0.00    -0.203 F 
ATOM     81  C   UNL A   1      39.510  34.418  37.669  1.00  0.00     0.198 A 
ATOM     82  C   UNL A   1      38.042  32.622  38.284  1.00  0.00     0.198 A 
ATOM     83  F   UNL A   1      37.835  30.743  36.883  1.00  0.00    -0.203 F 
ATOM     84  F   UNL A   1      40.084  35.596  37.950  1.00  0.00    -0.200 F 
ATOM     85  C   UNL A   1      38.610  33.856  38.562  1.00  0.00     0.200 A 
ATOM     86  F   UNL A   1      37.165  32.079  39.138  1.00  0.00    -0.200 F 
ATOM     87  F   UNL A   1      38.298  34.497  39.697  1.00  0.00    -0.200 F 
ENDBRANCH  53  77
BRANCH  65  88
ATOM     88  C   UNL A   1      44.070  27.644  34.757  1.00  0.00     0.064 A 
ATOM     89  C   UNL A   1      43.823  26.412  35.380  1.00  0.00     0.173 A 
ATOM     90  C   UNL A   1      45.344  28.213  34.909  1.00  0.00     0.173 A 
ATOM     91  F   UNL A   1      42.616  25.835  35.279  1.00  0.00    -0.203 F 
ATOM     92  C   UNL A   1      44.806  25.784  36.142  1.00  0.00     0.198 A 
ATOM     93  C   UNL A   1      46.334  27.570  35.647  1.00  0.00     0.198 A 
ATOM     94  F   UNL A   1      45.633  29.388  34.329  1.00  0.00    -0.203 F 
ATOM     95  F   UNL A   1      44.533  24.629  36.763  1.00  0.00    -0.200 F 
ATOM     96  C   UNL A   1      46.062  26.360  36.268  1.00  0.00     0.200 A 
ATOM     97  F   UNL A   1      47.550  28.120  35.758  1.00  0.00    -0.200 F 
ATOM     98  F   UNL A   1      47.009  25.750  36.995  1.00  0.00    -0.200 F 
ENDBRANCH  65  88
ENDBRANCH  39  40
ENDBRANCH  32  34
ENDBRANCH  31  32
ENDBRANCH  30  31
ENDBRANCH  29  30
ENDBRANCH   1  29
TORSDOF 17
ENDMDL
MODEL 3
REMARK VINA RESULT:     -11.4      1.092      2.435
REMARK SMILES [NH3+][C@@]1(C(=O)OCCOCCOC(=O)c2ccc(-c3c4nc(c(-c5c(F)c(F)c(F)c(F)c5F)c5ccc([nH]5)c(-c5c(F)c(F)c(F)c(F)c5F)c5nc(c(-c6c(F)c(F)c(F)c(F)c6F)c6ccc3[nH]6)C=C5)C=C4)cc2)CC[C@@H]([N@H+]2CC[C@H]([NH+]3CCOCC3)C2)C1
REMARK SMILES IDX 8 1 7 2 6 3 5 4 3 5 4 6 2 7 77 8 91 9 78 10 79 11 1 12 80 16
REMARK SMILES IDX 81 17 90 18 82 20 83 21 84 22 85 23 89 24 86 26 88 27 87 28
REMARK SMILES IDX 9 29 10 30 11 31 12 32 13 33 14 34 15 35 76 36 16 37 75 38
REMARK SMILES IDX 17 39 18 40 19 41 69 42 20 43 74 44 68 45 70 46 21 47 73 48
REMARK SMILES IDX 67 49 66 50 22 52 54 53 34 54 53 55 35 56 38 57 52 58 71 59
REMARK SMILES IDX 36 60 37 61 51 63 72 64 39 65 23 66 24 67 32 68 25 69 26 70
REMARK SMILES IDX 30 71 33 72 27 73 28 74 31 75 29 76 55 77 56 78 64 79 57 80
REMARK SMILES IDX 58 81 62 82 65 83 59 84 60 85 63 86 61 87 40 88 41 89 49 90
REMARK SMILES IDX 42 91 43 92 47 93 50 94 44 95 45 96 48 97 46 98
REMARK H PARENT 1 13 1 14 1 15 80 19 84 25 70 51 38 62
REMARK Flexibility Score: inf
ROOT
ATOM      1  O   UNL A   1      41.233  21.007  26.752  1.00  0.00    -0.374 OA
ENDROOT
BRANCH   1   2
ATOM      2  C   UNL A   1      39.974  20.700  26.155  1.00  0.00     0.202 C 
BRANCH   2   3
ATOM      3  C   UNL A   1      38.946  21.833  26.108  1.00  0.00     0.261 C 
BRANCH   3   4
ATOM      4  O   UNL A   1      38.097  21.714  24.954  1.00  0.00    -0.459 OA
BRANCH   4   5
ATOM      5  C   UNL A   1      36.764  21.800  25.200  1.00  0.00     0.368 C 
ATOM      6  O   UNL A   1      36.140  21.049  25.946  1.00  0.00    -0.245 OA
BRANCH   5   7
ATOM      7  C   UNL A   1      36.085  22.978  24.453  1.00  0.00     0.198 C 
ATOM      8  C   UNL A   1      35.840  24.111  25.459  1.00  0.00     0.087 C 
ATOM      9  C   UNL A   1      34.711  22.655  23.820  1.00  0.00     0.145 C 
ATOM     10  C   UNL A   1      34.344  24.063  25.739  1.00  0.00     0.072 C 
ATOM     11  C   UNL A   1      33.689  23.632  24.421  1.00  0.00     0.191 C 
BRANCH   7  12
ATOM     12  N   UNL A   1      37.033  23.432  23.399  1.00  0.00    -0.343 N 
ATOM     13  H   UNL A   1      37.144  24.444  23.454  1.00  0.00     0.345 HD
ATOM     14  H   UNL A   1      36.665  23.180  22.481  1.00  0.00     0.345 HD
ATOM     15  H   UNL A   1      37.937  22.981  23.537  1.00  0.00     0.345 HD
ENDBRANCH   7  12
BRANCH  11  16
ATOM     16  N   UNL A   1      33.284  24.766  23.583  1.00  0.00    -0.327 N 
ATOM     17  C   UNL A   1      33.111  24.521  22.153  1.00  0.00     0.269 C 
ATOM     18  C   UNL A   1      32.036  25.409  24.024  1.00  0.00     0.328 C 
ATOM     19  H   UNL A   1      34.101  25.362  23.711  1.00  0.00     0.348 HD
ATOM     20  C   UNL A   1      32.491  25.817  21.669  1.00  0.00     0.132 C 
ATOM     21  C   UNL A   1      31.572  26.257  22.810  1.00  0.00     0.245 C 
BRANCH  21  22
ATOM     22  N   UNL A   1      31.382  27.697  23.038  1.00  0.00    -0.324 N 
ATOM     23  C   UNL A   1      32.502  28.539  22.575  1.00  0.00     0.291 C 
ATOM     24  C   UNL A   1      30.979  28.113  24.395  1.00  0.00     0.291 C 
ATOM     25  H   UNL A   1      30.570  27.865  22.444  1.00  0.00     0.348 HD
ATOM     26  C   UNL A   1      33.617  28.782  23.609  1.00  0.00     0.221 C 
ATOM     27  C   UNL A   1      32.125  28.362  25.388  1.00  0.00     0.221 C 
ATOM     28  O   UNL A   1      33.098  29.264  24.852  1.00  0.00    -0.370 OA
ENDBRANCH  21  22
ENDBRANCH  11  16
ENDBRANCH   5   7
ENDBRANCH   4   5
ENDBRANCH   3   4
ENDBRANCH   2   3
ENDBRANCH   1   2
BRANCH   1  29
ATOM     29  C   UNL A   1      42.402  20.430  26.171  1.00  0.00     0.202 C 
BRANCH  29  30
ATOM     30  C   UNL A   1      43.362  21.386  25.450  1.00  0.00     0.261 C 
BRANCH  30  31
ATOM     31  O   UNL A   1      42.711  22.601  25.029  1.00  0.00    -0.460 OA
BRANCH  31  32
ATOM     32  C   UNL A   1      43.485  23.711  25.076  1.00  0.00     0.338 C 
ATOM     33  O   UNL A   1      44.418  24.001  24.338  1.00  0.00    -0.246 OA
BRANCH  32  34
ATOM     34  C   UNL A   1      42.929  24.667  26.049  1.00  0.00     0.060 A 
ATOM     35  C   UNL A   1      43.491  25.949  26.093  1.00  0.00     0.016 A 
ATOM     36  C   UNL A   1      41.920  24.302  26.942  1.00  0.00     0.016 A 
ATOM     37  C   UNL A   1      43.055  26.871  27.043  1.00  0.00     0.010 A 
ATOM     38  C   UNL A   1      41.495  25.225  27.906  1.00  0.00     0.010 A 
ATOM     39  C   UNL A   1      42.072  26.507  27.972  1.00  0.00    -0.014 A 
BRANCH  39  40
ATOM     40  C   UNL A   1      41.705  27.441  29.064  1.00  0.00     0.031 A 
ATOM     41  C   UNL A   1      42.508  27.451  30.332  1.00  0.00     0.074 A 
ATOM     42  C   UNL A   1      40.666  28.282  28.916  1.00  0.00     0.049 A 
ATOM     43  N   UNL A   1      42.322  28.144  31.427  1.00  0.00    -0.248 NA
ATOM     44  C   UNL A   1      43.680  26.562  30.373  1.00  0.00     0.031 C 
ATOM     45  C   UNL A   1      39.838  28.396  27.717  1.00  0.00     0.029 A 
ATOM     46  N   UNL A   1      40.124  29.192  29.789  1.00  0.00    -0.354 N 
ATOM     47  C   UNL A   1      43.348  27.775  32.286  1.00  0.00     0.074 A 
ATOM     48  C   UNL A   1      44.142  26.780  31.596  1.00  0.00     0.031 C 
ATOM     49  C   UNL A   1      38.878  29.310  27.937  1.00  0.00     0.029 A 
ATOM     50  C   UNL A   1      39.003  29.817  29.302  1.00  0.00     0.049 A 
ATOM     51  H   UNL A   1      40.503  29.379  30.678  1.00  0.00     0.167 HD
ATOM     52  C   UNL A   1      43.605  28.231  33.536  1.00  0.00     0.037 A 
ATOM     53  C   UNL A   1      38.156  30.676  29.902  1.00  0.00     0.037 A 
ATOM     54  C   UNL A   1      42.813  29.219  34.221  1.00  0.00     0.049 A 
ATOM     55  C   UNL A   1      38.413  31.096  31.326  1.00  0.00     0.074 A 
ATOM     56  C   UNL A   1      43.017  29.772  35.473  1.00  0.00     0.029 A 
ATOM     57  N   UNL A   1      41.656  29.793  33.716  1.00  0.00    -0.354 N 
ATOM     58  N   UNL A   1      39.403  30.769  32.120  1.00  0.00    -0.248 NA
ATOM     59  C   UNL A   1      37.429  32.002  31.938  1.00  0.00     0.031 C 
ATOM     60  C   UNL A   1      41.953  30.639  35.749  1.00  0.00     0.029 A 
ATOM     61  C   UNL A   1      41.113  30.663  34.647  1.00  0.00     0.049 A 
ATOM     62  H   UNL A   1      41.275  29.608  32.826  1.00  0.00     0.167 HD
ATOM     63  C   UNL A   1      39.172  31.438  33.315  1.00  0.00     0.074 A 
ATOM     64  C   UNL A   1      37.957  32.206  33.136  1.00  0.00     0.031 C 
ATOM     65  C   UNL A   1      39.899  31.415  34.459  1.00  0.00     0.037 A 
BRANCH  52  66
ATOM     66  C   UNL A   1      44.780  27.646  34.261  1.00  0.00     0.064 A 
ATOM     67  C   UNL A   1      44.657  26.503  35.065  1.00  0.00     0.173 A 
ATOM     68  C   UNL A   1      46.057  28.206  34.107  1.00  0.00     0.173 A 
ATOM     69  F   UNL A   1      43.455  25.937  35.253  1.00  0.00    -0.203 F 
ATOM     70  C   UNL A   1      45.767  25.954  35.702  1.00  0.00     0.198 A 
ATOM     71  C   UNL A   1      47.168  27.640  34.724  1.00  0.00     0.198 A 
ATOM     72  F   UNL A   1      46.229  29.297  33.344  1.00  0.00    -0.203 F 
ATOM     73  F   UNL A   1      45.620  24.882  36.494  1.00  0.00    -0.200 F 
ATOM     74  C   UNL A   1      47.022  26.518  35.526  1.00  0.00     0.200 A 
ATOM     75  F   UNL A   1      48.382  28.179  34.544  1.00  0.00    -0.200 F 
ATOM     76  F   UNL A   1      48.090  25.981  36.132  1.00  0.00    -0.200 F 
ENDBRANCH  52  66
BRANCH  53  77
ATOM     77  C   UNL A   1      36.960  31.169  29.171  1.00  0.00     0.064 A 
ATOM     78  C   UNL A   1      35.872  30.327  28.908  1.00  0.00     0.173 A 
ATOM     79  C   UNL A   1      36.892  32.490  28.702  1.00  0.00     0.173 A 
ATOM     80  F   UNL A   1      35.903  29.048  29.310  1.00  0.00    -0.203 F 
ATOM     81  C   UNL A   1      34.768  30.783  28.190  1.00  0.00     0.198 A 
ATOM     82  C   UNL A   1      35.776  32.953  28.010  1.00  0.00     0.198 A 
ATOM     83  F   UNL A   1      37.910  33.335  28.923  1.00  0.00    -0.203 F 
ATOM     84  F   UNL A   1      33.759  29.943  27.914  1.00  0.00    -0.200 F 
ATOM     85  C   UNL A   1      34.717  32.096  27.749  1.00  0.00     0.200 A 
ATOM     86  F   UNL A   1      35.727  34.224  27.594  1.00  0.00    -0.200 F 
ATOM     87  F   UNL A   1      33.653  32.534  27.062  1.00  0.00    -0.200 F 
ENDBRANCH  53  77
BRANCH  65  88
ATOM     88  C   UNL A   1      39.407  32.252  35.605  1.00  0.00     0.064 A 
ATOM     89  C   UNL A   1      38.556  31.721  36.585  1.00  0.00     0.173 A 
ATOM     90  C   UNL A   1      39.823  33.584  35.747  1.00  0.00     0.173 A 
ATOM     91  F   UNL A   1      38.115  30.458  36.485  1.00  0.00    -0.203 F 
ATOM     92  C   UNL A   1      38.121  32.501  37.655  1.00  0.00     0.198 A 
ATOM     93  C   UNL A   1      39.411  34.352  36.832  1.00  0.00     0.198 A 
ATOM     94  F   UNL A   1      40.642  34.137  34.839  1.00  0.00    -0.203 F 
ATOM     95  F   UNL A   1      37.273  31.987  38.555  1.00  0.00    -0.200 F 
ATOM     96  C   UNL A   1      38.556  33.812  37.781  1.00  0.00     0.200 A 
ATOM     97  F   UNL A   1      39.841  35.615  36.960  1.00  0.00    -0.200 F 
ATOM     98  F   UNL A   1      38.143  34.559  38.815  1.00  0.00    -0.200 F 
ENDBRANCH  65  88
ENDBRANCH  39  40
ENDBRANCH  32  34
ENDBRANCH  31  32
ENDBRANCH  30  31
ENDBRANCH  29  30
ENDBRANCH   1  29
TORSDOF 17
ENDMDL
