MODEL 1
REMARK VINA RESULT:     -11.8      0.000      0.000
REMARK SMILES CN1C(=O)N(CC(=O)OCCOCCOC(=O)c2ccc(-c3c4nc(c(-c5c(F)c(F)c(F)c(F)c5F)c5ccc([nH]5)c(-c5c(F)c(F)c(F)c(F)c5F)c5nc(c(-c6c(F)c(F)c(F)c(F)c6F)c6ccc3[nH]6)C=C5)C=C4)cc2)C(=O)C12CCCCC2
REMARK SMILES IDX 13 1 12 2 11 3 10 4 9 5 7 6 8 7 6 8 5 9 1 10 2 11 3 12 83 13
REMARK SMILES IDX 4 14 81 15 84 16 88 17 82 18 85 19 87 20 86 21 14 22 15 23
REMARK SMILES IDX 16 24 17 25 18 26 19 27 80 28 20 29 79 30 21 31 22 32 23 33
REMARK SMILES IDX 73 34 24 35 78 36 72 37 74 38 25 39 77 40 71 41 70 42 26 44
REMARK SMILES IDX 58 45 38 46 57 47 39 48 42 49 56 50 75 51 40 52 41 53 55 55
REMARK SMILES IDX 76 56 43 57 27 58 28 59 36 60 29 61 30 62 34 63 37 64 31 65
REMARK SMILES IDX 32 66 35 67 33 68 59 69 60 70 68 71 61 72 62 73 66 74 69 75
REMARK SMILES IDX 63 76 64 77 67 78 65 79 44 80 45 81 53 82 46 83 47 84 51 85
REMARK SMILES IDX 54 86 48 87 49 88 52 89 50 90
REMARK H PARENT 74 43 42 54
REMARK Flexibility Score: inf
ROOT
ATOM      1  C   UNL A   1      35.934  20.705  25.027  1.00  0.00     0.202 C 
ENDROOT
BRANCH   1   2
ATOM      2  O   UNL A   1      35.561  21.582  26.094  1.00  0.00    -0.374 OA
BRANCH   2   3
ATOM      3  C   UNL A   1      34.167  21.851  26.242  1.00  0.00     0.202 C 
BRANCH   3   4
ATOM      4  C   UNL A   1      33.748  23.309  26.019  1.00  0.00     0.261 C 
BRANCH   4   5
ATOM      5  O   UNL A   1      32.392  23.409  25.536  1.00  0.00    -0.462 OA
BRANCH   5   6
ATOM      6  C   UNL A   1      31.514  24.036  26.372  1.00  0.00     0.326 C 
ATOM      7  O   UNL A   1      31.354  23.741  27.553  1.00  0.00    -0.250 OA
BRANCH   6   8
ATOM      8  C   UNL A   1      30.782  25.210  25.729  1.00  0.00     0.253 C 
BRANCH   8   9
ATOM      9  N   UNL A   1      31.623  26.334  25.376  1.00  0.00    -0.251 N 
ATOM     10  C   UNL A   1      33.581  28.275  23.040  1.00  0.00     0.150 C 
ATOM     11  N   UNL A   1      32.853  27.748  24.177  1.00  0.00    -0.313 N 
ATOM     12  C   UNL A   1      32.193  26.531  24.159  1.00  0.00     0.327 C 
ATOM     13  C   UNL A   1      32.789  28.401  25.488  1.00  0.00     0.124 C 
ATOM     14  O   UNL A   1      32.158  25.757  23.214  1.00  0.00    -0.248 OA
ATOM     15  C   UNL A   1      31.998  27.311  26.249  1.00  0.00     0.257 C 
ATOM     16  C   UNL A   1      34.183  28.633  26.082  1.00  0.00     0.039 C 
ATOM     17  C   UNL A   1      31.948  29.685  25.451  1.00  0.00     0.039 C 
ATOM     18  O   UNL A   1      31.716  27.329  27.439  1.00  0.00    -0.272 OA
ATOM     19  C   UNL A   1      34.161  29.398  27.405  1.00  0.00     0.003 C 
ATOM     20  C   UNL A   1      31.921  30.412  26.794  1.00  0.00     0.003 C 
ATOM     21  C   UNL A   1      33.327  30.673  27.324  1.00  0.00     0.000 C 
ENDBRANCH   8   9
ENDBRANCH   6   8
ENDBRANCH   5   6
ENDBRANCH   4   5
ENDBRANCH   3   4
ENDBRANCH   2   3
ENDBRANCH   1   2
BRANCH   1  22
ATOM     22  C   UNL A   1      37.418  20.320  24.995  1.00  0.00     0.261 C 
BRANCH  22  23
ATOM     23  O   UNL A   1      38.271  21.461  25.220  1.00  0.00    -0.460 OA
BRANCH  23  24
ATOM     24  C   UNL A   1      39.321  21.220  26.035  1.00  0.00     0.338 C 
ATOM     25  O   UNL A   1      40.002  20.204  26.097  1.00  0.00    -0.246 OA
BRANCH  24  26
ATOM     26  C   UNL A   1      39.676  22.430  26.795  1.00  0.00     0.060 A 
ATOM     27  C   UNL A   1      38.964  23.601  26.516  1.00  0.00     0.016 A 
ATOM     28  C   UNL A   1      40.771  22.455  27.660  1.00  0.00     0.016 A 
ATOM     29  C   UNL A   1      39.388  24.818  27.048  1.00  0.00     0.010 A 
ATOM     30  C   UNL A   1      41.191  23.676  28.202  1.00  0.00     0.010 A 
ATOM     31  C   UNL A   1      40.533  24.871  27.856  1.00  0.00    -0.014 A 
BRANCH  31  32
ATOM     32  C   UNL A   1      41.133  26.194  28.173  1.00  0.00     0.031 A 
ATOM     33  C   UNL A   1      42.543  26.481  27.726  1.00  0.00     0.074 A 
ATOM     34  C   UNL A   1      40.419  27.150  28.792  1.00  0.00     0.049 A 
ATOM     35  N   UNL A   1      43.257  27.569  27.870  1.00  0.00    -0.248 NA
ATOM     36  C   UNL A   1      43.242  25.395  27.021  1.00  0.00     0.031 C 
ATOM     37  C   UNL A   1      39.039  27.013  29.246  1.00  0.00     0.029 A 
ATOM     38  N   UNL A   1      40.764  28.434  29.140  1.00  0.00    -0.354 N 
ATOM     39  C   UNL A   1      44.484  27.298  27.279  1.00  0.00     0.074 A 
ATOM     40  C   UNL A   1      44.433  25.933  26.805  1.00  0.00     0.031 C 
ATOM     41  C   UNL A   1      38.650  28.168  29.814  1.00  0.00     0.029 A 
ATOM     42  C   UNL A   1      39.762  29.118  29.781  1.00  0.00     0.049 A 
ATOM     43  H   UNL A   1      41.646  28.827  28.946  1.00  0.00     0.167 HD
ATOM     44  C   UNL A   1      45.553  28.116  27.131  1.00  0.00     0.037 A 
ATOM     45  C   UNL A   1      39.747  30.365  30.291  1.00  0.00     0.037 A 
ATOM     46  C   UNL A   1      45.606  29.480  27.585  1.00  0.00     0.049 A 
ATOM     47  C   UNL A   1      40.965  31.242  30.153  1.00  0.00     0.074 A 
ATOM     48  C   UNL A   1      46.638  30.393  27.459  1.00  0.00     0.029 A 
ATOM     49  N   UNL A   1      44.578  30.127  28.254  1.00  0.00    -0.354 N 
ATOM     50  N   UNL A   1      42.110  30.984  29.570  1.00  0.00    -0.248 NA
ATOM     51  C   UNL A   1      40.885  32.587  30.741  1.00  0.00     0.031 C 
ATOM     52  C   UNL A   1      46.251  31.581  28.089  1.00  0.00     0.029 A 
ATOM     53  C   UNL A   1      44.961  31.423  28.566  1.00  0.00     0.049 A 
ATOM     54  H   UNL A   1      43.706  29.727  28.474  1.00  0.00     0.167 HD
ATOM     55  C   UNL A   1      42.873  32.138  29.694  1.00  0.00     0.074 A 
ATOM     56  C   UNL A   1      42.058  33.104  30.400  1.00  0.00     0.031 C 
ATOM     57  C   UNL A   1      44.135  32.376  29.260  1.00  0.00     0.037 A 
BRANCH  44  58
ATOM     58  C   UNL A   1      46.768  27.549  26.459  1.00  0.00     0.064 A 
ATOM     59  C   UNL A   1      47.808  26.960  27.193  1.00  0.00     0.173 A 
ATOM     60  C   UNL A   1      46.878  27.564  25.060  1.00  0.00     0.173 A 
ATOM     61  F   UNL A   1      47.756  26.934  28.534  1.00  0.00    -0.203 F 
ATOM     62  C   UNL A   1      48.924  26.428  26.553  1.00  0.00     0.198 A 
ATOM     63  C   UNL A   1      47.983  27.008  24.423  1.00  0.00     0.198 A 
ATOM     64  F   UNL A   1      45.908  28.112  24.312  1.00  0.00    -0.203 F 
ATOM     65  F   UNL A   1      49.925  25.908  27.277  1.00  0.00    -0.200 F 
ATOM     66  C   UNL A   1      49.007  26.446  25.169  1.00  0.00     0.200 A 
ATOM     67  F   UNL A   1      48.058  27.018  23.084  1.00  0.00    -0.200 F 
ATOM     68  F   UNL A   1      50.080  25.929  24.553  1.00  0.00    -0.200 F 
ENDBRANCH  44  58
BRANCH  45  69
ATOM     69  C   UNL A   1      38.532  30.867  30.983  1.00  0.00     0.064 A 
ATOM     70  C   UNL A   1      37.439  31.364  30.261  1.00  0.00     0.173 A 
ATOM     71  C   UNL A   1      38.449  30.877  32.383  1.00  0.00     0.173 A 
ATOM     72  F   UNL A   1      37.483  31.400  28.921  1.00  0.00    -0.203 F 
ATOM     73  C   UNL A   1      36.314  31.865  30.913  1.00  0.00     0.198 A 
ATOM     74  C   UNL A   1      37.314  31.355  33.034  1.00  0.00     0.198 A 
ATOM     75  F   UNL A   1      39.472  30.417  33.119  1.00  0.00    -0.203 F 
ATOM     76  F   UNL A   1      35.301  32.374  30.199  1.00  0.00    -0.200 F 
ATOM     77  C   UNL A   1      36.251  31.855  32.297  1.00  0.00     0.200 A 
ATOM     78  F   UNL A   1      37.254  31.336  34.372  1.00  0.00    -0.200 F 
ATOM     79  F   UNL A   1      35.168  32.337  32.925  1.00  0.00    -0.200 F 
ENDBRANCH  45  69
BRANCH  57  80
ATOM     80  C   UNL A   1      44.703  33.744  29.504  1.00  0.00     0.064 A 
ATOM     81  C   UNL A   1      45.461  34.032  30.647  1.00  0.00     0.173 A 
ATOM     82  C   UNL A   1      44.525  34.765  28.557  1.00  0.00     0.173 A 
ATOM     83  F   UNL A   1      45.649  33.093  31.587  1.00  0.00    -0.203 F 
ATOM     84  C   UNL A   1      46.003  35.300  30.846  1.00  0.00     0.198 A 
ATOM     85  C   UNL A   1      45.089  36.023  28.746  1.00  0.00     0.198 A 
ATOM     86  F   UNL A   1      43.814  34.537  27.442  1.00  0.00    -0.203 F 
ATOM     87  F   UNL A   1      46.690  35.565  31.965  1.00  0.00    -0.200 F 
ATOM     88  C   UNL A   1      45.822  36.292  29.892  1.00  0.00     0.200 A 
ATOM     89  F   UNL A   1      44.923  36.977  27.819  1.00  0.00    -0.200 F 
ATOM     90  F   UNL A   1      46.349  37.509  30.083  1.00  0.00    -0.200 F 
ENDBRANCH  57  80
ENDBRANCH  31  32
ENDBRANCH  24  26
ENDBRANCH  23  24
ENDBRANCH  22  23
ENDBRANCH   1  22
TORSDOF 15
ENDMDL
MODEL 2
REMARK VINA RESULT:     -11.8      1.095      7.369
REMARK SMILES CN1C(=O)N(CC(=O)OCCOCCOC(=O)c2ccc(-c3c4nc(c(-c5c(F)c(F)c(F)c(F)c5F)c5ccc([nH]5)c(-c5c(F)c(F)c(F)c(F)c5F)c5nc(c(-c6c(F)c(F)c(F)c(F)c6F)c6ccc3[nH]6)C=C5)C=C4)cc2)C(=O)C12CCCCC2
REMARK SMILES IDX 13 1 12 2 11 3 10 4 9 5 7 6 8 7 6 8 5 9 1 10 2 11 3 12 83 13
REMARK SMILES IDX 4 14 81 15 84 16 88 17 82 18 85 19 87 20 86 21 14 22 15 23
REMARK SMILES IDX 16 24 17 25 18 26 19 27 80 28 20 29 79 30 21 31 22 32 23 33
REMARK SMILES IDX 73 34 24 35 78 36 72 37 74 38 25 39 77 40 71 41 70 42 26 44
REMARK SMILES IDX 58 45 38 46 57 47 39 48 42 49 56 50 75 51 40 52 41 53 55 55
REMARK SMILES IDX 76 56 43 57 27 58 28 59 36 60 29 61 30 62 34 63 37 64 31 65
REMARK SMILES IDX 32 66 35 67 33 68 59 69 60 70 68 71 61 72 62 73 66 74 69 75
REMARK SMILES IDX 63 76 64 77 67 78 65 79 44 80 45 81 53 82 46 83 47 84 51 85
REMARK SMILES IDX 54 86 48 87 49 88 52 89 50 90
REMARK H PARENT 74 43 42 54
REMARK Flexibility Score: inf
ROOT
ATOM      1  C   UNL A   1      35.843  20.910  25.375  1.00  0.00     0.202 C 
ENDROOT
BRANCH   1   2
ATOM      2  O   UNL A   1      34.740  20.306  24.693  1.00  0.00    -0.374 OA
BRANCH   2   3
ATOM      3  C   UNL A   1      33.482  20.324  25.369  1.00  0.00     0.202 C 
BRANCH   3   4
ATOM      4  C   UNL A   1      32.359  21.085  24.654  1.00  0.00     0.261 C 
BRANCH   4   5
ATOM      5  O   UNL A   1      32.593  22.509  24.654  1.00  0.00    -0.462 OA
BRANCH   5   6
ATOM      6  C   UNL A   1      33.042  23.033  23.476  1.00  0.00     0.326 C 
ATOM      7  O   UNL A   1      32.570  22.762  22.376  1.00  0.00    -0.250 OA
BRANCH   6   8
ATOM      8  C   UNL A   1      34.153  24.066  23.644  1.00  0.00     0.253 C 
BRANCH   8   9
ATOM      9  N   UNL A   1      33.697  25.429  23.819  1.00  0.00    -0.251 N 
ATOM     10  C   UNL A   1      32.592  28.633  22.568  1.00  0.00     0.150 C 
ATOM     11  N   UNL A   1      32.956  27.475  23.359  1.00  0.00    -0.313 N 
ATOM     12  C   UNL A   1      33.454  26.306  22.811  1.00  0.00     0.327 C 
ATOM     13  C   UNL A   1      32.906  27.430  24.824  1.00  0.00     0.124 C 
ATOM     14  O   UNL A   1      33.664  26.113  21.623  1.00  0.00    -0.248 OA
ATOM     15  C   UNL A   1      33.511  26.022  25.031  1.00  0.00     0.257 C 
ATOM     16  C   UNL A   1      33.760  28.533  25.461  1.00  0.00     0.039 C 
ATOM     17  C   UNL A   1      31.464  27.430  25.350  1.00  0.00     0.039 C 
ATOM     18  O   UNL A   1      33.756  25.498  26.109  1.00  0.00    -0.272 OA
ATOM     19  C   UNL A   1      33.658  28.577  26.985  1.00  0.00     0.003 C 
ATOM     20  C   UNL A   1      31.393  27.446  26.877  1.00  0.00     0.003 C 
ATOM     21  C   UNL A   1      32.211  28.589  27.468  1.00  0.00     0.000 C 
ENDBRANCH   8   9
ENDBRANCH   6   8
ENDBRANCH   5   6
ENDBRANCH   4   5
ENDBRANCH   3   4
ENDBRANCH   2   3
ENDBRANCH   1   2
BRANCH   1  22
ATOM     22  C   UNL A   1      37.217  20.328  25.025  1.00  0.00     0.261 C 
BRANCH  22  23
ATOM     23  O   UNL A   1      38.247  21.337  25.053  1.00  0.00    -0.460 OA
BRANCH  23  24
ATOM     24  C   UNL A   1      39.226  21.110  25.956  1.00  0.00     0.338 C 
ATOM     25  O   UNL A   1      39.809  20.056  26.177  1.00  0.00    -0.246 OA
BRANCH  24  26
ATOM     26  C   UNL A   1      39.646  22.369  26.593  1.00  0.00     0.060 A 
ATOM     27  C   UNL A   1      39.061  23.554  26.133  1.00  0.00     0.016 A 
ATOM     28  C   UNL A   1      40.690  22.407  27.519  1.00  0.00     0.016 A 
ATOM     29  C   UNL A   1      39.563  24.786  26.548  1.00  0.00     0.010 A 
ATOM     30  C   UNL A   1      41.187  23.646  27.943  1.00  0.00     0.010 A 
ATOM     31  C   UNL A   1      40.661  24.841  27.419  1.00  0.00    -0.014 A 
BRANCH  31  32
ATOM     32  C   UNL A   1      41.359  26.137  27.620  1.00  0.00     0.031 A 
ATOM     33  C   UNL A   1      40.645  27.245  28.350  1.00  0.00     0.074 A 
ATOM     34  C   UNL A   1      42.630  26.313  27.217  1.00  0.00     0.049 A 
ATOM     35  N   UNL A   1      41.066  28.446  28.660  1.00  0.00    -0.248 NA
ATOM     36  C   UNL A   1      39.270  26.961  28.791  1.00  0.00     0.031 C 
ATOM     37  C   UNL A   1      43.443  25.314  26.531  1.00  0.00     0.029 A 
ATOM     38  N   UNL A   1      43.460  27.400  27.337  1.00  0.00    -0.354 N 
ATOM     39  C   UNL A   1      40.011  29.057  29.326  1.00  0.00     0.074 A 
ATOM     40  C   UNL A   1      38.918  28.110  29.346  1.00  0.00     0.031 C 
ATOM     41  C   UNL A   1      44.659  25.834  26.289  1.00  0.00     0.029 A 
ATOM     42  C   UNL A   1      44.702  27.208  26.786  1.00  0.00     0.049 A 
ATOM     43  H   UNL A   1      43.191  28.239  27.779  1.00  0.00     0.167 HD
ATOM     44  C   UNL A   1      39.962  30.290  29.885  1.00  0.00     0.037 A 
ATOM     45  C   UNL A   1      45.750  28.050  26.685  1.00  0.00     0.037 A 
ATOM     46  C   UNL A   1      41.050  31.230  29.882  1.00  0.00     0.049 A 
ATOM     47  C   UNL A   1      45.655  29.433  27.275  1.00  0.00     0.074 A 
ATOM     48  C   UNL A   1      41.099  32.495  30.442  1.00  0.00     0.029 A 
ATOM     49  N   UNL A   1      42.283  31.007  29.289  1.00  0.00    -0.354 N 
ATOM     50  N   UNL A   1      44.662  29.991  27.925  1.00  0.00    -0.248 NA
ATOM     51  C   UNL A   1      46.830  30.303  27.121  1.00  0.00     0.031 C 
ATOM     52  C   UNL A   1      42.349  33.054  30.153  1.00  0.00     0.029 A 
ATOM     53  C   UNL A   1      43.094  32.119  29.452  1.00  0.00     0.049 A 
ATOM     54  H   UNL A   1      42.544  30.180  28.823  1.00  0.00     0.167 HD
ATOM     55  C   UNL A   1      45.102  31.259  28.281  1.00  0.00     0.074 A 
ATOM     56  C   UNL A   1      46.455  31.388  27.784  1.00  0.00     0.031 C 
ATOM     57  C   UNL A   1      44.443  32.229  28.961  1.00  0.00     0.037 A 
BRANCH  44  58
ATOM     58  C   UNL A   1      38.674  30.701  30.535  1.00  0.00     0.064 A 
ATOM     59  C   UNL A   1      38.496  30.632  31.924  1.00  0.00     0.173 A 
ATOM     60  C   UNL A   1      37.618  31.204  29.761  1.00  0.00     0.173 A 
ATOM     61  F   UNL A   1      39.473  30.145  32.706  1.00  0.00    -0.203 F 
ATOM     62  C   UNL A   1      37.299  31.030  32.513  1.00  0.00     0.198 A 
ATOM     63  C   UNL A   1      36.431  31.624  30.356  1.00  0.00     0.198 A 
ATOM     64  F   UNL A   1      37.739  31.294  28.428  1.00  0.00    -0.203 F 
ATOM     65  F   UNL A   1      37.136  30.915  33.839  1.00  0.00    -0.200 F 
ATOM     66  C   UNL A   1      36.270  31.531  31.730  1.00  0.00     0.200 A 
ATOM     67  F   UNL A   1      35.442  32.117  29.598  1.00  0.00    -0.200 F 
ATOM     68  F   UNL A   1      35.120  31.917  32.298  1.00  0.00    -0.200 F 
ENDBRANCH  44  58
BRANCH  45  69
ATOM     69  C   UNL A   1      46.990  27.608  25.996  1.00  0.00     0.064 A 
ATOM     70  C   UNL A   1      47.121  27.707  24.604  1.00  0.00     0.173 A 
ATOM     71  C   UNL A   1      48.061  27.060  26.716  1.00  0.00     0.173 A 
ATOM     72  F   UNL A   1      46.111  28.199  23.871  1.00  0.00    -0.203 F 
ATOM     73  C   UNL A   1      48.271  27.261  23.957  1.00  0.00     0.198 A 
ATOM     74  C   UNL A   1      49.221  26.637  26.070  1.00  0.00     0.198 A 
ATOM     75  F   UNL A   1      47.982  26.939  28.049  1.00  0.00    -0.203 F 
ATOM     76  F   UNL A   1      48.352  27.327  22.621  1.00  0.00    -0.200 F 
ATOM     77  C   UNL A   1      49.321  26.731  24.690  1.00  0.00     0.200 A 
ATOM     78  F   UNL A   1      50.237  26.133  26.784  1.00  0.00    -0.200 F 
ATOM     79  F   UNL A   1      50.429  26.303  24.067  1.00  0.00    -0.200 F 
ENDBRANCH  45  69
BRANCH  57  80
ATOM     80  C   UNL A   1      45.184  33.504  29.239  1.00  0.00     0.064 A 
ATOM     81  C   UNL A   1      46.008  33.645  30.365  1.00  0.00     0.173 A 
ATOM     82  C   UNL A   1      45.105  34.582  28.343  1.00  0.00     0.173 A 
ATOM     83  F   UNL A   1      46.107  32.648  31.258  1.00  0.00    -0.203 F 
ATOM     84  C   UNL A   1      46.710  34.826  30.596  1.00  0.00     0.198 A 
ATOM     85  C   UNL A   1      45.827  35.751  28.563  1.00  0.00     0.198 A 
ATOM     86  F   UNL A   1      44.336  34.494  27.247  1.00  0.00    -0.203 F 
ATOM     87  F   UNL A   1      47.459  34.953  31.699  1.00  0.00    -0.200 F 
ATOM     88  C   UNL A   1      46.623  35.875  29.691  1.00  0.00     0.200 A 
ATOM     89  F   UNL A   1      45.752  36.759  27.683  1.00  0.00    -0.200 F 
ATOM     90  F   UNL A   1      47.304  37.008  29.912  1.00  0.00    -0.200 F 
ENDBRANCH  57  80
ENDBRANCH  31  32
ENDBRANCH  24  26
ENDBRANCH  23  24
ENDBRANCH  22  23
ENDBRANCH   1  22
TORSDOF 15
ENDMDL
MODEL 3
REMARK VINA RESULT:     -11.8      4.368      6.871
REMARK SMILES CN1C(=O)N(CC(=O)OCCOCCOC(=O)c2ccc(-c3c4nc(c(-c5c(F)c(F)c(F)c(F)c5F)c5ccc([nH]5)c(-c5c(F)c(F)c(F)c(F)c5F)c5nc(c(-c6c(F)c(F)c(F)c(F)c6F)c6ccc3[nH]6)C=C5)C=C4)cc2)C(=O)C12CCCCC2
REMARK SMILES IDX 13 1 12 2 11 3 10 4 9 5 7 6 8 7 6 8 5 9 1 10 2 11 3 12 83 13
REMARK SMILES IDX 4 14 81 15 84 16 88 17 82 18 85 19 87 20 86 21 14 22 15 23
REMARK SMILES IDX 16 24 17 25 18 26 19 27 80 28 20 29 79 30 21 31 22 32 23 33
REMARK SMILES IDX 73 34 24 35 78 36 72 37 74 38 25 39 77 40 71 41 70 42 26 44
REMARK SMILES IDX 58 45 38 46 57 47 39 48 42 49 56 50 75 51 40 52 41 53 55 55
REMARK SMILES IDX 76 56 43 57 27 58 28 59 36 60 29 61 30 62 34 63 37 64 31 65
REMARK SMILES IDX 32 66 35 67 33 68 59 69 60 70 68 71 61 72 62 73 66 74 69 75
REMARK SMILES IDX 63 76 64 77 67 78 65 79 44 80 45 81 53 82 46 83 47 84 51 85
REMARK SMILES IDX 54 86 48 87 49 88 52 89 50 90
REMARK H PARENT 74 43 42 54
REMARK Flexibility Score: inf
ROOT
ATOM      1  C   UNL A   1      43.094  21.469  26.149  1.00  0.00     0.202 C 
ENDROOT
BRANCH   1   2
ATOM      2  O   UNL A   1      41.904  20.783  25.748  1.00  0.00    -0.374 OA
BRANCH   2   3
ATOM      3  C   UNL A   1      40.826  20.773  26.684  1.00  0.00     0.202 C 
BRANCH   3   4
ATOM      4  C   UNL A   1      39.748  21.841  26.460  1.00  0.00     0.261 C 
BRANCH   4   5
ATOM      5  O   UNL A   1      38.702  21.372  25.584  1.00  0.00    -0.462 OA
BRANCH   5   6
ATOM      6  C   UNL A   1      37.560  22.119  25.576  1.00  0.00     0.326 C 
ATOM      7  O   UNL A   1      37.492  23.280  25.968  1.00  0.00    -0.250 OA
BRANCH   6   8
ATOM      8  C   UNL A   1      36.361  21.407  24.955  1.00  0.00     0.253 C 
BRANCH   8   9
ATOM      9  N   UNL A   1      35.236  22.263  24.647  1.00  0.00    -0.251 N 
ATOM     10  C   UNL A   1      33.427  24.552  22.515  1.00  0.00     0.150 C 
ATOM     11  N   UNL A   1      33.881  23.646  23.551  1.00  0.00    -0.313 N 
ATOM     12  C   UNL A   1      35.125  23.039  23.538  1.00  0.00     0.327 C 
ATOM     13  C   UNL A   1      33.113  23.324  24.758  1.00  0.00     0.124 C 
ATOM     14  O   UNL A   1      35.984  23.200  22.684  1.00  0.00    -0.248 OA
ATOM     15  C   UNL A   1      34.165  22.442  25.471  1.00  0.00     0.257 C 
ATOM     16  C   UNL A   1      32.759  24.579  25.564  1.00  0.00     0.039 C 
ATOM     17  C   UNL A   1      31.881  22.465  24.443  1.00  0.00     0.039 C 
ATOM     18  O   UNL A   1      34.051  21.948  26.584  1.00  0.00    -0.272 OA
ATOM     19  C   UNL A   1      31.878  24.293  26.779  1.00  0.00     0.003 C 
ATOM     20  C   UNL A   1      31.034  22.172  25.680  1.00  0.00     0.003 C 
ATOM     21  C   UNL A   1      30.658  23.449  26.424  1.00  0.00     0.000 C 
ENDBRANCH   8   9
ENDBRANCH   6   8
ENDBRANCH   5   6
ENDBRANCH   4   5
ENDBRANCH   3   4
ENDBRANCH   2   3
ENDBRANCH   1   2
BRANCH   1  22
ATOM     22  C   UNL A   1      43.853  22.166  25.014  1.00  0.00     0.261 C 
BRANCH  22  23
ATOM     23  O   UNL A   1      43.230  23.413  24.641  1.00  0.00    -0.460 OA
BRANCH  23  24
ATOM     24  C   UNL A   1      43.931  24.513  24.993  1.00  0.00     0.338 C 
ATOM     25  O   UNL A   1      45.046  24.844  24.609  1.00  0.00    -0.246 OA
BRANCH  24  26
ATOM     26  C   UNL A   1      43.112  25.403  25.831  1.00  0.00     0.060 A 
ATOM     27  C   UNL A   1      43.612  26.682  26.099  1.00  0.00     0.016 A 
ATOM     28  C   UNL A   1      41.948  24.952  26.457  1.00  0.00     0.016 A 
ATOM     29  C   UNL A   1      42.988  27.491  27.048  1.00  0.00     0.010 A 
ATOM     30  C   UNL A   1      41.316  25.770  27.403  1.00  0.00     0.010 A 
ATOM     31  C   UNL A   1      41.864  27.021  27.741  1.00  0.00    -0.014 A 
BRANCH  31  32
ATOM     32  C   UNL A   1      41.391  27.765  28.938  1.00  0.00     0.031 A 
ATOM     33  C   UNL A   1      42.160  27.638  30.227  1.00  0.00     0.074 A 
ATOM     34  C   UNL A   1      40.332  28.591  28.869  1.00  0.00     0.049 A 
ATOM     35  N   UNL A   1      41.946  28.211  31.385  1.00  0.00    -0.248 NA
ATOM     36  C   UNL A   1      43.329  26.744  30.209  1.00  0.00     0.031 C 
ATOM     37  C   UNL A   1      39.522  28.829  27.678  1.00  0.00     0.029 A 
ATOM     38  N   UNL A   1      39.761  29.389  29.831  1.00  0.00    -0.354 N 
ATOM     39  C   UNL A   1      42.947  27.747  32.228  1.00  0.00     0.074 A 
ATOM     40  C   UNL A   1      43.749  26.818  31.462  1.00  0.00     0.031 C 
ATOM     41  C   UNL A   1      38.557  29.714  27.978  1.00  0.00     0.029 A 
ATOM     42  C   UNL A   1      38.668  30.090  29.387  1.00  0.00     0.049 A 
ATOM     43  H   UNL A   1      40.104  29.452  30.752  1.00  0.00     0.167 HD
ATOM     44  C   UNL A   1      43.188  28.075  33.520  1.00  0.00     0.037 A 
ATOM     45  C   UNL A   1      37.847  30.931  30.045  1.00  0.00     0.037 A 
ATOM     46  C   UNL A   1      42.405  29.010  34.283  1.00  0.00     0.049 A 
ATOM     47  C   UNL A   1      38.109  31.246  31.496  1.00  0.00     0.074 A 
ATOM     48  C   UNL A   1      42.586  29.421  35.592  1.00  0.00     0.029 A 
ATOM     49  N   UNL A   1      41.290  29.679  33.804  1.00  0.00    -0.354 N 
ATOM     50  N   UNL A   1      39.073  30.821  32.275  1.00  0.00    -0.248 NA
ATOM     51  C   UNL A   1      37.168  32.163  32.156  1.00  0.00     0.031 C 
ATOM     52  C   UNL A   1      41.555  30.310  35.918  1.00  0.00     0.029 A 
ATOM     53  C   UNL A   1      40.759  30.486  34.798  1.00  0.00     0.049 A 
ATOM     54  H   UNL A   1      40.928  29.595  32.892  1.00  0.00     0.167 HD
ATOM     55  C   UNL A   1      38.873  31.439  33.503  1.00  0.00     0.074 A 
ATOM     56  C   UNL A   1      37.702  32.277  33.364  1.00  0.00     0.031 C 
ATOM     57  C   UNL A   1      39.598  31.323  34.643  1.00  0.00     0.037 A 
BRANCH  44  58
ATOM     58  C   UNL A   1      44.342  27.401  34.200  1.00  0.00     0.064 A 
ATOM     59  C   UNL A   1      44.187  26.187  34.885  1.00  0.00     0.173 A 
ATOM     60  C   UNL A   1      45.627  27.960  34.136  1.00  0.00     0.173 A 
ATOM     61  F   UNL A   1      42.975  25.620  34.985  1.00  0.00    -0.203 F 
ATOM     62  C   UNL A   1      45.272  25.568  35.500  1.00  0.00     0.198 A 
ATOM     63  C   UNL A   1      46.714  27.326  34.731  1.00  0.00     0.198 A 
ATOM     64  F   UNL A   1      45.830  29.118  33.490  1.00  0.00    -0.203 F 
ATOM     65  F   UNL A   1      45.092  24.430  36.185  1.00  0.00    -0.200 F 
ATOM     66  C   UNL A   1      46.535  26.134  35.418  1.00  0.00     0.200 A 
ATOM     67  F   UNL A   1      47.937  27.869  34.643  1.00  0.00    -0.200 F 
ATOM     68  F   UNL A   1      47.579  25.536  36.007  1.00  0.00    -0.200 F 
ENDBRANCH  44  58
BRANCH  45  69
ATOM     69  C   UNL A   1      36.693  31.543  29.337  1.00  0.00     0.064 A 
ATOM     70  C   UNL A   1      35.592  30.771  28.944  1.00  0.00     0.173 A 
ATOM     71  C   UNL A   1      36.678  32.910  29.024  1.00  0.00     0.173 A 
ATOM     72  F   UNL A   1      35.574  29.454  29.197  1.00  0.00    -0.203 F 
ATOM     73  C   UNL A   1      34.526  31.339  28.251  1.00  0.00     0.198 A 
ATOM     74  C   UNL A   1      35.600  33.483  28.353  1.00  0.00     0.198 A 
ATOM     75  F   UNL A   1      37.711  33.690  29.375  1.00  0.00    -0.203 F 
ATOM     76  F   UNL A   1      33.505  30.570  27.848  1.00  0.00    -0.200 F 
ATOM     77  C   UNL A   1      34.528  32.695  27.961  1.00  0.00     0.200 A 
ATOM     78  F   UNL A   1      35.604  34.795  28.082  1.00  0.00    -0.200 F 
ATOM     79  F   UNL A   1      33.502  33.243  27.294  1.00  0.00    -0.200 F 
ENDBRANCH  45  69
BRANCH  57  80
ATOM     80  C   UNL A   1      39.169  32.145  35.822  1.00  0.00     0.064 A 
ATOM     81  C   UNL A   1      38.333  31.622  36.819  1.00  0.00     0.173 A 
ATOM     82  C   UNL A   1      39.637  33.459  35.980  1.00  0.00     0.173 A 
ATOM     83  F   UNL A   1      37.848  30.376  36.707  1.00  0.00    -0.203 F 
ATOM     84  C   UNL A   1      37.964  32.391  37.920  1.00  0.00     0.198 A 
ATOM     85  C   UNL A   1      39.288  34.216  37.094  1.00  0.00     0.198 A 
ATOM     86  F   UNL A   1      40.446  34.003  35.057  1.00  0.00    -0.203 F 
ATOM     87  F   UNL A   1      37.132  31.885  38.840  1.00  0.00    -0.200 F 
ATOM     88  C   UNL A   1      38.447  33.684  38.060  1.00  0.00     0.200 A 
ATOM     89  F   UNL A   1      39.764  35.461  37.234  1.00  0.00    -0.200 F 
ATOM     90  F   UNL A   1      38.096  34.420  39.124  1.00  0.00    -0.200 F 
ENDBRANCH  57  80
ENDBRANCH  31  32
ENDBRANCH  24  26
ENDBRANCH  23  24
ENDBRANCH  22  23
ENDBRANCH   1  22
TORSDOF 15
ENDMDL
