MODEL 1
REMARK VINA RESULT:     -10.9      0.000      0.000
REMARK SMILES CC(C)CC[C@@]1(CC(=O)OCCOCCOC(=O)c2ccc(-c3c4nc(c(-c5c(F)c(F)c(F)c(F)c5F)c5ccc([nH]5)c(-c5c(F)c(F)c(F)c(F)c5F)c5nc(c(-c6c(F)c(F)c(F)c(F)c6F)c6ccc3[nH]6)C=C5)C=C4)cc2)CCOC(C)(C)C1
REMARK SMILES IDX 12 1 11 2 10 3 8 4 9 5 7 6 6 7 82 8 88 9 83 10 85 11 84 12
REMARK SMILES IDX 86 13 87 14 5 15 4 16 2 17 1 18 3 19 13 20 14 21 15 22 16 23
REMARK SMILES IDX 17 24 18 25 19 26 20 27 81 28 21 29 80 30 22 31 23 32 24 33
REMARK SMILES IDX 74 34 25 35 79 36 73 37 75 38 26 39 78 40 72 41 71 42 27 44
REMARK SMILES IDX 59 45 39 46 58 47 40 48 43 49 57 50 76 51 41 52 42 53 56 55
REMARK SMILES IDX 77 56 44 57 28 58 29 59 37 60 30 61 31 62 35 63 38 64 32 65
REMARK SMILES IDX 33 66 36 67 34 68 60 69 61 70 69 71 62 72 63 73 67 74 70 75
REMARK SMILES IDX 64 76 65 77 68 78 66 79 45 80 46 81 54 82 47 83 48 84 52 85
REMARK SMILES IDX 55 86 49 87 50 88 53 89 51 90
REMARK H PARENT 75 43 43 54
REMARK Flexibility Score: inf
ROOT
ATOM      1  C   UNL A   1      31.192  29.138  24.195  1.00  0.00     0.202 C 
ENDROOT
BRANCH   1   2
ATOM      2  C   UNL A   1      31.778  27.723  24.176  1.00  0.00     0.261 C 
BRANCH   2   3
ATOM      3  O   UNL A   1      32.126  27.253  22.857  1.00  0.00    -0.463 OA
BRANCH   3   4
ATOM      4  C   UNL A   1      33.266  26.524  22.786  1.00  0.00     0.306 C 
ATOM      5  O   UNL A   1      33.819  26.209  21.734  1.00  0.00    -0.252 OA
BRANCH   4   6
ATOM      6  C   UNL A   1      33.834  26.046  24.113  1.00  0.00     0.130 C 
BRANCH   6   7
ATOM      7  C   UNL A   1      34.058  24.529  24.514  1.00  0.00    -0.014 C 
ATOM      8  C   UNL A   1      33.714  24.508  26.032  1.00  0.00     0.036 C 
ATOM      9  C   UNL A   1      35.553  24.146  24.349  1.00  0.00     0.042 C 
ATOM     10  C   UNL A   1      34.204  23.274  26.745  1.00  0.00     0.161 C 
ATOM     11  C   UNL A   1      36.205  23.170  25.375  1.00  0.00     0.063 C 
ATOM     12  O   UNL A   1      35.615  23.200  26.675  1.00  0.00    -0.376 OA
ATOM     13  C   UNL A   1      36.302  21.728  24.862  1.00  0.00     0.042 C 
ATOM     14  C   UNL A   1      37.657  23.626  25.636  1.00  0.00     0.042 C 
BRANCH   7  15
ATOM     15  C   UNL A   1      32.978  23.683  23.723  1.00  0.00     0.008 C 
BRANCH  15  16
ATOM     16  C   UNL A   1      33.164  22.215  23.295  1.00  0.00     0.003 C 
BRANCH  16  17
ATOM     17  C   UNL A   1      32.354  21.113  24.010  1.00  0.00    -0.017 C 
ATOM     18  C   UNL A   1      33.219  20.001  24.602  1.00  0.00     0.007 C 
ATOM     19  C   UNL A   1      31.493  21.723  25.125  1.00  0.00     0.007 C 
ENDBRANCH  16  17
ENDBRANCH  15  16
ENDBRANCH   7  15
ENDBRANCH   6   7
ENDBRANCH   4   6
ENDBRANCH   3   4
ENDBRANCH   2   3
ENDBRANCH   1   2
BRANCH   1  20
ATOM     20  O   UNL A   1      31.647  29.994  25.239  1.00  0.00    -0.374 OA
BRANCH  20  21
ATOM     21  C   UNL A   1      30.848  31.139  25.541  1.00  0.00     0.202 C 
BRANCH  21  22
ATOM     22  C   UNL A   1      31.414  32.070  26.617  1.00  0.00     0.261 C 
BRANCH  22  23
ATOM     23  O   UNL A   1      32.687  31.600  27.106  1.00  0.00    -0.460 OA
BRANCH  23  24
ATOM     24  C   UNL A   1      33.485  32.584  27.580  1.00  0.00     0.338 C 
ATOM     25  O   UNL A   1      33.163  33.724  27.868  1.00  0.00    -0.246 OA
BRANCH  24  26
ATOM     26  C   UNL A   1      34.833  32.061  27.864  1.00  0.00     0.060 A 
ATOM     27  C   UNL A   1      34.980  30.678  28.014  1.00  0.00     0.016 A 
ATOM     28  C   UNL A   1      35.890  32.924  28.152  1.00  0.00     0.016 A 
ATOM     29  C   UNL A   1      36.175  30.156  28.514  1.00  0.00     0.010 A 
ATOM     30  C   UNL A   1      37.091  32.397  28.648  1.00  0.00     0.010 A 
ATOM     31  C   UNL A   1      37.224  31.015  28.877  1.00  0.00    -0.014 A 
BRANCH  31  32
ATOM     32  C   UNL A   1      38.385  30.470  29.629  1.00  0.00     0.031 A 
ATOM     33  C   UNL A   1      38.595  30.874  31.064  1.00  0.00     0.074 A 
ATOM     34  C   UNL A   1      39.219  29.579  29.060  1.00  0.00     0.049 A 
ATOM     35  N   UNL A   1      39.520  30.493  31.909  1.00  0.00    -0.248 NA
ATOM     36  C   UNL A   1      37.634  31.838  31.622  1.00  0.00     0.031 C 
ATOM     37  C   UNL A   1      39.116  29.085  27.690  1.00  0.00     0.029 A 
ATOM     38  N   UNL A   1      40.315  28.930  29.572  1.00  0.00    -0.354 N 
ATOM     39  C   UNL A   1      39.253  31.168  33.095  1.00  0.00     0.074 A 
ATOM     40  C   UNL A   1      38.102  32.009  32.851  1.00  0.00     0.031 C 
ATOM     41  C   UNL A   1      40.110  28.207  27.468  1.00  0.00     0.029 A 
ATOM     42  C   UNL A   1      40.930  28.093  28.673  1.00  0.00     0.049 A 
ATOM     43  H   UNL A   1      40.632  29.053  30.497  1.00  0.00     0.167 HD
ATOM     44  C   UNL A   1      39.899  31.083  34.283  1.00  0.00     0.037 A 
ATOM     45  C   UNL A   1      42.032  27.329  28.806  1.00  0.00     0.037 A 
ATOM     46  C   UNL A   1      41.039  30.241  34.537  1.00  0.00     0.049 A 
ATOM     47  C   UNL A   1      42.762  27.291  30.124  1.00  0.00     0.074 A 
ATOM     48  C   UNL A   1      41.738  30.069  35.720  1.00  0.00     0.029 A 
ATOM     49  N   UNL A   1      41.649  29.433  33.592  1.00  0.00    -0.354 N 
ATOM     50  N   UNL A   1      42.475  27.902  31.247  1.00  0.00    -0.248 NA
ATOM     51  C   UNL A   1      43.967  26.451  30.191  1.00  0.00     0.031 C 
ATOM     52  C   UNL A   1      42.797  29.188  35.479  1.00  0.00     0.029 A 
ATOM     53  C   UNL A   1      42.732  28.779  34.157  1.00  0.00     0.049 A 
ATOM     54  H   UNL A   1      41.357  29.339  32.656  1.00  0.00     0.167 HD
ATOM     55  C   UNL A   1      43.445  27.502  32.158  1.00  0.00     0.074 A 
ATOM     56  C   UNL A   1      44.322  26.586  31.461  1.00  0.00     0.031 C 
ATOM     57  C   UNL A   1      43.594  27.864  33.456  1.00  0.00     0.037 A 
BRANCH  44  58
ATOM     58  C   UNL A   1      39.394  31.938  35.408  1.00  0.00     0.064 A 
ATOM     59  C   UNL A   1      38.500  31.437  36.366  1.00  0.00     0.173 A 
ATOM     60  C   UNL A   1      39.846  33.258  35.557  1.00  0.00     0.173 A 
ATOM     61  F   UNL A   1      38.031  30.185  36.261  1.00  0.00    -0.203 F 
ATOM     62  C   UNL A   1      38.061  32.233  37.420  1.00  0.00     0.198 A 
ATOM     63  C   UNL A   1      39.425  34.043  36.625  1.00  0.00     0.198 A 
ATOM     64  F   UNL A   1      40.707  33.782  34.670  1.00  0.00    -0.203 F 
ATOM     65  F   UNL A   1      37.179  31.747  38.304  1.00  0.00    -0.200 F 
ATOM     66  C   UNL A   1      38.529  33.533  37.553  1.00  0.00     0.200 A 
ATOM     67  F   UNL A   1      39.886  35.295  36.759  1.00  0.00    -0.200 F 
ATOM     68  F   UNL A   1      38.111  34.296  38.573  1.00  0.00    -0.200 F 
ENDBRANCH  44  58
BRANCH  45  69
ATOM     69  C   UNL A   1      42.520  26.528  27.653  1.00  0.00     0.064 A 
ATOM     70  C   UNL A   1      42.041  25.232  27.419  1.00  0.00     0.173 A 
ATOM     71  C   UNL A   1      43.488  27.038  26.776  1.00  0.00     0.173 A 
ATOM     72  F   UNL A   1      41.135  24.693  28.247  1.00  0.00    -0.203 F 
ATOM     73  C   UNL A   1      42.526  24.468  26.358  1.00  0.00     0.198 A 
ATOM     74  C   UNL A   1      43.953  26.282  25.702  1.00  0.00     0.198 A 
ATOM     75  F   UNL A   1      43.979  28.271  26.961  1.00  0.00    -0.203 F 
ATOM     76  F   UNL A   1      42.085  23.216  26.182  1.00  0.00    -0.200 F 
ATOM     77  C   UNL A   1      43.477  24.997  25.497  1.00  0.00     0.200 A 
ATOM     78  F   UNL A   1      44.865  26.800  24.867  1.00  0.00    -0.200 F 
ATOM     79  F   UNL A   1      43.942  24.262  24.478  1.00  0.00    -0.200 F 
ENDBRANCH  45  69
BRANCH  57  80
ATOM     80  C   UNL A   1      44.731  27.249  34.218  1.00  0.00     0.064 A 
ATOM     81  C   UNL A   1      45.979  27.883  34.314  1.00  0.00     0.173 A 
ATOM     82  C   UNL A   1      44.558  26.033  34.896  1.00  0.00     0.173 A 
ATOM     83  F   UNL A   1      46.198  29.040  33.671  1.00  0.00    -0.203 F 
ATOM     84  C   UNL A   1      47.017  27.312  35.044  1.00  0.00     0.198 A 
ATOM     85  C   UNL A   1      45.592  25.478  35.647  1.00  0.00     0.198 A 
ATOM     86  F   UNL A   1      43.382  25.390  34.842  1.00  0.00    -0.203 F 
ATOM     87  F   UNL A   1      48.213  27.916  35.088  1.00  0.00    -0.200 F 
ATOM     88  C   UNL A   1      46.822  26.114  35.715  1.00  0.00     0.200 A 
ATOM     89  F   UNL A   1      45.397  24.326  36.304  1.00  0.00    -0.200 F 
ATOM     90  F   UNL A   1      47.821  25.569  36.422  1.00  0.00    -0.200 F 
ENDBRANCH  57  80
ENDBRANCH  31  32
ENDBRANCH  24  26
ENDBRANCH  23  24
ENDBRANCH  22  23
ENDBRANCH  21  22
ENDBRANCH  20  21
ENDBRANCH   1  20
TORSDOF 18
ENDMDL
MODEL 2
REMARK VINA RESULT:     -10.5      0.994      2.104
REMARK SMILES CC(C)CC[C@@]1(CC(=O)OCCOCCOC(=O)c2ccc(-c3c4nc(c(-c5c(F)c(F)c(F)c(F)c5F)c5ccc([nH]5)c(-c5c(F)c(F)c(F)c(F)c5F)c5nc(c(-c6c(F)c(F)c(F)c(F)c6F)c6ccc3[nH]6)C=C5)C=C4)cc2)CCOC(C)(C)C1
REMARK SMILES IDX 12 1 11 2 10 3 8 4 9 5 7 6 6 7 82 8 88 9 83 10 85 11 84 12
REMARK SMILES IDX 86 13 87 14 5 15 4 16 2 17 1 18 3 19 13 20 14 21 15 22 16 23
REMARK SMILES IDX 17 24 18 25 19 26 20 27 81 28 21 29 80 30 22 31 23 32 24 33
REMARK SMILES IDX 74 34 25 35 79 36 73 37 75 38 26 39 78 40 72 41 71 42 27 44
REMARK SMILES IDX 59 45 39 46 58 47 40 48 43 49 57 50 76 51 41 52 42 53 56 55
REMARK SMILES IDX 77 56 44 57 28 58 29 59 37 60 30 61 31 62 35 63 38 64 32 65
REMARK SMILES IDX 33 66 36 67 34 68 60 69 61 70 69 71 62 72 63 73 67 74 70 75
REMARK SMILES IDX 64 76 65 77 68 78 66 79 45 80 46 81 54 82 47 83 48 84 52 85
REMARK SMILES IDX 55 86 49 87 50 88 53 89 51 90
REMARK H PARENT 75 43 43 54
REMARK Flexibility Score: inf
ROOT
ATOM      1  C   UNL A   1      30.592  29.746  23.928  1.00  0.00     0.202 C 
ENDROOT
BRANCH   1   2
ATOM      2  C   UNL A   1      31.292  28.533  23.308  1.00  0.00     0.261 C 
BRANCH   2   3
ATOM      3  O   UNL A   1      32.702  28.731  23.068  1.00  0.00    -0.463 OA
BRANCH   3   4
ATOM      4  C   UNL A   1      33.527  27.955  23.810  1.00  0.00     0.306 C 
ATOM      5  O   UNL A   1      34.118  28.342  24.816  1.00  0.00    -0.252 OA
BRANCH   4   6
ATOM      6  C   UNL A   1      33.746  26.539  23.301  1.00  0.00     0.130 C 
BRANCH   6   7
ATOM      7  C   UNL A   1      33.268  25.221  24.041  1.00  0.00    -0.014 C 
ATOM      8  C   UNL A   1      32.435  24.484  22.951  1.00  0.00     0.036 C 
ATOM      9  C   UNL A   1      32.322  25.580  25.217  1.00  0.00     0.042 C 
ATOM     10  C   UNL A   1      31.556  23.391  23.501  1.00  0.00     0.161 C 
ATOM     11  C   UNL A   1      31.112  24.647  25.530  1.00  0.00     0.063 C 
ATOM     12  O   UNL A   1      30.608  23.935  24.399  1.00  0.00    -0.376 OA
ATOM     13  C   UNL A   1      31.373  23.687  26.697  1.00  0.00     0.042 C 
ATOM     14  C   UNL A   1      29.913  25.521  25.960  1.00  0.00     0.042 C 
BRANCH   7  15
ATOM     15  C   UNL A   1      34.571  24.379  24.360  1.00  0.00     0.008 C 
BRANCH  15  16
ATOM     16  C   UNL A   1      35.043  24.008  25.778  1.00  0.00     0.003 C 
BRANCH  16  17
ATOM     17  C   UNL A   1      35.135  22.520  26.177  1.00  0.00    -0.017 C 
ATOM     18  C   UNL A   1      34.332  22.169  27.429  1.00  0.00     0.007 C 
ATOM     19  C   UNL A   1      34.670  21.627  25.018  1.00  0.00     0.007 C 
ENDBRANCH  16  17
ENDBRANCH  15  16
ENDBRANCH   7  15
ENDBRANCH   6   7
ENDBRANCH   4   6
ENDBRANCH   3   4
ENDBRANCH   2   3
ENDBRANCH   1   2
BRANCH   1  20
ATOM     20  O   UNL A   1      31.120  30.212  25.166  1.00  0.00    -0.374 OA
BRANCH  20  21
ATOM     21  C   UNL A   1      30.845  31.567  25.526  1.00  0.00     0.202 C 
BRANCH  21  22
ATOM     22  C   UNL A   1      31.366  32.001  26.899  1.00  0.00     0.261 C 
BRANCH  22  23
ATOM     23  O   UNL A   1      32.733  31.590  27.100  1.00  0.00    -0.460 OA
BRANCH  23  24
ATOM     24  C   UNL A   1      33.524  32.560  27.613  1.00  0.00     0.338 C 
ATOM     25  O   UNL A   1      33.194  33.687  27.941  1.00  0.00    -0.246 OA
BRANCH  24  26
ATOM     26  C   UNL A   1      34.873  32.033  27.885  1.00  0.00     0.060 A 
ATOM     27  C   UNL A   1      35.018  30.650  28.037  1.00  0.00     0.016 A 
ATOM     28  C   UNL A   1      35.935  32.894  28.161  1.00  0.00     0.016 A 
ATOM     29  C   UNL A   1      36.216  30.126  28.526  1.00  0.00     0.010 A 
ATOM     30  C   UNL A   1      37.139  32.365  28.647  1.00  0.00     0.010 A 
ATOM     31  C   UNL A   1      37.271  30.982  28.877  1.00  0.00    -0.014 A 
BRANCH  31  32
ATOM     32  C   UNL A   1      38.438  30.435  29.618  1.00  0.00     0.031 A 
ATOM     33  C   UNL A   1      38.668  30.850  31.047  1.00  0.00     0.074 A 
ATOM     34  C   UNL A   1      39.258  29.535  29.046  1.00  0.00     0.049 A 
ATOM     35  N   UNL A   1      39.601  30.469  31.884  1.00  0.00    -0.248 NA
ATOM     36  C   UNL A   1      37.720  31.824  31.610  1.00  0.00     0.031 C 
ATOM     37  C   UNL A   1      39.135  29.031  27.681  1.00  0.00     0.029 A 
ATOM     38  N   UNL A   1      40.357  28.883  29.550  1.00  0.00    -0.354 N 
ATOM     39  C   UNL A   1      39.354  31.155  33.068  1.00  0.00     0.074 A 
ATOM     40  C   UNL A   1      38.204  32.001  32.832  1.00  0.00     0.031 C 
ATOM     41  C   UNL A   1      40.121  28.145  27.454  1.00  0.00     0.029 A 
ATOM     42  C   UNL A   1      40.955  28.035  28.649  1.00  0.00     0.049 A 
ATOM     43  H   UNL A   1      40.686  29.011  30.469  1.00  0.00     0.167 HD
ATOM     44  C   UNL A   1      40.014  31.075  34.249  1.00  0.00     0.037 A 
ATOM     45  C   UNL A   1      42.053  27.265  28.774  1.00  0.00     0.037 A 
ATOM     46  C   UNL A   1      41.151  30.227  34.495  1.00  0.00     0.049 A 
ATOM     47  C   UNL A   1      42.800  27.233  30.084  1.00  0.00     0.074 A 
ATOM     48  C   UNL A   1      41.864  30.059  35.670  1.00  0.00     0.029 A 
ATOM     49  N   UNL A   1      41.744  29.408  33.548  1.00  0.00    -0.354 N 
ATOM     50  N   UNL A   1      42.530  27.854  31.205  1.00  0.00    -0.248 NA
ATOM     51  C   UNL A   1      44.000  26.385  30.142  1.00  0.00     0.031 C 
ATOM     52  C   UNL A   1      42.914  29.170  35.423  1.00  0.00     0.029 A 
ATOM     53  C   UNL A   1      42.830  28.751  34.105  1.00  0.00     0.049 A 
ATOM     54  H   UNL A   1      41.440  29.309  32.617  1.00  0.00     0.167 HD
ATOM     55  C   UNL A   1      43.509  27.455  32.107  1.00  0.00     0.074 A 
ATOM     56  C   UNL A   1      44.371  26.527  31.407  1.00  0.00     0.031 C 
ATOM     57  C   UNL A   1      43.677  27.825  33.401  1.00  0.00     0.037 A 
BRANCH  44  58
ATOM     58  C   UNL A   1      39.528  31.942  35.373  1.00  0.00     0.064 A 
ATOM     59  C   UNL A   1      39.953  33.271  35.512  1.00  0.00     0.173 A 
ATOM     60  C   UNL A   1      38.588  31.452  36.293  1.00  0.00     0.173 A 
ATOM     61  F   UNL A   1      40.858  33.781  34.664  1.00  0.00    -0.203 F 
ATOM     62  C   UNL A   1      39.472  34.072  36.544  1.00  0.00     0.198 A 
ATOM     63  C   UNL A   1      38.091  32.263  37.309  1.00  0.00     0.198 A 
ATOM     64  F   UNL A   1      38.144  30.189  36.199  1.00  0.00    -0.203 F 
ATOM     65  F   UNL A   1      39.920  35.327  36.680  1.00  0.00    -0.200 F 
ATOM     66  C   UNL A   1      38.536  33.570  37.437  1.00  0.00     0.200 A 
ATOM     67  F   UNL A   1      37.178  31.780  38.164  1.00  0.00    -0.200 F 
ATOM     68  F   UNL A   1      38.069  34.344  38.426  1.00  0.00    -0.200 F 
ENDBRANCH  44  58
BRANCH  45  69
ATOM     69  C   UNL A   1      42.522  26.452  27.622  1.00  0.00     0.064 A 
ATOM     70  C   UNL A   1      42.016  25.166  27.391  1.00  0.00     0.173 A 
ATOM     71  C   UNL A   1      43.498  26.940  26.742  1.00  0.00     0.173 A 
ATOM     72  F   UNL A   1      41.101  24.647  28.223  1.00  0.00    -0.203 F 
ATOM     73  C   UNL A   1      42.482  24.390  26.331  1.00  0.00     0.198 A 
ATOM     74  C   UNL A   1      43.944  26.173  25.667  1.00  0.00     0.198 A 
ATOM     75  F   UNL A   1      44.015  28.163  26.923  1.00  0.00    -0.203 F 
ATOM     76  F   UNL A   1      42.015  23.147  26.158  1.00  0.00    -0.200 F 
ATOM     77  C   UNL A   1      43.442  24.897  25.467  1.00  0.00     0.200 A 
ATOM     78  F   UNL A   1      44.865  26.670  24.830  1.00  0.00    -0.200 F 
ATOM     79  F   UNL A   1      43.888  24.151  24.447  1.00  0.00    -0.200 F 
ENDBRANCH  45  69
BRANCH  57  80
ATOM     80  C   UNL A   1      44.820  27.209  34.153  1.00  0.00     0.064 A 
ATOM     81  C   UNL A   1      46.073  27.836  34.229  1.00  0.00     0.173 A 
ATOM     82  C   UNL A   1      44.647  26.000  34.843  1.00  0.00     0.173 A 
ATOM     83  F   UNL A   1      46.292  28.986  33.573  1.00  0.00    -0.203 F 
ATOM     84  C   UNL A   1      47.117  27.263  34.950  1.00  0.00     0.198 A 
ATOM     85  C   UNL A   1      45.687  25.443  35.585  1.00  0.00     0.198 A 
ATOM     86  F   UNL A   1      43.467  25.364  34.809  1.00  0.00    -0.203 F 
ATOM     87  F   UNL A   1      48.317  27.859  34.974  1.00  0.00    -0.200 F 
ATOM     88  C   UNL A   1      46.922  26.072  35.633  1.00  0.00     0.200 A 
ATOM     89  F   UNL A   1      45.493  24.298  36.254  1.00  0.00    -0.200 F 
ATOM     90  F   UNL A   1      47.926  25.526  36.332  1.00  0.00    -0.200 F 
ENDBRANCH  57  80
ENDBRANCH  31  32
ENDBRANCH  24  26
ENDBRANCH  23  24
ENDBRANCH  22  23
ENDBRANCH  21  22
ENDBRANCH  20  21
ENDBRANCH   1  20
TORSDOF 18
ENDMDL
MODEL 3
REMARK VINA RESULT:     -10.4      1.815      3.364
REMARK SMILES CC(C)CC[C@@]1(CC(=O)OCCOCCOC(=O)c2ccc(-c3c4nc(c(-c5c(F)c(F)c(F)c(F)c5F)c5ccc([nH]5)c(-c5c(F)c(F)c(F)c(F)c5F)c5nc(c(-c6c(F)c(F)c(F)c(F)c6F)c6ccc3[nH]6)C=C5)C=C4)cc2)CCOC(C)(C)C1
REMARK SMILES IDX 12 1 11 2 10 3 8 4 9 5 7 6 6 7 82 8 88 9 83 10 85 11 84 12
REMARK SMILES IDX 86 13 87 14 5 15 4 16 2 17 1 18 3 19 13 20 14 21 15 22 16 23
REMARK SMILES IDX 17 24 18 25 19 26 20 27 81 28 21 29 80 30 22 31 23 32 24 33
REMARK SMILES IDX 74 34 25 35 79 36 73 37 75 38 26 39 78 40 72 41 71 42 27 44
REMARK SMILES IDX 59 45 39 46 58 47 40 48 43 49 57 50 76 51 41 52 42 53 56 55
REMARK SMILES IDX 77 56 44 57 28 58 29 59 37 60 30 61 31 62 35 63 38 64 32 65
REMARK SMILES IDX 33 66 36 67 34 68 60 69 61 70 69 71 62 72 63 73 67 74 70 75
REMARK SMILES IDX 64 76 65 77 68 78 66 79 45 80 46 81 54 82 47 83 48 84 52 85
REMARK SMILES IDX 55 86 49 87 50 88 53 89 51 90
REMARK H PARENT 75 43 43 54
REMARK Flexibility Score: inf
ROOT
ATOM      1  C   UNL A   1      33.049  30.924  27.270  1.00  0.00     0.202 C 
ENDROOT
BRANCH   1   2
ATOM      2  C   UNL A   1      33.517  29.674  26.517  1.00  0.00     0.261 C 
BRANCH   2   3
ATOM      3  O   UNL A   1      33.516  28.474  27.320  1.00  0.00    -0.463 OA
BRANCH   3   4
ATOM      4  C   UNL A   1      32.407  27.705  27.204  1.00  0.00     0.306 C 
ATOM      5  O   UNL A   1      31.361  27.906  27.817  1.00  0.00    -0.252 OA
BRANCH   4   6
ATOM      6  C   UNL A   1      32.527  26.499  26.285  1.00  0.00     0.130 C 
BRANCH   6   7
ATOM      7  C   UNL A   1      31.992  26.433  24.794  1.00  0.00    -0.014 C 
ATOM      8  C   UNL A   1      30.802  25.433  24.887  1.00  0.00     0.036 C 
ATOM      9  C   UNL A   1      33.072  25.820  23.864  1.00  0.00     0.042 C 
ATOM     10  C   UNL A   1      30.356  24.901  23.550  1.00  0.00     0.161 C 
ATOM     11  C   UNL A   1      32.628  24.887  22.697  1.00  0.00     0.063 C 
ATOM     12  O   UNL A   1      31.408  24.183  22.936  1.00  0.00    -0.376 OA
ATOM     13  C   UNL A   1      32.583  25.595  21.338  1.00  0.00     0.042 C 
ATOM     14  C   UNL A   1      33.666  23.753  22.550  1.00  0.00     0.042 C 
BRANCH   7  15
ATOM     15  C   UNL A   1      31.435  27.874  24.445  1.00  0.00     0.008 C 
BRANCH  15  16
ATOM     16  C   UNL A   1      31.355  28.455  23.021  1.00  0.00     0.003 C 
BRANCH  16  17
ATOM     17  C   UNL A   1      29.977  28.597  22.342  1.00  0.00    -0.017 C 
ATOM     18  C   UNL A   1      28.810  28.141  23.218  1.00  0.00     0.007 C 
ATOM     19  C   UNL A   1      29.740  30.053  21.913  1.00  0.00     0.007 C 
ENDBRANCH  16  17
ENDBRANCH  15  16
ENDBRANCH   7  15
ENDBRANCH   6   7
ENDBRANCH   4   6
ENDBRANCH   3   4
ENDBRANCH   2   3
ENDBRANCH   1   2
BRANCH   1  20
ATOM     20  O   UNL A   1      31.768  31.433  26.909  1.00  0.00    -0.374 OA
BRANCH  20  21
ATOM     21  C   UNL A   1      31.656  32.843  26.715  1.00  0.00     0.202 C 
BRANCH  21  22
ATOM     22  C   UNL A   1      32.807  33.678  27.282  1.00  0.00     0.261 C 
BRANCH  22  23
ATOM     23  O   UNL A   1      32.445  34.300  28.531  1.00  0.00    -0.460 OA
BRANCH  23  24
ATOM     24  C   UNL A   1      33.476  34.918  29.151  1.00  0.00     0.338 C 
ATOM     25  O   UNL A   1      33.484  36.037  29.638  1.00  0.00    -0.246 OA
BRANCH  24  26
ATOM     26  C   UNL A   1      34.609  33.991  29.313  1.00  0.00     0.060 A 
ATOM     27  C   UNL A   1      34.405  32.833  30.072  1.00  0.00     0.016 A 
ATOM     28  C   UNL A   1      35.889  34.340  28.881  1.00  0.00     0.016 A 
ATOM     29  C   UNL A   1      35.496  32.049  30.452  1.00  0.00     0.010 A 
ATOM     30  C   UNL A   1      36.982  33.549  29.259  1.00  0.00     0.010 A 
ATOM     31  C   UNL A   1      36.797  32.425  30.086  1.00  0.00    -0.014 A 
BRANCH  31  32
ATOM     32  C   UNL A   1      37.957  31.724  30.698  1.00  0.00     0.031 A 
ATOM     33  C   UNL A   1      38.344  32.033  32.120  1.00  0.00     0.074 A 
ATOM     34  C   UNL A   1      38.631  30.780  30.016  1.00  0.00     0.049 A 
ATOM     35  N   UNL A   1      39.297  31.515  32.855  1.00  0.00    -0.248 NA
ATOM     36  C   UNL A   1      37.551  33.064  32.808  1.00  0.00     0.031 C 
ATOM     37  C   UNL A   1      38.347  30.368  28.644  1.00  0.00     0.029 A 
ATOM     38  N   UNL A   1      39.693  29.995  30.392  1.00  0.00    -0.354 N 
ATOM     39  C   UNL A   1      39.218  32.155  34.086  1.00  0.00     0.074 A 
ATOM     40  C   UNL A   1      38.147  33.123  33.990  1.00  0.00     0.031 C 
ATOM     41  C   UNL A   1      39.214  29.402  28.291  1.00  0.00     0.029 A 
ATOM     42  C   UNL A   1      40.125  29.144  29.404  1.00  0.00     0.049 A 
ATOM     43  H   UNL A   1      40.107  30.038  31.285  1.00  0.00     0.167 HD
ATOM     44  C   UNL A   1      39.959  31.944  35.201  1.00  0.00     0.037 A 
ATOM     45  C   UNL A   1      41.145  28.262  29.398  1.00  0.00     0.037 A 
ATOM     46  C   UNL A   1      41.018  30.975  35.309  1.00  0.00     0.049 A 
ATOM     47  C   UNL A   1      41.987  28.082  30.635  1.00  0.00     0.074 A 
ATOM     48  C   UNL A   1      41.802  30.672  36.409  1.00  0.00     0.029 A 
ATOM     49  N   UNL A   1      41.445  30.155  34.277  1.00  0.00    -0.354 N 
ATOM     50  N   UNL A   1      41.875  28.664  31.804  1.00  0.00    -0.248 NA
ATOM     51  C   UNL A   1      43.093  27.118  30.550  1.00  0.00     0.031 C 
ATOM     52  C   UNL A   1      42.731  29.698  36.031  1.00  0.00     0.029 A 
ATOM     53  C   UNL A   1      42.498  29.363  34.707  1.00  0.00     0.049 A 
ATOM     54  H   UNL A   1      41.058  30.138  33.372  1.00  0.00     0.167 HD
ATOM     55  C   UNL A   1      42.876  28.119  32.599  1.00  0.00     0.074 A 
ATOM     56  C   UNL A   1      43.578  27.152  31.784  1.00  0.00     0.031 C 
ATOM     57  C   UNL A   1      43.185  28.398  33.889  1.00  0.00     0.037 A 
BRANCH  44  58
ATOM     58  C   UNL A   1      39.658  32.791  36.403  1.00  0.00     0.064 A 
ATOM     59  C   UNL A   1      40.366  33.973  36.665  1.00  0.00     0.173 A 
ATOM     60  C   UNL A   1      38.616  32.440  37.276  1.00  0.00     0.173 A 
ATOM     61  F   UNL A   1      41.377  34.344  35.865  1.00  0.00    -0.203 F 
ATOM     62  C   UNL A   1      40.057  34.763  37.768  1.00  0.00     0.198 A 
ATOM     63  C   UNL A   1      38.294  33.245  38.364  1.00  0.00     0.198 A 
ATOM     64  F   UNL A   1      37.904  31.322  37.066  1.00  0.00    -0.203 F 
ATOM     65  F   UNL A   1      40.769  35.869  38.020  1.00  0.00    -0.200 F 
ATOM     66  C   UNL A   1      39.016  34.403  38.613  1.00  0.00     0.200 A 
ATOM     67  F   UNL A   1      37.281  32.902  39.174  1.00  0.00    -0.200 F 
ATOM     68  F   UNL A   1      38.715  35.168  39.671  1.00  0.00    -0.200 F 
ENDBRANCH  44  58
BRANCH  45  69
ATOM     69  C   UNL A   1      41.432  27.472  28.172  1.00  0.00     0.064 A 
ATOM     70  C   UNL A   1      40.815  26.234  27.949  1.00  0.00     0.173 A 
ATOM     71  C   UNL A   1      42.344  27.933  27.212  1.00  0.00     0.173 A 
ATOM     72  F   UNL A   1      39.957  25.740  28.854  1.00  0.00    -0.203 F 
ATOM     73  C   UNL A   1      41.112  25.477  26.817  1.00  0.00     0.198 A 
ATOM     74  C   UNL A   1      42.620  27.187  26.068  1.00  0.00     0.198 A 
ATOM     75  F   UNL A   1      42.962  29.110  27.383  1.00  0.00    -0.203 F 
ATOM     76  F   UNL A   1      40.542  24.277  26.648  1.00  0.00    -0.200 F 
ATOM     77  C   UNL A   1      42.010  25.958  25.874  1.00  0.00     0.200 A 
ATOM     78  F   UNL A   1      43.482  27.659  25.156  1.00  0.00    -0.200 F 
ATOM     79  F   UNL A   1      42.294  25.230  24.786  1.00  0.00    -0.200 F 
ENDBRANCH  45  69
BRANCH  57  80
ATOM     80  C   UNL A   1      44.314  27.631  34.511  1.00  0.00     0.064 A 
ATOM     81  C   UNL A   1      44.109  26.382  35.116  1.00  0.00     0.173 A 
ATOM     82  C   UNL A   1      45.625  28.130  34.463  1.00  0.00     0.173 A 
ATOM     83  F   UNL A   1      42.872  25.869  35.201  1.00  0.00    -0.203 F 
ATOM     84  C   UNL A   1      45.171  25.671  35.668  1.00  0.00     0.198 A 
ATOM     85  C   UNL A   1      46.688  27.404  34.994  1.00  0.00     0.198 A 
ATOM     86  F   UNL A   1      45.876  29.316  33.889  1.00  0.00    -0.203 F 
ATOM     87  F   UNL A   1      44.945  24.499  36.277  1.00  0.00    -0.200 F 
ATOM     88  C   UNL A   1      46.460  26.178  35.601  1.00  0.00     0.200 A 
ATOM     89  F   UNL A   1      47.935  27.891  34.918  1.00  0.00    -0.200 F 
ATOM     90  F   UNL A   1      47.482  25.490  36.128  1.00  0.00    -0.200 F 
ENDBRANCH  57  80
ENDBRANCH  31  32
ENDBRANCH  24  26
ENDBRANCH  23  24
ENDBRANCH  22  23
ENDBRANCH  21  22
ENDBRANCH  20  21
ENDBRANCH   1  20
TORSDOF 18
ENDMDL
