MODEL 1
REMARK VINA RESULT:     -12.1      0.000      0.000
REMARK SMILES O=C(OCCOCCOC(=O)[C@@H]1C=C[C@@H]([NH+]2CC3(CCOCC3)C2)C1)c1ccc(-c2c3nc(c(-c4c(F)c(F)c(F)c(F)c4F)c4ccc([nH]4)c(-c4c(F)c(F)c(F)c(F)c4F)c4nc(c(-c5c(F)c(F)c(F)c(F)c5F)c5ccc2[nH]5)C=C4)C=C3)cc1
REMARK SMILES IDX 5 1 4 2 3 3 2 4 1 5 26 6 27 7 88 8 28 9 87 10 29 11 30 12
REMARK SMILES IDX 31 13 81 14 32 15 86 16 80 17 82 18 33 19 85 20 79 21 78 22
REMARK SMILES IDX 34 24 66 25 46 26 65 27 47 28 50 29 64 30 83 31 48 32 49 33
REMARK SMILES IDX 63 35 84 36 51 37 35 38 36 39 44 40 37 41 38 42 42 43 45 44
REMARK SMILES IDX 39 45 40 46 43 47 41 48 67 49 68 50 76 51 69 52 70 53 74 54
REMARK SMILES IDX 77 55 71 56 72 57 75 58 73 59 52 60 53 61 61 62 54 63 55 64
REMARK SMILES IDX 59 65 62 66 56 67 57 68 60 69 58 70 6 71 7 72 8 73 9 74
REMARK SMILES IDX 10 75 11 76 12 77 13 78 25 79 14 80 15 81 16 82 17 83 24 84
REMARK SMILES IDX 18 86 19 87 23 88 20 89 22 90 21 91
REMARK H PARENT 82 23 50 34 16 85
REMARK Flexibility Score: inf
ROOT
ATOM      1  C   UNL A   1      31.396  32.515  26.537  1.00  0.00     0.202 C 
ENDROOT
BRANCH   1   2
ATOM      2  C   UNL A   1      32.628  33.042  27.268  1.00  0.00     0.261 C 
BRANCH   2   3
ATOM      3  O   UNL A   1      32.304  34.206  28.031  1.00  0.00    -0.460 OA
BRANCH   3   4
ATOM      4  C   UNL A   1      33.223  34.934  28.706  1.00  0.00     0.338 C 
ATOM      5  O   UNL A   1      33.056  36.144  28.847  1.00  0.00    -0.246 OA
BRANCH   4   6
ATOM      6  C   UNL A   1      34.365  34.284  29.411  1.00  0.00     0.060 A 
ATOM      7  C   UNL A   1      35.721  34.442  29.092  1.00  0.00     0.016 A 
ATOM      8  C   UNL A   1      34.030  33.515  30.533  1.00  0.00     0.016 A 
ATOM      9  C   UNL A   1      36.718  33.887  29.856  1.00  0.00     0.010 A 
ATOM     10  C   UNL A   1      35.027  32.914  31.293  1.00  0.00     0.010 A 
ATOM     11  C   UNL A   1      36.365  33.106  30.940  1.00  0.00    -0.014 A 
BRANCH  11  12
ATOM     12  C   UNL A   1      37.442  32.327  31.535  1.00  0.00     0.031 A 
ATOM     13  C   UNL A   1      37.820  32.669  32.932  1.00  0.00     0.074 A 
ATOM     14  C   UNL A   1      37.914  31.260  30.877  1.00  0.00     0.049 A 
ATOM     15  N   UNL A   1      38.823  32.247  33.643  1.00  0.00    -0.248 NA
ATOM     16  C   UNL A   1      36.934  33.619  33.632  1.00  0.00     0.031 C 
ATOM     17  C   UNL A   1      37.408  30.769  29.593  1.00  0.00     0.029 A 
ATOM     18  N   UNL A   1      38.910  30.391  31.207  1.00  0.00    -0.354 N 
ATOM     19  C   UNL A   1      38.725  32.922  34.850  1.00  0.00     0.074 A 
ATOM     20  C   UNL A   1      37.554  33.762  34.791  1.00  0.00     0.031 C 
ATOM     21  C   UNL A   1      38.125  29.693  29.229  1.00  0.00     0.029 A 
ATOM     22  C   UNL A   1      39.180  29.488  30.213  1.00  0.00     0.049 A 
ATOM     23  H   UNL A   1      39.386  30.411  32.069  1.00  0.00     0.167 HD
ATOM     24  C   UNL A   1      39.580  32.850  35.891  1.00  0.00     0.037 A 
ATOM     25  C   UNL A   1      40.224  28.650  30.101  1.00  0.00     0.037 A 
ATOM     26  C   UNL A   1      40.736  31.997  35.865  1.00  0.00     0.049 A 
ATOM     27  C   UNL A   1      41.232  28.665  31.218  1.00  0.00     0.074 A 
ATOM     28  C   UNL A   1      41.743  31.863  36.797  1.00  0.00     0.029 A 
ATOM     29  N   UNL A   1      41.029  31.124  34.819  1.00  0.00    -0.354 N 
ATOM     30  N   UNL A   1      41.227  29.378  32.322  1.00  0.00    -0.248 NA
ATOM     31  C   UNL A   1      42.392  27.783  31.075  1.00  0.00     0.031 C 
ATOM     32  C   UNL A   1      42.675  30.951  36.287  1.00  0.00     0.029 A 
ATOM     33  C   UNL A   1      42.213  30.460  35.071  1.00  0.00     0.049 A 
ATOM     34  H   UNL A   1      40.473  30.999  34.016  1.00  0.00     0.167 HD
ATOM     35  C   UNL A   1      42.364  29.016  33.023  1.00  0.00     0.074 A 
ATOM     36  C   UNL A   1      43.037  28.014  32.212  1.00  0.00     0.031 C 
ATOM     37  C   UNL A   1      42.816  29.457  34.224  1.00  0.00     0.037 A 
BRANCH  24  38
ATOM     38  C   UNL A   1      39.347  33.800  37.028  1.00  0.00     0.064 A 
ATOM     39  C   UNL A   1      39.843  35.114  37.026  1.00  0.00     0.173 A 
ATOM     40  C   UNL A   1      38.696  33.351  38.188  1.00  0.00     0.173 A 
ATOM     41  F   UNL A   1      40.507  35.584  35.959  1.00  0.00    -0.203 F 
ATOM     42  C   UNL A   1      39.738  35.922  38.158  1.00  0.00     0.198 A 
ATOM     43  C   UNL A   1      38.563  34.173  39.303  1.00  0.00     0.198 A 
ATOM     44  F   UNL A   1      38.218  32.099  38.253  1.00  0.00    -0.203 F 
ATOM     45  F   UNL A   1      40.297  37.140  38.163  1.00  0.00    -0.200 F 
ATOM     46  C   UNL A   1      39.098  35.451  39.294  1.00  0.00     0.200 A 
ATOM     47  F   UNL A   1      37.943  33.715  40.400  1.00  0.00    -0.200 F 
ATOM     48  F   UNL A   1      39.016  36.221  40.387  1.00  0.00    -0.200 F 
ENDBRANCH  24  38
BRANCH  25  49
ATOM     49  C   UNL A   1      40.377  27.822  28.878  1.00  0.00     0.064 A 
ATOM     50  C   UNL A   1      39.747  26.578  28.760  1.00  0.00     0.173 A 
ATOM     51  C   UNL A   1      41.114  28.285  27.775  1.00  0.00     0.173 A 
ATOM     52  F   UNL A   1      39.041  26.085  29.787  1.00  0.00    -0.203 F 
ATOM     53  C   UNL A   1      39.852  25.826  27.589  1.00  0.00     0.198 A 
ATOM     54  C   UNL A   1      41.193  27.548  26.595  1.00  0.00     0.198 A 
ATOM     55  F   UNL A   1      41.732  29.475  27.831  1.00  0.00    -0.203 F 
ATOM     56  F   UNL A   1      39.260  24.627  27.511  1.00  0.00    -0.200 F 
ATOM     57  C   UNL A   1      40.567  26.316  26.506  1.00  0.00     0.200 A 
ATOM     58  F   UNL A   1      41.868  28.038  25.546  1.00  0.00    -0.200 F 
ATOM     59  F   UNL A   1      40.651  25.601  25.375  1.00  0.00    -0.200 F 
ENDBRANCH  25  49
BRANCH  37  60
ATOM     60  C   UNL A   1      44.057  28.810  34.756  1.00  0.00     0.064 A 
ATOM     61  C   UNL A   1      45.326  29.358  34.539  1.00  0.00     0.173 A 
ATOM     62  C   UNL A   1      43.949  27.677  35.577  1.00  0.00     0.173 A 
ATOM     63  F   UNL A   1      45.474  30.432  33.749  1.00  0.00    -0.203 F 
ATOM     64  C   UNL A   1      46.453  28.788  35.123  1.00  0.00     0.198 A 
ATOM     65  C   UNL A   1      45.072  27.130  36.185  1.00  0.00     0.198 A 
ATOM     66  F   UNL A   1      42.748  27.126  35.816  1.00  0.00    -0.203 F 
ATOM     67  F   UNL A   1      47.663  29.306  34.881  1.00  0.00    -0.200 F 
ATOM     68  C   UNL A   1      46.322  27.684  35.955  1.00  0.00     0.200 A 
ATOM     69  F   UNL A   1      44.942  26.078  37.003  1.00  0.00    -0.200 F 
ATOM     70  F   UNL A   1      47.406  27.153  36.537  1.00  0.00    -0.200 F 
ENDBRANCH  37  60
ENDBRANCH  11  12
ENDBRANCH   4   6
ENDBRANCH   3   4
ENDBRANCH   2   3
ENDBRANCH   1   2
BRANCH   1  71
ATOM     71  O   UNL A   1      31.422  31.122  26.218  1.00  0.00    -0.374 OA
BRANCH  71  72
ATOM     72  C   UNL A   1      32.382  30.309  26.892  1.00  0.00     0.202 C 
BRANCH  72  73
ATOM     73  C   UNL A   1      31.768  28.992  27.356  1.00  0.00     0.261 C 
BRANCH  73  74
ATOM     74  O   UNL A   1      32.623  27.926  26.937  1.00  0.00    -0.463 OA
BRANCH  74  75
ATOM     75  C   UNL A   1      31.960  26.864  26.392  1.00  0.00     0.313 C 
ATOM     76  O   UNL A   1      31.302  26.038  27.003  1.00  0.00    -0.252 OA
BRANCH  75  77
ATOM     77  C   UNL A   1      32.191  26.863  24.890  1.00  0.00     0.128 C 
ATOM     78  C   UNL A   1      33.066  27.833  24.152  1.00  0.00    -0.010 C 
ATOM     79  C   UNL A   1      30.844  27.205  24.323  1.00  0.00     0.089 C 
ATOM     80  C   UNL A   1      32.368  28.719  23.427  1.00  0.00     0.033 C 
ATOM     81  C   UNL A   1      30.895  28.575  23.661  1.00  0.00     0.208 C 
BRANCH  81  82
ATOM     82  N   UNL A   1      30.001  28.728  22.508  1.00  0.00    -0.328 N 
ATOM     83  C   UNL A   1      30.174  30.052  21.867  1.00  0.00     0.275 C 
ATOM     84  C   UNL A   1      28.602  29.039  22.842  1.00  0.00     0.275 C 
ATOM     85  H   UNL A   1      30.197  27.861  22.006  1.00  0.00     0.348 HD
ATOM     86  C   UNL A   1      28.819  30.555  22.465  1.00  0.00     0.073 C 
ATOM     87  C   UNL A   1      27.746  30.984  21.452  1.00  0.00     0.047 C 
ATOM     88  C   UNL A   1      28.862  31.647  23.563  1.00  0.00     0.047 C 
ATOM     89  C   UNL A   1      28.024  32.403  20.970  1.00  0.00     0.161 C 
ATOM     90  C   UNL A   1      29.075  33.025  22.968  1.00  0.00     0.161 C 
ATOM     91  O   UNL A   1      28.024  33.322  22.063  1.00  0.00    -0.381 OA
ENDBRANCH  81  82
ENDBRANCH  75  77
ENDBRANCH  74  75
ENDBRANCH  73  74
ENDBRANCH  72  73
ENDBRANCH  71  72
ENDBRANCH   1  71
TORSDOF 15
ENDMDL
MODEL 2
REMARK VINA RESULT:     -11.9      0.641      7.572
REMARK SMILES O=C(OCCOCCOC(=O)[C@@H]1C=C[C@@H]([NH+]2CC3(CCOCC3)C2)C1)c1ccc(-c2c3nc(c(-c4c(F)c(F)c(F)c(F)c4F)c4ccc([nH]4)c(-c4c(F)c(F)c(F)c(F)c4F)c4nc(c(-c5c(F)c(F)c(F)c(F)c5F)c5ccc2[nH]5)C=C4)C=C3)cc1
REMARK SMILES IDX 5 1 4 2 3 3 2 4 1 5 26 6 27 7 88 8 28 9 87 10 29 11 30 12
REMARK SMILES IDX 31 13 81 14 32 15 86 16 80 17 82 18 33 19 85 20 79 21 78 22
REMARK SMILES IDX 34 24 66 25 46 26 65 27 47 28 50 29 64 30 83 31 48 32 49 33
REMARK SMILES IDX 63 35 84 36 51 37 35 38 36 39 44 40 37 41 38 42 42 43 45 44
REMARK SMILES IDX 39 45 40 46 43 47 41 48 67 49 68 50 76 51 69 52 70 53 74 54
REMARK SMILES IDX 77 55 71 56 72 57 75 58 73 59 52 60 53 61 61 62 54 63 55 64
REMARK SMILES IDX 59 65 62 66 56 67 57 68 60 69 58 70 6 71 7 72 8 73 9 74
REMARK SMILES IDX 10 75 11 76 12 77 13 78 25 79 14 80 15 81 16 82 17 83 24 84
REMARK SMILES IDX 18 86 19 87 23 88 20 89 22 90 21 91
REMARK H PARENT 82 23 50 34 16 85
REMARK Flexibility Score: inf
ROOT
ATOM      1  C   UNL A   1      31.402  32.297  26.607  1.00  0.00     0.202 C 
ENDROOT
BRANCH   1   2
ATOM      2  C   UNL A   1      32.609  33.053  27.157  1.00  0.00     0.261 C 
BRANCH   2   3
ATOM      3  O   UNL A   1      32.190  34.172  27.941  1.00  0.00    -0.460 OA
BRANCH   3   4
ATOM      4  C   UNL A   1      32.981  34.780  28.855  1.00  0.00     0.338 C 
ATOM      5  O   UNL A   1      32.661  35.881  29.300  1.00  0.00    -0.246 OA
BRANCH   4   6
ATOM      6  C   UNL A   1      34.160  34.085  29.447  1.00  0.00     0.060 A 
ATOM      7  C   UNL A   1      34.112  33.055  30.396  1.00  0.00     0.016 A 
ATOM      8  C   UNL A   1      35.408  34.461  28.935  1.00  0.00     0.016 A 
ATOM      9  C   UNL A   1      35.242  32.398  30.815  1.00  0.00     0.010 A 
ATOM     10  C   UNL A   1      36.566  33.832  29.379  1.00  0.00     0.010 A 
ATOM     11  C   UNL A   1      36.467  32.806  30.322  1.00  0.00    -0.014 A 
BRANCH  11  12
ATOM     12  C   UNL A   1      37.635  32.267  31.005  1.00  0.00     0.031 A 
ATOM     13  C   UNL A   1      38.435  31.256  30.263  1.00  0.00     0.074 A 
ATOM     14  C   UNL A   1      38.020  32.813  32.166  1.00  0.00     0.049 A 
ATOM     15  N   UNL A   1      39.419  30.516  30.678  1.00  0.00    -0.248 NA
ATOM     16  C   UNL A   1      38.079  31.057  28.846  1.00  0.00     0.031 C 
ATOM     17  C   UNL A   1      37.375  33.958  32.814  1.00  0.00     0.029 A 
ATOM     18  N   UNL A   1      39.051  32.487  32.994  1.00  0.00    -0.354 N 
ATOM     19  C   UNL A   1      39.761  29.722  29.595  1.00  0.00     0.074 A 
ATOM     20  C   UNL A   1      38.901  30.084  28.494  1.00  0.00     0.031 C 
ATOM     21  C   UNL A   1      38.017  34.221  33.964  1.00  0.00     0.029 A 
ATOM     22  C   UNL A   1      39.049  33.211  34.158  1.00  0.00     0.049 A 
ATOM     23  H   UNL A   1      39.726  31.804  32.779  1.00  0.00     0.167 HD
ATOM     24  C   UNL A   1      40.700  28.752  29.563  1.00  0.00     0.037 A 
ATOM     25  C   UNL A   1      39.764  33.005  35.276  1.00  0.00     0.037 A 
ATOM     26  C   UNL A   1      41.507  28.443  30.711  1.00  0.00     0.049 A 
ATOM     27  C   UNL A   1      40.725  31.847  35.265  1.00  0.00     0.074 A 
ATOM     28  C   UNL A   1      42.444  27.445  30.874  1.00  0.00     0.029 A 
ATOM     29  N   UNL A   1      41.453  29.152  31.910  1.00  0.00    -0.354 N 
ATOM     30  N   UNL A   1      40.988  31.004  34.291  1.00  0.00    -0.248 NA
ATOM     31  C   UNL A   1      41.473  31.596  36.499  1.00  0.00     0.031 C 
ATOM     32  C   UNL A   1      42.914  27.515  32.191  1.00  0.00     0.029 A 
ATOM     33  C   UNL A   1      42.326  28.603  32.827  1.00  0.00     0.049 A 
ATOM     34  H   UNL A   1      40.876  29.931  32.077  1.00  0.00     0.167 HD
ATOM     35  C   UNL A   1      41.951  30.137  34.779  1.00  0.00     0.074 A 
ATOM     36  C   UNL A   1      42.225  30.561  36.142  1.00  0.00     0.031 C 
ATOM     37  C   UNL A   1      42.562  29.092  34.167  1.00  0.00     0.037 A 
BRANCH  24  38
ATOM     38  C   UNL A   1      40.775  27.920  28.318  1.00  0.00     0.064 A 
ATOM     39  C   UNL A   1      40.117  26.686  28.196  1.00  0.00     0.173 A 
ATOM     40  C   UNL A   1      41.606  28.323  27.261  1.00  0.00     0.173 A 
ATOM     41  F   UNL A   1      39.341  26.233  29.193  1.00  0.00    -0.203 F 
ATOM     42  C   UNL A   1      40.327  25.868  27.087  1.00  0.00     0.198 A 
ATOM     43  C   UNL A   1      41.785  27.519  26.139  1.00  0.00     0.198 A 
ATOM     44  F   UNL A   1      42.273  29.485  27.331  1.00  0.00    -0.203 F 
ATOM     45  F   UNL A   1      39.758  24.655  27.034  1.00  0.00    -0.200 F 
ATOM     46  C   UNL A   1      41.159  26.285  26.060  1.00  0.00     0.200 A 
ATOM     47  F   UNL A   1      42.591  27.926  25.148  1.00  0.00    -0.200 F 
ATOM     48  F   UNL A   1      41.375  25.490  25.004  1.00  0.00    -0.200 F 
ENDBRANCH  24  38
BRANCH  25  49
ATOM     49  C   UNL A   1      39.529  33.856  36.469  1.00  0.00     0.064 A 
ATOM     50  C   UNL A   1      38.710  33.425  37.519  1.00  0.00     0.173 A 
ATOM     51  C   UNL A   1      40.166  35.101  36.610  1.00  0.00     0.173 A 
ATOM     52  F   UNL A   1      38.071  32.250  37.431  1.00  0.00    -0.203 F 
ATOM     53  C   UNL A   1      38.534  34.207  38.662  1.00  0.00     0.198 A 
ATOM     54  C   UNL A   1      40.013  35.866  37.763  1.00  0.00     0.198 A 
ATOM     55  F   UNL A   1      40.968  35.560  35.637  1.00  0.00    -0.203 F 
ATOM     56  F   UNL A   1      37.725  33.782  39.641  1.00  0.00    -0.200 F 
ATOM     57  C   UNL A   1      39.192  35.421  38.786  1.00  0.00     0.200 A 
ATOM     58  F   UNL A   1      40.669  37.029  37.885  1.00  0.00    -0.200 F 
ATOM     59  F   UNL A   1      39.035  36.162  39.892  1.00  0.00    -0.200 F 
ENDBRANCH  25  49
BRANCH  37  60
ATOM     60  C   UNL A   1      43.627  28.384  34.944  1.00  0.00     0.064 A 
ATOM     61  C   UNL A   1      43.348  27.248  35.713  1.00  0.00     0.173 A 
ATOM     62  C   UNL A   1      44.961  28.803  34.829  1.00  0.00     0.173 A 
ATOM     63  F   UNL A   1      42.084  26.824  35.860  1.00  0.00    -0.203 F 
ATOM     64  C   UNL A   1      44.373  26.556  36.350  1.00  0.00     0.198 A 
ATOM     65  C   UNL A   1      45.986  28.089  35.440  1.00  0.00     0.198 A 
ATOM     66  F   UNL A   1      45.272  29.882  34.094  1.00  0.00    -0.203 F 
ATOM     67  F   UNL A   1      44.086  25.489  37.107  1.00  0.00    -0.200 F 
ATOM     68  C   UNL A   1      45.689  26.969  36.202  1.00  0.00     0.200 A 
ATOM     69  F   UNL A   1      47.257  28.477  35.279  1.00  0.00    -0.200 F 
ATOM     70  F   UNL A   1      46.677  26.285  36.796  1.00  0.00    -0.200 F 
ENDBRANCH  37  60
ENDBRANCH  11  12
ENDBRANCH   4   6
ENDBRANCH   3   4
ENDBRANCH   2   3
ENDBRANCH   1   2
BRANCH   1  71
ATOM     71  O   UNL A   1      31.212  30.981  27.133  1.00  0.00    -0.374 OA
BRANCH  71  72
ATOM     72  C   UNL A   1      32.064  29.946  26.644  1.00  0.00     0.202 C 
BRANCH  72  73
ATOM     73  C   UNL A   1      31.860  28.647  27.415  1.00  0.00     0.261 C 
BRANCH  73  74
ATOM     74  O   UNL A   1      32.490  27.589  26.688  1.00  0.00    -0.463 OA
BRANCH  74  75
ATOM     75  C   UNL A   1      31.623  26.650  26.210  1.00  0.00     0.313 C 
ATOM     76  O   UNL A   1      30.864  25.966  26.879  1.00  0.00    -0.252 OA
BRANCH  75  77
ATOM     77  C   UNL A   1      31.767  26.575  24.700  1.00  0.00     0.128 C 
ATOM     78  C   UNL A   1      32.752  27.363  23.888  1.00  0.00    -0.010 C 
ATOM     79  C   UNL A   1      30.469  27.128  24.191  1.00  0.00     0.089 C 
ATOM     80  C   UNL A   1      32.175  28.339  23.170  1.00  0.00     0.033 C 
ATOM     81  C   UNL A   1      30.714  28.453  23.483  1.00  0.00     0.208 C 
BRANCH  81  82
ATOM     82  N   UNL A   1      29.797  28.730  22.372  1.00  0.00    -0.328 N 
ATOM     83  C   UNL A   1      30.029  30.079  21.806  1.00  0.00     0.275 C 
ATOM     84  C   UNL A   1      28.430  29.101  22.771  1.00  0.00     0.275 C 
ATOM     85  H   UNL A   1      29.925  27.886  21.813  1.00  0.00     0.348 HD
ATOM     86  C   UNL A   1      28.726  30.621  22.479  1.00  0.00     0.073 C 
ATOM     87  C   UNL A   1      27.651  31.175  21.530  1.00  0.00     0.047 C 
ATOM     88  C   UNL A   1      28.868  31.639  23.639  1.00  0.00     0.047 C 
ATOM     89  C   UNL A   1      28.000  32.603  21.126  1.00  0.00     0.161 C 
ATOM     90  C   UNL A   1      29.145  33.037  23.122  1.00  0.00     0.161 C 
ATOM     91  O   UNL A   1      28.087  33.450  22.272  1.00  0.00    -0.381 OA
ENDBRANCH  81  82
ENDBRANCH  75  77
ENDBRANCH  74  75
ENDBRANCH  73  74
ENDBRANCH  72  73
ENDBRANCH  71  72
ENDBRANCH   1  71
TORSDOF 15
ENDMDL
MODEL 3
REMARK VINA RESULT:     -11.8      1.319      2.331
REMARK SMILES O=C(OCCOCCOC(=O)[C@@H]1C=C[C@@H]([NH+]2CC3(CCOCC3)C2)C1)c1ccc(-c2c3nc(c(-c4c(F)c(F)c(F)c(F)c4F)c4ccc([nH]4)c(-c4c(F)c(F)c(F)c(F)c4F)c4nc(c(-c5c(F)c(F)c(F)c(F)c5F)c5ccc2[nH]5)C=C4)C=C3)cc1
REMARK SMILES IDX 5 1 4 2 3 3 2 4 1 5 26 6 27 7 88 8 28 9 87 10 29 11 30 12
REMARK SMILES IDX 31 13 81 14 32 15 86 16 80 17 82 18 33 19 85 20 79 21 78 22
REMARK SMILES IDX 34 24 66 25 46 26 65 27 47 28 50 29 64 30 83 31 48 32 49 33
REMARK SMILES IDX 63 35 84 36 51 37 35 38 36 39 44 40 37 41 38 42 42 43 45 44
REMARK SMILES IDX 39 45 40 46 43 47 41 48 67 49 68 50 76 51 69 52 70 53 74 54
REMARK SMILES IDX 77 55 71 56 72 57 75 58 73 59 52 60 53 61 61 62 54 63 55 64
REMARK SMILES IDX 59 65 62 66 56 67 57 68 60 69 58 70 6 71 7 72 8 73 9 74
REMARK SMILES IDX 10 75 11 76 12 77 13 78 25 79 14 80 15 81 16 82 17 83 24 84
REMARK SMILES IDX 18 86 19 87 23 88 20 89 22 90 21 91
REMARK H PARENT 82 23 50 34 16 85
REMARK Flexibility Score: inf
ROOT
ATOM      1  C   UNL A   1      31.401  31.998  26.873  1.00  0.00     0.202 C 
ENDROOT
BRANCH   1   2
ATOM      2  C   UNL A   1      32.405  33.139  26.729  1.00  0.00     0.261 C 
BRANCH   2   3
ATOM      3  O   UNL A   1      32.672  33.742  27.997  1.00  0.00    -0.460 OA
BRANCH   3   4
ATOM      4  C   UNL A   1      33.886  34.222  28.353  1.00  0.00     0.338 C 
ATOM      5  O   UNL A   1      34.084  35.435  28.350  1.00  0.00    -0.246 OA
BRANCH   4   6
ATOM      6  C   UNL A   1      34.951  33.325  28.888  1.00  0.00     0.060 A 
ATOM      7  C   UNL A   1      34.756  32.030  29.387  1.00  0.00     0.016 A 
ATOM      8  C   UNL A   1      36.260  33.816  28.800  1.00  0.00     0.016 A 
ATOM      9  C   UNL A   1      35.806  31.231  29.767  1.00  0.00     0.010 A 
ATOM     10  C   UNL A   1      37.330  33.033  29.217  1.00  0.00     0.010 A 
ATOM     11  C   UNL A   1      37.087  31.745  29.703  1.00  0.00    -0.014 A 
BRANCH  11  12
ATOM     12  C   UNL A   1      38.116  30.963  30.372  1.00  0.00     0.031 A 
ATOM     13  C   UNL A   1      38.275  31.180  31.835  1.00  0.00     0.074 A 
ATOM     14  C   UNL A   1      38.741  29.991  29.693  1.00  0.00     0.049 A 
ATOM     15  N   UNL A   1      39.193  30.737  32.640  1.00  0.00    -0.248 NA
ATOM     16  C   UNL A   1      37.243  32.010  32.485  1.00  0.00     0.031 C 
ATOM     17  C   UNL A   1      38.450  29.609  28.308  1.00  0.00     0.029 A 
ATOM     18  N   UNL A   1      39.733  29.142  30.081  1.00  0.00    -0.354 N 
ATOM     19  C   UNL A   1      38.887  31.281  33.878  1.00  0.00     0.074 A 
ATOM     20  C   UNL A   1      37.685  32.065  33.729  1.00  0.00     0.031 C 
ATOM     21  C   UNL A   1      39.276  28.611  27.953  1.00  0.00     0.029 A 
ATOM     22  C   UNL A   1      40.194  28.359  29.056  1.00  0.00     0.049 A 
ATOM     23  H   UNL A   1      40.082  29.098  31.001  1.00  0.00     0.167 HD
ATOM     24  C   UNL A   1      39.592  31.145  35.021  1.00  0.00     0.037 A 
ATOM     25  C   UNL A   1      41.293  27.587  29.018  1.00  0.00     0.037 A 
ATOM     26  C   UNL A   1      40.790  30.355  35.082  1.00  0.00     0.049 A 
ATOM     27  C   UNL A   1      42.133  27.537  30.265  1.00  0.00     0.074 A 
ATOM     28  C   UNL A   1      41.664  30.176  36.134  1.00  0.00     0.029 A 
ATOM     29  N   UNL A   1      41.280  29.608  34.013  1.00  0.00    -0.354 N 
ATOM     30  N   UNL A   1      41.930  28.135  31.419  1.00  0.00    -0.248 NA
ATOM     31  C   UNL A   1      43.355  26.731  30.211  1.00  0.00     0.031 C 
ATOM     32  C   UNL A   1      42.713  29.367  35.681  1.00  0.00     0.029 A 
ATOM     33  C   UNL A   1      42.456  28.979  34.371  1.00  0.00     0.049 A 
ATOM     34  H   UNL A   1      40.849  29.538  33.131  1.00  0.00     0.167 HD
ATOM     35  C   UNL A   1      42.979  27.758  32.240  1.00  0.00     0.074 A 
ATOM     36  C   UNL A   1      43.819  26.877  31.445  1.00  0.00     0.031 C 
ATOM     37  C   UNL A   1      43.232  28.096  33.530  1.00  0.00     0.037 A 
BRANCH  24  38
ATOM     38  C   UNL A   1      39.144  31.963  36.195  1.00  0.00     0.064 A 
ATOM     39  C   UNL A   1      38.171  31.512  37.101  1.00  0.00     0.173 A 
ATOM     40  C   UNL A   1      39.630  33.270  36.358  1.00  0.00     0.173 A 
ATOM     41  F   UNL A   1      37.642  30.286  36.969  1.00  0.00    -0.203 F 
ATOM     42  C   UNL A   1      37.668  32.354  38.092  1.00  0.00     0.198 A 
ATOM     43  C   UNL A   1      39.151  34.096  37.372  1.00  0.00     0.198 A 
ATOM     44  F   UNL A   1      40.548  33.761  35.512  1.00  0.00    -0.203 F 
ATOM     45  F   UNL A   1      36.676  31.931  38.888  1.00  0.00    -0.200 F 
ATOM     46  C   UNL A   1      38.159  33.643  38.227  1.00  0.00     0.200 A 
ATOM     47  F   UNL A   1      39.628  35.342  37.500  1.00  0.00    -0.200 F 
ATOM     48  F   UNL A   1      37.661  34.458  39.168  1.00  0.00    -0.200 F 
ENDBRANCH  24  38
BRANCH  25  49
ATOM     49  C   UNL A   1      41.666  26.895  27.759  1.00  0.00     0.064 A 
ATOM     50  C   UNL A   1      42.392  27.550  26.757  1.00  0.00     0.173 A 
ATOM     51  C   UNL A   1      41.350  25.542  27.554  1.00  0.00     0.173 A 
ATOM     52  F   UNL A   1      42.709  28.845  26.898  1.00  0.00    -0.203 F 
ATOM     53  C   UNL A   1      42.784  26.880  25.598  1.00  0.00     0.198 A 
ATOM     54  C   UNL A   1      41.768  24.865  26.410  1.00  0.00     0.198 A 
ATOM     55  F   UNL A   1      40.662  24.863  28.484  1.00  0.00    -0.203 F 
ATOM     56  F   UNL A   1      43.456  27.537  24.643  1.00  0.00    -0.200 F 
ATOM     57  C   UNL A   1      42.479  25.537  25.429  1.00  0.00     0.200 A 
ATOM     58  F   UNL A   1      41.488  23.563  26.264  1.00  0.00    -0.200 F 
ATOM     59  F   UNL A   1      42.873  24.891  24.323  1.00  0.00    -0.200 F 
ENDBRANCH  25  49
BRANCH  37  60
ATOM     60  C   UNL A   1      44.424  27.460  34.173  1.00  0.00     0.064 A 
ATOM     61  C   UNL A   1      45.663  28.109  34.239  1.00  0.00     0.173 A 
ATOM     62  C   UNL A   1      44.284  26.220  34.815  1.00  0.00     0.173 A 
ATOM     63  F   UNL A   1      45.841  29.288  33.626  1.00  0.00    -0.203 F 
ATOM     64  C   UNL A   1      46.728  27.533  34.924  1.00  0.00     0.198 A 
ATOM     65  C   UNL A   1      45.340  25.664  35.526  1.00  0.00     0.198 A 
ATOM     66  F   UNL A   1      43.110  25.569  34.782  1.00  0.00    -0.203 F 
ATOM     67  F   UNL A   1      47.914  28.153  34.952  1.00  0.00    -0.200 F 
ATOM     68  C   UNL A   1      46.561  26.320  35.576  1.00  0.00     0.200 A 
ATOM     69  F   UNL A   1      45.172  24.503  36.172  1.00  0.00    -0.200 F 
ATOM     70  F   UNL A   1      47.582  25.780  36.257  1.00  0.00    -0.200 F 
ENDBRANCH  37  60
ENDBRANCH  11  12
ENDBRANCH   4   6
ENDBRANCH   3   4
ENDBRANCH   2   3
ENDBRANCH   1   2
BRANCH   1  71
ATOM     71  O   UNL A   1      31.746  30.789  26.192  1.00  0.00    -0.374 OA
BRANCH  71  72
ATOM     72  C   UNL A   1      32.998  30.185  26.513  1.00  0.00     0.202 C 
BRANCH  72  73
ATOM     73  C   UNL A   1      32.820  29.015  27.474  1.00  0.00     0.261 C 
BRANCH  73  74
ATOM     74  O   UNL A   1      33.146  27.809  26.779  1.00  0.00    -0.463 OA
BRANCH  74  75
ATOM     75  C   UNL A   1      32.059  27.077  26.397  1.00  0.00     0.313 C 
ATOM     76  O   UNL A   1      31.179  26.660  27.133  1.00  0.00    -0.252 OA
BRANCH  75  77
ATOM     77  C   UNL A   1      32.128  26.846  24.897  1.00  0.00     0.128 C 
ATOM     78  C   UNL A   1      33.071  27.542  23.961  1.00  0.00    -0.010 C 
ATOM     79  C   UNL A   1      30.806  27.350  24.398  1.00  0.00     0.089 C 
ATOM     80  C   UNL A   1      32.459  28.440  23.175  1.00  0.00     0.033 C 
ATOM     81  C   UNL A   1      31.015  28.594  23.546  1.00  0.00     0.208 C 
BRANCH  81  82
ATOM     82  N   UNL A   1      30.044  28.758  22.459  1.00  0.00    -0.328 N 
ATOM     83  C   UNL A   1      30.172  30.089  21.821  1.00  0.00     0.275 C 
ATOM     84  C   UNL A   1      28.671  29.064  22.891  1.00  0.00     0.275 C 
ATOM     85  H   UNL A   1      30.205  27.898  21.935  1.00  0.00     0.348 HD
ATOM     86  C   UNL A   1      28.861  30.584  22.517  1.00  0.00     0.073 C 
ATOM     87  C   UNL A   1      27.721  31.024  21.584  1.00  0.00     0.047 C 
ATOM     88  C   UNL A   1      28.979  31.664  23.621  1.00  0.00     0.047 C 
ATOM     89  C   UNL A   1      27.965  32.448  21.100  1.00  0.00     0.161 C 
ATOM     90  C   UNL A   1      29.150  33.049  23.029  1.00  0.00     0.161 C 
ATOM     91  O   UNL A   1      28.039  33.355  22.201  1.00  0.00    -0.381 OA
ENDBRANCH  81  82
ENDBRANCH  75  77
ENDBRANCH  74  75
ENDBRANCH  73  74
ENDBRANCH  72  73
ENDBRANCH  71  72
ENDBRANCH   1  71
TORSDOF 15
ENDMDL
