MODEL 1
REMARK VINA RESULT:     -10.7      0.000      0.000
REMARK SMILES O=C(OCCOCCOC(=O)[C@@]1([NH2+]C2CC2)CCC[C@H]1CCn1ccnc1)c1ccc(-c2c3nc(c(-c4c(F)c(F)c(F)c(F)c4F)c4ccc([nH]4)c(-c4c(F)c(F)c(F)c(F)c4F)c4nc(c(-c5c(F)c(F)c(F)c(F)c5F)c5ccc2[nH]5)C=C4)C=C3)cc1
REMARK SMILES IDX 7 1 6 2 5 3 4 4 3 5 2 6 1 7 28 8 29 9 90 10 30 11 89 12
REMARK SMILES IDX 31 13 32 14 33 15 83 16 34 17 88 18 82 19 84 20 35 21 87 22
REMARK SMILES IDX 81 23 80 24 36 26 68 27 48 28 67 29 49 30 52 31 66 32 85 33
REMARK SMILES IDX 50 34 51 35 65 37 86 38 53 39 37 40 38 41 46 42 39 43 40 44
REMARK SMILES IDX 44 45 47 46 41 47 42 48 45 49 43 50 69 51 70 52 78 53 71 54
REMARK SMILES IDX 72 55 76 56 79 57 73 58 74 59 77 60 75 61 54 62 55 63 63 64
REMARK SMILES IDX 56 65 57 66 61 67 64 68 58 69 59 70 62 71 60 72 8 73 9 74
REMARK SMILES IDX 10 75 11 76 12 77 17 78 20 79 18 80 19 81 13 82 14 85 15 86
REMARK SMILES IDX 16 87 21 88 22 89 23 90 24 91 27 92 25 93 26 94
REMARK H PARENT 84 25 52 36 13 83 13 84
REMARK Flexibility Score: inf
ROOT
ATOM      1  C   UNL A   1      35.638  22.996  23.559  1.00  0.00     0.202 C 
ENDROOT
BRANCH   1   2
ATOM      2  O   UNL A   1      36.950  22.555  23.888  1.00  0.00    -0.374 OA
BRANCH   2   3
ATOM      3  C   UNL A   1      37.160  21.277  24.481  1.00  0.00     0.202 C 
BRANCH   3   4
ATOM      4  C   UNL A   1      38.120  21.144  25.687  1.00  0.00     0.261 C 
BRANCH   4   5
ATOM      5  O   UNL A   1      38.703  22.377  26.107  1.00  0.00    -0.460 OA
BRANCH   5   6
ATOM      6  C   UNL A   1      39.782  22.544  26.896  1.00  0.00     0.338 C 
ATOM      7  O   UNL A   1      40.282  21.558  27.433  1.00  0.00    -0.246 OA
BRANCH   6   8
ATOM      8  C   UNL A   1      40.391  23.881  27.149  1.00  0.00     0.060 A 
ATOM      9  C   UNL A   1      41.480  24.139  27.985  1.00  0.00     0.016 A 
ATOM     10  C   UNL A   1      39.784  24.961  26.494  1.00  0.00     0.016 A 
ATOM     11  C   UNL A   1      41.731  25.399  28.441  1.00  0.00     0.010 A 
ATOM     12  C   UNL A   1      40.113  26.252  26.849  1.00  0.00     0.010 A 
ATOM     13  C   UNL A   1      40.981  26.432  27.920  1.00  0.00    -0.014 A 
BRANCH  13  14
ATOM     14  C   UNL A   1      41.142  27.695  28.593  1.00  0.00     0.031 A 
ATOM     15  C   UNL A   1      42.359  28.449  28.192  1.00  0.00     0.074 A 
ATOM     16  C   UNL A   1      40.222  28.034  29.510  1.00  0.00     0.049 A 
ATOM     17  N   UNL A   1      43.308  28.909  28.943  1.00  0.00    -0.248 NA
ATOM     18  C   UNL A   1      42.643  28.535  26.746  1.00  0.00     0.031 C 
ATOM     19  C   UNL A   1      38.955  27.359  29.822  1.00  0.00     0.029 A 
ATOM     20  N   UNL A   1      40.168  29.152  30.271  1.00  0.00    -0.354 N 
ATOM     21  C   UNL A   1      44.207  29.519  28.071  1.00  0.00     0.074 A 
ATOM     22  C   UNL A   1      43.842  29.113  26.741  1.00  0.00     0.031 C 
ATOM     23  C   UNL A   1      38.147  28.216  30.477  1.00  0.00     0.029 A 
ATOM     24  C   UNL A   1      38.893  29.428  30.740  1.00  0.00     0.049 A 
ATOM     25  H   UNL A   1      40.954  29.712  30.470  1.00  0.00     0.167 HD
ATOM     26  C   UNL A   1      45.015  30.531  28.482  1.00  0.00     0.037 A 
ATOM     27  C   UNL A   1      38.486  30.661  31.121  1.00  0.00     0.037 A 
ATOM     28  C   UNL A   1      45.273  30.464  29.894  1.00  0.00     0.049 A 
ATOM     29  C   UNL A   1      39.719  31.437  31.442  1.00  0.00     0.074 A 
ATOM     30  C   UNL A   1      45.908  29.549  30.712  1.00  0.00     0.029 A 
ATOM     31  N   UNL A   1      44.546  31.269  30.735  1.00  0.00    -0.354 N 
ATOM     32  N   UNL A   1      40.513  31.139  32.438  1.00  0.00    -0.248 NA
ATOM     33  C   UNL A   1      40.333  32.211  30.369  1.00  0.00     0.031 C 
ATOM     34  C   UNL A   1      45.151  29.543  31.920  1.00  0.00     0.029 A 
ATOM     35  C   UNL A   1      44.133  30.488  31.786  1.00  0.00     0.049 A 
ATOM     36  H   UNL A   1      44.355  32.227  30.609  1.00  0.00     0.167 HD
ATOM     37  C   UNL A   1      41.798  31.341  31.950  1.00  0.00     0.074 A 
ATOM     38  C   UNL A   1      41.622  32.058  30.691  1.00  0.00     0.031 C 
ATOM     39  C   UNL A   1      42.868  30.658  32.459  1.00  0.00     0.037 A 
BRANCH  26  40
ATOM     40  C   UNL A   1      45.212  31.781  27.661  1.00  0.00     0.064 A 
ATOM     41  C   UNL A   1      46.467  32.032  27.078  1.00  0.00     0.173 A 
ATOM     42  C   UNL A   1      44.319  32.878  27.683  1.00  0.00     0.173 A 
ATOM     43  F   UNL A   1      47.399  31.068  27.022  1.00  0.00    -0.203 F 
ATOM     44  C   UNL A   1      46.824  33.304  26.623  1.00  0.00     0.198 A 
ATOM     45  C   UNL A   1      44.659  34.129  27.181  1.00  0.00     0.198 A 
ATOM     46  F   UNL A   1      43.128  32.822  28.289  1.00  0.00    -0.203 F 
ATOM     47  F   UNL A   1      48.072  33.530  26.191  1.00  0.00    -0.200 F 
ATOM     48  C   UNL A   1      45.923  34.354  26.683  1.00  0.00     0.200 A 
ATOM     49  F   UNL A   1      43.776  35.134  27.267  1.00  0.00    -0.200 F 
ATOM     50  F   UNL A   1      46.286  35.588  26.313  1.00  0.00    -0.200 F 
ENDBRANCH  26  40
BRANCH  27  51
ATOM     51  C   UNL A   1      37.184  31.265  30.761  1.00  0.00     0.064 A 
ATOM     52  C   UNL A   1      36.253  31.607  31.747  1.00  0.00     0.173 A 
ATOM     53  C   UNL A   1      36.907  31.717  29.451  1.00  0.00     0.173 A 
ATOM     54  F   UNL A   1      36.472  31.262  33.024  1.00  0.00    -0.203 F 
ATOM     55  C   UNL A   1      35.108  32.352  31.443  1.00  0.00     0.198 A 
ATOM     56  C   UNL A   1      35.759  32.446  29.146  1.00  0.00     0.198 A 
ATOM     57  F   UNL A   1      37.784  31.535  28.452  1.00  0.00    -0.203 F 
ATOM     58  F   UNL A   1      34.260  32.699  32.420  1.00  0.00    -0.200 F 
ATOM     59  C   UNL A   1      34.863  32.771  30.145  1.00  0.00     0.200 A 
ATOM     60  F   UNL A   1      35.556  32.872  27.891  1.00  0.00    -0.200 F 
ATOM     61  F   UNL A   1      33.787  33.518  29.862  1.00  0.00    -0.200 F 
ENDBRANCH  27  51
BRANCH  39  62
ATOM     62  C   UNL A   1      42.633  29.810  33.676  1.00  0.00     0.064 A 
ATOM     63  C   UNL A   1      42.158  28.487  33.611  1.00  0.00     0.173 A 
ATOM     64  C   UNL A   1      43.050  30.281  34.926  1.00  0.00     0.173 A 
ATOM     65  F   UNL A   1      41.856  27.927  32.435  1.00  0.00    -0.203 F 
ATOM     66  C   UNL A   1      42.056  27.694  34.753  1.00  0.00     0.198 A 
ATOM     67  C   UNL A   1      42.981  29.475  36.060  1.00  0.00     0.198 A 
ATOM     68  F   UNL A   1      43.581  31.508  35.037  1.00  0.00    -0.203 F 
ATOM     69  F   UNL A   1      41.593  26.438  34.660  1.00  0.00    -0.200 F 
ATOM     70  C   UNL A   1      42.473  28.188  35.977  1.00  0.00     0.200 A 
ATOM     71  F   UNL A   1      43.440  29.935  37.232  1.00  0.00    -0.200 F 
ATOM     72  F   UNL A   1      42.418  27.412  37.069  1.00  0.00    -0.200 F 
ENDBRANCH  39  62
ENDBRANCH  13  14
ENDBRANCH   6   8
ENDBRANCH   5   6
ENDBRANCH   4   5
ENDBRANCH   3   4
ENDBRANCH   2   3
ENDBRANCH   1   2
BRANCH   1  73
ATOM     73  C   UNL A   1      35.122  24.350  24.035  1.00  0.00     0.261 C 
BRANCH  73  74
ATOM     74  O   UNL A   1      33.698  24.539  23.913  1.00  0.00    -0.459 OA
BRANCH  74  75
ATOM     75  C   UNL A   1      33.302  25.548  23.080  1.00  0.00     0.368 C 
ATOM     76  O   UNL A   1      33.874  25.810  22.025  1.00  0.00    -0.245 OA
BRANCH  75  77
ATOM     77  C   UNL A   1      32.121  26.364  23.645  1.00  0.00     0.197 C 
ATOM     78  C   UNL A   1      31.032  26.806  22.654  1.00  0.00     0.081 C 
ATOM     79  C   UNL A   1      31.271  25.505  24.647  1.00  0.00     0.064 C 
ATOM     80  C   UNL A   1      29.848  27.201  23.528  1.00  0.00     0.008 C 
ATOM     81  C   UNL A   1      29.935  26.300  24.757  1.00  0.00     0.011 C 
BRANCH  77  82
ATOM     82  N   UNL A   1      32.618  27.538  24.421  1.00  0.00    -0.329 N 
ATOM     83  H   UNL A   1      31.801  28.122  24.597  1.00  0.00     0.347 HD
ATOM     84  H   UNL A   1      33.370  27.872  23.819  1.00  0.00     0.347 HD
BRANCH  82  85
ATOM     85  C   UNL A   1      33.307  27.420  25.703  1.00  0.00     0.183 C 
ATOM     86  C   UNL A   1      34.109  28.470  26.399  1.00  0.00     0.071 C 
ATOM     87  C   UNL A   1      32.723  28.208  26.861  1.00  0.00     0.071 C 
ENDBRANCH  82  85
ENDBRANCH  77  82
BRANCH  79  88
ATOM     88  C   UNL A   1      30.905  24.038  24.304  1.00  0.00     0.032 C 
BRANCH  88  89
ATOM     89  C   UNL A   1      30.995  22.879  25.309  1.00  0.00     0.123 C 
BRANCH  89  90
ATOM     90  N   UNL A   1      32.240  22.344  25.802  1.00  0.00    -0.337 N 
ATOM     91  C   UNL A   1      32.851  22.819  26.941  1.00  0.00     0.107 A 
ATOM     92  C   UNL A   1      32.935  21.236  25.422  1.00  0.00     0.199 A 
ATOM     93  C   UNL A   1      33.928  21.994  27.152  1.00  0.00     0.130 A 
ATOM     94  N   UNL A   1      33.985  21.028  26.188  1.00  0.00    -0.245 NA
ENDBRANCH  89  90
ENDBRANCH  88  89
ENDBRANCH  79  88
ENDBRANCH  75  77
ENDBRANCH  74  75
ENDBRANCH  73  74
ENDBRANCH   1  73
TORSDOF 19
ENDMDL
MODEL 2
REMARK VINA RESULT:     -10.4      3.927      8.073
REMARK SMILES O=C(OCCOCCOC(=O)[C@@]1([NH2+]C2CC2)CCC[C@H]1CCn1ccnc1)c1ccc(-c2c3nc(c(-c4c(F)c(F)c(F)c(F)c4F)c4ccc([nH]4)c(-c4c(F)c(F)c(F)c(F)c4F)c4nc(c(-c5c(F)c(F)c(F)c(F)c5F)c5ccc2[nH]5)C=C4)C=C3)cc1
REMARK SMILES IDX 7 1 6 2 5 3 4 4 3 5 2 6 1 7 28 8 29 9 90 10 30 11 89 12
REMARK SMILES IDX 31 13 32 14 33 15 83 16 34 17 88 18 82 19 84 20 35 21 87 22
REMARK SMILES IDX 81 23 80 24 36 26 68 27 48 28 67 29 49 30 52 31 66 32 85 33
REMARK SMILES IDX 50 34 51 35 65 37 86 38 53 39 37 40 38 41 46 42 39 43 40 44
REMARK SMILES IDX 44 45 47 46 41 47 42 48 45 49 43 50 69 51 70 52 78 53 71 54
REMARK SMILES IDX 72 55 76 56 79 57 73 58 74 59 77 60 75 61 54 62 55 63 63 64
REMARK SMILES IDX 56 65 57 66 61 67 64 68 58 69 59 70 62 71 60 72 8 73 9 74
REMARK SMILES IDX 10 75 11 76 12 77 17 78 20 79 18 80 19 81 13 82 14 85 15 86
REMARK SMILES IDX 16 87 21 88 22 89 23 90 24 91 27 92 25 93 26 94
REMARK H PARENT 84 25 52 36 13 83 13 84
REMARK Flexibility Score: inf
ROOT
ATOM      1  C   UNL A   1      32.743  30.468  27.114  1.00  0.00     0.202 C 
ENDROOT
BRANCH   1   2
ATOM      2  O   UNL A   1      33.653  31.492  27.495  1.00  0.00    -0.374 OA
BRANCH   2   3
ATOM      3  C   UNL A   1      34.802  31.190  28.280  1.00  0.00     0.202 C 
BRANCH   3   4
ATOM      4  C   UNL A   1      35.244  32.167  29.395  1.00  0.00     0.261 C 
BRANCH   4   5
ATOM      5  O   UNL A   1      36.374  31.723  30.146  1.00  0.00    -0.460 OA
BRANCH   5   6
ATOM      6  C   UNL A   1      36.584  30.494  30.655  1.00  0.00     0.338 C 
ATOM      7  O   UNL A   1      35.854  30.094  31.559  1.00  0.00    -0.246 OA
BRANCH   6   8
ATOM      8  C   UNL A   1      37.676  29.600  30.170  1.00  0.00     0.060 A 
ATOM      9  C   UNL A   1      38.264  28.560  30.893  1.00  0.00     0.016 A 
ATOM     10  C   UNL A   1      38.149  29.863  28.877  1.00  0.00     0.016 A 
ATOM     11  C   UNL A   1      39.474  28.049  30.529  1.00  0.00     0.010 A 
ATOM     12  C   UNL A   1      39.307  29.262  28.435  1.00  0.00     0.010 A 
ATOM     13  C   UNL A   1      40.018  28.475  29.335  1.00  0.00    -0.014 A 
BRANCH  13  14
ATOM     14  C   UNL A   1      41.381  28.069  29.113  1.00  0.00     0.031 A 
ATOM     15  C   UNL A   1      41.530  26.677  28.613  1.00  0.00     0.074 A 
ATOM     16  C   UNL A   1      42.349  28.952  29.406  1.00  0.00     0.049 A 
ATOM     17  N   UNL A   1      42.233  25.710  29.111  1.00  0.00    -0.248 NA
ATOM     18  C   UNL A   1      40.630  26.263  27.520  1.00  0.00     0.031 C 
ATOM     19  C   UNL A   1      42.208  30.366  29.779  1.00  0.00     0.029 A 
ATOM     20  N   UNL A   1      43.688  28.797  29.293  1.00  0.00    -0.354 N 
ATOM     21  C   UNL A   1      42.013  24.622  28.271  1.00  0.00     0.074 A 
ATOM     22  C   UNL A   1      40.903  24.963  27.424  1.00  0.00     0.031 C 
ATOM     23  C   UNL A   1      43.384  30.994  29.581  1.00  0.00     0.029 A 
ATOM     24  C   UNL A   1      44.369  30.002  29.205  1.00  0.00     0.049 A 
ATOM     25  H   UNL A   1      44.134  27.919  29.274  1.00  0.00     0.167 HD
ATOM     26  C   UNL A   1      42.934  23.630  28.143  1.00  0.00     0.037 A 
ATOM     27  C   UNL A   1      45.598  30.129  28.656  1.00  0.00     0.037 A 
ATOM     28  C   UNL A   1      43.754  23.513  29.317  1.00  0.00     0.049 A 
ATOM     29  C   UNL A   1      46.226  28.776  28.696  1.00  0.00     0.074 A 
ATOM     30  C   UNL A   1      43.502  23.189  30.635  1.00  0.00     0.029 A 
ATOM     31  N   UNL A   1      44.999  24.092  29.309  1.00  0.00    -0.354 N 
ATOM     32  N   UNL A   1      46.534  28.163  29.810  1.00  0.00    -0.248 NA
ATOM     33  C   UNL A   1      46.040  27.906  27.540  1.00  0.00     0.031 C 
ATOM     34  C   UNL A   1      44.374  24.021  31.396  1.00  0.00     0.029 A 
ATOM     35  C   UNL A   1      45.138  24.766  30.497  1.00  0.00     0.049 A 
ATOM     36  H   UNL A   1      45.667  24.034  28.588  1.00  0.00     0.167 HD
ATOM     37  C   UNL A   1      46.200  26.831  29.594  1.00  0.00     0.074 A 
ATOM     38  C   UNL A   1      45.958  26.724  28.158  1.00  0.00     0.031 C 
ATOM     39  C   UNL A   1      45.868  26.004  30.631  1.00  0.00     0.037 A 
BRANCH  26  40
ATOM     40  C   UNL A   1      43.324  23.069  26.798  1.00  0.00     0.064 A 
ATOM     41  C   UNL A   1      43.138  21.699  26.542  1.00  0.00     0.173 A 
ATOM     42  C   UNL A   1      44.147  23.757  25.875  1.00  0.00     0.173 A 
ATOM     43  F   UNL A   1      42.392  20.946  27.364  1.00  0.00    -0.203 F 
ATOM     44  C   UNL A   1      43.791  21.055  25.488  1.00  0.00     0.198 A 
ATOM     45  C   UNL A   1      44.753  23.122  24.797  1.00  0.00     0.198 A 
ATOM     46  F   UNL A   1      44.495  25.038  26.039  1.00  0.00    -0.203 F 
ATOM     47  F   UNL A   1      43.687  19.726  25.355  1.00  0.00    -0.200 F 
ATOM     48  C   UNL A   1      44.605  21.765  24.622  1.00  0.00     0.200 A 
ATOM     49  F   UNL A   1      45.551  23.827  23.982  1.00  0.00    -0.200 F 
ATOM     50  F   UNL A   1      45.285  21.137  23.654  1.00  0.00    -0.200 F 
ENDBRANCH  26  40
BRANCH  27  51
ATOM     51  C   UNL A   1      45.998  31.212  27.730  1.00  0.00     0.064 A 
ATOM     52  C   UNL A   1      45.124  31.669  26.738  1.00  0.00     0.173 A 
ATOM     53  C   UNL A   1      47.173  31.971  27.931  1.00  0.00     0.173 A 
ATOM     54  F   UNL A   1      43.962  31.035  26.526  1.00  0.00    -0.203 F 
ATOM     55  C   UNL A   1      45.408  32.814  25.986  1.00  0.00     0.198 A 
ATOM     56  C   UNL A   1      47.463  33.103  27.171  1.00  0.00     0.198 A 
ATOM     57  F   UNL A   1      48.026  31.682  28.925  1.00  0.00    -0.203 F 
ATOM     58  F   UNL A   1      44.527  33.249  25.075  1.00  0.00    -0.200 F 
ATOM     59  C   UNL A   1      46.575  33.529  26.204  1.00  0.00     0.200 A 
ATOM     60  F   UNL A   1      48.580  33.802  27.419  1.00  0.00    -0.200 F 
ATOM     61  F   UNL A   1      46.827  34.648  25.510  1.00  0.00    -0.200 F 
ENDBRANCH  27  51
BRANCH  39  62
ATOM     62  C   UNL A   1      46.040  26.537  32.025  1.00  0.00     0.064 A 
ATOM     63  C   UNL A   1      45.020  27.208  32.722  1.00  0.00     0.173 A 
ATOM     64  C   UNL A   1      47.203  26.221  32.737  1.00  0.00     0.173 A 
ATOM     65  F   UNL A   1      43.834  27.437  32.146  1.00  0.00    -0.203 F 
ATOM     66  C   UNL A   1      45.178  27.592  34.053  1.00  0.00     0.198 A 
ATOM     67  C   UNL A   1      47.345  26.573  34.077  1.00  0.00     0.198 A 
ATOM     68  F   UNL A   1      48.179  25.515  32.146  1.00  0.00    -0.203 F 
ATOM     69  F   UNL A   1      44.189  28.238  34.689  1.00  0.00    -0.200 F 
ATOM     70  C   UNL A   1      46.341  27.269  34.731  1.00  0.00     0.200 A 
ATOM     71  F   UNL A   1      48.447  26.206  34.747  1.00  0.00    -0.200 F 
ATOM     72  F   UNL A   1      46.478  27.596  36.024  1.00  0.00    -0.200 F 
ENDBRANCH  39  62
ENDBRANCH  13  14
ENDBRANCH   6   8
ENDBRANCH   5   6
ENDBRANCH   4   5
ENDBRANCH   3   4
ENDBRANCH   2   3
ENDBRANCH   1   2
BRANCH   1  73
ATOM     73  C   UNL A   1      32.831  29.808  25.742  1.00  0.00     0.261 C 
BRANCH  73  74
ATOM     74  O   UNL A   1      33.192  28.413  25.756  1.00  0.00    -0.459 OA
BRANCH  74  75
ATOM     75  C   UNL A   1      33.025  27.743  24.576  1.00  0.00     0.368 C 
ATOM     76  O   UNL A   1      33.692  27.980  23.571  1.00  0.00    -0.245 OA
BRANCH  75  77
ATOM     77  C   UNL A   1      31.867  26.726  24.621  1.00  0.00     0.197 C 
ATOM     78  C   UNL A   1      31.080  26.610  25.936  1.00  0.00     0.081 C 
ATOM     79  C   UNL A   1      30.719  27.134  23.631  1.00  0.00     0.064 C 
ATOM     80  C   UNL A   1      29.799  25.876  25.561  1.00  0.00     0.008 C 
ATOM     81  C   UNL A   1      29.505  26.289  24.121  1.00  0.00     0.011 C 
BRANCH  77  82
ATOM     82  N   UNL A   1      32.335  25.378  24.181  1.00  0.00    -0.329 N 
ATOM     83  H   UNL A   1      32.714  25.507  23.244  1.00  0.00     0.347 HD
ATOM     84  H   UNL A   1      31.495  24.818  24.324  1.00  0.00     0.347 HD
BRANCH  82  85
ATOM     85  C   UNL A   1      33.330  24.596  24.910  1.00  0.00     0.183 C 
ATOM     86  C   UNL A   1      33.136  23.856  26.193  1.00  0.00     0.071 C 
ATOM     87  C   UNL A   1      33.132  23.091  24.921  1.00  0.00     0.071 C 
ENDBRANCH  82  85
ENDBRANCH  77  82
BRANCH  79  88
ATOM     88  C   UNL A   1      30.248  28.609  23.547  1.00  0.00     0.032 C 
BRANCH  88  89
ATOM     89  C   UNL A   1      28.917  29.043  22.913  1.00  0.00     0.123 C 
BRANCH  89  90
ATOM     90  N   UNL A   1      28.570  30.418  22.647  1.00  0.00    -0.337 N 
ATOM     91  C   UNL A   1      28.635  30.967  21.386  1.00  0.00     0.107 A 
ATOM     92  C   UNL A   1      27.973  31.346  23.444  1.00  0.00     0.199 A 
ATOM     93  C   UNL A   1      28.121  32.234  21.510  1.00  0.00     0.130 A 
ATOM     94  N   UNL A   1      27.734  32.467  22.799  1.00  0.00    -0.245 NA
ENDBRANCH  89  90
ENDBRANCH  88  89
ENDBRANCH  79  88
ENDBRANCH  75  77
ENDBRANCH  74  75
ENDBRANCH  73  74
ENDBRANCH   1  73
TORSDOF 19
ENDMDL
MODEL 3
REMARK VINA RESULT:     -10.2      4.420      8.873
REMARK SMILES O=C(OCCOCCOC(=O)[C@@]1([NH2+]C2CC2)CCC[C@H]1CCn1ccnc1)c1ccc(-c2c3nc(c(-c4c(F)c(F)c(F)c(F)c4F)c4ccc([nH]4)c(-c4c(F)c(F)c(F)c(F)c4F)c4nc(c(-c5c(F)c(F)c(F)c(F)c5F)c5ccc2[nH]5)C=C4)C=C3)cc1
REMARK SMILES IDX 7 1 6 2 5 3 4 4 3 5 2 6 1 7 28 8 29 9 90 10 30 11 89 12
REMARK SMILES IDX 31 13 32 14 33 15 83 16 34 17 88 18 82 19 84 20 35 21 87 22
REMARK SMILES IDX 81 23 80 24 36 26 68 27 48 28 67 29 49 30 52 31 66 32 85 33
REMARK SMILES IDX 50 34 51 35 65 37 86 38 53 39 37 40 38 41 46 42 39 43 40 44
REMARK SMILES IDX 44 45 47 46 41 47 42 48 45 49 43 50 69 51 70 52 78 53 71 54
REMARK SMILES IDX 72 55 76 56 79 57 73 58 74 59 77 60 75 61 54 62 55 63 63 64
REMARK SMILES IDX 56 65 57 66 61 67 64 68 58 69 59 70 62 71 60 72 8 73 9 74
REMARK SMILES IDX 10 75 11 76 12 77 17 78 20 79 18 80 19 81 13 82 14 85 15 86
REMARK SMILES IDX 16 87 21 88 22 89 23 90 24 91 27 92 25 93 26 94
REMARK H PARENT 84 25 52 36 13 83 13 84
REMARK Flexibility Score: inf
ROOT
ATOM      1  C   UNL A   1      31.706  29.125  26.819  1.00  0.00     0.202 C 
ENDROOT
BRANCH   1   2
ATOM      2  O   UNL A   1      33.011  29.216  26.260  1.00  0.00    -0.374 OA
BRANCH   2   3
ATOM      3  C   UNL A   1      33.982  30.094  26.821  1.00  0.00     0.202 C 
BRANCH   3   4
ATOM      4  C   UNL A   1      35.265  29.509  27.456  1.00  0.00     0.261 C 
BRANCH   4   5
ATOM      5  O   UNL A   1      36.394  30.381  27.398  1.00  0.00    -0.460 OA
BRANCH   5   6
ATOM      6  C   UNL A   1      37.517  30.314  28.140  1.00  0.00     0.338 C 
ATOM      7  O   UNL A   1      37.686  31.141  29.034  1.00  0.00    -0.246 OA
BRANCH   6   8
ATOM      8  C   UNL A   1      38.568  29.280  27.913  1.00  0.00     0.060 A 
ATOM      9  C   UNL A   1      38.544  27.970  28.398  1.00  0.00     0.016 A 
ATOM     10  C   UNL A   1      39.676  29.692  27.161  1.00  0.00     0.016 A 
ATOM     11  C   UNL A   1      39.684  27.225  28.460  1.00  0.00     0.010 A 
ATOM     12  C   UNL A   1      40.801  28.897  27.104  1.00  0.00     0.010 A 
ATOM     13  C   UNL A   1      40.822  27.742  27.879  1.00  0.00    -0.014 A 
BRANCH  13  14
ATOM     14  C   UNL A   1      42.031  27.015  28.165  1.00  0.00     0.031 A 
ATOM     15  C   UNL A   1      42.676  27.386  29.453  1.00  0.00     0.074 A 
ATOM     16  C   UNL A   1      42.456  26.129  27.251  1.00  0.00     0.049 A 
ATOM     17  N   UNL A   1      43.891  27.782  29.663  1.00  0.00    -0.248 NA
ATOM     18  C   UNL A   1      41.793  27.506  30.629  1.00  0.00     0.031 C 
ATOM     19  C   UNL A   1      41.763  25.666  26.040  1.00  0.00     0.029 A 
ATOM     20  N   UNL A   1      43.557  25.343  27.292  1.00  0.00    -0.354 N 
ATOM     21  C   UNL A   1      43.974  28.009  31.035  1.00  0.00     0.074 A 
ATOM     22  C   UNL A   1      42.629  27.990  31.544  1.00  0.00     0.031 C 
ATOM     23  C   UNL A   1      42.312  24.504  25.634  1.00  0.00     0.029 A 
ATOM     24  C   UNL A   1      43.462  24.231  26.470  1.00  0.00     0.049 A 
ATOM     25  H   UNL A   1      44.345  25.542  27.849  1.00  0.00     0.167 HD
ATOM     26  C   UNL A   1      45.157  27.919  31.696  1.00  0.00     0.037 A 
ATOM     27  C   UNL A   1      44.184  23.102  26.652  1.00  0.00     0.037 A 
ATOM     28  C   UNL A   1      46.271  28.183  30.827  1.00  0.00     0.049 A 
ATOM     29  C   UNL A   1      45.374  23.483  27.466  1.00  0.00     0.074 A 
ATOM     30  C   UNL A   1      46.689  29.286  30.109  1.00  0.00     0.029 A 
ATOM     31  N   UNL A   1      46.965  27.119  30.307  1.00  0.00    -0.354 N 
ATOM     32  N   UNL A   1      46.311  24.287  27.031  1.00  0.00    -0.248 NA
ATOM     33  C   UNL A   1      45.266  23.384  28.917  1.00  0.00     0.031 C 
ATOM     34  C   UNL A   1      47.225  28.760  28.897  1.00  0.00     0.029 A 
ATOM     35  C   UNL A   1      47.147  27.369  28.970  1.00  0.00     0.049 A 
ATOM     36  H   UNL A   1      47.275  26.325  30.800  1.00  0.00     0.167 HD
ATOM     37  C   UNL A   1      46.641  25.081  28.123  1.00  0.00     0.074 A 
ATOM     38  C   UNL A   1      46.008  24.439  29.270  1.00  0.00     0.031 C 
ATOM     39  C   UNL A   1      47.150  26.339  27.958  1.00  0.00     0.037 A 
BRANCH  26  40
ATOM     40  C   UNL A   1      45.285  27.198  33.014  1.00  0.00     0.064 A 
ATOM     41  C   UNL A   1      44.852  25.863  33.115  1.00  0.00     0.173 A 
ATOM     42  C   UNL A   1      45.527  27.855  34.243  1.00  0.00     0.173 A 
ATOM     43  F   UNL A   1      44.575  25.150  32.012  1.00  0.00    -0.203 F 
ATOM     44  C   UNL A   1      44.608  25.263  34.353  1.00  0.00     0.198 A 
ATOM     45  C   UNL A   1      45.333  27.237  35.473  1.00  0.00     0.198 A 
ATOM     46  F   UNL A   1      45.849  29.152  34.312  1.00  0.00    -0.203 F 
ATOM     47  F   UNL A   1      44.076  24.034  34.402  1.00  0.00    -0.200 F 
ATOM     48  C   UNL A   1      44.839  25.953  35.530  1.00  0.00     0.200 A 
ATOM     49  F   UNL A   1      45.546  27.932  36.599  1.00  0.00    -0.200 F 
ATOM     50  F   UNL A   1      44.540  25.404  36.714  1.00  0.00    -0.200 F 
ENDBRANCH  26  40
BRANCH  27  51
ATOM     51  C   UNL A   1      43.638  21.729  26.556  1.00  0.00     0.064 A 
ATOM     52  C   UNL A   1      42.522  21.345  27.308  1.00  0.00     0.173 A 
ATOM     53  C   UNL A   1      44.071  20.820  25.564  1.00  0.00     0.173 A 
ATOM     54  F   UNL A   1      42.018  22.177  28.230  1.00  0.00    -0.203 F 
ATOM     55  C   UNL A   1      41.879  20.122  27.086  1.00  0.00     0.198 A 
ATOM     56  C   UNL A   1      43.439  19.597  25.354  1.00  0.00     0.198 A 
ATOM     57  F   UNL A   1      45.064  21.135  24.719  1.00  0.00    -0.203 F 
ATOM     58  F   UNL A   1      40.786  19.806  27.794  1.00  0.00    -0.200 F 
ATOM     59  C   UNL A   1      42.337  19.251  26.110  1.00  0.00     0.200 A 
ATOM     60  F   UNL A   1      43.875  18.781  24.383  1.00  0.00    -0.200 F 
ATOM     61  F   UNL A   1      41.696  18.098  25.872  1.00  0.00    -0.200 F 
ENDBRANCH  27  51
BRANCH  39  62
ATOM     62  C   UNL A   1      47.499  26.769  26.561  1.00  0.00     0.064 A 
ATOM     63  C   UNL A   1      48.729  26.467  25.950  1.00  0.00     0.173 A 
ATOM     64  C   UNL A   1      46.512  27.356  25.762  1.00  0.00     0.173 A 
ATOM     65  F   UNL A   1      49.677  25.797  26.615  1.00  0.00    -0.203 F 
ATOM     66  C   UNL A   1      48.976  26.786  24.616  1.00  0.00     0.198 A 
ATOM     67  C   UNL A   1      46.748  27.641  24.419  1.00  0.00     0.198 A 
ATOM     68  F   UNL A   1      45.294  27.598  26.270  1.00  0.00    -0.203 F 
ATOM     69  F   UNL A   1      50.163  26.491  24.062  1.00  0.00    -0.200 F 
ATOM     70  C   UNL A   1      47.982  27.370  23.850  1.00  0.00     0.200 A 
ATOM     71  F   UNL A   1      45.764  28.152  23.665  1.00  0.00    -0.200 F 
ATOM     72  F   UNL A   1      48.201  27.637  22.554  1.00  0.00    -0.200 F 
ENDBRANCH  39  62
ENDBRANCH  13  14
ENDBRANCH   6   8
ENDBRANCH   5   6
ENDBRANCH   4   5
ENDBRANCH   3   4
ENDBRANCH   2   3
ENDBRANCH   1   2
BRANCH   1  73
ATOM     73  C   UNL A   1      31.223  27.839  27.482  1.00  0.00     0.261 C 
BRANCH  73  74
ATOM     74  O   UNL A   1      31.783  26.626  26.945  1.00  0.00    -0.459 OA
BRANCH  74  75
ATOM     75  C   UNL A   1      30.987  25.938  26.072  1.00  0.00     0.368 C 
ATOM     76  O   UNL A   1      29.847  25.573  26.351  1.00  0.00    -0.245 OA
BRANCH  75  77
ATOM     77  C   UNL A   1      31.698  25.604  24.745  1.00  0.00     0.197 C 
ATOM     78  C   UNL A   1      33.214  25.846  24.677  1.00  0.00     0.081 C 
ATOM     79  C   UNL A   1      31.635  24.064  24.445  1.00  0.00     0.064 C 
ATOM     80  C   UNL A   1      33.679  25.064  23.455  1.00  0.00     0.008 C 
ATOM     81  C   UNL A   1      32.738  23.865  23.361  1.00  0.00     0.011 C 
BRANCH  77  82
ATOM     82  N   UNL A   1      31.016  26.278  23.601  1.00  0.00    -0.329 N 
ATOM     83  H   UNL A   1      30.016  26.180  23.775  1.00  0.00     0.347 HD
ATOM     84  H   UNL A   1      31.449  25.809  22.806  1.00  0.00     0.347 HD
BRANCH  82  85
ATOM     85  C   UNL A   1      31.226  27.681  23.255  1.00  0.00     0.183 C 
ATOM     86  C   UNL A   1      30.442  28.500  22.282  1.00  0.00     0.071 C 
ATOM     87  C   UNL A   1      30.169  28.661  23.732  1.00  0.00     0.071 C 
ENDBRANCH  82  85
ENDBRANCH  77  82
BRANCH  79  88
ATOM     88  C   UNL A   1      31.910  23.036  25.573  1.00  0.00     0.032 C 
BRANCH  88  89
ATOM     89  C   UNL A   1      31.737  21.519  25.404  1.00  0.00     0.123 C 
BRANCH  89  90
ATOM     90  N   UNL A   1      32.833  20.609  25.173  1.00  0.00    -0.337 N 
ATOM     91  C   UNL A   1      32.641  19.304  24.781  1.00  0.00     0.107 A 
ATOM     92  C   UNL A   1      34.172  20.845  25.101  1.00  0.00     0.199 A 
ATOM     93  C   UNL A   1      33.898  18.802  24.548  1.00  0.00     0.130 A 
ATOM     94  N   UNL A   1      34.843  19.761  24.773  1.00  0.00    -0.245 NA
ENDBRANCH  89  90
ENDBRANCH  88  89
ENDBRANCH  79  88
ENDBRANCH  75  77
ENDBRANCH  74  75
ENDBRANCH  73  74
ENDBRANCH   1  73
TORSDOF 19
ENDMDL
