MODEL 1
REMARK VINA RESULT:     -11.4      0.000      0.000
REMARK SMILES CC(=O)OCC1=C(C(=O)OCCOCCOC(=O)c2ccc(-c3c4nc(c(-c5c(F)c(F)c(F)c(F)c5F)c5ccc([nH]5)c(-c5c(F)c(F)c(F)c(F)c5F)c5nc(c(-c6c(F)c(F)c(F)c(F)c6F)c6ccc3[nH]6)C=C5)C=C4)cc2)N2C(=O)[C@H](NC(=O)C3CCCCC3)[C@@H]2SC1
REMARK SMILES IDX 12 1 11 2 10 3 8 4 9 5 7 6 6 7 97 8 82 9 96 10 83 11 95 12
REMARK SMILES IDX 84 13 85 14 5 15 4 16 2 17 1 18 3 19 86 20 87 21 88 23 89 24
REMARK SMILES IDX 90 25 94 26 91 27 93 28 92 29 13 30 14 31 15 32 16 33 17 34
REMARK SMILES IDX 18 35 19 36 20 37 81 38 21 39 80 40 22 41 23 42 24 43 74 44
REMARK SMILES IDX 25 45 79 46 73 47 75 48 26 49 78 50 72 51 71 52 27 54 59 55
REMARK SMILES IDX 39 56 58 57 40 58 43 59 57 60 76 61 41 62 42 63 56 65 77 66
REMARK SMILES IDX 44 67 28 68 29 69 37 70 30 71 31 72 35 73 38 74 32 75 33 76
REMARK SMILES IDX 36 77 34 78 60 79 61 80 69 81 62 82 63 83 67 84 70 85 64 86
REMARK SMILES IDX 65 87 68 88 66 89 45 90 46 91 54 92 47 93 48 94 52 95 55 96
REMARK SMILES IDX 49 97 50 98 53 99 51 100
REMARK H PARENT 86 22 75 53 43 64
REMARK Flexibility Score: inf
ROOT
ATOM      1  C   UNL A   1      34.640  29.383  27.596  1.00  0.00     0.202 C 
ENDROOT
BRANCH   1   2
ATOM      2  C   UNL A   1      34.075  28.231  26.766  1.00  0.00     0.261 C 
BRANCH   2   3
ATOM      3  O   UNL A   1      33.081  28.710  25.852  1.00  0.00    -0.459 OA
BRANCH   3   4
ATOM      4  C   UNL A   1      31.822  28.254  26.076  1.00  0.00     0.355 C 
ATOM      5  O   UNL A   1      31.205  28.358  27.124  1.00  0.00    -0.244 OA
BRANCH   4   6
ATOM      6  C   UNL A   1      31.221  27.696  24.807  1.00  0.00     0.134 C 
ATOM      7  C   UNL A   1      30.643  28.454  23.835  1.00  0.00     0.008 C 
ATOM      8  C   UNL A   1      30.240  27.903  22.478  1.00  0.00     0.108 C 
ATOM      9  N   UNL A   1      31.403  26.355  24.614  1.00  0.00    -0.289 N 
ATOM     10  S   UNL A   1      31.213  26.454  21.972  1.00  0.00    -0.129 SA
ATOM     11  C   UNL A   1      31.918  25.299  25.274  1.00  0.00     0.253 C 
ATOM     12  C   UNL A   1      30.865  25.592  23.512  1.00  0.00     0.181 C 
ATOM     13  O   UNL A   1      32.296  25.110  26.411  1.00  0.00    -0.272 OA
ATOM     14  C   UNL A   1      31.816  24.446  23.958  1.00  0.00     0.205 C 
BRANCH   7  15
ATOM     15  C   UNL A   1      30.327  29.933  23.951  1.00  0.00     0.267 C 
BRANCH  15  16
ATOM     16  O   UNL A   1      29.332  30.395  23.025  1.00  0.00    -0.461 OA
BRANCH  16  17
ATOM     17  C   UNL A   1      28.701  31.557  23.341  1.00  0.00     0.302 C 
ATOM     18  C   UNL A   1      27.311  31.308  23.816  1.00  0.00     0.139 C 
ATOM     19  O   UNL A   1      29.197  32.671  23.307  1.00  0.00    -0.253 OA
ENDBRANCH  16  17
ENDBRANCH  15  16
ENDBRANCH   7  15
BRANCH  14  20
ATOM     20  N   UNL A   1      33.104  24.293  23.234  1.00  0.00    -0.342 N 
ATOM     21  C   UNL A   1      34.015  23.278  23.302  1.00  0.00     0.223 C 
ATOM     22  H   UNL A   1      33.334  25.027  22.620  1.00  0.00     0.164 HD
ATOM     23  O   UNL A   1      35.059  23.371  22.659  1.00  0.00    -0.275 OA
BRANCH  21  24
ATOM     24  C   UNL A   1      33.660  22.037  24.108  1.00  0.00     0.078 C 
ATOM     25  C   UNL A   1      32.704  21.170  23.279  1.00  0.00     0.013 C 
ATOM     26  C   UNL A   1      34.912  21.248  24.502  1.00  0.00     0.013 C 
ATOM     27  C   UNL A   1      32.342  19.876  24.003  1.00  0.00     0.001 C 
ATOM     28  C   UNL A   1      34.530  19.983  25.267  1.00  0.00     0.001 C 
ATOM     29  C   UNL A   1      33.583  19.107  24.451  1.00  0.00     0.000 C 
ENDBRANCH  21  24
ENDBRANCH  14  20
ENDBRANCH   4   6
ENDBRANCH   3   4
ENDBRANCH   2   3
ENDBRANCH   1   2
BRANCH   1  30
ATOM     30  O   UNL A   1      34.383  30.710  27.148  1.00  0.00    -0.374 OA
BRANCH  30  31
ATOM     31  C   UNL A   1      34.025  31.702  28.107  1.00  0.00     0.202 C 
BRANCH  31  32
ATOM     32  C   UNL A   1      33.321  32.967  27.597  1.00  0.00     0.261 C 
BRANCH  32  33
ATOM     33  O   UNL A   1      32.574  33.669  28.604  1.00  0.00    -0.460 OA
BRANCH  33  34
ATOM     34  C   UNL A   1      33.158  34.820  29.022  1.00  0.00     0.338 C 
ATOM     35  O   UNL A   1      32.757  35.959  28.864  1.00  0.00    -0.246 OA
BRANCH  34  36
ATOM     36  C   UNL A   1      34.339  34.519  29.850  1.00  0.00     0.060 A 
ATOM     37  C   UNL A   1      35.604  34.662  29.265  1.00  0.00     0.016 A 
ATOM     38  C   UNL A   1      34.201  33.982  31.131  1.00  0.00     0.016 A 
ATOM     39  C   UNL A   1      36.739  34.221  29.943  1.00  0.00     0.010 A 
ATOM     40  C   UNL A   1      35.339  33.535  31.806  1.00  0.00     0.010 A 
ATOM     41  C   UNL A   1      36.607  33.616  31.200  1.00  0.00    -0.014 A 
BRANCH  41  42
ATOM     42  C   UNL A   1      37.768  32.929  31.815  1.00  0.00     0.031 A 
ATOM     43  C   UNL A   1      38.385  31.759  31.100  1.00  0.00     0.074 A 
ATOM     44  C   UNL A   1      38.271  33.347  32.990  1.00  0.00     0.049 A 
ATOM     45  N   UNL A   1      39.341  30.955  31.490  1.00  0.00    -0.248 NA
ATOM     46  C   UNL A   1      37.845  31.451  29.767  1.00  0.00     0.031 C 
ATOM     47  C   UNL A   1      37.791  34.497  33.752  1.00  0.00     0.029 A 
ATOM     48  N   UNL A   1      39.292  32.838  33.753  1.00  0.00    -0.354 N 
ATOM     49  C   UNL A   1      39.506  30.038  30.459  1.00  0.00     0.074 A 
ATOM     50  C   UNL A   1      38.533  30.366  29.440  1.00  0.00     0.031 C 
ATOM     51  C   UNL A   1      38.507  34.598  34.884  1.00  0.00     0.029 A 
ATOM     52  C   UNL A   1      39.466  33.497  34.945  1.00  0.00     0.049 A 
ATOM     53  H   UNL A   1      39.846  32.074  33.473  1.00  0.00     0.167 HD
ATOM     54  C   UNL A   1      40.396  29.021  30.369  1.00  0.00     0.037 A 
ATOM     55  C   UNL A   1      40.285  33.221  35.977  1.00  0.00     0.037 A 
ATOM     56  C   UNL A   1      41.367  28.704  31.384  1.00  0.00     0.049 A 
ATOM     57  C   UNL A   1      41.213  32.036  35.886  1.00  0.00     0.074 A 
ATOM     58  C   UNL A   1      42.327  27.708  31.380  1.00  0.00     0.029 A 
ATOM     59  N   UNL A   1      41.496  29.378  32.590  1.00  0.00    -0.354 N 
ATOM     60  N   UNL A   1      41.376  31.183  34.903  1.00  0.00    -0.248 NA
ATOM     61  C   UNL A   1      42.072  31.776  37.050  1.00  0.00     0.031 C 
ATOM     62  C   UNL A   1      42.996  27.740  32.608  1.00  0.00     0.029 A 
ATOM     63  C   UNL A   1      42.499  28.799  33.351  1.00  0.00     0.049 A 
ATOM     64  H   UNL A   1      40.954  30.152  32.865  1.00  0.00     0.167 HD
ATOM     65  C   UNL A   1      42.377  30.311  35.313  1.00  0.00     0.074 A 
ATOM     66  C   UNL A   1      42.792  30.746  36.631  1.00  0.00     0.031 C 
ATOM     67  C   UNL A   1      42.907  29.248  34.659  1.00  0.00     0.037 A 
BRANCH  54  68
ATOM     68  C   UNL A   1      40.341  28.154  29.144  1.00  0.00     0.064 A 
ATOM     69  C   UNL A   1      41.047  28.475  27.975  1.00  0.00     0.173 A 
ATOM     70  C   UNL A   1      39.596  26.964  29.152  1.00  0.00     0.173 A 
ATOM     71  F   UNL A   1      41.764  29.607  27.909  1.00  0.00    -0.203 F 
ATOM     72  C   UNL A   1      40.986  27.654  26.851  1.00  0.00     0.198 A 
ATOM     73  C   UNL A   1      39.565  26.129  28.039  1.00  0.00     0.198 A 
ATOM     74  F   UNL A   1      38.905  26.607  30.244  1.00  0.00    -0.203 F 
ATOM     75  F   UNL A   1      41.628  28.007  25.729  1.00  0.00    -0.200 F 
ATOM     76  C   UNL A   1      40.253  26.478  26.887  1.00  0.00     0.200 A 
ATOM     77  F   UNL A   1      38.866  24.985  28.081  1.00  0.00    -0.200 F 
ATOM     78  F   UNL A   1      40.202  25.684  25.808  1.00  0.00    -0.200 F 
ENDBRANCH  54  68
BRANCH  55  79
ATOM     79  C   UNL A   1      40.255  34.069  37.197  1.00  0.00     0.064 A 
ATOM     80  C   UNL A   1      41.111  35.170  37.334  1.00  0.00     0.173 A 
ATOM     81  C   UNL A   1      39.385  33.785  38.260  1.00  0.00     0.173 A 
ATOM     82  F   UNL A   1      41.979  35.469  36.355  1.00  0.00    -0.203 F 
ATOM     83  C   UNL A   1      41.113  35.942  38.495  1.00  0.00     0.198 A 
ATOM     84  C   UNL A   1      39.365  34.576  39.407  1.00  0.00     0.198 A 
ATOM     85  F   UNL A   1      38.544  32.743  38.181  1.00  0.00    -0.203 F 
ATOM     86  F   UNL A   1      41.978  36.957  38.620  1.00  0.00    -0.200 F 
ATOM     87  C   UNL A   1      40.236  35.648  39.528  1.00  0.00     0.200 A 
ATOM     88  F   UNL A   1      38.504  34.297  40.395  1.00  0.00    -0.200 F 
ATOM     89  F   UNL A   1      40.236  36.391  40.642  1.00  0.00    -0.200 F 
ENDBRANCH  55  79
BRANCH  67  90
ATOM     90  C   UNL A   1      44.025  28.505  35.335  1.00  0.00     0.064 A 
ATOM     91  C   UNL A   1      45.370  28.845  35.132  1.00  0.00     0.173 A 
ATOM     92  C   UNL A   1      43.742  27.463  36.234  1.00  0.00     0.173 A 
ATOM     93  F   UNL A   1      45.697  29.823  34.273  1.00  0.00    -0.203 F 
ATOM     94  C   UNL A   1      46.390  28.152  35.778  1.00  0.00     0.198 A 
ATOM     95  C   UNL A   1      44.762  26.796  36.905  1.00  0.00     0.198 A 
ATOM     96  F   UNL A   1      42.471  27.103  36.472  1.00  0.00    -0.203 F 
ATOM     97  F   UNL A   1      47.671  28.459  35.527  1.00  0.00    -0.200 F 
ATOM     98  C   UNL A   1      46.086  27.135  36.670  1.00  0.00     0.200 A 
ATOM     99  F   UNL A   1      44.464  25.826  37.779  1.00  0.00    -0.200 F 
ATOM    100  F   UNL A   1      47.068  26.474  37.298  1.00  0.00    -0.200 F 
ENDBRANCH  67  90
ENDBRANCH  41  42
ENDBRANCH  34  36
ENDBRANCH  33  34
ENDBRANCH  32  33
ENDBRANCH  31  32
ENDBRANCH  30  31
ENDBRANCH   1  30
TORSDOF 19
ENDMDL
MODEL 2
REMARK VINA RESULT:     -11.2      3.529      7.434
REMARK SMILES CC(=O)OCC1=C(C(=O)OCCOCCOC(=O)c2ccc(-c3c4nc(c(-c5c(F)c(F)c(F)c(F)c5F)c5ccc([nH]5)c(-c5c(F)c(F)c(F)c(F)c5F)c5nc(c(-c6c(F)c(F)c(F)c(F)c6F)c6ccc3[nH]6)C=C5)C=C4)cc2)N2C(=O)[C@H](NC(=O)C3CCCCC3)[C@@H]2SC1
REMARK SMILES IDX 12 1 11 2 10 3 8 4 9 5 7 6 6 7 97 8 82 9 96 10 83 11 95 12
REMARK SMILES IDX 84 13 85 14 5 15 4 16 2 17 1 18 3 19 86 20 87 21 88 23 89 24
REMARK SMILES IDX 90 25 94 26 91 27 93 28 92 29 13 30 14 31 15 32 16 33 17 34
REMARK SMILES IDX 18 35 19 36 20 37 81 38 21 39 80 40 22 41 23 42 24 43 74 44
REMARK SMILES IDX 25 45 79 46 73 47 75 48 26 49 78 50 72 51 71 52 27 54 59 55
REMARK SMILES IDX 39 56 58 57 40 58 43 59 57 60 76 61 41 62 42 63 56 65 77 66
REMARK SMILES IDX 44 67 28 68 29 69 37 70 30 71 31 72 35 73 38 74 32 75 33 76
REMARK SMILES IDX 36 77 34 78 60 79 61 80 69 81 62 82 63 83 67 84 70 85 64 86
REMARK SMILES IDX 65 87 68 88 66 89 45 90 46 91 54 92 47 93 48 94 52 95 55 96
REMARK SMILES IDX 49 97 50 98 53 99 51 100
REMARK H PARENT 86 22 75 53 43 64
REMARK Flexibility Score: inf
ROOT
ATOM      1  C   UNL A   1      33.657  24.964  26.431  1.00  0.00     0.202 C 
ENDROOT
BRANCH   1   2
ATOM      2  C   UNL A   1      32.750  26.005  25.775  1.00  0.00     0.261 C 
BRANCH   2   3
ATOM      3  O   UNL A   1      31.377  25.748  26.092  1.00  0.00    -0.459 OA
BRANCH   3   4
ATOM      4  C   UNL A   1      30.545  25.650  25.023  1.00  0.00     0.355 C 
ATOM      5  O   UNL A   1      29.414  26.105  24.960  1.00  0.00    -0.244 OA
BRANCH   4   6
ATOM      6  C   UNL A   1      31.248  24.999  23.856  1.00  0.00     0.134 C 
ATOM      7  C   UNL A   1      31.774  25.681  22.801  1.00  0.00     0.008 C 
ATOM      8  C   UNL A   1      32.661  25.035  21.750  1.00  0.00     0.108 C 
ATOM      9  N   UNL A   1      31.450  23.652  23.971  1.00  0.00    -0.289 N 
ATOM     10  S   UNL A   1      33.553  23.575  22.360  1.00  0.00    -0.129 SA
ATOM     11  C   UNL A   1      31.136  22.652  24.817  1.00  0.00     0.253 C 
ATOM     12  C   UNL A   1      32.039  22.809  22.957  1.00  0.00     0.181 C 
ATOM     13  O   UNL A   1      30.387  22.544  25.765  1.00  0.00    -0.272 OA
ATOM     14  C   UNL A   1      32.140  21.713  24.055  1.00  0.00     0.205 C 
BRANCH   7  15
ATOM     15  C   UNL A   1      31.570  27.158  22.525  1.00  0.00     0.267 C 
BRANCH  15  16
ATOM     16  O   UNL A   1      30.240  27.499  22.102  1.00  0.00    -0.461 OA
BRANCH  16  17
ATOM     17  C   UNL A   1      29.812  28.754  22.397  1.00  0.00     0.302 C 
ATOM     18  C   UNL A   1      30.373  29.228  23.694  1.00  0.00     0.139 C 
ATOM     19  O   UNL A   1      29.106  29.453  21.689  1.00  0.00    -0.253 OA
ENDBRANCH  16  17
ENDBRANCH  15  16
ENDBRANCH   7  15
BRANCH  14  20
ATOM     20  N   UNL A   1      33.445  21.537  24.742  1.00  0.00    -0.342 N 
ATOM     21  C   UNL A   1      34.094  20.383  25.075  1.00  0.00     0.223 C 
ATOM     22  H   UNL A   1      33.907  22.369  24.992  1.00  0.00     0.164 HD
ATOM     23  O   UNL A   1      35.150  20.453  25.702  1.00  0.00    -0.275 OA
BRANCH  21  24
ATOM     24  C   UNL A   1      33.522  19.061  24.586  1.00  0.00     0.078 C 
ATOM     25  C   UNL A   1      34.678  18.172  24.107  1.00  0.00     0.013 C 
ATOM     26  C   UNL A   1      32.712  18.361  25.681  1.00  0.00     0.013 C 
ATOM     27  C   UNL A   1      34.186  16.803  23.647  1.00  0.00     0.001 C 
ATOM     28  C   UNL A   1      32.189  17.014  25.185  1.00  0.00     0.001 C 
ATOM     29  C   UNL A   1      33.330  16.118  24.710  1.00  0.00     0.000 C 
ENDBRANCH  21  24
ENDBRANCH  14  20
ENDBRANCH   4   6
ENDBRANCH   3   4
ENDBRANCH   2   3
ENDBRANCH   1   2
BRANCH   1  30
ATOM     30  O   UNL A   1      34.470  24.163  25.580  1.00  0.00    -0.374 OA
BRANCH  30  31
ATOM     31  C   UNL A   1      35.792  23.836  26.002  1.00  0.00     0.202 C 
BRANCH  31  32
ATOM     32  C   UNL A   1      36.822  23.487  24.918  1.00  0.00     0.261 C 
BRANCH  32  33
ATOM     33  O   UNL A   1      38.111  24.092  25.118  1.00  0.00    -0.460 OA
BRANCH  33  34
ATOM     34  C   UNL A   1      38.825  23.545  26.133  1.00  0.00     0.338 C 
ATOM     35  O   UNL A   1      38.982  22.362  26.380  1.00  0.00    -0.246 OA
BRANCH  34  36
ATOM     36  C   UNL A   1      39.539  24.596  26.877  1.00  0.00     0.060 A 
ATOM     37  C   UNL A   1      39.280  24.721  28.248  1.00  0.00     0.016 A 
ATOM     38  C   UNL A   1      40.346  25.523  26.215  1.00  0.00     0.016 A 
ATOM     39  C   UNL A   1      39.790  25.807  28.957  1.00  0.00     0.010 A 
ATOM     40  C   UNL A   1      40.850  26.615  26.927  1.00  0.00     0.010 A 
ATOM     41  C   UNL A   1      40.542  26.782  28.290  1.00  0.00    -0.014 A 
BRANCH  41  42
ATOM     42  C   UNL A   1      40.879  28.053  28.976  1.00  0.00     0.031 A 
ATOM     43  C   UNL A   1      42.270  28.246  29.512  1.00  0.00     0.074 A 
ATOM     44  C   UNL A   1      39.959  29.024  29.112  1.00  0.00     0.049 A 
ATOM     45  N   UNL A   1      42.760  29.229  30.222  1.00  0.00    -0.248 NA
ATOM     46  C   UNL A   1      43.239  27.180  29.211  1.00  0.00     0.031 C 
ATOM     47  C   UNL A   1      38.595  28.975  28.592  1.00  0.00     0.029 A 
ATOM     48  N   UNL A   1      40.037  30.240  29.743  1.00  0.00    -0.354 N 
ATOM     49  C   UNL A   1      44.086  28.895  30.465  1.00  0.00     0.074 A 
ATOM     50  C   UNL A   1      44.317  27.605  29.853  1.00  0.00     0.031 C 
ATOM     51  C   UNL A   1      37.956  30.103  28.940  1.00  0.00     0.029 A 
ATOM     52  C   UNL A   1      38.852  30.935  29.740  1.00  0.00     0.049 A 
ATOM     53  H   UNL A   1      40.861  30.582  30.159  1.00  0.00     0.167 HD
ATOM     54  C   UNL A   1      45.027  29.606  31.131  1.00  0.00     0.037 A 
ATOM     55  C   UNL A   1      38.525  32.095  30.342  1.00  0.00     0.037 A 
ATOM     56  C   UNL A   1      44.792  30.893  31.733  1.00  0.00     0.049 A 
ATOM     57  C   UNL A   1      39.569  32.830  31.144  1.00  0.00     0.074 A 
ATOM     58  C   UNL A   1      45.685  31.705  32.411  1.00  0.00     0.029 A 
ATOM     59  N   UNL A   1      43.572  31.554  31.731  1.00  0.00    -0.354 N 
ATOM     60  N   UNL A   1      40.825  32.517  31.356  1.00  0.00    -0.248 NA
ATOM     61  C   UNL A   1      39.148  34.082  31.789  1.00  0.00     0.031 C 
ATOM     62  C   UNL A   1      44.990  32.827  32.873  1.00  0.00     0.029 A 
ATOM     63  C   UNL A   1      43.681  32.749  32.425  1.00  0.00     0.049 A 
ATOM     64  H   UNL A   1      42.751  31.222  31.302  1.00  0.00     0.167 HD
ATOM     65  C   UNL A   1      41.351  33.547  32.126  1.00  0.00     0.074 A 
ATOM     66  C   UNL A   1      40.281  34.500  32.334  1.00  0.00     0.031 C 
ATOM     67  C   UNL A   1      42.608  33.692  32.617  1.00  0.00     0.037 A 
BRANCH  54  68
ATOM     68  C   UNL A   1      46.391  28.993  31.275  1.00  0.00     0.064 A 
ATOM     69  C   UNL A   1      47.409  29.219  30.336  1.00  0.00     0.173 A 
ATOM     70  C   UNL A   1      46.694  28.194  32.388  1.00  0.00     0.173 A 
ATOM     71  F   UNL A   1      47.169  29.964  29.247  1.00  0.00    -0.203 F 
ATOM     72  C   UNL A   1      48.669  28.645  30.492  1.00  0.00     0.198 A 
ATOM     73  C   UNL A   1      47.964  27.649  32.558  1.00  0.00     0.198 A 
ATOM     74  F   UNL A   1      45.760  27.948  33.319  1.00  0.00    -0.203 F 
ATOM     75  F   UNL A   1      49.610  28.834  29.556  1.00  0.00    -0.200 F 
ATOM     76  C   UNL A   1      48.948  27.869  31.606  1.00  0.00     0.200 A 
ATOM     77  F   UNL A   1      48.236  26.910  33.643  1.00  0.00    -0.200 F 
ATOM     78  F   UNL A   1      50.163  27.324  31.758  1.00  0.00    -0.200 F 
ENDBRANCH  54  68
BRANCH  55  79
ATOM     79  C   UNL A   1      37.142  32.627  30.226  1.00  0.00     0.064 A 
ATOM     80  C   UNL A   1      36.759  33.416  29.133  1.00  0.00     0.173 A 
ATOM     81  C   UNL A   1      36.181  32.376  31.216  1.00  0.00     0.173 A 
ATOM     82  F   UNL A   1      37.649  33.705  28.172  1.00  0.00    -0.203 F 
ATOM     83  C   UNL A   1      35.475  33.950  29.044  1.00  0.00     0.198 A 
ATOM     84  C   UNL A   1      34.887  32.884  31.111  1.00  0.00     0.198 A 
ATOM     85  F   UNL A   1      36.494  31.626  32.284  1.00  0.00    -0.203 F 
ATOM     86  F   UNL A   1      35.152  34.744  28.014  1.00  0.00    -0.200 F 
ATOM     87  C   UNL A   1      34.539  33.679  30.030  1.00  0.00     0.200 A 
ATOM     88  F   UNL A   1      33.981  32.605  32.058  1.00  0.00    -0.200 F 
ATOM     89  F   UNL A   1      33.303  34.190  29.943  1.00  0.00    -0.200 F 
ENDBRANCH  55  79
BRANCH  67  90
ATOM     90  C   UNL A   1      42.910  34.946  33.388  1.00  0.00     0.064 A 
ATOM     91  C   UNL A   1      43.319  36.127  32.751  1.00  0.00     0.173 A 
ATOM     92  C   UNL A   1      42.745  34.978  34.782  1.00  0.00     0.173 A 
ATOM     93  F   UNL A   1      43.506  36.148  31.422  1.00  0.00    -0.203 F 
ATOM     94  C   UNL A   1      43.583  37.281  33.483  1.00  0.00     0.198 A 
ATOM     95  C   UNL A   1      42.974  36.143  35.507  1.00  0.00     0.198 A 
ATOM     96  F   UNL A   1      42.346  33.879  35.440  1.00  0.00    -0.203 F 
ATOM     97  F   UNL A   1      44.025  38.383  32.860  1.00  0.00    -0.200 F 
ATOM     98  C   UNL A   1      43.401  37.292  34.858  1.00  0.00     0.200 A 
ATOM     99  F   UNL A   1      42.782  36.155  36.833  1.00  0.00    -0.200 F 
ATOM    100  F   UNL A   1      43.646  38.407  35.560  1.00  0.00    -0.200 F 
ENDBRANCH  67  90
ENDBRANCH  41  42
ENDBRANCH  34  36
ENDBRANCH  33  34
ENDBRANCH  32  33
ENDBRANCH  31  32
ENDBRANCH  30  31
ENDBRANCH   1  30
TORSDOF 19
ENDMDL
MODEL 3
REMARK VINA RESULT:     -10.9      4.378      9.464
REMARK SMILES CC(=O)OCC1=C(C(=O)OCCOCCOC(=O)c2ccc(-c3c4nc(c(-c5c(F)c(F)c(F)c(F)c5F)c5ccc([nH]5)c(-c5c(F)c(F)c(F)c(F)c5F)c5nc(c(-c6c(F)c(F)c(F)c(F)c6F)c6ccc3[nH]6)C=C5)C=C4)cc2)N2C(=O)[C@H](NC(=O)C3CCCCC3)[C@@H]2SC1
REMARK SMILES IDX 12 1 11 2 10 3 8 4 9 5 7 6 6 7 97 8 82 9 96 10 83 11 95 12
REMARK SMILES IDX 84 13 85 14 5 15 4 16 2 17 1 18 3 19 86 20 87 21 88 23 89 24
REMARK SMILES IDX 90 25 94 26 91 27 93 28 92 29 13 30 14 31 15 32 16 33 17 34
REMARK SMILES IDX 18 35 19 36 20 37 81 38 21 39 80 40 22 41 23 42 24 43 74 44
REMARK SMILES IDX 25 45 79 46 73 47 75 48 26 49 78 50 72 51 71 52 27 54 59 55
REMARK SMILES IDX 39 56 58 57 40 58 43 59 57 60 76 61 41 62 42 63 56 65 77 66
REMARK SMILES IDX 44 67 28 68 29 69 37 70 30 71 31 72 35 73 38 74 32 75 33 76
REMARK SMILES IDX 36 77 34 78 60 79 61 80 69 81 62 82 63 83 67 84 70 85 64 86
REMARK SMILES IDX 65 87 68 88 66 89 45 90 46 91 54 92 47 93 48 94 52 95 55 96
REMARK SMILES IDX 49 97 50 98 53 99 51 100
REMARK H PARENT 86 22 75 53 43 64
REMARK Flexibility Score: inf
ROOT
ATOM      1  C   UNL A   1      45.107  21.483  25.015  1.00  0.00     0.202 C 
ENDROOT
BRANCH   1   2
ATOM      2  C   UNL A   1      43.795  22.257  25.132  1.00  0.00     0.261 C 
BRANCH   2   3
ATOM      3  O   UNL A   1      42.679  21.357  25.143  1.00  0.00    -0.459 OA
BRANCH   3   4
ATOM      4  C   UNL A   1      42.193  21.055  26.375  1.00  0.00     0.355 C 
ATOM      5  O   UNL A   1      42.555  20.120  27.071  1.00  0.00    -0.244 OA
BRANCH   4   6
ATOM      6  C   UNL A   1      41.212  22.107  26.835  1.00  0.00     0.134 C 
ATOM      7  C   UNL A   1      41.569  23.271  27.445  1.00  0.00     0.008 C 
ATOM      8  C   UNL A   1      40.594  24.407  27.705  1.00  0.00     0.108 C 
ATOM      9  N   UNL A   1      39.909  21.886  26.487  1.00  0.00    -0.289 N 
ATOM     10  S   UNL A   1      39.198  24.439  26.543  1.00  0.00    -0.129 SA
ATOM     11  C   UNL A   1      39.171  20.932  25.888  1.00  0.00     0.253 C 
ATOM     12  C   UNL A   1      38.792  22.717  26.870  1.00  0.00     0.181 C 
ATOM     13  O   UNL A   1      39.377  19.783  25.552  1.00  0.00    -0.272 OA
ATOM     14  C   UNL A   1      37.962  21.932  25.816  1.00  0.00     0.205 C 
BRANCH   7  15
ATOM     15  C   UNL A   1      42.962  23.610  27.939  1.00  0.00     0.267 C 
BRANCH  15  16
ATOM     16  O   UNL A   1      43.078  23.682  29.368  1.00  0.00    -0.461 OA
BRANCH  16  17
ATOM     17  C   UNL A   1      44.255  24.150  29.859  1.00  0.00     0.302 C 
ATOM     18  C   UNL A   1      45.305  24.193  28.802  1.00  0.00     0.139 C 
ATOM     19  O   UNL A   1      44.449  24.545  30.997  1.00  0.00    -0.253 OA
ENDBRANCH  16  17
ENDBRANCH  15  16
ENDBRANCH   7  15
BRANCH  14  20
ATOM     20  N   UNL A   1      37.769  22.555  24.482  1.00  0.00    -0.342 N 
ATOM     21  C   UNL A   1      36.616  22.724  23.769  1.00  0.00     0.223 C 
ATOM     22  H   UNL A   1      38.586  22.894  24.050  1.00  0.00     0.164 HD
ATOM     23  O   UNL A   1      36.679  23.216  22.643  1.00  0.00    -0.275 OA
BRANCH  21  24
ATOM     24  C   UNL A   1      35.294  22.369  24.431  1.00  0.00     0.078 C 
ATOM     25  C   UNL A   1      34.151  22.958  23.594  1.00  0.00     0.013 C 
ATOM     26  C   UNL A   1      35.134  20.855  24.588  1.00  0.00     0.013 C 
ATOM     27  C   UNL A   1      32.784  22.598  24.170  1.00  0.00     0.001 C 
ATOM     28  C   UNL A   1      33.780  20.519  25.209  1.00  0.00     0.001 C 
ATOM     29  C   UNL A   1      32.633  21.094  24.382  1.00  0.00     0.000 C 
ENDBRANCH  21  24
ENDBRANCH  14  20
ENDBRANCH   4   6
ENDBRANCH   3   4
ENDBRANCH   2   3
ENDBRANCH   1   2
BRANCH   1  30
ATOM     30  O   UNL A   1      46.320  22.200  25.224  1.00  0.00    -0.374 OA
BRANCH  30  31
ATOM     31  C   UNL A   1      46.570  23.367  24.446  1.00  0.00     0.202 C 
BRANCH  31  32
ATOM     32  C   UNL A   1      46.570  24.721  25.169  1.00  0.00     0.261 C 
BRANCH  32  33
ATOM     33  O   UNL A   1      45.457  25.566  24.833  1.00  0.00    -0.460 OA
BRANCH  33  34
ATOM     34  C   UNL A   1      45.688  26.888  25.031  1.00  0.00     0.338 C 
ATOM     35  O   UNL A   1      46.486  27.599  24.446  1.00  0.00    -0.246 OA
BRANCH  34  36
ATOM     36  C   UNL A   1      44.723  27.434  26.000  1.00  0.00     0.060 A 
ATOM     37  C   UNL A   1      44.842  28.784  26.354  1.00  0.00     0.016 A 
ATOM     38  C   UNL A   1      43.806  26.604  26.647  1.00  0.00     0.016 A 
ATOM     39  C   UNL A   1      44.072  29.303  27.394  1.00  0.00     0.010 A 
ATOM     40  C   UNL A   1      43.041  27.124  27.694  1.00  0.00     0.010 A 
ATOM     41  C   UNL A   1      43.199  28.463  28.097  1.00  0.00    -0.014 A 
BRANCH  41  42
ATOM     42  C   UNL A   1      42.565  28.940  29.350  1.00  0.00     0.031 A 
ATOM     43  C   UNL A   1      41.154  29.458  29.301  1.00  0.00     0.074 A 
ATOM     44  C   UNL A   1      43.234  28.905  30.515  1.00  0.00     0.049 A 
ATOM     45  N   UNL A   1      40.436  30.008  30.247  1.00  0.00    -0.248 NA
ATOM     46  C   UNL A   1      40.463  29.346  28.007  1.00  0.00     0.031 C 
ATOM     47  C   UNL A   1      44.585  28.380  30.698  1.00  0.00     0.029 A 
ATOM     48  N   UNL A   1      42.866  29.333  31.766  1.00  0.00    -0.354 N 
ATOM     49  C   UNL A   1      39.216  30.320  29.660  1.00  0.00     0.074 A 
ATOM     50  C   UNL A   1      39.301  29.927  28.270  1.00  0.00     0.031 C 
ATOM     51  C   UNL A   1      44.941  28.533  31.984  1.00  0.00     0.029 A 
ATOM     52  C   UNL A   1      43.859  29.201  32.705  1.00  0.00     0.049 A 
ATOM     53  H   UNL A   1      41.975  29.700  31.971  1.00  0.00     0.167 HD
ATOM     54  C   UNL A   1      38.122  30.877  30.233  1.00  0.00     0.037 A 
ATOM     55  C   UNL A   1      43.899  29.604  33.990  1.00  0.00     0.037 A 
ATOM     56  C   UNL A   1      38.042  31.260  31.619  1.00  0.00     0.049 A 
ATOM     57  C   UNL A   1      42.696  30.291  34.584  1.00  0.00     0.074 A 
ATOM     58  C   UNL A   1      36.972  31.811  32.302  1.00  0.00     0.029 A 
ATOM     59  N   UNL A   1      39.078  31.134  32.533  1.00  0.00    -0.354 N 
ATOM     60  N   UNL A   1      41.540  30.569  34.029  1.00  0.00    -0.248 NA
ATOM     61  C   UNL A   1      42.804  30.721  35.986  1.00  0.00     0.031 C 
ATOM     62  C   UNL A   1      37.381  32.076  33.613  1.00  0.00     0.029 A 
ATOM     63  C   UNL A   1      38.683  31.628  33.767  1.00  0.00     0.049 A 
ATOM     64  H   UNL A   1      39.963  30.753  32.335  1.00  0.00     0.167 HD
ATOM     65  C   UNL A   1      40.774  31.172  35.020  1.00  0.00     0.074 A 
ATOM     66  C   UNL A   1      41.593  31.208  36.214  1.00  0.00     0.031 C 
ATOM     67  C   UNL A   1      39.507  31.650  34.949  1.00  0.00     0.037 A 
BRANCH  54  68
ATOM     68  C   UNL A   1      36.932  31.137  29.354  1.00  0.00     0.064 A 
ATOM     69  C   UNL A   1      36.663  32.410  28.828  1.00  0.00     0.173 A 
ATOM     70  C   UNL A   1      36.066  30.090  29.007  1.00  0.00     0.173 A 
ATOM     71  F   UNL A   1      37.451  33.450  29.139  1.00  0.00    -0.203 F 
ATOM     72  C   UNL A   1      35.555  32.629  28.011  1.00  0.00     0.198 A 
ATOM     73  C   UNL A   1      34.979  30.305  28.163  1.00  0.00     0.198 A 
ATOM     74  F   UNL A   1      36.278  28.852  29.479  1.00  0.00    -0.203 F 
ATOM     75  F   UNL A   1      35.290  33.863  27.561  1.00  0.00    -0.200 F 
ATOM     76  C   UNL A   1      34.721  31.576  27.672  1.00  0.00     0.200 A 
ATOM     77  F   UNL A   1      34.182  29.281  27.825  1.00  0.00    -0.200 F 
ATOM     78  F   UNL A   1      33.661  31.786  26.879  1.00  0.00    -0.200 F 
ENDBRANCH  54  68
BRANCH  55  79
ATOM     79  C   UNL A   1      45.125  29.384  34.799  1.00  0.00     0.064 A 
ATOM     80  C   UNL A   1      45.282  28.229  35.577  1.00  0.00     0.173 A 
ATOM     81  C   UNL A   1      46.157  30.334  34.830  1.00  0.00     0.173 A 
ATOM     82  F   UNL A   1      44.312  27.302  35.601  1.00  0.00    -0.203 F 
ATOM     83  C   UNL A   1      46.413  28.040  36.369  1.00  0.00     0.198 A 
ATOM     84  C   UNL A   1      47.302  30.131  35.597  1.00  0.00     0.198 A 
ATOM     85  F   UNL A   1      46.058  31.458  34.104  1.00  0.00    -0.203 F 
ATOM     86  F   UNL A   1      46.513  26.951  37.143  1.00  0.00    -0.200 F 
ATOM     87  C   UNL A   1      47.424  28.989  36.375  1.00  0.00     0.200 A 
ATOM     88  F   UNL A   1      48.284  31.042  35.586  1.00  0.00    -0.200 F 
ATOM     89  F   UNL A   1      48.513  28.807  37.134  1.00  0.00    -0.200 F 
ENDBRANCH  55  79
BRANCH  67  90
ATOM     90  C   UNL A   1      38.908  32.213  36.208  1.00  0.00     0.064 A 
ATOM     91  C   UNL A   1      38.121  31.433  37.067  1.00  0.00     0.173 A 
ATOM     92  C   UNL A   1      39.162  33.544  36.579  1.00  0.00     0.173 A 
ATOM     93  F   UNL A   1      37.836  30.160  36.753  1.00  0.00    -0.203 F 
ATOM     94  C   UNL A   1      37.586  31.972  38.234  1.00  0.00     0.198 A 
ATOM     95  C   UNL A   1      38.655  34.068  37.764  1.00  0.00     0.198 A 
ATOM     96  F   UNL A   1      39.917  34.331  35.798  1.00  0.00    -0.203 F 
ATOM     97  F   UNL A   1      36.792  31.223  39.013  1.00  0.00    -0.200 F 
ATOM     98  C   UNL A   1      37.860  33.284  38.587  1.00  0.00     0.200 A 
ATOM     99  F   UNL A   1      38.936  35.331  38.110  1.00  0.00    -0.200 F 
ATOM    100  F   UNL A   1      37.352  33.798  39.715  1.00  0.00    -0.200 F 
ENDBRANCH  67  90
ENDBRANCH  41  42
ENDBRANCH  34  36
ENDBRANCH  33  34
ENDBRANCH  32  33
ENDBRANCH  31  32
ENDBRANCH  30  31
ENDBRANCH   1  30
TORSDOF 19
ENDMDL
