MODEL 1
REMARK VINA RESULT:     -10.3      0.000      0.000
REMARK SMILES CN1CC(=O)N(CC(=O)N2CCCC[C@H]2C(=O)OCCOCCOC(=O)c2ccc(-c3c4nc(c(-c5c(F)c(F)c(F)c(F)c5F)c5ccc([nH]5)c(-c5c(F)c(F)c(F)c(F)c5F)c5nc(c(-c6c(F)c(F)c(F)c(F)c6F)c6ccc3[nH]6)C=C5)C=C4)cc2)C1=O
REMARK SMILES IDX 20 1 19 2 18 3 16 4 17 5 15 6 10 7 11 8 12 9 14 10 13 11
REMARK SMILES IDX 8 12 9 13 7 14 6 15 1 16 2 17 3 18 90 19 4 20 91 21 5 22
REMARK SMILES IDX 21 23 22 24 23 25 24 26 25 27 26 28 27 29 28 30 89 31 29 32
REMARK SMILES IDX 88 33 30 34 31 35 32 36 82 37 33 38 87 39 81 40 83 41 34 42
REMARK SMILES IDX 86 43 80 44 79 45 35 47 67 48 47 49 66 50 48 51 51 52 65 53
REMARK SMILES IDX 84 54 49 55 50 56 64 58 85 59 52 60 36 61 37 62 45 63 38 64
REMARK SMILES IDX 39 65 43 66 46 67 40 68 41 69 44 70 42 71 68 72 69 73 77 74
REMARK SMILES IDX 70 75 71 76 75 77 78 78 72 79 73 80 76 81 74 82 53 83 54 84
REMARK SMILES IDX 62 85 55 86 56 87 60 88 63 89 57 90 58 91 61 92 59 93
REMARK H PARENT 83 46 51 57
REMARK Flexibility Score: inf
ROOT
ATOM      1  C   UNL A   1      38.049  33.924  29.765  1.00  0.00     0.202 C 
ENDROOT
BRANCH   1   2
ATOM      2  C   UNL A   1      38.385  34.483  31.152  1.00  0.00     0.261 C 
BRANCH   2   3
ATOM      3  O   UNL A   1      37.262  34.490  32.043  1.00  0.00    -0.462 OA
BRANCH   3   4
ATOM      4  C   UNL A   1      37.588  34.510  33.366  1.00  0.00     0.328 C 
ATOM      5  O   UNL A   1      38.514  35.157  33.838  1.00  0.00    -0.250 OA
BRANCH   4   6
ATOM      6  C   UNL A   1      36.605  33.649  34.188  1.00  0.00     0.195 C 
ATOM      7  N   UNL A   1      35.946  32.657  33.327  1.00  0.00    -0.327 N 
ATOM      8  C   UNL A   1      36.811  31.552  32.868  1.00  0.00     0.120 C 
ATOM      9  C   UNL A   1      37.688  30.934  33.961  1.00  0.00     0.022 C 
ATOM     10  C   UNL A   1      37.259  32.942  35.377  1.00  0.00     0.037 C 
ATOM     11  C   UNL A   1      38.310  31.945  34.917  1.00  0.00     0.005 C 
BRANCH   7  12
ATOM     12  C   UNL A   1      34.717  32.819  32.698  1.00  0.00     0.243 C 
ATOM     13  O   UNL A   1      34.467  32.182  31.664  1.00  0.00    -0.273 OA
BRANCH  12  14
ATOM     14  C   UNL A   1      33.709  33.919  33.098  1.00  0.00     0.230 C 
BRANCH  14  15
ATOM     15  N   UNL A   1      33.722  35.208  32.439  1.00  0.00    -0.253 N 
ATOM     16  C   UNL A   1      33.182  37.395  29.616  1.00  0.00     0.149 C 
ATOM     17  N   UNL A   1      33.382  36.786  30.908  1.00  0.00    -0.318 N 
ATOM     18  C   UNL A   1      33.844  37.522  32.059  1.00  0.00     0.221 C 
ATOM     19  C   UNL A   1      33.287  35.431  31.162  1.00  0.00     0.327 C 
ATOM     20  C   UNL A   1      34.018  36.389  33.057  1.00  0.00     0.250 C 
ATOM     21  O   UNL A   1      32.917  34.585  30.364  1.00  0.00    -0.248 OA
ATOM     22  O   UNL A   1      34.383  36.531  34.215  1.00  0.00    -0.272 OA
ENDBRANCH  14  15
ENDBRANCH  12  14
ENDBRANCH   7  12
ENDBRANCH   4   6
ENDBRANCH   3   4
ENDBRANCH   2   3
ENDBRANCH   1   2
BRANCH   1  23
ATOM     23  O   UNL A   1      36.731  33.433  29.535  1.00  0.00    -0.374 OA
BRANCH  23  24
ATOM     24  C   UNL A   1      36.059  33.887  28.363  1.00  0.00     0.202 C 
BRANCH  24  25
ATOM     25  C   UNL A   1      34.694  33.274  28.032  1.00  0.00     0.261 C 
BRANCH  25  26
ATOM     26  O   UNL A   1      34.455  32.065  28.773  1.00  0.00    -0.460 OA
BRANCH  26  27
ATOM     27  C   UNL A   1      34.482  30.939  28.027  1.00  0.00     0.338 C 
ATOM     28  O   UNL A   1      33.680  30.597  27.164  1.00  0.00    -0.246 OA
BRANCH  27  29
ATOM     29  C   UNL A   1      35.747  30.222  28.248  1.00  0.00     0.060 A 
ATOM     30  C   UNL A   1      35.978  29.707  29.531  1.00  0.00     0.016 A 
ATOM     31  C   UNL A   1      36.715  30.109  27.247  1.00  0.00     0.016 A 
ATOM     32  C   UNL A   1      37.202  29.125  29.837  1.00  0.00     0.010 A 
ATOM     33  C   UNL A   1      37.951  29.537  27.561  1.00  0.00     0.010 A 
ATOM     34  C   UNL A   1      38.211  29.080  28.867  1.00  0.00    -0.014 A 
BRANCH  34  35
ATOM     35  C   UNL A   1      39.585  28.718  29.278  1.00  0.00     0.031 A 
ATOM     36  C   UNL A   1      40.323  29.639  30.209  1.00  0.00     0.074 A 
ATOM     37  C   UNL A   1      40.147  27.572  28.859  1.00  0.00     0.049 A 
ATOM     38  N   UNL A   1      41.539  29.543  30.683  1.00  0.00    -0.248 NA
ATOM     39  C   UNL A   1      39.590  30.831  30.669  1.00  0.00     0.031 C 
ATOM     40  C   UNL A   1      39.507  26.588  27.988  1.00  0.00     0.029 A 
ATOM     41  N   UNL A   1      41.388  27.045  29.112  1.00  0.00    -0.354 N 
ATOM     42  C   UNL A   1      41.719  30.662  31.486  1.00  0.00     0.074 A 
ATOM     43  C   UNL A   1      40.500  31.437  31.417  1.00  0.00     0.031 C 
ATOM     44  C   UNL A   1      40.369  25.580  27.765  1.00  0.00     0.029 A 
ATOM     45  C   UNL A   1      41.627  25.864  28.454  1.00  0.00     0.049 A 
ATOM     46  H   UNL A   1      42.045  27.474  29.707  1.00  0.00     0.167 HD
ATOM     47  C   UNL A   1      42.802  31.005  32.221  1.00  0.00     0.037 A 
ATOM     48  C   UNL A   1      42.744  25.115  28.399  1.00  0.00     0.037 A 
ATOM     49  C   UNL A   1      44.008  30.222  32.292  1.00  0.00     0.049 A 
ATOM     50  C   UNL A   1      43.956  25.549  29.184  1.00  0.00     0.074 A 
ATOM     51  C   UNL A   1      45.153  30.466  33.027  1.00  0.00     0.029 A 
ATOM     52  N   UNL A   1      44.222  29.042  31.594  1.00  0.00    -0.354 N 
ATOM     53  N   UNL A   1      44.110  26.593  29.962  1.00  0.00    -0.248 NA
ATOM     54  C   UNL A   1      45.150  24.697  29.083  1.00  0.00     0.031 C 
ATOM     55  C   UNL A   1      46.081  29.461  32.734  1.00  0.00     0.029 A 
ATOM     56  C   UNL A   1      45.493  28.561  31.859  1.00  0.00     0.049 A 
ATOM     57  H   UNL A   1      43.567  28.610  30.999  1.00  0.00     0.167 HD
ATOM     58  C   UNL A   1      45.402  26.510  30.464  1.00  0.00     0.074 A 
ATOM     59  C   UNL A   1      45.985  25.304  29.914  1.00  0.00     0.031 C 
ATOM     60  C   UNL A   1      46.050  27.354  31.304  1.00  0.00     0.037 A 
BRANCH  47  61
ATOM     61  C   UNL A   1      42.748  32.293  32.986  1.00  0.00     0.064 A 
ATOM     62  C   UNL A   1      43.222  33.497  32.444  1.00  0.00     0.173 A 
ATOM     63  C   UNL A   1      42.171  32.332  34.265  1.00  0.00     0.173 A 
ATOM     64  F   UNL A   1      43.798  33.512  31.232  1.00  0.00    -0.203 F 
ATOM     65  C   UNL A   1      43.139  34.688  33.162  1.00  0.00     0.198 A 
ATOM     66  C   UNL A   1      42.063  33.528  34.968  1.00  0.00     0.198 A 
ATOM     67  F   UNL A   1      41.702  31.208  34.829  1.00  0.00    -0.203 F 
ATOM     68  F   UNL A   1      43.634  35.819  32.641  1.00  0.00    -0.200 F 
ATOM     69  C   UNL A   1      42.551  34.704  34.418  1.00  0.00     0.200 A 
ATOM     70  F   UNL A   1      41.487  33.543  36.177  1.00  0.00    -0.200 F 
ATOM     71  F   UNL A   1      42.460  35.853  35.103  1.00  0.00    -0.200 F 
ENDBRANCH  47  61
BRANCH  48  72
ATOM     72  C   UNL A   1      42.779  23.891  27.557  1.00  0.00     0.064 A 
ATOM     73  C   UNL A   1      42.430  22.639  28.079  1.00  0.00     0.173 A 
ATOM     74  C   UNL A   1      43.190  23.947  26.216  1.00  0.00     0.173 A 
ATOM     75  F   UNL A   1      42.055  22.530  29.362  1.00  0.00    -0.203 F 
ATOM     76  C   UNL A   1      42.510  21.485  27.300  1.00  0.00     0.198 A 
ATOM     77  C   UNL A   1      43.241  22.798  25.430  1.00  0.00     0.198 A 
ATOM     78  F   UNL A   1      43.539  25.120  25.667  1.00  0.00    -0.203 F 
ATOM     79  F   UNL A   1      42.221  20.295  27.840  1.00  0.00    -0.200 F 
ATOM     80  C   UNL A   1      42.910  21.567  25.974  1.00  0.00     0.200 A 
ATOM     81  F   UNL A   1      43.619  22.884  24.147  1.00  0.00    -0.200 F 
ATOM     82  F   UNL A   1      42.989  20.458  25.227  1.00  0.00    -0.200 F 
ENDBRANCH  48  72
BRANCH  60  83
ATOM     83  C   UNL A   1      47.450  26.987  31.705  1.00  0.00     0.064 A 
ATOM     84  C   UNL A   1      48.567  27.507  31.035  1.00  0.00     0.173 A 
ATOM     85  C   UNL A   1      47.675  26.138  32.799  1.00  0.00     0.173 A 
ATOM     86  F   UNL A   1      48.404  28.312  29.975  1.00  0.00    -0.203 F 
ATOM     87  C   UNL A   1      49.859  27.167  31.429  1.00  0.00     0.198 A 
ATOM     88  C   UNL A   1      48.968  25.826  33.209  1.00  0.00     0.198 A 
ATOM     89  F   UNL A   1      46.641  25.621  33.479  1.00  0.00    -0.203 F 
ATOM     90  F   UNL A   1      50.911  27.636  30.744  1.00  0.00    -0.200 F 
ATOM     91  C   UNL A   1      50.058  26.334  32.520  1.00  0.00     0.200 A 
ATOM     92  F   UNL A   1      49.159  25.033  34.273  1.00  0.00    -0.200 F 
ATOM     93  F   UNL A   1      51.302  26.014  32.901  1.00  0.00    -0.200 F 
ENDBRANCH  60  83
ENDBRANCH  34  35
ENDBRANCH  27  29
ENDBRANCH  26  27
ENDBRANCH  25  26
ENDBRANCH  24  25
ENDBRANCH  23  24
ENDBRANCH   1  23
TORSDOF 17
ENDMDL
MODEL 2
REMARK VINA RESULT:     -10.2      4.366      7.634
REMARK SMILES CN1CC(=O)N(CC(=O)N2CCCC[C@H]2C(=O)OCCOCCOC(=O)c2ccc(-c3c4nc(c(-c5c(F)c(F)c(F)c(F)c5F)c5ccc([nH]5)c(-c5c(F)c(F)c(F)c(F)c5F)c5nc(c(-c6c(F)c(F)c(F)c(F)c6F)c6ccc3[nH]6)C=C5)C=C4)cc2)C1=O
REMARK SMILES IDX 20 1 19 2 18 3 16 4 17 5 15 6 10 7 11 8 12 9 14 10 13 11
REMARK SMILES IDX 8 12 9 13 7 14 6 15 1 16 2 17 3 18 90 19 4 20 91 21 5 22
REMARK SMILES IDX 21 23 22 24 23 25 24 26 25 27 26 28 27 29 28 30 89 31 29 32
REMARK SMILES IDX 88 33 30 34 31 35 32 36 82 37 33 38 87 39 81 40 83 41 34 42
REMARK SMILES IDX 86 43 80 44 79 45 35 47 67 48 47 49 66 50 48 51 51 52 65 53
REMARK SMILES IDX 84 54 49 55 50 56 64 58 85 59 52 60 36 61 37 62 45 63 38 64
REMARK SMILES IDX 39 65 43 66 46 67 40 68 41 69 44 70 42 71 68 72 69 73 77 74
REMARK SMILES IDX 70 75 71 76 75 77 78 78 72 79 73 80 76 81 74 82 53 83 54 84
REMARK SMILES IDX 62 85 55 86 56 87 60 88 63 89 57 90 58 91 61 92 59 93
REMARK H PARENT 83 46 51 57
REMARK Flexibility Score: inf
ROOT
ATOM      1  C   UNL A   1      32.983  28.726  23.932  1.00  0.00     0.202 C 
ENDROOT
BRANCH   1   2
ATOM      2  C   UNL A   1      34.044  27.629  23.800  1.00  0.00     0.261 C 
BRANCH   2   3
ATOM      3  O   UNL A   1      33.483  26.324  23.607  1.00  0.00    -0.462 OA
BRANCH   3   4
ATOM      4  C   UNL A   1      33.034  25.725  24.746  1.00  0.00     0.328 C 
ATOM      5  O   UNL A   1      33.434  25.996  25.871  1.00  0.00    -0.250 OA
BRANCH   4   6
ATOM      6  C   UNL A   1      31.924  24.701  24.429  1.00  0.00     0.195 C 
ATOM      7  N   UNL A   1      31.010  24.562  25.571  1.00  0.00    -0.327 N 
ATOM      8  C   UNL A   1      30.125  25.719  25.811  1.00  0.00     0.120 C 
ATOM      9  C   UNL A   1      29.455  26.280  24.552  1.00  0.00     0.022 C 
ATOM     10  C   UNL A   1      31.121  25.040  23.170  1.00  0.00     0.037 C 
ATOM     11  C   UNL A   1      30.367  26.349  23.332  1.00  0.00     0.005 C 
BRANCH   7  12
ATOM     12  C   UNL A   1      31.109  23.606  26.576  1.00  0.00     0.243 C 
ATOM     13  O   UNL A   1      30.109  23.316  27.249  1.00  0.00    -0.273 OA
BRANCH  12  14
ATOM     14  C   UNL A   1      32.459  23.027  27.052  1.00  0.00     0.230 C 
BRANCH  14  15
ATOM     15  N   UNL A   1      33.302  22.278  26.144  1.00  0.00    -0.253 N 
ATOM     16  C   UNL A   1      36.457  21.499  24.568  1.00  0.00     0.149 C 
ATOM     17  N   UNL A   1      35.120  21.521  25.109  1.00  0.00    -0.318 N 
ATOM     18  C   UNL A   1      34.078  20.630  24.662  1.00  0.00     0.221 C 
ATOM     19  C   UNL A   1      34.649  22.462  26.005  1.00  0.00     0.327 C 
ATOM     20  C   UNL A   1      32.892  21.187  25.431  1.00  0.00     0.250 C 
ATOM     21  O   UNL A   1      35.321  23.329  26.539  1.00  0.00    -0.248 OA
ATOM     22  O   UNL A   1      31.759  20.731  25.391  1.00  0.00    -0.272 OA
ENDBRANCH  14  15
ENDBRANCH  12  14
ENDBRANCH   7  12
ENDBRANCH   4   6
ENDBRANCH   3   4
ENDBRANCH   2   3
ENDBRANCH   1   2
BRANCH   1  23
ATOM     23  O   UNL A   1      32.881  29.423  25.171  1.00  0.00    -0.374 OA
BRANCH  23  24
ATOM     24  C   UNL A   1      31.651  30.088  25.448  1.00  0.00     0.202 C 
BRANCH  24  25
ATOM     25  C   UNL A   1      31.679  31.281  26.409  1.00  0.00     0.261 C 
BRANCH  25  26
ATOM     26  O   UNL A   1      32.636  31.097  27.466  1.00  0.00    -0.460 OA
BRANCH  26  27
ATOM     27  C   UNL A   1      33.498  32.125  27.624  1.00  0.00     0.338 C 
ATOM     28  O   UNL A   1      33.236  33.323  27.625  1.00  0.00    -0.246 OA
BRANCH  27  29
ATOM     29  C   UNL A   1      34.826  31.614  27.999  1.00  0.00     0.060 A 
ATOM     30  C   UNL A   1      34.941  30.236  28.230  1.00  0.00     0.016 A 
ATOM     31  C   UNL A   1      35.918  32.464  28.183  1.00  0.00     0.016 A 
ATOM     32  C   UNL A   1      36.137  29.708  28.703  1.00  0.00     0.010 A 
ATOM     33  C   UNL A   1      37.115  31.934  28.672  1.00  0.00     0.010 A 
ATOM     34  C   UNL A   1      37.214  30.562  28.970  1.00  0.00    -0.014 A 
BRANCH  34  35
ATOM     35  C   UNL A   1      38.373  30.038  29.726  1.00  0.00     0.031 A 
ATOM     36  C   UNL A   1      38.580  30.505  31.140  1.00  0.00     0.074 A 
ATOM     37  C   UNL A   1      39.200  29.134  29.175  1.00  0.00     0.049 A 
ATOM     38  N   UNL A   1      39.533  30.205  31.984  1.00  0.00    -0.248 NA
ATOM     39  C   UNL A   1      37.574  31.439  31.675  1.00  0.00     0.031 C 
ATOM     40  C   UNL A   1      39.069  28.582  27.828  1.00  0.00     0.029 A 
ATOM     41  N   UNL A   1      40.317  28.523  29.685  1.00  0.00    -0.354 N 
ATOM     42  C   UNL A   1      39.248  30.918  33.142  1.00  0.00     0.074 A 
ATOM     43  C   UNL A   1      38.049  31.684  32.887  1.00  0.00     0.031 C 
ATOM     44  C   UNL A   1      40.080  27.723  27.611  1.00  0.00     0.029 A 
ATOM     45  C   UNL A   1      40.941  27.688  28.792  1.00  0.00     0.049 A 
ATOM     46  H   UNL A   1      40.642  28.671  30.603  1.00  0.00     0.167 HD
ATOM     47  C   UNL A   1      39.924  30.922  34.314  1.00  0.00     0.037 A 
ATOM     48  C   UNL A   1      42.089  26.995  28.912  1.00  0.00     0.037 A 
ATOM     49  C   UNL A   1      41.111  30.147  34.563  1.00  0.00     0.049 A 
ATOM     50  C   UNL A   1      42.852  27.061  30.211  1.00  0.00     0.074 A 
ATOM     51  C   UNL A   1      41.857  30.060  35.724  1.00  0.00     0.029 A 
ATOM     52  N   UNL A   1      41.727  29.329  33.627  1.00  0.00    -0.354 N 
ATOM     53  N   UNL A   1      42.563  27.715  31.310  1.00  0.00    -0.248 NA
ATOM     54  C   UNL A   1      44.101  26.291  30.285  1.00  0.00     0.031 C 
ATOM     55  C   UNL A   1      42.954  29.229  35.475  1.00  0.00     0.029 A 
ATOM     56  C   UNL A   1      42.861  28.755  34.176  1.00  0.00     0.049 A 
ATOM     57  H   UNL A   1      41.405  29.178  32.708  1.00  0.00     0.167 HD
ATOM     58  C   UNL A   1      43.574  27.414  32.212  1.00  0.00     0.074 A 
ATOM     59  C   UNL A   1      44.477  26.505  31.537  1.00  0.00     0.031 C 
ATOM     60  C   UNL A   1      43.743  27.849  33.486  1.00  0.00     0.037 A 
BRANCH  47  61
ATOM     61  C   UNL A   1      39.415  31.810  35.410  1.00  0.00     0.064 A 
ATOM     62  C   UNL A   1      38.536  31.339  36.397  1.00  0.00     0.173 A 
ATOM     63  C   UNL A   1      39.847  33.142  35.499  1.00  0.00     0.173 A 
ATOM     64  F   UNL A   1      38.079  30.078  36.349  1.00  0.00    -0.203 F 
ATOM     65  C   UNL A   1      38.095  32.173  37.422  1.00  0.00     0.198 A 
ATOM     66  C   UNL A   1      39.427  33.965  36.540  1.00  0.00     0.198 A 
ATOM     67  F   UNL A   1      40.687  33.642  34.581  1.00  0.00    -0.203 F 
ATOM     68  F   UNL A   1      37.225  31.714  38.331  1.00  0.00    -0.200 F 
ATOM     69  C   UNL A   1      38.547  33.482  37.497  1.00  0.00     0.200 A 
ATOM     70  F   UNL A   1      39.873  35.227  36.616  1.00  0.00    -0.200 F 
ATOM     71  F   UNL A   1      38.132  34.281  38.490  1.00  0.00    -0.200 F 
ENDBRANCH  47  61
BRANCH  48  72
ATOM     72  C   UNL A   1      42.601  26.196  27.767  1.00  0.00     0.064 A 
ATOM     73  C   UNL A   1      42.179  24.878  27.555  1.00  0.00     0.173 A 
ATOM     74  C   UNL A   1      43.544  26.731  26.877  1.00  0.00     0.173 A 
ATOM     75  F   UNL A   1      41.297  24.314  28.394  1.00  0.00    -0.203 F 
ATOM     76  C   UNL A   1      42.697  24.115  26.508  1.00  0.00     0.198 A 
ATOM     77  C   UNL A   1      44.039  25.978  25.813  1.00  0.00     0.198 A 
ATOM     78  F   UNL A   1      43.984  27.988  27.036  1.00  0.00    -0.203 F 
ATOM     79  F   UNL A   1      42.315  22.840  26.360  1.00  0.00    -0.200 F 
ATOM     80  C   UNL A   1      43.621  24.669  25.636  1.00  0.00     0.200 A 
ATOM     81  F   UNL A   1      44.924  26.520  24.967  1.00  0.00    -0.200 F 
ATOM     82  F   UNL A   1      44.119  23.934  24.632  1.00  0.00    -0.200 F 
ENDBRANCH  48  72
BRANCH  60  83
ATOM     83  C   UNL A   1      44.929  27.323  34.242  1.00  0.00     0.064 A 
ATOM     84  C   UNL A   1      46.156  28.003  34.249  1.00  0.00     0.173 A 
ATOM     85  C   UNL A   1      44.824  26.148  35.000  1.00  0.00     0.173 A 
ATOM     86  F   UNL A   1      46.311  29.125  33.530  1.00  0.00    -0.203 F 
ATOM     87  C   UNL A   1      47.242  27.510  34.968  1.00  0.00     0.198 A 
ATOM     88  C   UNL A   1      45.903  25.674  35.741  1.00  0.00     0.198 A 
ATOM     89  F   UNL A   1      43.669  25.464  35.033  1.00  0.00    -0.203 F 
ATOM     90  F   UNL A   1      48.419  28.149  34.922  1.00  0.00    -0.200 F 
ATOM     91  C   UNL A   1      47.112  26.350  35.719  1.00  0.00     0.200 A 
ATOM     92  F   UNL A   1      45.771  24.563  36.479  1.00  0.00    -0.200 F 
ATOM     93  F   UNL A   1      48.157  25.882  36.414  1.00  0.00    -0.200 F 
ENDBRANCH  60  83
ENDBRANCH  34  35
ENDBRANCH  27  29
ENDBRANCH  26  27
ENDBRANCH  25  26
ENDBRANCH  24  25
ENDBRANCH  23  24
ENDBRANCH   1  23
TORSDOF 17
ENDMDL
MODEL 3
REMARK VINA RESULT:     -10.1      4.383      7.868
REMARK SMILES CN1CC(=O)N(CC(=O)N2CCCC[C@H]2C(=O)OCCOCCOC(=O)c2ccc(-c3c4nc(c(-c5c(F)c(F)c(F)c(F)c5F)c5ccc([nH]5)c(-c5c(F)c(F)c(F)c(F)c5F)c5nc(c(-c6c(F)c(F)c(F)c(F)c6F)c6ccc3[nH]6)C=C5)C=C4)cc2)C1=O
REMARK SMILES IDX 20 1 19 2 18 3 16 4 17 5 15 6 10 7 11 8 12 9 14 10 13 11
REMARK SMILES IDX 8 12 9 13 7 14 6 15 1 16 2 17 3 18 90 19 4 20 91 21 5 22
REMARK SMILES IDX 21 23 22 24 23 25 24 26 25 27 26 28 27 29 28 30 89 31 29 32
REMARK SMILES IDX 88 33 30 34 31 35 32 36 82 37 33 38 87 39 81 40 83 41 34 42
REMARK SMILES IDX 86 43 80 44 79 45 35 47 67 48 47 49 66 50 48 51 51 52 65 53
REMARK SMILES IDX 84 54 49 55 50 56 64 58 85 59 52 60 36 61 37 62 45 63 38 64
REMARK SMILES IDX 39 65 43 66 46 67 40 68 41 69 44 70 42 71 68 72 69 73 77 74
REMARK SMILES IDX 70 75 71 76 75 77 78 78 72 79 73 80 76 81 74 82 53 83 54 84
REMARK SMILES IDX 62 85 55 86 56 87 60 88 63 89 57 90 58 91 61 92 59 93
REMARK H PARENT 83 46 51 57
REMARK Flexibility Score: inf
ROOT
ATOM      1  C   UNL A   1      32.860  29.064  27.095  1.00  0.00     0.202 C 
ENDROOT
BRANCH   1   2
ATOM      2  C   UNL A   1      31.541  28.330  27.360  1.00  0.00     0.261 C 
BRANCH   2   3
ATOM      3  O   UNL A   1      31.596  26.937  27.028  1.00  0.00    -0.462 OA
BRANCH   3   4
ATOM      4  C   UNL A   1      31.446  26.663  25.701  1.00  0.00     0.328 C 
ATOM      5  O   UNL A   1      30.570  27.145  24.993  1.00  0.00    -0.250 OA
BRANCH   4   6
ATOM      6  C   UNL A   1      32.553  25.709  25.207  1.00  0.00     0.195 C 
ATOM      7  N   UNL A   1      32.097  24.958  24.028  1.00  0.00    -0.327 N 
ATOM      8  C   UNL A   1      31.976  25.750  22.788  1.00  0.00     0.120 C 
ATOM      9  C   UNL A   1      33.162  26.678  22.507  1.00  0.00     0.022 C 
ATOM     10  C   UNL A   1      33.871  26.417  24.884  1.00  0.00     0.037 C 
ATOM     11  C   UNL A   1      33.704  27.399  23.736  1.00  0.00     0.005 C 
BRANCH   7  12
ATOM     12  C   UNL A   1      31.515  23.696  24.047  1.00  0.00     0.243 C 
ATOM     13  O   UNL A   1      30.557  23.472  24.801  1.00  0.00    -0.273 OA
BRANCH  12  14
ATOM     14  C   UNL A   1      32.133  22.477  23.327  1.00  0.00     0.230 C 
BRANCH  14  15
ATOM     15  N   UNL A   1      33.219  21.735  23.931  1.00  0.00    -0.253 N 
ATOM     16  C   UNL A   1      36.681  21.240  24.834  1.00  0.00     0.149 C 
ATOM     17  N   UNL A   1      35.245  21.233  24.703  1.00  0.00    -0.318 N 
ATOM     18  C   UNL A   1      34.417  20.158  25.193  1.00  0.00     0.221 C 
ATOM     19  C   UNL A   1      34.515  22.166  23.990  1.00  0.00     0.327 C 
ATOM     20  C   UNL A   1      33.062  20.590  24.658  1.00  0.00     0.250 C 
ATOM     21  O   UNL A   1      34.968  23.174  23.473  1.00  0.00    -0.248 OA
ATOM     22  O   UNL A   1      32.016  19.985  24.844  1.00  0.00    -0.272 OA
ENDBRANCH  14  15
ENDBRANCH  12  14
ENDBRANCH   7  12
ENDBRANCH   4   6
ENDBRANCH   3   4
ENDBRANCH   2   3
ENDBRANCH   1   2
BRANCH   1  23
ATOM     23  O   UNL A   1      32.830  30.240  26.290  1.00  0.00    -0.374 OA
BRANCH  23  24
ATOM     24  C   UNL A   1      31.744  31.141  26.490  1.00  0.00     0.202 C 
BRANCH  24  25
ATOM     25  C   UNL A   1      32.072  32.584  26.891  1.00  0.00     0.261 C 
BRANCH  25  26
ATOM     26  O   UNL A   1      32.886  32.641  28.075  1.00  0.00    -0.460 OA
BRANCH  26  27
ATOM     27  C   UNL A   1      33.957  33.458  27.978  1.00  0.00     0.338 C 
ATOM     28  O   UNL A   1      33.955  34.669  27.785  1.00  0.00    -0.246 OA
BRANCH  27  29
ATOM     29  C   UNL A   1      35.182  32.724  28.331  1.00  0.00     0.060 A 
ATOM     30  C   UNL A   1      35.032  31.407  28.786  1.00  0.00     0.016 A 
ATOM     31  C   UNL A   1      36.441  33.325  28.282  1.00  0.00     0.016 A 
ATOM     32  C   UNL A   1      36.137  30.701  29.248  1.00  0.00     0.010 A 
ATOM     33  C   UNL A   1      37.549  32.620  28.761  1.00  0.00     0.010 A 
ATOM     34  C   UNL A   1      37.392  31.321  29.281  1.00  0.00    -0.014 A 
BRANCH  34  35
ATOM     35  C   UNL A   1      38.493  30.671  30.025  1.00  0.00     0.031 A 
ATOM     36  C   UNL A   1      38.697  31.031  31.470  1.00  0.00     0.074 A 
ATOM     37  C   UNL A   1      39.270  29.749  29.432  1.00  0.00     0.049 A 
ATOM     38  N   UNL A   1      39.606  30.612  32.311  1.00  0.00    -0.248 NA
ATOM     39  C   UNL A   1      37.744  31.996  32.045  1.00  0.00     0.031 C 
ATOM     40  C   UNL A   1      39.136  29.295  28.049  1.00  0.00     0.029 A 
ATOM     41  N   UNL A   1      40.331  29.031  29.923  1.00  0.00    -0.354 N 
ATOM     42  C   UNL A   1      39.342  31.266  33.508  1.00  0.00     0.074 A 
ATOM     43  C   UNL A   1      38.204  32.129  33.280  1.00  0.00     0.031 C 
ATOM     44  C   UNL A   1      40.091  28.384  27.796  1.00  0.00     0.029 A 
ATOM     45  C   UNL A   1      40.918  28.213  28.990  1.00  0.00     0.049 A 
ATOM     46  H   UNL A   1      40.642  29.096  30.855  1.00  0.00     0.167 HD
ATOM     47  C   UNL A   1      39.988  31.148  34.692  1.00  0.00     0.037 A 
ATOM     48  C   UNL A   1      42.013  27.436  29.087  1.00  0.00     0.037 A 
ATOM     49  C   UNL A   1      41.112  30.279  34.913  1.00  0.00     0.049 A 
ATOM     50  C   UNL A   1      42.747  27.365  30.403  1.00  0.00     0.074 A 
ATOM     51  C   UNL A   1      41.822  30.065  36.080  1.00  0.00     0.029 A 
ATOM     52  N   UNL A   1      41.694  29.482  33.938  1.00  0.00    -0.354 N 
ATOM     53  N   UNL A   1      42.475  27.965  31.537  1.00  0.00    -0.248 NA
ATOM     54  C   UNL A   1      43.938  26.506  30.451  1.00  0.00     0.031 C 
ATOM     55  C   UNL A   1      42.865  29.178  35.799  1.00  0.00     0.029 A 
ATOM     56  C   UNL A   1      42.773  28.796  34.470  1.00  0.00     0.049 A 
ATOM     57  H   UNL A   1      41.386  29.413  33.005  1.00  0.00     0.167 HD
ATOM     58  C   UNL A   1      43.441  27.537  32.438  1.00  0.00     0.074 A 
ATOM     59  C   UNL A   1      44.297  26.614  31.722  1.00  0.00     0.031 C 
ATOM     60  C   UNL A   1      43.607  27.877  33.740  1.00  0.00     0.037 A 
BRANCH  47  61
ATOM     61  C   UNL A   1      39.513  31.998  35.833  1.00  0.00     0.064 A 
ATOM     62  C   UNL A   1      38.470  31.588  36.677  1.00  0.00     0.173 A 
ATOM     63  C   UNL A   1      40.141  33.221  36.113  1.00  0.00     0.173 A 
ATOM     64  F   UNL A   1      37.826  30.434  36.444  1.00  0.00    -0.203 F 
ATOM     65  C   UNL A   1      38.061  32.379  37.748  1.00  0.00     0.198 A 
ATOM     66  C   UNL A   1      39.749  33.997  37.200  1.00  0.00     0.198 A 
ATOM     67  F   UNL A   1      41.143  33.659  35.336  1.00  0.00    -0.203 F 
ATOM     68  F   UNL A   1      37.038  31.987  38.518  1.00  0.00    -0.200 F 
ATOM     69  C   UNL A   1      38.707  33.578  38.013  1.00  0.00     0.200 A 
ATOM     70  F   UNL A   1      40.380  35.150  37.460  1.00  0.00    -0.200 F 
ATOM     71  F   UNL A   1      38.321  34.334  39.051  1.00  0.00    -0.200 F 
ENDBRANCH  47  61
BRANCH  48  72
ATOM     72  C   UNL A   1      42.497  26.679  27.903  1.00  0.00     0.064 A 
ATOM     73  C   UNL A   1      43.379  27.257  26.981  1.00  0.00     0.173 A 
ATOM     74  C   UNL A   1      42.064  25.367  27.657  1.00  0.00     0.173 A 
ATOM     75  F   UNL A   1      43.802  28.518  27.159  1.00  0.00    -0.203 F 
ATOM     76  C   UNL A   1      43.793  26.561  25.846  1.00  0.00     0.198 A 
ATOM     77  C   UNL A   1      42.502  24.662  26.538  1.00  0.00     0.198 A 
ATOM     78  F   UNL A   1      41.217  24.767  28.506  1.00  0.00    -0.203 F 
ATOM     79  F   UNL A   1      44.595  27.157  24.954  1.00  0.00    -0.200 F 
ATOM     80  C   UNL A   1      43.359  25.262  25.629  1.00  0.00     0.200 A 
ATOM     81  F   UNL A   1      42.087  23.404  26.338  1.00  0.00    -0.200 F 
ATOM     82  F   UNL A   1      43.756  24.595  24.537  1.00  0.00    -0.200 F 
ENDBRANCH  48  72
BRANCH  60  83
ATOM     83  C   UNL A   1      44.736  27.223  34.483  1.00  0.00     0.064 A 
ATOM     84  C   UNL A   1      46.002  27.820  34.572  1.00  0.00     0.173 A 
ATOM     85  C   UNL A   1      44.536  26.004  35.149  1.00  0.00     0.173 A 
ATOM     86  F   UNL A   1      46.247  28.979  33.942  1.00  0.00    -0.203 F 
ATOM     87  C   UNL A   1      47.034  27.207  35.278  1.00  0.00     0.198 A 
ATOM     88  C   UNL A   1      45.561  25.410  35.879  1.00  0.00     0.198 A 
ATOM     89  F   UNL A   1      43.341  25.396  35.103  1.00  0.00    -0.203 F 
ATOM     90  F   UNL A   1      48.249  27.771  35.308  1.00  0.00    -0.200 F 
ATOM     91  C   UNL A   1      46.811  26.007  35.937  1.00  0.00     0.200 A 
ATOM     92  F   UNL A   1      45.339  24.258  36.528  1.00  0.00    -0.200 F 
ATOM     93  F   UNL A   1      47.803  25.423  36.621  1.00  0.00    -0.200 F 
ENDBRANCH  60  83
ENDBRANCH  34  35
ENDBRANCH  27  29
ENDBRANCH  26  27
ENDBRANCH  25  26
ENDBRANCH  24  25
ENDBRANCH  23  24
ENDBRANCH   1  23
TORSDOF 17
ENDMDL
