MODEL 1
REMARK VINA RESULT:     -12.9      0.000      0.000
REMARK SMILES O=C(CNC(=O)[C@@H](CC1=c2ccccc2=NC1)N1C(=O)N=C2C=CC=C[C@H]2C1=O)OCCOCCOC(=O)c1ccc(-c2c3nc(c(-c4c(F)c(F)c(F)c(F)c4F)c4ccc([nH]4)c(-c4c(F)c(F)c(F)c(F)c4F)c4nc(c(-c5c(F)c(F)c(F)c(F)c5F)c5ccc2[nH]5)C=C4)C=C3)cc1
REMARK SMILES IDX 32 1 31 2 30 3 2 4 1 5 3 6 4 7 5 8 6 10 7 11 8 12 9 13 10 14
REMARK SMILES IDX 17 15 11 16 15 17 16 18 12 19 14 20 13 21 18 22 19 23 28 24
REMARK SMILES IDX 21 25 20 26 27 27 29 28 22 29 26 30 23 31 25 32 24 33 33 34
REMARK SMILES IDX 34 35 35 36 36 37 37 38 38 39 39 40 40 41 101 42 41 43
REMARK SMILES IDX 100 44 42 45 43 46 44 47 94 48 45 49 99 50 93 51 95 52 46 53
REMARK SMILES IDX 98 54 92 55 91 56 47 58 79 59 59 60 78 61 60 62 63 63 77 64
REMARK SMILES IDX 96 65 61 66 62 67 76 69 97 70 64 71 48 72 49 73 57 74 50 75
REMARK SMILES IDX 51 76 55 77 58 78 52 79 53 80 56 81 54 82 80 83 81 84 89 85
REMARK SMILES IDX 82 86 83 87 87 88 90 89 84 90 85 91 88 92 86 93 65 94 66 95
REMARK SMILES IDX 74 96 67 97 68 98 72 99 75 100 69 101 70 102 73 103 71 104
REMARK H PARENT 4 9 95 57 63 68
REMARK Flexibility Score: inf
ROOT
ATOM      1  C   UNL A   1      40.761  20.384  26.228  1.00  0.00     0.202 C 
ENDROOT
BRANCH   1   2
ATOM      2  C   UNL A   1      39.913  21.800  26.135  1.00  0.00     0.261 C 
BRANCH   2   3
ATOM      3  O   UNL A   1      38.587  21.669  25.509  1.00  0.00    -0.462 OA
BRANCH   3   4
ATOM      4  C   UNL A   1      37.562  22.550  25.668  1.00  0.00     0.325 C 
ATOM      5  O   UNL A   1      37.847  23.743  25.811  1.00  0.00    -0.250 OA
BRANCH   4   6
ATOM      6  C   UNL A   1      36.135  22.061  26.171  1.00  0.00     0.238 C 
BRANCH   6   7
ATOM      7  N   UNL A   1      35.181  22.451  27.259  1.00  0.00    -0.343 N 
ATOM      8  C   UNL A   1      33.792  22.499  27.350  1.00  0.00     0.244 C 
ATOM      9  H   UNL A   1      35.633  22.733  28.087  1.00  0.00     0.164 HD
ATOM     10  O   UNL A   1      33.259  22.333  28.446  1.00  0.00    -0.273 OA
BRANCH   8  11
ATOM     11  C   UNL A   1      33.011  22.981  26.115  1.00  0.00     0.188 C 
BRANCH  11  12
ATOM     12  C   UNL A   1      32.434  21.808  25.265  1.00  0.00     0.069 C 
BRANCH  12  13
ATOM     13  C   UNL A   1      32.269  20.550  24.448  1.00  0.00    -0.037 C 
ATOM     14  C   UNL A   1      32.092  19.210  24.735  1.00  0.00     0.001 A 
ATOM     15  C   UNL A   1      31.929  20.923  22.984  1.00  0.00     0.174 C 
ATOM     16  C   UNL A   1      32.709  17.804  25.943  1.00  0.00     0.010 A 
ATOM     17  C   UNL A   1      32.493  18.863  22.896  1.00  0.00     0.065 A 
ATOM     18  N   UNL A   1      32.254  19.822  22.067  1.00  0.00    -0.280 NA
ATOM     19  C   UNL A   1      33.602  16.583  25.413  1.00  0.00     0.001 A 
ATOM     20  C   UNL A   1      33.552  17.348  22.543  1.00  0.00     0.028 A 
ATOM     21  C   UNL A   1      34.023  16.408  23.611  1.00  0.00     0.002 A 
ENDBRANCH  12  13
ENDBRANCH  11  12
BRANCH  11  22
ATOM     22  N   UNL A   1      32.689  24.429  26.015  1.00  0.00    -0.249 N 
ATOM     23  C   UNL A   1      31.438  24.854  26.502  1.00  0.00     0.351 C 
ATOM     24  C   UNL A   1      33.571  25.302  25.411  1.00  0.00     0.244 C 
ATOM     25  N   UNL A   1      31.003  26.126  26.311  1.00  0.00    -0.197 NA
ATOM     26  O   UNL A   1      30.684  24.104  27.119  1.00  0.00    -0.246 OA
ATOM     27  C   UNL A   1      32.989  26.648  24.955  1.00  0.00     0.151 C 
ATOM     28  O   UNL A   1      34.745  24.993  25.190  1.00  0.00    -0.273 OA
ATOM     29  C   UNL A   1      31.681  26.976  25.628  1.00  0.00     0.062 C 
ATOM     30  C   UNL A   1      33.903  27.846  25.112  1.00  0.00    -0.007 C 
ATOM     31  C   UNL A   1      31.124  28.346  25.491  1.00  0.00     0.025 C 
ATOM     32  C   UNL A   1      33.420  29.093  25.262  1.00  0.00    -0.003 C 
ATOM     33  C   UNL A   1      31.996  29.341  25.300  1.00  0.00     0.002 C 
ENDBRANCH  11  22
ENDBRANCH   8  11
ENDBRANCH   6   7
ENDBRANCH   4   6
ENDBRANCH   3   4
ENDBRANCH   2   3
ENDBRANCH   1   2
BRANCH   1  34
ATOM     34  O   UNL A   1      42.216  20.266  25.853  1.00  0.00    -0.374 OA
BRANCH  34  35
ATOM     35  C   UNL A   1      43.421  21.196  25.648  1.00  0.00     0.202 C 
BRANCH  35  36
ATOM     36  C   UNL A   1      43.979  22.424  24.321  1.00  0.00     0.261 C 
BRANCH  36  37
ATOM     37  O   UNL A   1      44.360  24.370  24.821  1.00  0.00    -0.460 OA
BRANCH  37  38
ATOM     38  C   UNL A   1      44.945  25.515  25.444  1.00  0.00     0.338 C 
ATOM     39  O   UNL A   1      45.501  26.448  24.857  1.00  0.00    -0.246 OA
BRANCH  38  40
ATOM     40  C   UNL A   1      44.664  25.790  26.926  1.00  0.00     0.060 A 
ATOM     41  C   UNL A   1      44.993  27.068  27.400  1.00  0.00     0.016 A 
ATOM     42  C   UNL A   1      43.788  25.044  27.735  1.00  0.00     0.016 A 
ATOM     43  C   UNL A   1      44.438  27.586  28.590  1.00  0.00     0.010 A 
ATOM     44  C   UNL A   1      43.228  25.549  28.928  1.00  0.00     0.010 A 
ATOM     45  C   UNL A   1      43.521  26.843  29.346  1.00  0.00    -0.014 A 
BRANCH  45  46
ATOM     46  C   UNL A   1      42.790  27.487  30.471  1.00  0.00     0.031 A 
ATOM     47  C   UNL A   1      43.379  27.530  31.845  1.00  0.00     0.074 A 
ATOM     48  C   UNL A   1      41.602  28.082  30.239  1.00  0.00     0.049 A 
ATOM     49  N   UNL A   1      43.074  28.313  32.848  1.00  0.00    -0.248 NA
ATOM     50  C   UNL A   1      44.442  26.559  32.136  1.00  0.00     0.031 C 
ATOM     51  C   UNL A   1      40.866  28.021  28.977  1.00  0.00     0.029 A 
ATOM     52  N   UNL A   1      40.820  28.877  31.043  1.00  0.00    -0.354 N 
ATOM     53  C   UNL A   1      43.957  27.983  33.865  1.00  0.00     0.074 A 
ATOM     54  C   UNL A   1      44.747  26.866  33.390  1.00  0.00     0.031 C 
ATOM     55  C   UNL A   1      39.762  28.782  29.074  1.00  0.00     0.029 A 
ATOM     56  C   UNL A   1      39.730  29.408  30.394  1.00  0.00     0.049 A 
ATOM     57  H   UNL A   1      41.020  29.050  31.991  1.00  0.00     0.167 HD
ATOM     58  C   UNL A   1      44.115  28.591  35.066  1.00  0.00     0.037 A 
ATOM     59  C   UNL A   1      38.840  30.340  30.794  1.00  0.00     0.037 A 
ATOM     60  C   UNL A   1      43.287  29.672  35.537  1.00  0.00     0.049 A 
ATOM     61  C   UNL A   1      39.032  31.009  32.130  1.00  0.00     0.074 A 
ATOM     62  C   UNL A   1      43.390  30.393  36.713  1.00  0.00     0.029 A 
ATOM     63  N   UNL A   1      42.184  30.170  34.858  1.00  0.00    -0.354 N 
ATOM     64  N   UNL A   1      39.975  30.817  33.021  1.00  0.00    -0.248 NA
ATOM     65  C   UNL A   1      38.058  32.046  32.503  1.00  0.00     0.031 C 
ATOM     66  C   UNL A   1      42.321  31.296  36.767  1.00  0.00     0.029 A 
ATOM     67  C   UNL A   1      41.579  31.168  35.605  1.00  0.00     0.049 A 
ATOM     68  H   UNL A   1      41.877  29.861  33.976  1.00  0.00     0.167 HD
ATOM     69  C   UNL A   1      39.723  31.718  34.046  1.00  0.00     0.074 A 
ATOM     70  C   UNL A   1      38.548  32.471  33.661  1.00  0.00     0.031 C 
ATOM     71  C   UNL A   1      40.404  31.903  35.205  1.00  0.00     0.037 A 
BRANCH  58  72
ATOM     72  C   UNL A   1      45.247  28.129  35.935  1.00  0.00     0.064 A 
ATOM     73  C   UNL A   1      45.041  27.159  36.929  1.00  0.00     0.173 A 
ATOM     74  C   UNL A   1      46.553  28.600  35.741  1.00  0.00     0.173 A 
ATOM     75  F   UNL A   1      43.812  26.673  37.154  1.00  0.00    -0.203 F 
ATOM     76  C   UNL A   1      46.096  26.695  37.711  1.00  0.00     0.198 A 
ATOM     77  C   UNL A   1      47.610  28.118  36.510  1.00  0.00     0.198 A 
ATOM     78  F   UNL A   1      46.808  29.518  34.797  1.00  0.00    -0.203 F 
ATOM     79  F   UNL A   1      45.869  25.791  38.674  1.00  0.00    -0.200 F 
ATOM     80  C   UNL A   1      47.381  27.170  37.497  1.00  0.00     0.200 A 
ATOM     81  F   UNL A   1      48.855  28.566  36.292  1.00  0.00    -0.200 F 
ATOM     82  F   UNL A   1      48.398  26.717  38.242  1.00  0.00    -0.200 F 
ENDBRANCH  58  72
BRANCH  59  83
ATOM     83  C   UNL A   1      37.752  30.765  29.872  1.00  0.00     0.064 A 
ATOM     84  C   UNL A   1      37.783  32.020  29.247  1.00  0.00     0.173 A 
ATOM     85  C   UNL A   1      36.677  29.916  29.575  1.00  0.00     0.173 A 
ATOM     86  F   UNL A   1      38.780  32.877  29.514  1.00  0.00    -0.203 F 
ATOM     87  C   UNL A   1      36.776  32.413  28.366  1.00  0.00     0.198 A 
ATOM     88  C   UNL A   1      35.682  30.302  28.676  1.00  0.00     0.198 A 
ATOM     89  F   UNL A   1      36.599  28.705  30.145  1.00  0.00    -0.203 F 
ATOM     90  F   UNL A   1      36.814  33.629  27.805  1.00  0.00    -0.200 F 
ATOM     91  C   UNL A   1      35.730  31.550  28.075  1.00  0.00     0.200 A 
ATOM     92  F   UNL A   1      34.678  29.460  28.391  1.00  0.00    -0.200 F 
ATOM     93  F   UNL A   1      34.768  31.923  27.220  1.00  0.00    -0.200 F 
ENDBRANCH  59  83
BRANCH  71  94
ATOM     94  C   UNL A   1      39.893  32.950  36.150  1.00  0.00     0.064 A 
ATOM     95  C   UNL A   1      38.923  32.648  37.116  1.00  0.00     0.173 A 
ATOM     96  C   UNL A   1      40.438  34.244  36.145  1.00  0.00     0.173 A 
ATOM     97  F   UNL A   1      38.363  31.429  37.152  1.00  0.00    -0.203 F 
ATOM     98  C   UNL A   1      38.510  33.605  38.039  1.00  0.00     0.198 A 
ATOM     99  C   UNL A   1      40.042  35.190  37.086  1.00  0.00     0.198 A 
ATOM    100  F   UNL A   1      41.374  34.580  35.246  1.00  0.00    -0.203 F 
ATOM    101  F   UNL A   1      37.562  33.302  38.936  1.00  0.00    -0.200 F 
ATOM    102  C   UNL A   1      39.076  34.871  38.029  1.00  0.00     0.200 A 
ATOM    103  F   UNL A   1      40.600  36.408  37.086  1.00  0.00    -0.200 F 
ATOM    104  F   UNL A   1      38.692  35.785  38.931  1.00  0.00    -0.200 F 
ENDBRANCH  71  94
ENDBRANCH  45  46
ENDBRANCH  38  40
ENDBRANCH  37  38
ENDBRANCH  36  37
ENDBRANCH  35  36
ENDBRANCH  34  35
ENDBRANCH   1  34
TORSDOF 19
ENDMDL
MODEL 2
REMARK VINA RESULT:     -12.0      3.935      6.290
REMARK SMILES O=C(CNC(=O)[C@@H](CC1=c2ccccc2=NC1)N1C(=O)N=C2C=CC=C[C@H]2C1=O)OCCOCCOC(=O)c1ccc(-c2c3nc(c(-c4c(F)c(F)c(F)c(F)c4F)c4ccc([nH]4)c(-c4c(F)c(F)c(F)c(F)c4F)c4nc(c(-c5c(F)c(F)c(F)c(F)c5F)c5ccc2[nH]5)C=C4)C=C3)cc1
REMARK SMILES IDX 32 1 31 2 30 3 2 4 1 5 3 6 4 7 5 8 6 10 7 11 8 12 9 13 10 14
REMARK SMILES IDX 17 15 11 16 15 17 16 18 12 19 14 20 13 21 18 22 19 23 28 24
REMARK SMILES IDX 21 25 20 26 27 27 29 28 22 29 26 30 23 31 25 32 24 33 33 34
REMARK SMILES IDX 34 35 35 36 36 37 37 38 38 39 39 40 40 41 101 42 41 43
REMARK SMILES IDX 100 44 42 45 43 46 44 47 94 48 45 49 99 50 93 51 95 52 46 53
REMARK SMILES IDX 98 54 92 55 91 56 47 58 79 59 59 60 78 61 60 62 63 63 77 64
REMARK SMILES IDX 96 65 61 66 62 67 76 69 97 70 64 71 48 72 49 73 57 74 50 75
REMARK SMILES IDX 51 76 55 77 58 78 52 79 53 80 56 81 54 82 80 83 81 84 89 85
REMARK SMILES IDX 82 86 83 87 87 88 90 89 84 90 85 91 88 92 86 93 65 94 66 95
REMARK SMILES IDX 74 96 67 97 68 98 72 99 75 100 69 101 70 102 73 103 71 104
REMARK H PARENT 4 9 95 57 63 68
REMARK Flexibility Score: inf
ROOT
ATOM      1  C   UNL A   1      46.101  19.600  24.832  1.00  0.00     0.202 C 
ENDROOT
BRANCH   1   2
ATOM      2  C   UNL A   1      44.899  19.270  23.747  1.00  0.00     0.261 C 
BRANCH   2   3
ATOM      3  O   UNL A   1      43.773  18.506  24.308  1.00  0.00    -0.462 OA
BRANCH   3   4
ATOM      4  C   UNL A   1      43.180  18.761  25.506  1.00  0.00     0.325 C 
ATOM      5  O   UNL A   1      42.712  17.803  26.130  1.00  0.00    -0.250 OA
BRANCH   4   6
ATOM      6  C   UNL A   1      42.637  20.214  25.856  1.00  0.00     0.238 C 
BRANCH   6   7
ATOM      7  N   UNL A   1      42.670  21.122  27.048  1.00  0.00    -0.343 N 
ATOM      8  C   UNL A   1      41.741  21.978  27.632  1.00  0.00     0.244 C 
ATOM      9  H   UNL A   1      43.534  21.109  27.519  1.00  0.00     0.164 HD
ATOM     10  O   UNL A   1      41.801  22.189  28.842  1.00  0.00    -0.273 OA
BRANCH   8  11
ATOM     11  C   UNL A   1      40.829  22.790  26.695  1.00  0.00     0.188 C 
BRANCH  11  12
ATOM     12  C   UNL A   1      39.617  21.966  26.163  1.00  0.00     0.069 C 
BRANCH  12  13
ATOM     13  C   UNL A   1      38.325  21.538  25.509  1.00  0.00    -0.037 C 
ATOM     14  C   UNL A   1      37.252  22.193  24.937  1.00  0.00     0.001 A 
ATOM     15  C   UNL A   1      38.400  20.033  25.152  1.00  0.00     0.174 C 
ATOM     16  C   UNL A   1      36.085  23.739  25.190  1.00  0.00     0.010 A 
ATOM     17  C   UNL A   1      36.323  20.520  25.001  1.00  0.00     0.065 A 
ATOM     18  N   UNL A   1      37.055  19.458  24.999  1.00  0.00    -0.280 NA
ATOM     19  C   UNL A   1      34.539  23.562  25.572  1.00  0.00     0.001 A 
ATOM     20  C   UNL A   1      34.500  20.594  25.463  1.00  0.00     0.028 A 
ATOM     21  C   UNL A   1      33.768  21.876  25.715  1.00  0.00     0.002 A 
ENDBRANCH  12  13
ENDBRANCH  11  12
BRANCH  11  22
ATOM     22  N   UNL A   1      41.045  24.259  26.611  1.00  0.00    -0.249 N 
ATOM     23  C   UNL A   1      42.069  24.718  25.759  1.00  0.00     0.351 C 
ATOM     24  C   UNL A   1      40.302  25.122  27.389  1.00  0.00     0.244 C 
ATOM     25  N   UNL A   1      42.434  26.026  25.740  1.00  0.00    -0.197 NA
ATOM     26  O   UNL A   1      42.677  23.968  24.998  1.00  0.00    -0.246 OA
ATOM     27  C   UNL A   1      40.876  26.534  27.576  1.00  0.00     0.151 C 
ATOM     28  O   UNL A   1      39.268  24.760  27.957  1.00  0.00    -0.273 OA
ATOM     29  C   UNL A   1      41.909  26.885  26.536  1.00  0.00     0.062 C 
ATOM     30  C   UNL A   1      39.860  27.656  27.616  1.00  0.00    -0.007 C 
ATOM     31  C   UNL A   1      42.368  28.293  26.424  1.00  0.00     0.025 C 
ATOM     32  C   UNL A   1      40.177  28.915  27.259  1.00  0.00    -0.003 C 
ATOM     33  C   UNL A   1      41.507  29.245  26.797  1.00  0.00     0.002 C 
ENDBRANCH  11  22
ENDBRANCH   8  11
ENDBRANCH   6   7
ENDBRANCH   4   6
ENDBRANCH   3   4
ENDBRANCH   2   3
ENDBRANCH   1   2
BRANCH   1  34
ATOM     34  O   UNL A   1      46.112  20.828  25.706  1.00  0.00    -0.374 OA
BRANCH  34  35
ATOM     35  C   UNL A   1      45.839  22.333  25.564  1.00  0.00     0.202 C 
BRANCH  35  36
ATOM     36  C   UNL A   1      46.038  23.625  24.197  1.00  0.00     0.261 C 
BRANCH  36  37
ATOM     37  O   UNL A   1      47.321  25.198  24.453  1.00  0.00    -0.460 OA
BRANCH  37  38
ATOM     38  C   UNL A   1      48.161  26.167  25.082  1.00  0.00     0.338 C 
ATOM     39  O   UNL A   1      49.391  26.225  24.984  1.00  0.00    -0.246 OA
BRANCH  38  40
ATOM     40  C   UNL A   1      47.528  27.406  25.725  1.00  0.00     0.060 A 
ATOM     41  C   UNL A   1      46.143  27.559  25.564  1.00  0.00     0.016 A 
ATOM     42  C   UNL A   1      48.113  28.174  26.749  1.00  0.00     0.016 A 
ATOM     43  C   UNL A   1      45.383  28.395  26.410  1.00  0.00     0.010 A 
ATOM     44  C   UNL A   1      47.365  29.015  27.601  1.00  0.00     0.010 A 
ATOM     45  C   UNL A   1      45.984  29.103  27.460  1.00  0.00    -0.014 A 
BRANCH  45  46
ATOM     46  C   UNL A   1      45.138  29.802  28.465  1.00  0.00     0.031 A 
ATOM     47  C   UNL A   1      44.713  29.113  29.724  1.00  0.00     0.074 A 
ATOM     48  C   UNL A   1      44.789  31.088  28.263  1.00  0.00     0.049 A 
ATOM     49  N   UNL A   1      44.281  29.635  30.843  1.00  0.00    -0.248 NA
ATOM     50  C   UNL A   1      44.770  27.645  29.722  1.00  0.00     0.031 C 
ATOM     51  C   UNL A   1      45.043  31.842  27.036  1.00  0.00     0.029 A 
ATOM     52  N   UNL A   1      44.173  31.997  29.091  1.00  0.00    -0.354 N 
ATOM     53  C   UNL A   1      44.086  28.567  31.706  1.00  0.00     0.074 A 
ATOM     54  C   UNL A   1      44.357  27.361  30.951  1.00  0.00     0.031 C 
ATOM     55  C   UNL A   1      44.628  33.110  27.205  1.00  0.00     0.029 A 
ATOM     56  C   UNL A   1      44.108  33.265  28.561  1.00  0.00     0.049 A 
ATOM     57  H   UNL A   1      43.815  31.763  29.978  1.00  0.00     0.167 HD
ATOM     58  C   UNL A   1      43.752  28.603  33.018  1.00  0.00     0.037 A 
ATOM     59  C   UNL A   1      43.731  34.430  29.124  1.00  0.00     0.037 A 
ATOM     60  C   UNL A   1      43.441  29.812  33.739  1.00  0.00     0.049 A 
ATOM     61  C   UNL A   1      43.366  34.454  30.586  1.00  0.00     0.074 A 
ATOM     62  C   UNL A   1      43.140  29.968  35.080  1.00  0.00     0.029 A 
ATOM     63  N   UNL A   1      43.371  31.072  33.164  1.00  0.00    -0.354 N 
ATOM     64  N   UNL A   1      43.350  33.465  31.448  1.00  0.00    -0.248 NA
ATOM     65  C   UNL A   1      42.999  35.756  31.162  1.00  0.00     0.031 C 
ATOM     66  C   UNL A   1      42.841  31.316  35.307  1.00  0.00     0.029 A 
ATOM     67  C   UNL A   1      43.000  32.007  34.117  1.00  0.00     0.049 A 
ATOM     68  H   UNL A   1      43.557  31.273  32.218  1.00  0.00     0.167 HD
ATOM     69  C   UNL A   1      42.994  34.025  32.667  1.00  0.00     0.074 A 
ATOM     70  C   UNL A   1      42.820  35.445  32.440  1.00  0.00     0.031 C 
ATOM     71  C   UNL A   1      42.825  33.417  33.867  1.00  0.00     0.037 A 
BRANCH  58  72
ATOM     72  C   UNL A   1      43.744  27.303  33.769  1.00  0.00     0.064 A 
ATOM     73  C   UNL A   1      44.946  26.700  34.174  1.00  0.00     0.173 A 
ATOM     74  C   UNL A   1      42.543  26.687  34.145  1.00  0.00     0.173 A 
ATOM     75  F   UNL A   1      46.123  27.251  33.843  1.00  0.00    -0.203 F 
ATOM     76  C   UNL A   1      44.944  25.517  34.908  1.00  0.00     0.198 A 
ATOM     77  C   UNL A   1      42.544  25.515  34.899  1.00  0.00     0.198 A 
ATOM     78  F   UNL A   1      41.366  27.228  33.795  1.00  0.00    -0.203 F 
ATOM     79  F   UNL A   1      46.105  24.944  35.257  1.00  0.00    -0.200 F 
ATOM     80  C   UNL A   1      43.743  24.928  35.275  1.00  0.00     0.200 A 
ATOM     81  F   UNL A   1      41.383  24.954  35.266  1.00  0.00    -0.200 F 
ATOM     82  F   UNL A   1      43.742  23.794  35.990  1.00  0.00    -0.200 F 
ENDBRANCH  58  72
BRANCH  59  83
ATOM     83  C   UNL A   1      43.781  35.685  28.326  1.00  0.00     0.064 A 
ATOM     84  C   UNL A   1      42.613  36.251  27.793  1.00  0.00     0.173 A 
ATOM     85  C   UNL A   1      44.990  36.359  28.103  1.00  0.00     0.173 A 
ATOM     86  F   UNL A   1      41.434  35.634  27.960  1.00  0.00    -0.203 F 
ATOM     87  C   UNL A   1      42.654  37.438  27.062  1.00  0.00     0.198 A 
ATOM     88  C   UNL A   1      45.027  37.558  27.392  1.00  0.00     0.198 A 
ATOM     89  F   UNL A   1      46.135  35.861  28.591  1.00  0.00    -0.203 F 
ATOM     90  F   UNL A   1      41.528  37.941  26.540  1.00  0.00    -0.200 F 
ATOM     91  C   UNL A   1      43.860  38.095  26.870  1.00  0.00     0.200 A 
ATOM     92  F   UNL A   1      46.193  38.195  27.216  1.00  0.00    -0.200 F 
ATOM     93  F   UNL A   1      43.898  39.242  26.177  1.00  0.00    -0.200 F 
ENDBRANCH  59  83
BRANCH  71  94
ATOM     94  C   UNL A   1      42.419  34.275  35.029  1.00  0.00     0.064 A 
ATOM     95  C   UNL A   1      41.071  34.559  35.288  1.00  0.00     0.173 A 
ATOM     96  C   UNL A   1      43.379  34.749  35.938  1.00  0.00     0.173 A 
ATOM     97  F   UNL A   1      40.118  34.140  34.442  1.00  0.00    -0.203 F 
ATOM     98  C   UNL A   1      40.697  35.293  36.411  1.00  0.00     0.198 A 
ATOM     99  C   UNL A   1      42.999  35.460  37.073  1.00  0.00     0.198 A 
ATOM    100  F   UNL A   1      44.681  34.498  35.738  1.00  0.00    -0.203 F 
ATOM    101  F   UNL A   1      39.405  35.575  36.625  1.00  0.00    -0.200 F 
ATOM    102  C   UNL A   1      41.660  35.733  37.307  1.00  0.00     0.200 A 
ATOM    103  F   UNL A   1      43.928  35.872  37.946  1.00  0.00    -0.200 F 
ATOM    104  F   UNL A   1      41.296  36.422  38.398  1.00  0.00    -0.200 F 
ENDBRANCH  71  94
ENDBRANCH  45  46
ENDBRANCH  38  40
ENDBRANCH  37  38
ENDBRANCH  36  37
ENDBRANCH  35  36
ENDBRANCH  34  35
ENDBRANCH   1  34
TORSDOF 19
ENDMDL
MODEL 3
REMARK VINA RESULT:     -11.9      7.177     15.211
REMARK SMILES O=C(CNC(=O)[C@@H](CC1=c2ccccc2=NC1)N1C(=O)N=C2C=CC=C[C@H]2C1=O)OCCOCCOC(=O)c1ccc(-c2c3nc(c(-c4c(F)c(F)c(F)c(F)c4F)c4ccc([nH]4)c(-c4c(F)c(F)c(F)c(F)c4F)c4nc(c(-c5c(F)c(F)c(F)c(F)c5F)c5ccc2[nH]5)C=C4)C=C3)cc1
REMARK SMILES IDX 32 1 31 2 30 3 2 4 1 5 3 6 4 7 5 8 6 10 7 11 8 12 9 13 10 14
REMARK SMILES IDX 17 15 11 16 15 17 16 18 12 19 14 20 13 21 18 22 19 23 28 24
REMARK SMILES IDX 21 25 20 26 27 27 29 28 22 29 26 30 23 31 25 32 24 33 33 34
REMARK SMILES IDX 34 35 35 36 36 37 37 38 38 39 39 40 40 41 101 42 41 43
REMARK SMILES IDX 100 44 42 45 43 46 44 47 94 48 45 49 99 50 93 51 95 52 46 53
REMARK SMILES IDX 98 54 92 55 91 56 47 58 79 59 59 60 78 61 60 62 63 63 77 64
REMARK SMILES IDX 96 65 61 66 62 67 76 69 97 70 64 71 48 72 49 73 57 74 50 75
REMARK SMILES IDX 51 76 55 77 58 78 52 79 53 80 56 81 54 82 80 83 81 84 89 85
REMARK SMILES IDX 82 86 83 87 87 88 90 89 84 90 85 91 88 92 86 93 65 94 66 95
REMARK SMILES IDX 74 96 67 97 68 98 72 99 75 100 69 101 70 102 73 103 71 104
REMARK H PARENT 4 9 95 57 63 68
REMARK Flexibility Score: inf
ROOT
ATOM      1  C   UNL A   1      45.066  38.567  35.424  1.00  0.00     0.202 C 
ENDROOT
BRANCH   1   2
ATOM      2  C   UNL A   1      44.542  38.412  33.864  1.00  0.00     0.261 C 
BRANCH   2   3
ATOM      3  O   UNL A   1      45.178  39.342  32.918  1.00  0.00    -0.462 OA
BRANCH   3   4
ATOM      4  C   UNL A   1      44.565  40.418  32.354  1.00  0.00     0.325 C 
ATOM      5  O   UNL A   1      44.341  41.395  33.076  1.00  0.00    -0.250 OA
BRANCH   4   6
ATOM      6  C   UNL A   1      43.710  40.266  31.022  1.00  0.00     0.238 C 
BRANCH   6   7
ATOM      7  N   UNL A   1      42.492  40.917  30.439  1.00  0.00    -0.343 N 
ATOM      8  C   UNL A   1      41.629  40.586  29.399  1.00  0.00     0.244 C 
ATOM      9  H   UNL A   1      42.251  41.758  30.890  1.00  0.00     0.164 HD
ATOM     10  O   UNL A   1      40.458  40.958  29.453  1.00  0.00    -0.273 OA
BRANCH   8  11
ATOM     11  C   UNL A   1      42.242  39.968  28.130  1.00  0.00     0.188 C 
BRANCH  11  12
ATOM     12  C   UNL A   1      42.270  38.409  28.166  1.00  0.00     0.069 C 
BRANCH  12  13
ATOM     13  C   UNL A   1      42.628  36.968  28.437  1.00  0.00    -0.037 C 
ATOM     14  C   UNL A   1      41.930  35.776  28.488  1.00  0.00     0.001 A 
ATOM     15  C   UNL A   1      44.163  36.788  28.333  1.00  0.00     0.174 C 
ATOM     16  C   UNL A   1      40.252  35.006  29.125  1.00  0.00     0.010 A 
ATOM     17  C   UNL A   1      43.480  35.018  29.319  1.00  0.00     0.065 A 
ATOM     18  N   UNL A   1      44.607  35.590  29.060  1.00  0.00    -0.280 NA
ATOM     19  C   UNL A   1      40.223  33.963  30.341  1.00  0.00     0.001 A 
ATOM     20  C   UNL A   1      43.164  33.802  30.720  1.00  0.00     0.028 A 
ATOM     21  C   UNL A   1      41.792  33.379  31.148  1.00  0.00     0.002 A 
ENDBRANCH  12  13
ENDBRANCH  11  12
BRANCH  11  22
ATOM     22  N   UNL A   1      42.488  40.861  26.967  1.00  0.00    -0.249 N 
ATOM     23  C   UNL A   1      41.497  40.918  25.968  1.00  0.00     0.351 C 
ATOM     24  C   UNL A   1      43.674  41.557  26.858  1.00  0.00     0.244 C 
ATOM     25  N   UNL A   1      41.708  41.586  24.805  1.00  0.00    -0.197 NA
ATOM     26  O   UNL A   1      40.403  40.373  26.096  1.00  0.00    -0.246 OA
ATOM     27  C   UNL A   1      44.028  42.082  25.459  1.00  0.00     0.151 C 
ATOM     28  O   UNL A   1      44.439  41.695  27.816  1.00  0.00    -0.273 OA
ATOM     29  C   UNL A   1      42.835  42.140  24.539  1.00  0.00     0.062 C 
ATOM     30  C   UNL A   1      44.711  43.432  25.416  1.00  0.00    -0.007 C 
ATOM     31  C   UNL A   1      42.958  42.859  23.245  1.00  0.00     0.025 C 
ATOM     32  C   UNL A   1      44.621  44.241  24.344  1.00  0.00    -0.003 C 
ATOM     33  C   UNL A   1      43.843  43.859  23.187  1.00  0.00     0.002 C 
ENDBRANCH  11  22
ENDBRANCH   8  11
ENDBRANCH   6   7
ENDBRANCH   4   6
ENDBRANCH   3   4
ENDBRANCH   2   3
ENDBRANCH   1   2
BRANCH   1  34
ATOM     34  O   UNL A   1      44.133  38.721  36.598  1.00  0.00    -0.374 OA
BRANCH  34  35
ATOM     35  C   UNL A   1      44.075  38.294  38.073  1.00  0.00     0.202 C 
BRANCH  35  36
ATOM     36  C   UNL A   1      43.153  36.977  39.070  1.00  0.00     0.261 C 
BRANCH  36  37
ATOM     37  O   UNL A   1      41.300  36.348  38.471  1.00  0.00    -0.460 OA
BRANCH  37  38
ATOM     38  C   UNL A   1      39.905  36.356  38.165  1.00  0.00     0.338 C 
ATOM     39  O   UNL A   1      39.088  37.195  38.555  1.00  0.00    -0.246 OA
BRANCH  38  40
ATOM     40  C   UNL A   1      39.372  35.430  37.067  1.00  0.00     0.060 A 
ATOM     41  C   UNL A   1      39.944  35.571  35.793  1.00  0.00     0.016 A 
ATOM     42  C   UNL A   1      38.663  34.235  37.290  1.00  0.00     0.016 A 
ATOM     43  C   UNL A   1      39.852  34.554  34.820  1.00  0.00     0.010 A 
ATOM     44  C   UNL A   1      38.562  33.211  36.324  1.00  0.00     0.010 A 
ATOM     45  C   UNL A   1      39.190  33.348  35.090  1.00  0.00    -0.014 A 
BRANCH  45  46
ATOM     46  C   UNL A   1      39.292  32.213  34.132  1.00  0.00     0.031 A 
ATOM     47  C   UNL A   1      38.398  32.137  32.935  1.00  0.00     0.074 A 
ATOM     48  C   UNL A   1      40.234  31.267  34.319  1.00  0.00     0.049 A 
ATOM     49  N   UNL A   1      38.549  31.442  31.837  1.00  0.00    -0.248 NA
ATOM     50  C   UNL A   1      37.166  32.936  32.982  1.00  0.00     0.031 C 
ATOM     51  C   UNL A   1      41.095  31.162  35.495  1.00  0.00     0.029 A 
ATOM     52  N   UNL A   1      40.644  30.232  33.512  1.00  0.00    -0.354 N 
ATOM     53  C   UNL A   1      37.473  31.776  31.029  1.00  0.00     0.074 A 
ATOM     54  C   UNL A   1      36.627  32.664  31.800  1.00  0.00     0.031 C 
ATOM     55  C   UNL A   1      41.961  30.149  35.318  1.00  0.00     0.029 A 
ATOM     56  C   UNL A   1      41.736  29.555  34.002  1.00  0.00     0.049 A 
ATOM     57  H   UNL A   1      40.200  29.998  32.665  1.00  0.00     0.167 HD
ATOM     58  C   UNL A   1      37.243  31.404  29.747  1.00  0.00     0.037 A 
ATOM     59  C   UNL A   1      42.507  28.607  33.433  1.00  0.00     0.037 A 
ATOM     60  C   UNL A   1      38.074  30.483  29.012  1.00  0.00     0.049 A 
ATOM     61  C   UNL A   1      42.241  28.207  32.004  1.00  0.00     0.074 A 
ATOM     62  C   UNL A   1      37.962  30.077  27.695  1.00  0.00     0.029 A 
ATOM     63  N   UNL A   1      39.161  29.808  29.549  1.00  0.00    -0.354 N 
ATOM     64  N   UNL A   1      41.324  28.655  31.180  1.00  0.00    -0.248 NA
ATOM     65  C   UNL A   1      43.133  27.197  31.416  1.00  0.00     0.031 C 
ATOM     66  C   UNL A   1      38.952  29.119  27.448  1.00  0.00     0.029 A 
ATOM     67  C   UNL A   1      39.709  28.963  28.598  1.00  0.00     0.049 A 
ATOM     68  H   UNL A   1      39.493  29.913  30.469  1.00  0.00     0.167 HD
ATOM     69  C   UNL A   1      41.540  28.001  29.975  1.00  0.00     0.074 A 
ATOM     70  C   UNL A   1      42.687  27.137  30.168  1.00  0.00     0.031 C 
ATOM     71  C   UNL A   1      40.848  28.105  28.813  1.00  0.00     0.037 A 
BRANCH  58  72
ATOM     72  C   UNL A   1      36.071  32.024  29.043  1.00  0.00     0.064 A 
ATOM     73  C   UNL A   1      34.973  31.242  28.649  1.00  0.00     0.173 A 
ATOM     74  C   UNL A   1      36.006  33.406  28.814  1.00  0.00     0.173 A 
ATOM     75  F   UNL A   1      34.983  29.916  28.847  1.00  0.00    -0.203 F 
ATOM     76  C   UNL A   1      33.864  31.818  28.034  1.00  0.00     0.198 A 
ATOM     77  C   UNL A   1      34.886  33.982  28.219  1.00  0.00     0.198 A 
ATOM     78  F   UNL A   1      37.023  34.201  29.182  1.00  0.00    -0.203 F 
ATOM     79  F   UNL A   1      32.841  31.046  27.640  1.00  0.00    -0.200 F 
ATOM     80  C   UNL A   1      33.819  33.188  27.825  1.00  0.00     0.200 A 
ATOM     81  F   UNL A   1      34.836  35.308  28.030  1.00  0.00    -0.200 F 
ATOM     82  F   UNL A   1      32.748  33.743  27.242  1.00  0.00    -0.200 F 
ENDBRANCH  58  72
BRANCH  59  83
ATOM     83  C   UNL A   1      43.666  28.049  34.182  1.00  0.00     0.064 A 
ATOM     84  C   UNL A   1      43.544  26.867  34.927  1.00  0.00     0.173 A 
ATOM     85  C   UNL A   1      44.923  28.669  34.146  1.00  0.00     0.173 A 
ATOM     86  F   UNL A   1      42.358  26.247  35.011  1.00  0.00    -0.203 F 
ATOM     87  C   UNL A   1      44.633  26.331  35.613  1.00  0.00     0.198 A 
ATOM     88  C   UNL A   1      46.017  28.119  34.814  1.00  0.00     0.198 A 
ATOM     89  F   UNL A   1      45.093  29.801  33.448  1.00  0.00    -0.203 F 
ATOM     90  F   UNL A   1      44.483  25.216  36.341  1.00  0.00    -0.200 F 
ATOM     91  C   UNL A   1      45.871  26.953  35.549  1.00  0.00     0.200 A 
ATOM     92  F   UNL A   1      47.214  28.719  34.742  1.00  0.00    -0.200 F 
ATOM     93  F   UNL A   1      46.920  26.431  36.199  1.00  0.00    -0.200 F 
ENDBRANCH  59  83
BRANCH  71  94
ATOM     94  C   UNL A   1      41.299  27.259  27.659  1.00  0.00     0.064 A 
ATOM     95  C   UNL A   1      42.171  27.763  26.684  1.00  0.00     0.173 A 
ATOM     96  C   UNL A   1      40.923  25.909  27.572  1.00  0.00     0.173 A 
ATOM     97  F   UNL A   1      42.549  29.050  26.716  1.00  0.00    -0.203 F 
ATOM     98  C   UNL A   1      42.645  26.950  25.658  1.00  0.00     0.198 A 
ATOM     99  C   UNL A   1      41.420  25.092  26.560  1.00  0.00     0.198 A 
ATOM    100  F   UNL A   1      40.097  25.378  28.485  1.00  0.00    -0.203 F 
ATOM    101  F   UNL A   1      43.456  27.460  24.722  1.00  0.00    -0.200 F 
ATOM    102  C   UNL A   1      42.277  25.613  25.603  1.00  0.00     0.200 A 
ATOM    103  F   UNL A   1      41.076  23.798  26.516  1.00  0.00    -0.200 F 
ATOM    104  F   UNL A   1      42.750  24.827  24.626  1.00  0.00    -0.200 F 
ENDBRANCH  71  94
ENDBRANCH  45  46
ENDBRANCH  38  40
ENDBRANCH  37  38
ENDBRANCH  36  37
ENDBRANCH  35  36
ENDBRANCH  34  35
ENDBRANCH   1  34
TORSDOF 19
ENDMDL
