MODEL 1
REMARK VINA RESULT:     -10.1      0.000      0.000
REMARK SMILES CCN(C(=O)[C@H]1C=C[C@@H]([NH3+])C1)[C@H](C)CC(=O)OCCOCCOC(=O)c1ccc(-c2c3nc(c(-c4c(F)c(F)c(F)c(F)c4F)c4ccc([nH]4)c(-c4c(F)c(F)c(F)c(F)c4F)c4nc(c(-c5c(F)c(F)c(F)c(F)c5F)c5ccc2[nH]5)C=C4)C=C3)cc1
REMARK SMILES IDX 18 1 17 2 15 3 16 4 14 5 12 6 13 7 3 8 2 9 1 10 4 11 5 12
REMARK SMILES IDX 6 13 7 14 11 15 8 16 9 17 10 18 19 22 20 23 21 24 22 25
REMARK SMILES IDX 23 26 24 27 25 28 26 29 27 30 88 31 28 32 87 33 29 34 30 35
REMARK SMILES IDX 31 36 81 37 32 38 86 39 80 40 82 41 33 42 85 43 79 44 78 45
REMARK SMILES IDX 34 47 66 48 46 49 65 50 47 51 50 52 64 53 83 54 48 55 49 56
REMARK SMILES IDX 63 58 84 59 51 60 35 61 36 62 44 63 37 64 38 65 42 66 45 67
REMARK SMILES IDX 39 68 40 69 43 70 41 71 67 72 68 73 76 74 69 75 70 76 74 77
REMARK SMILES IDX 77 78 71 79 72 80 75 81 73 82 52 83 53 84 61 85 54 86 55 87
REMARK SMILES IDX 59 88 62 89 56 90 57 91 60 92 58 93
REMARK H PARENT 10 19 10 20 10 21 82 46 50 57
REMARK Flexibility Score: inf
ROOT
ATOM      1  C   UNL A   1      34.600  31.254  27.906  1.00  0.00     0.261 C 
ENDROOT
BRANCH   1   2
ATOM      2  O   UNL A   1      33.306  30.965  27.345  1.00  0.00    -0.463 OA
BRANCH   2   3
ATOM      3  C   UNL A   1      33.105  29.680  26.968  1.00  0.00     0.307 C 
ATOM      4  O   UNL A   1      33.783  28.733  27.350  1.00  0.00    -0.252 OA
BRANCH   3   5
ATOM      5  C   UNL A   1      31.988  29.517  25.968  1.00  0.00     0.147 C 
BRANCH   5   6
ATOM      6  C   UNL A   1      31.987  28.312  24.996  1.00  0.00     0.093 C 
ATOM      7  C   UNL A   1      30.940  27.266  25.422  1.00  0.00     0.031 C 
BRANCH   6   8
ATOM      8  N   UNL A   1      31.799  28.653  23.525  1.00  0.00    -0.339 N 
BRANCH   8   9
ATOM      9  C   UNL A   1      33.026  29.021  22.799  1.00  0.00     0.116 C 
ATOM     10  C   UNL A   1      33.840  27.809  22.373  1.00  0.00     0.027 C 
ENDBRANCH   8   9
BRANCH   8  11
ATOM     11  C   UNL A   1      30.537  28.623  22.926  1.00  0.00     0.229 C 
ATOM     12  O   UNL A   1      30.274  27.836  22.005  1.00  0.00    -0.274 OA
BRANCH  11  13
ATOM     13  C   UNL A   1      29.392  29.612  23.236  1.00  0.00     0.107 C 
ATOM     14  C   UNL A   1      29.513  30.963  23.862  1.00  0.00    -0.012 C 
ATOM     15  C   UNL A   1      28.710  29.921  21.891  1.00  0.00     0.087 C 
ATOM     16  C   UNL A   1      28.788  31.878  23.206  1.00  0.00     0.033 C 
ATOM     17  C   UNL A   1      28.045  31.285  22.056  1.00  0.00     0.205 C 
BRANCH  17  18
ATOM     18  N   UNL A   1      28.162  32.071  20.844  1.00  0.00    -0.352 N 
ATOM     19  H   UNL A   1      28.789  31.598  20.192  1.00  0.00     0.345 HD
ATOM     20  H   UNL A   1      28.538  32.991  21.070  1.00  0.00     0.345 HD
ATOM     21  H   UNL A   1      27.243  32.174  20.416  1.00  0.00     0.345 HD
ENDBRANCH  17  18
ENDBRANCH  11  13
ENDBRANCH   8  11
ENDBRANCH   6   8
ENDBRANCH   5   6
ENDBRANCH   3   5
ENDBRANCH   2   3
ENDBRANCH   1   2
BRANCH   1  22
ATOM     22  C   UNL A   1      34.562  32.525  28.754  1.00  0.00     0.202 C 
BRANCH  22  23
ATOM     23  O   UNL A   1      33.611  33.514  28.364  1.00  0.00    -0.374 OA
BRANCH  23  24
ATOM     24  C   UNL A   1      34.031  34.876  28.396  1.00  0.00     0.202 C 
BRANCH  24  25
ATOM     25  C   UNL A   1      33.185  35.819  29.259  1.00  0.00     0.261 C 
BRANCH  25  26
ATOM     26  O   UNL A   1      32.529  35.116  30.331  1.00  0.00    -0.460 OA
BRANCH  26  27
ATOM     27  C   UNL A   1      32.741  35.641  31.561  1.00  0.00     0.338 C 
ATOM     28  O   UNL A   1      32.060  36.479  32.138  1.00  0.00    -0.246 OA
BRANCH  27  29
ATOM     29  C   UNL A   1      33.844  34.934  32.236  1.00  0.00     0.060 A 
ATOM     30  C   UNL A   1      35.050  35.631  32.397  1.00  0.00     0.016 A 
ATOM     31  C   UNL A   1      33.741  33.598  32.629  1.00  0.00     0.016 A 
ATOM     32  C   UNL A   1      36.173  34.979  32.898  1.00  0.00     0.010 A 
ATOM     33  C   UNL A   1      34.873  32.942  33.124  1.00  0.00     0.010 A 
ATOM     34  C   UNL A   1      36.103  33.618  33.224  1.00  0.00    -0.014 A 
BRANCH  34  35
ATOM     35  C   UNL A   1      37.355  32.877  33.513  1.00  0.00     0.031 A 
ATOM     36  C   UNL A   1      38.085  33.153  34.800  1.00  0.00     0.074 A 
ATOM     37  C   UNL A   1      37.812  31.937  32.668  1.00  0.00     0.049 A 
ATOM     38  N   UNL A   1      39.198  32.633  35.253  1.00  0.00    -0.248 NA
ATOM     39  C   UNL A   1      37.478  34.151  35.695  1.00  0.00     0.031 C 
ATOM     40  C   UNL A   1      37.172  31.548  31.414  1.00  0.00     0.029 A 
ATOM     41  N   UNL A   1      38.927  31.140  32.741  1.00  0.00    -0.354 N 
ATOM     42  C   UNL A   1      39.425  33.241  36.480  1.00  0.00     0.074 A 
ATOM     43  C   UNL A   1      38.352  34.192  36.689  1.00  0.00     0.031 C 
ATOM     44  C   UNL A   1      37.910  30.589  30.829  1.00  0.00     0.029 A 
ATOM     45  C   UNL A   1      39.087  30.318  31.653  1.00  0.00     0.049 A 
ATOM     46  H   UNL A   1      39.552  31.154  33.502  1.00  0.00     0.167 HD
ATOM     47  C   UNL A   1      40.430  33.019  37.361  1.00  0.00     0.037 A 
ATOM     48  C   UNL A   1      40.082  29.462  31.350  1.00  0.00     0.037 A 
ATOM     49  C   UNL A   1      41.493  32.071  37.157  1.00  0.00     0.049 A 
ATOM     50  C   UNL A   1      41.226  29.284  32.314  1.00  0.00     0.074 A 
ATOM     51  C   UNL A   1      42.545  31.760  38.001  1.00  0.00     0.029 A 
ATOM     52  N   UNL A   1      41.642  31.284  36.025  1.00  0.00    -0.354 N 
ATOM     53  N   UNL A   1      41.419  29.844  33.483  1.00  0.00    -0.248 NA
ATOM     54  C   UNL A   1      42.290  28.351  31.915  1.00  0.00     0.031 C 
ATOM     55  C   UNL A   1      43.358  30.820  37.357  1.00  0.00     0.029 A 
ATOM     56  C   UNL A   1      42.784  30.508  36.135  1.00  0.00     0.049 A 
ATOM     57  H   UNL A   1      41.027  31.278  35.256  1.00  0.00     0.167 HD
ATOM     58  C   UNL A   1      42.607  29.311  33.971  1.00  0.00     0.074 A 
ATOM     59  C   UNL A   1      43.085  28.375  32.976  1.00  0.00     0.031 C 
ATOM     60  C   UNL A   1      43.243  29.573  35.139  1.00  0.00     0.037 A 
BRANCH  47  61
ATOM     61  C   UNL A   1      40.442  33.839  38.618  1.00  0.00     0.064 A 
ATOM     62  C   UNL A   1      39.726  33.449  39.759  1.00  0.00     0.173 A 
ATOM     63  C   UNL A   1      41.209  35.012  38.693  1.00  0.00     0.173 A 
ATOM     64  F   UNL A   1      38.966  32.344  39.736  1.00  0.00    -0.203 F 
ATOM     65  C   UNL A   1      39.759  34.217  40.921  1.00  0.00     0.198 A 
ATOM     66  C   UNL A   1      41.261  35.761  39.864  1.00  0.00     0.198 A 
ATOM     67  F   UNL A   1      41.915  35.426  37.629  1.00  0.00    -0.203 F 
ATOM     68  F   UNL A   1      39.032  33.849  41.985  1.00  0.00    -0.200 F 
ATOM     69  C   UNL A   1      40.531  35.367  40.975  1.00  0.00     0.200 A 
ATOM     70  F   UNL A   1      42.017  36.867  39.917  1.00  0.00    -0.200 F 
ATOM     71  F   UNL A   1      40.566  36.101  42.096  1.00  0.00    -0.200 F 
ENDBRANCH  47  61
BRANCH  48  72
ATOM     72  C   UNL A   1      40.049  28.711  30.067  1.00  0.00     0.064 A 
ATOM     73  C   UNL A   1      39.433  27.456  29.978  1.00  0.00     0.173 A 
ATOM     74  C   UNL A   1      40.651  29.226  28.910  1.00  0.00     0.173 A 
ATOM     75  F   UNL A   1      38.867  26.910  31.064  1.00  0.00    -0.203 F 
ATOM     76  C   UNL A   1      39.434  26.737  28.784  1.00  0.00     0.198 A 
ATOM     77  C   UNL A   1      40.630  28.520  27.711  1.00  0.00     0.198 A 
ATOM     78  F   UNL A   1      41.259  30.422  28.945  1.00  0.00    -0.203 F 
ATOM     79  F   UNL A   1      38.879  25.519  28.738  1.00  0.00    -0.200 F 
ATOM     80  C   UNL A   1      40.028  27.272  27.650  1.00  0.00     0.200 A 
ATOM     81  F   UNL A   1      41.195  29.044  26.615  1.00  0.00    -0.200 F 
ATOM     82  F   UNL A   1      40.028  26.581  26.502  1.00  0.00    -0.200 F 
ENDBRANCH  48  72
BRANCH  60  83
ATOM     83  C   UNL A   1      44.507  28.815  35.425  1.00  0.00     0.064 A 
ATOM     84  C   UNL A   1      44.490  27.575  36.080  1.00  0.00     0.173 A 
ATOM     85  C   UNL A   1      45.747  29.316  34.998  1.00  0.00     0.173 A 
ATOM     86  F   UNL A   1      43.332  27.059  36.519  1.00  0.00    -0.203 F 
ATOM     87  C   UNL A   1      45.671  26.875  36.319  1.00  0.00     0.198 A 
ATOM     88  C   UNL A   1      46.921  28.600  35.213  1.00  0.00     0.198 A 
ATOM     89  F   UNL A   1      45.817  30.494  34.361  1.00  0.00    -0.203 F 
ATOM     90  F   UNL A   1      45.636  25.713  36.985  1.00  0.00    -0.200 F 
ATOM     91  C   UNL A   1      46.884  27.385  35.878  1.00  0.00     0.200 A 
ATOM     92  F   UNL A   1      48.090  29.088  34.775  1.00  0.00    -0.200 F 
ATOM     93  F   UNL A   1      48.017  26.707  36.103  1.00  0.00    -0.200 F 
ENDBRANCH  60  83
ENDBRANCH  34  35
ENDBRANCH  27  29
ENDBRANCH  26  27
ENDBRANCH  25  26
ENDBRANCH  24  25
ENDBRANCH  23  24
ENDBRANCH  22  23
ENDBRANCH   1  22
TORSDOF 20
ENDMDL
MODEL 2
REMARK VINA RESULT:      -9.9      5.671     11.288
REMARK SMILES CCN(C(=O)[C@H]1C=C[C@@H]([NH3+])C1)[C@H](C)CC(=O)OCCOCCOC(=O)c1ccc(-c2c3nc(c(-c4c(F)c(F)c(F)c(F)c4F)c4ccc([nH]4)c(-c4c(F)c(F)c(F)c(F)c4F)c4nc(c(-c5c(F)c(F)c(F)c(F)c5F)c5ccc2[nH]5)C=C4)C=C3)cc1
REMARK SMILES IDX 18 1 17 2 15 3 16 4 14 5 12 6 13 7 3 8 2 9 1 10 4 11 5 12
REMARK SMILES IDX 6 13 7 14 11 15 8 16 9 17 10 18 19 22 20 23 21 24 22 25
REMARK SMILES IDX 23 26 24 27 25 28 26 29 27 30 88 31 28 32 87 33 29 34 30 35
REMARK SMILES IDX 31 36 81 37 32 38 86 39 80 40 82 41 33 42 85 43 79 44 78 45
REMARK SMILES IDX 34 47 66 48 46 49 65 50 47 51 50 52 64 53 83 54 48 55 49 56
REMARK SMILES IDX 63 58 84 59 51 60 35 61 36 62 44 63 37 64 38 65 42 66 45 67
REMARK SMILES IDX 39 68 40 69 43 70 41 71 67 72 68 73 76 74 69 75 70 76 74 77
REMARK SMILES IDX 77 78 71 79 72 80 75 81 73 82 52 83 53 84 61 85 54 86 55 87
REMARK SMILES IDX 59 88 62 89 56 90 57 91 60 92 58 93
REMARK H PARENT 10 19 10 20 10 21 82 46 50 57
REMARK Flexibility Score: inf
ROOT
ATOM      1  C   UNL A   1      35.832  23.065  24.831  1.00  0.00     0.261 C 
ENDROOT
BRANCH   1   2
ATOM      2  O   UNL A   1      34.821  22.624  23.905  1.00  0.00    -0.463 OA
BRANCH   2   3
ATOM      3  C   UNL A   1      34.139  23.607  23.271  1.00  0.00     0.307 C 
ATOM      4  O   UNL A   1      33.887  23.611  22.071  1.00  0.00    -0.252 OA
BRANCH   3   5
ATOM      5  C   UNL A   1      33.759  24.753  24.175  1.00  0.00     0.147 C 
BRANCH   5   6
ATOM      6  C   UNL A   1      32.430  24.707  24.967  1.00  0.00     0.093 C 
ATOM      7  C   UNL A   1      32.691  24.431  26.460  1.00  0.00     0.031 C 
BRANCH   6   8
ATOM      8  N   UNL A   1      31.535  25.929  24.823  1.00  0.00    -0.339 N 
BRANCH   8   9
ATOM      9  C   UNL A   1      30.853  26.065  23.526  1.00  0.00     0.116 C 
ATOM     10  C   UNL A   1      29.743  27.104  23.553  1.00  0.00     0.027 C 
ENDBRANCH   8   9
BRANCH   8  11
ATOM     11  C   UNL A   1      31.393  26.854  25.861  1.00  0.00     0.229 C 
ATOM     12  O   UNL A   1      30.658  26.629  26.834  1.00  0.00    -0.274 OA
BRANCH  11  13
ATOM     13  C   UNL A   1      32.010  28.270  25.870  1.00  0.00     0.107 C 
ATOM     14  C   UNL A   1      31.779  29.346  26.880  1.00  0.00    -0.012 C 
ATOM     15  C   UNL A   1      33.536  28.078  25.921  1.00  0.00     0.087 C 
ATOM     16  C   UNL A   1      32.927  29.926  27.255  1.00  0.00     0.033 C 
ATOM     17  C   UNL A   1      34.104  29.353  26.540  1.00  0.00     0.205 C 
BRANCH  17  18
ATOM     18  N   UNL A   1      35.211  29.054  27.425  1.00  0.00    -0.352 N 
ATOM     19  H   UNL A   1      35.708  29.916  27.651  1.00  0.00     0.345 HD
ATOM     20  H   UNL A   1      35.850  28.405  26.965  1.00  0.00     0.345 HD
ATOM     21  H   UNL A   1      34.857  28.631  28.283  1.00  0.00     0.345 HD
ENDBRANCH  17  18
ENDBRANCH  11  13
ENDBRANCH   8  11
ENDBRANCH   6   8
ENDBRANCH   5   6
ENDBRANCH   3   5
ENDBRANCH   2   3
ENDBRANCH   1   2
BRANCH   1  22
ATOM     22  C   UNL A   1      36.544  21.877  25.477  1.00  0.00     0.202 C 
BRANCH  22  23
ATOM     23  O   UNL A   1      37.639  21.326  24.746  1.00  0.00    -0.374 OA
BRANCH  23  24
ATOM     24  C   UNL A   1      37.806  19.910  24.785  1.00  0.00     0.202 C 
BRANCH  24  25
ATOM     25  C   UNL A   1      39.124  19.407  25.384  1.00  0.00     0.261 C 
BRANCH  25  26
ATOM     26  O   UNL A   1      39.475  20.127  26.582  1.00  0.00    -0.460 OA
BRANCH  26  27
ATOM     27  C   UNL A   1      40.795  20.403  26.705  1.00  0.00     0.338 C 
ATOM     28  O   UNL A   1      41.735  19.709  26.342  1.00  0.00    -0.246 OA
BRANCH  27  29
ATOM     29  C   UNL A   1      40.986  21.779  27.199  1.00  0.00     0.060 A 
ATOM     30  C   UNL A   1      40.347  22.808  26.495  1.00  0.00     0.016 A 
ATOM     31  C   UNL A   1      41.834  22.073  28.269  1.00  0.00     0.016 A 
ATOM     32  C   UNL A   1      40.598  24.139  26.820  1.00  0.00     0.010 A 
ATOM     33  C   UNL A   1      42.091  23.411  28.590  1.00  0.00     0.010 A 
ATOM     34  C   UNL A   1      41.505  24.449  27.842  1.00  0.00    -0.014 A 
BRANCH  34  35
ATOM     35  C   UNL A   1      41.954  25.853  28.010  1.00  0.00     0.031 A 
ATOM     36  C   UNL A   1      43.295  26.260  27.462  1.00  0.00     0.074 A 
ATOM     37  C   UNL A   1      41.162  26.765  28.599  1.00  0.00     0.049 A 
ATOM     38  N   UNL A   1      43.892  27.424  27.504  1.00  0.00    -0.248 NA
ATOM     39  C   UNL A   1      44.066  25.212  26.775  1.00  0.00     0.031 C 
ATOM     40  C   UNL A   1      39.827  26.504  29.131  1.00  0.00     0.029 A 
ATOM     41  N   UNL A   1      41.372  28.098  28.850  1.00  0.00    -0.354 N 
ATOM     42  C   UNL A   1      45.106  27.248  26.854  1.00  0.00     0.074 A 
ATOM     43  C   UNL A   1      45.177  25.858  26.454  1.00  0.00     0.031 C 
ATOM     44  C   UNL A   1      39.337  27.642  29.653  1.00  0.00     0.029 A 
ATOM     45  C   UNL A   1      40.336  28.701  29.518  1.00  0.00     0.049 A 
ATOM     46  H   UNL A   1      42.188  28.577  28.575  1.00  0.00     0.167 HD
ATOM     47  C   UNL A   1      46.071  28.165  26.602  1.00  0.00     0.037 A 
ATOM     48  C   UNL A   1      40.218  29.960  29.984  1.00  0.00     0.037 A 
ATOM     49  C   UNL A   1      45.999  29.548  26.993  1.00  0.00     0.049 A 
ATOM     50  C   UNL A   1      41.336  30.944  29.752  1.00  0.00     0.074 A 
ATOM     51  C   UNL A   1      46.916  30.559  26.765  1.00  0.00     0.029 A 
ATOM     52  N   UNL A   1      44.949  30.113  27.702  1.00  0.00    -0.354 N 
ATOM     53  N   UNL A   1      42.469  30.776  29.114  1.00  0.00    -0.248 NA
ATOM     54  C   UNL A   1      41.155  32.294  30.303  1.00  0.00     0.031 C 
ATOM     55  C   UNL A   1      46.445  31.724  27.379  1.00  0.00     0.029 A 
ATOM     56  C   UNL A   1      45.209  31.453  27.944  1.00  0.00     0.049 A 
ATOM     57  H   UNL A   1      44.139  29.634  27.990  1.00  0.00     0.167 HD
ATOM     58  C   UNL A   1      43.122  32.002  29.163  1.00  0.00     0.074 A 
ATOM     59  C   UNL A   1      42.253  32.909  29.882  1.00  0.00     0.031 C 
ATOM     60  C   UNL A   1      44.330  32.346  28.655  1.00  0.00     0.037 A 
BRANCH  47  61
ATOM     61  C   UNL A   1      47.305  27.694  25.889  1.00  0.00     0.064 A 
ATOM     62  C   UNL A   1      47.413  27.746  24.491  1.00  0.00     0.173 A 
ATOM     63  C   UNL A   1      48.406  27.217  26.616  1.00  0.00     0.173 A 
ATOM     64  F   UNL A   1      46.384  28.179  23.749  1.00  0.00    -0.203 F 
ATOM     65  C   UNL A   1      48.571  27.313  23.847  1.00  0.00     0.198 A 
ATOM     66  C   UNL A   1      49.570  26.813  25.971  1.00  0.00     0.198 A 
ATOM     67  F   UNL A   1      48.354  27.151  27.955  1.00  0.00    -0.203 F 
ATOM     68  F   UNL A   1      48.636  27.329  22.509  1.00  0.00    -0.200 F 
ATOM     69  C   UNL A   1      49.649  26.855  24.587  1.00  0.00     0.200 A 
ATOM     70  F   UNL A   1      50.616  26.380  26.689  1.00  0.00    -0.200 F 
ATOM     71  F   UNL A   1      50.765  26.446  23.966  1.00  0.00    -0.200 F 
ENDBRANCH  47  61
BRANCH  48  72
ATOM     72  C   UNL A   1      38.997  30.363  30.729  1.00  0.00     0.064 A 
ATOM     73  C   UNL A   1      37.877  30.875  30.062  1.00  0.00     0.173 A 
ATOM     74  C   UNL A   1      38.935  30.264  32.127  1.00  0.00     0.173 A 
ATOM     75  F   UNL A   1      37.898  31.014  28.728  1.00  0.00    -0.203 F 
ATOM     76  C   UNL A   1      36.746  31.287  30.765  1.00  0.00     0.198 A 
ATOM     77  C   UNL A   1      37.796  30.651  32.827  1.00  0.00     0.198 A 
ATOM     78  F   UNL A   1      39.984  29.785  32.813  1.00  0.00    -0.203 F 
ATOM     79  F   UNL A   1      35.706  31.816  30.106  1.00  0.00    -0.200 F 
ATOM     80  C   UNL A   1      36.705  31.169  32.147  1.00  0.00     0.200 A 
ATOM     81  F   UNL A   1      37.756  30.527  34.161  1.00  0.00    -0.200 F 
ATOM     82  F   UNL A   1      35.617  31.565  32.822  1.00  0.00    -0.200 F 
ENDBRANCH  48  72
BRANCH  60  83
ATOM     83  C   UNL A   1      44.774  33.770  28.827  1.00  0.00     0.064 A 
ATOM     84  C   UNL A   1      45.547  34.173  29.925  1.00  0.00     0.173 A 
ATOM     85  C   UNL A   1      44.455  34.734  27.858  1.00  0.00     0.173 A 
ATOM     86  F   UNL A   1      45.867  33.293  30.886  1.00  0.00    -0.203 F 
ATOM     87  C   UNL A   1      45.967  35.495  30.059  1.00  0.00     0.198 A 
ATOM     88  C   UNL A   1      44.901  36.047  27.981  1.00  0.00     0.198 A 
ATOM     89  F   UNL A   1      43.723  34.398  26.785  1.00  0.00    -0.203 F 
ATOM     90  F   UNL A   1      46.668  35.867  31.138  1.00  0.00    -0.200 F 
ATOM     91  C   UNL A   1      45.650  36.428  29.083  1.00  0.00     0.200 A 
ATOM     92  F   UNL A   1      44.605  36.945  27.029  1.00  0.00    -0.200 F 
ATOM     93  F   UNL A   1      46.060  37.697  29.210  1.00  0.00    -0.200 F 
ENDBRANCH  60  83
ENDBRANCH  34  35
ENDBRANCH  27  29
ENDBRANCH  26  27
ENDBRANCH  25  26
ENDBRANCH  24  25
ENDBRANCH  23  24
ENDBRANCH  22  23
ENDBRANCH   1  22
TORSDOF 20
ENDMDL
MODEL 3
REMARK VINA RESULT:      -9.8      6.746     11.434
REMARK SMILES CCN(C(=O)[C@H]1C=C[C@@H]([NH3+])C1)[C@H](C)CC(=O)OCCOCCOC(=O)c1ccc(-c2c3nc(c(-c4c(F)c(F)c(F)c(F)c4F)c4ccc([nH]4)c(-c4c(F)c(F)c(F)c(F)c4F)c4nc(c(-c5c(F)c(F)c(F)c(F)c5F)c5ccc2[nH]5)C=C4)C=C3)cc1
REMARK SMILES IDX 18 1 17 2 15 3 16 4 14 5 12 6 13 7 3 8 2 9 1 10 4 11 5 12
REMARK SMILES IDX 6 13 7 14 11 15 8 16 9 17 10 18 19 22 20 23 21 24 22 25
REMARK SMILES IDX 23 26 24 27 25 28 26 29 27 30 88 31 28 32 87 33 29 34 30 35
REMARK SMILES IDX 31 36 81 37 32 38 86 39 80 40 82 41 33 42 85 43 79 44 78 45
REMARK SMILES IDX 34 47 66 48 46 49 65 50 47 51 50 52 64 53 83 54 48 55 49 56
REMARK SMILES IDX 63 58 84 59 51 60 35 61 36 62 44 63 37 64 38 65 42 66 45 67
REMARK SMILES IDX 39 68 40 69 43 70 41 71 67 72 68 73 76 74 69 75 70 76 74 77
REMARK SMILES IDX 77 78 71 79 72 80 75 81 73 82 52 83 53 84 61 85 54 86 55 87
REMARK SMILES IDX 59 88 62 89 56 90 57 91 60 92 58 93
REMARK H PARENT 10 19 10 20 10 21 82 46 50 57
REMARK Flexibility Score: inf
ROOT
ATOM      1  C   UNL A   1      37.795  23.755  25.873  1.00  0.00     0.261 C 
ENDROOT
BRANCH   1   2
ATOM      2  O   UNL A   1      36.504  23.600  26.491  1.00  0.00    -0.463 OA
BRANCH   2   3
ATOM      3  C   UNL A   1      35.438  23.783  25.676  1.00  0.00     0.307 C 
ATOM      4  O   UNL A   1      35.225  24.806  25.035  1.00  0.00    -0.252 OA
BRANCH   3   5
ATOM      5  C   UNL A   1      34.482  22.617  25.669  1.00  0.00     0.147 C 
BRANCH   5   6
ATOM      6  C   UNL A   1      34.507  21.600  24.503  1.00  0.00     0.093 C 
ATOM      7  C   UNL A   1      35.338  20.358  24.877  1.00  0.00     0.031 C 
BRANCH   6   8
ATOM      8  N   UNL A   1      33.146  21.165  23.979  1.00  0.00    -0.339 N 
BRANCH   8   9
ATOM      9  C   UNL A   1      32.675  21.874  22.778  1.00  0.00     0.116 C 
ATOM     10  C   UNL A   1      31.717  23.009  23.106  1.00  0.00     0.027 C 
ENDBRANCH   8   9
BRANCH   8  11
ATOM     11  C   UNL A   1      32.406  20.166  24.617  1.00  0.00     0.229 C 
ATOM     12  O   UNL A   1      31.792  20.387  25.671  1.00  0.00    -0.274 OA
BRANCH  11  13
ATOM     13  C   UNL A   1      32.362  18.686  24.177  1.00  0.00     0.107 C 
ATOM     14  C   UNL A   1      33.114  18.059  23.048  1.00  0.00    -0.012 C 
ATOM     15  C   UNL A   1      32.821  17.859  25.391  1.00  0.00     0.087 C 
ATOM     16  C   UNL A   1      33.676  16.899  23.413  1.00  0.00     0.033 C 
ATOM     17  C   UNL A   1      33.369  16.549  24.831  1.00  0.00     0.205 C 
BRANCH  17  18
ATOM     18  N   UNL A   1      34.537  16.115  25.570  1.00  0.00    -0.352 N 
ATOM     19  H   UNL A   1      34.977  15.334  25.082  1.00  0.00     0.345 HD
ATOM     20  H   UNL A   1      34.258  15.817  26.504  1.00  0.00     0.345 HD
ATOM     21  H   UNL A   1      35.200  16.886  25.643  1.00  0.00     0.345 HD
ENDBRANCH  17  18
ENDBRANCH  11  13
ENDBRANCH   8  11
ENDBRANCH   6   8
ENDBRANCH   5   6
ENDBRANCH   3   5
ENDBRANCH   2   3
ENDBRANCH   1   2
BRANCH   1  22
ATOM     22  C   UNL A   1      38.223  22.471  25.161  1.00  0.00     0.202 C 
BRANCH  22  23
ATOM     23  O   UNL A   1      38.865  21.487  25.970  1.00  0.00    -0.374 OA
BRANCH  23  24
ATOM     24  C   UNL A   1      39.198  20.246  25.352  1.00  0.00     0.202 C 
BRANCH  24  25
ATOM     25  C   UNL A   1      40.152  19.340  26.137  1.00  0.00     0.261 C 
BRANCH  25  26
ATOM     26  O   UNL A   1      41.362  19.074  25.402  1.00  0.00    -0.460 OA
BRANCH  26  27
ATOM     27  C   UNL A   1      42.502  19.307  26.093  1.00  0.00     0.338 C 
ATOM     28  O   UNL A   1      43.451  18.546  26.238  1.00  0.00    -0.246 OA
BRANCH  27  29
ATOM     29  C   UNL A   1      42.555  20.712  26.537  1.00  0.00     0.060 A 
ATOM     30  C   UNL A   1      42.808  21.684  25.560  1.00  0.00     0.016 A 
ATOM     31  C   UNL A   1      42.446  21.071  27.882  1.00  0.00     0.016 A 
ATOM     32  C   UNL A   1      43.011  23.011  25.930  1.00  0.00     0.010 A 
ATOM     33  C   UNL A   1      42.658  22.404  28.253  1.00  0.00     0.010 A 
ATOM     34  C   UNL A   1      42.980  23.371  27.283  1.00  0.00    -0.014 A 
BRANCH  34  35
ATOM     35  C   UNL A   1      43.443  24.722  27.684  1.00  0.00     0.031 A 
ATOM     36  C   UNL A   1      42.420  25.769  28.033  1.00  0.00     0.074 A 
ATOM     37  C   UNL A   1      44.753  25.002  27.784  1.00  0.00     0.049 A 
ATOM     38  N   UNL A   1      42.595  27.014  28.398  1.00  0.00    -0.248 NA
ATOM     39  C   UNL A   1      41.009  25.356  27.959  1.00  0.00     0.031 C 
ATOM     40  C   UNL A   1      45.839  24.062  27.516  1.00  0.00     0.029 A 
ATOM     41  N   UNL A   1      45.392  26.164  28.137  1.00  0.00    -0.354 N 
ATOM     42  C   UNL A   1      41.321  27.532  28.593  1.00  0.00     0.074 A 
ATOM     43  C   UNL A   1      40.381  26.477  28.276  1.00  0.00     0.031 C 
ATOM     44  C   UNL A   1      47.013  24.687  27.708  1.00  0.00     0.029 A 
ATOM     45  C   UNL A   1      46.761  26.078  28.083  1.00  0.00     0.049 A 
ATOM     46  H   UNL A   1      44.914  26.983  28.406  1.00  0.00     0.167 HD
ATOM     47  C   UNL A   1      40.967  28.771  29.010  1.00  0.00     0.037 A 
ATOM     48  C   UNL A   1      47.700  27.021  28.293  1.00  0.00     0.037 A 
ATOM     49  C   UNL A   1      41.901  29.818  29.331  1.00  0.00     0.049 A 
ATOM     50  C   UNL A   1      47.278  28.412  28.689  1.00  0.00     0.074 A 
ATOM     51  C   UNL A   1      41.639  31.099  29.782  1.00  0.00     0.029 A 
ATOM     52  N   UNL A   1      43.279  29.703  29.227  1.00  0.00    -0.354 N 
ATOM     53  N   UNL A   1      46.073  28.886  28.896  1.00  0.00    -0.248 NA
ATOM     54  C   UNL A   1      48.349  29.400  28.883  1.00  0.00     0.031 C 
ATOM     55  C   UNL A   1      42.857  31.777  29.904  1.00  0.00     0.029 A 
ATOM     56  C   UNL A   1      43.880  30.901  29.580  1.00  0.00     0.049 A 
ATOM     57  H   UNL A   1      43.759  28.892  28.945  1.00  0.00     0.167 HD
ATOM     58  C   UNL A   1      46.242  30.213  29.271  1.00  0.00     0.074 A 
ATOM     59  C   UNL A   1      47.667  30.468  29.274  1.00  0.00     0.031 C 
ATOM     60  C   UNL A   1      45.302  31.137  29.586  1.00  0.00     0.037 A 
BRANCH  47  61
ATOM     61  C   UNL A   1      39.500  29.072  29.119  1.00  0.00     0.064 A 
ATOM     62  C   UNL A   1      38.825  29.013  30.346  1.00  0.00     0.173 A 
ATOM     63  C   UNL A   1      38.770  29.459  27.985  1.00  0.00     0.173 A 
ATOM     64  F   UNL A   1      39.473  28.634  31.457  1.00  0.00    -0.203 F 
ATOM     65  C   UNL A   1      37.465  29.306  30.429  1.00  0.00     0.198 A 
ATOM     66  C   UNL A   1      37.419  29.778  28.077  1.00  0.00     0.198 A 
ATOM     67  F   UNL A   1      39.371  29.534  26.788  1.00  0.00    -0.203 F 
ATOM     68  F   UNL A   1      36.830  29.199  31.604  1.00  0.00    -0.200 F 
ATOM     69  C   UNL A   1      36.766  29.695  29.298  1.00  0.00     0.200 A 
ATOM     70  F   UNL A   1      36.748  30.165  26.983  1.00  0.00    -0.200 F 
ATOM     71  F   UNL A   1      35.460  29.984  29.380  1.00  0.00    -0.200 F 
ENDBRANCH  47  61
BRANCH  48  72
ATOM     72  C   UNL A   1      49.138  26.685  28.123  1.00  0.00     0.064 A 
ATOM     73  C   UNL A   1      49.950  26.395  29.227  1.00  0.00     0.173 A 
ATOM     74  C   UNL A   1      49.733  26.670  26.853  1.00  0.00     0.173 A 
ATOM     75  F   UNL A   1      49.433  26.424  30.464  1.00  0.00    -0.203 F 
ATOM     76  C   UNL A   1      51.306  26.117  29.069  1.00  0.00     0.198 A 
ATOM     77  C   UNL A   1      51.082  26.366  26.693  1.00  0.00     0.198 A 
ATOM     78  F   UNL A   1      48.999  26.946  25.764  1.00  0.00    -0.203 F 
ATOM     79  F   UNL A   1      52.071  25.888  30.145  1.00  0.00    -0.200 F 
ATOM     80  C   UNL A   1      51.870  26.097  27.801  1.00  0.00     0.200 A 
ATOM     81  F   UNL A   1      51.620  26.338  25.466  1.00  0.00    -0.200 F 
ATOM     82  F   UNL A   1      53.174  25.828  27.650  1.00  0.00    -0.200 F 
ENDBRANCH  48  72
BRANCH  60  83
ATOM     83  C   UNL A   1      45.780  32.501  29.995  1.00  0.00     0.064 A 
ATOM     84  C   UNL A   1      45.929  33.538  29.064  1.00  0.00     0.173 A 
ATOM     85  C   UNL A   1      46.052  32.782  31.343  1.00  0.00     0.173 A 
ATOM     86  F   UNL A   1      45.695  33.317  27.762  1.00  0.00    -0.203 F 
ATOM     87  C   UNL A   1      46.355  34.803  29.464  1.00  0.00     0.198 A 
ATOM     88  C   UNL A   1      46.450  34.055  31.742  1.00  0.00     0.198 A 
ATOM     89  F   UNL A   1      45.918  31.826  32.274  1.00  0.00    -0.203 F 
ATOM     90  F   UNL A   1      46.533  35.768  28.551  1.00  0.00    -0.200 F 
ATOM     91  C   UNL A   1      46.608  35.062  30.803  1.00  0.00     0.200 A 
ATOM     92  F   UNL A   1      46.680  34.306  33.039  1.00  0.00    -0.200 F 
ATOM     93  F   UNL A   1      47.011  36.281  31.187  1.00  0.00    -0.200 F 
ENDBRANCH  60  83
ENDBRANCH  34  35
ENDBRANCH  27  29
ENDBRANCH  26  27
ENDBRANCH  25  26
ENDBRANCH  24  25
ENDBRANCH  23  24
ENDBRANCH  22  23
ENDBRANCH   1  22
TORSDOF 20
ENDMDL
