MODEL 1
REMARK VINA RESULT:     -11.5      0.000      0.000
REMARK SMILES Cc1cscc1C(=O)Nc1cc(Br)ccc1C(=O)OCCOCCOC(=O)c1ccc(-c2c3nc(c(-c4c(F)c(F)c(F)c(F)c4F)c4ccc([nH]4)c(-c4c(F)c(F)c(F)c(F)c4F)c4nc(c(-c5c(F)c(F)c(F)c(F)c5F)c5ccc2[nH]5)C=C4)C=C3)cc1
REMARK SMILES IDX 22 1 21 2 20 3 19 4 17 5 18 6 16 7 10 8 11 9 12 10 15 11
REMARK SMILES IDX 13 12 14 13 9 14 7 15 8 16 6 18 1 19 2 20 3 21 4 22 5 23
REMARK SMILES IDX 23 24 24 25 25 26 26 27 27 28 28 29 29 30 90 31 30 32 89 33
REMARK SMILES IDX 31 34 32 35 33 36 83 37 34 38 88 39 82 40 84 41 35 42 87 43
REMARK SMILES IDX 81 44 80 45 36 47 68 48 48 49 67 50 49 51 52 52 66 53 85 54
REMARK SMILES IDX 50 55 51 56 65 58 86 59 53 60 37 61 38 62 46 63 39 64 40 65
REMARK SMILES IDX 44 66 47 67 41 68 42 69 45 70 43 71 69 72 70 73 78 74 71 75
REMARK SMILES IDX 72 76 76 77 79 78 73 79 74 80 77 81 75 82 54 83 55 84 63 85
REMARK SMILES IDX 56 86 57 87 61 88 64 89 58 90 59 91 62 92 60 93
REMARK H PARENT 9 17 84 46 52 57
REMARK Flexibility Score: inf
ROOT
ATOM      1  O   UNL A   1      34.471  21.787  24.460  1.00  0.00    -0.374 OA
ENDROOT
BRANCH   1   2
ATOM      2  C   UNL A   1      33.322  22.398  25.038  1.00  0.00     0.202 C 
BRANCH   2   3
ATOM      3  C   UNL A   1      32.101  22.567  24.129  1.00  0.00     0.261 C 
BRANCH   3   4
ATOM      4  O   UNL A   1      31.471  23.851  24.295  1.00  0.00    -0.460 OA
BRANCH   4   5
ATOM      5  C   UNL A   1      31.660  24.704  23.257  1.00  0.00     0.340 C 
ATOM      6  O   UNL A   1      32.475  24.548  22.358  1.00  0.00    -0.246 OA
BRANCH   5   7
ATOM      7  C   UNL A   1      30.732  25.876  23.280  1.00  0.00     0.083 A 
ATOM      8  C   UNL A   1      31.004  27.181  22.806  1.00  0.00     0.057 A 
ATOM      9  C   UNL A   1      29.942  28.088  22.694  1.00  0.00     0.042 A 
ATOM     10  C   UNL A   1      28.687  27.777  23.225  1.00  0.00     0.020 A 
ATOM     11  C   UNL A   1      29.480  25.610  23.866  1.00  0.00     0.019 A 
ATOM     12  Br  UNL A   1      27.285  29.040  23.126  1.00  0.00    -0.051 Br
ATOM     13  C   UNL A   1      28.470  26.566  23.867  1.00  0.00     0.017 A 
BRANCH   8  14
ATOM     14  N   UNL A   1      32.318  27.555  22.474  1.00  0.00    -0.321 N 
ATOM     15  C   UNL A   1      33.335  28.201  23.140  1.00  0.00     0.256 C 
ATOM     16  O   UNL A   1      34.278  28.582  22.436  1.00  0.00    -0.269 OA
ATOM     17  H   UNL A   1      32.566  27.296  21.557  1.00  0.00     0.170 HD
BRANCH  15  18
ATOM     18  C   UNL A   1      33.388  28.399  24.601  1.00  0.00     0.053 A 
ATOM     19  C   UNL A   1      33.999  26.034  25.659  1.00  0.00     0.046 C 
ATOM     20  C   UNL A   1      33.668  27.492  25.709  1.00  0.00    -0.028 A 
ATOM     21  C   UNL A   1      33.631  28.156  26.927  1.00  0.00     0.069 A 
ATOM     22  S   UNL A   1      33.393  29.831  26.776  1.00  0.00    -0.151 S 
ATOM     23  C   UNL A   1      33.292  29.701  25.084  1.00  0.00     0.079 A 
ENDBRANCH  15  18
ENDBRANCH   8  14
ENDBRANCH   5   7
ENDBRANCH   4   5
ENDBRANCH   3   4
ENDBRANCH   2   3
ENDBRANCH   1   2
BRANCH   1  24
ATOM     24  C   UNL A   1      35.141  20.782  25.224  1.00  0.00     0.202 C 
BRANCH  24  25
ATOM     25  C   UNL A   1      36.647  20.623  24.987  1.00  0.00     0.261 C 
BRANCH  25  26
ATOM     26  O   UNL A   1      37.391  21.742  25.501  1.00  0.00    -0.460 OA
BRANCH  26  27
ATOM     27  C   UNL A   1      38.640  21.450  25.926  1.00  0.00     0.338 C 
ATOM     28  O   UNL A   1      39.268  20.414  25.729  1.00  0.00    -0.246 OA
BRANCH  27  29
ATOM     29  C   UNL A   1      39.267  22.642  26.522  1.00  0.00     0.060 A 
ATOM     30  C   UNL A   1      38.744  23.894  26.171  1.00  0.00     0.016 A 
ATOM     31  C   UNL A   1      40.384  22.547  27.354  1.00  0.00     0.016 A 
ATOM     32  C   UNL A   1      39.367  25.059  26.613  1.00  0.00     0.010 A 
ATOM     33  C   UNL A   1      41.013  23.717  27.787  1.00  0.00     0.010 A 
ATOM     34  C   UNL A   1      40.528  24.977  27.391  1.00  0.00    -0.014 A 
BRANCH  34  35
ATOM     35  C   UNL A   1      41.303  26.206  27.683  1.00  0.00     0.031 A 
ATOM     36  C   UNL A   1      40.650  27.321  28.450  1.00  0.00     0.074 A 
ATOM     37  C   UNL A   1      42.583  26.318  27.287  1.00  0.00     0.049 A 
ATOM     38  N   UNL A   1      41.126  28.494  28.782  1.00  0.00    -0.248 NA
ATOM     39  C   UNL A   1      39.271  27.081  28.904  1.00  0.00     0.031 C 
ATOM     40  C   UNL A   1      43.334  25.291  26.569  1.00  0.00     0.029 A 
ATOM     41  N   UNL A   1      43.473  27.352  27.429  1.00  0.00    -0.354 N 
ATOM     42  C   UNL A   1      40.105  29.134  29.473  1.00  0.00     0.074 A 
ATOM     43  C   UNL A   1      38.974  28.231  29.489  1.00  0.00     0.031 C 
ATOM     44  C   UNL A   1      44.572  25.752  26.319  1.00  0.00     0.029 A 
ATOM     45  C   UNL A   1      44.686  27.117  26.831  1.00  0.00     0.049 A 
ATOM     46  H   UNL A   1      43.262  28.183  27.913  1.00  0.00     0.167 HD
ATOM     47  C   UNL A   1      40.115  30.361  30.048  1.00  0.00     0.037 A 
ATOM     48  C   UNL A   1      45.756  27.924  26.691  1.00  0.00     0.037 A 
ATOM     49  C   UNL A   1      41.243  31.256  30.027  1.00  0.00     0.049 A 
ATOM     50  C   UNL A   1      45.717  29.311  27.278  1.00  0.00     0.074 A 
ATOM     51  C   UNL A   1      41.361  32.508  30.602  1.00  0.00     0.029 A 
ATOM     52  N   UNL A   1      42.445  30.996  29.385  1.00  0.00    -0.354 N 
ATOM     53  N   UNL A   1      44.762  29.897  27.959  1.00  0.00    -0.248 NA
ATOM     54  C   UNL A   1      46.909  30.148  27.078  1.00  0.00     0.031 C 
ATOM     55  C   UNL A   1      42.613  33.031  30.261  1.00  0.00     0.029 A 
ATOM     56  C   UNL A   1      43.299  32.078  29.524  1.00  0.00     0.049 A 
ATOM     57  H   UNL A   1      42.659  30.165  28.902  1.00  0.00     0.167 HD
ATOM     58  C   UNL A   1      45.244  31.157  28.291  1.00  0.00     0.074 A 
ATOM     59  C   UNL A   1      46.585  31.245  27.749  1.00  0.00     0.031 C 
ATOM     60  C   UNL A   1      44.634  32.151  28.982  1.00  0.00     0.037 A 
BRANCH  47  61
ATOM     61  C   UNL A   1      38.856  30.819  30.724  1.00  0.00     0.064 A 
ATOM     62  C   UNL A   1      37.794  31.390  30.004  1.00  0.00     0.173 A 
ATOM     63  C   UNL A   1      38.694  30.655  32.108  1.00  0.00     0.173 A 
ATOM     64  F   UNL A   1      37.902  31.580  28.681  1.00  0.00    -0.203 F 
ATOM     65  C   UNL A   1      36.632  31.805  30.649  1.00  0.00     0.198 A 
ATOM     66  C   UNL A   1      37.518  31.043  32.746  1.00  0.00     0.198 A 
ATOM     67  F   UNL A   1      39.675  30.110  32.844  1.00  0.00    -0.203 F 
ATOM     68  F   UNL A   1      35.651  32.391  29.948  1.00  0.00    -0.200 F 
ATOM     69  C   UNL A   1      36.492  31.624  32.018  1.00  0.00     0.200 A 
ATOM     70  F   UNL A   1      37.380  30.856  34.065  1.00  0.00    -0.200 F 
ATOM     71  F   UNL A   1      35.369  32.017  32.636  1.00  0.00    -0.200 F 
ENDBRANCH  47  61
BRANCH  48  72
ATOM     72  C   UNL A   1      46.953  27.443  25.954  1.00  0.00     0.064 A 
ATOM     73  C   UNL A   1      48.012  26.815  26.623  1.00  0.00     0.173 A 
ATOM     74  C   UNL A   1      47.067  27.612  24.565  1.00  0.00     0.173 A 
ATOM     75  F   UNL A   1      47.961  26.654  27.953  1.00  0.00    -0.203 F 
ATOM     76  C   UNL A   1      49.146  26.388  25.936  1.00  0.00     0.198 A 
ATOM     77  C   UNL A   1      48.188  27.158  23.874  1.00  0.00     0.198 A 
ATOM     78  F   UNL A   1      46.083  28.210  23.878  1.00  0.00    -0.203 F 
ATOM     79  F   UNL A   1      50.163  25.831  26.606  1.00  0.00    -0.200 F 
ATOM     80  C   UNL A   1      49.230  26.552  24.561  1.00  0.00     0.200 A 
ATOM     81  F   UNL A   1      48.260  27.309  22.545  1.00  0.00    -0.200 F 
ATOM     82  F   UNL A   1      50.318  26.137  23.900  1.00  0.00    -0.200 F 
ENDBRANCH  48  72
BRANCH  60  83
ATOM     83  C   UNL A   1      45.419  33.407  29.226  1.00  0.00     0.064 A 
ATOM     84  C   UNL A   1      45.392  34.482  28.324  1.00  0.00     0.173 A 
ATOM     85  C   UNL A   1      46.179  33.553  30.397  1.00  0.00     0.173 A 
ATOM     86  F   UNL A   1      44.693  34.389  27.183  1.00  0.00    -0.203 F 
ATOM     87  C   UNL A   1      46.117  35.644  28.574  1.00  0.00     0.198 A 
ATOM     88  C   UNL A   1      46.877  34.729  30.658  1.00  0.00     0.198 A 
ATOM     89  F   UNL A   1      46.234  32.559  31.296  1.00  0.00    -0.203 F 
ATOM     90  F   UNL A   1      46.116  36.638  27.675  1.00  0.00    -0.200 F 
ATOM     91  C   UNL A   1      46.853  35.770  29.743  1.00  0.00     0.200 A 
ATOM     92  F   UNL A   1      47.576  34.854  31.796  1.00  0.00    -0.200 F 
ATOM     93  F   UNL A   1      47.544  36.893  29.984  1.00  0.00    -0.200 F 
ENDBRANCH  60  83
ENDBRANCH  34  35
ENDBRANCH  27  29
ENDBRANCH  26  27
ENDBRANCH  25  26
ENDBRANCH  24  25
ENDBRANCH   1  24
TORSDOF 16
ENDMDL
MODEL 2
REMARK VINA RESULT:     -11.5      4.597      9.766
REMARK SMILES Cc1cscc1C(=O)Nc1cc(Br)ccc1C(=O)OCCOCCOC(=O)c1ccc(-c2c3nc(c(-c4c(F)c(F)c(F)c(F)c4F)c4ccc([nH]4)c(-c4c(F)c(F)c(F)c(F)c4F)c4nc(c(-c5c(F)c(F)c(F)c(F)c5F)c5ccc2[nH]5)C=C4)C=C3)cc1
REMARK SMILES IDX 22 1 21 2 20 3 19 4 17 5 18 6 16 7 10 8 11 9 12 10 15 11
REMARK SMILES IDX 13 12 14 13 9 14 7 15 8 16 6 18 1 19 2 20 3 21 4 22 5 23
REMARK SMILES IDX 23 24 24 25 25 26 26 27 27 28 28 29 29 30 90 31 30 32 89 33
REMARK SMILES IDX 31 34 32 35 33 36 83 37 34 38 88 39 82 40 84 41 35 42 87 43
REMARK SMILES IDX 81 44 80 45 36 47 68 48 48 49 67 50 49 51 52 52 66 53 85 54
REMARK SMILES IDX 50 55 51 56 65 58 86 59 53 60 37 61 38 62 46 63 39 64 40 65
REMARK SMILES IDX 44 66 47 67 41 68 42 69 45 70 43 71 69 72 70 73 78 74 71 75
REMARK SMILES IDX 72 76 76 77 79 78 73 79 74 80 77 81 75 82 54 83 55 84 63 85
REMARK SMILES IDX 56 86 57 87 61 88 64 89 58 90 59 91 62 92 60 93
REMARK H PARENT 9 17 84 46 52 57
REMARK Flexibility Score: inf
ROOT
ATOM      1  O   UNL A   1      30.338  29.619  24.007  1.00  0.00    -0.374 OA
ENDROOT
BRANCH   1   2
ATOM      2  C   UNL A   1      30.376  28.681  22.936  1.00  0.00     0.202 C 
BRANCH   2   3
ATOM      3  C   UNL A   1      30.259  27.201  23.311  1.00  0.00     0.261 C 
BRANCH   3   4
ATOM      4  O   UNL A   1      31.540  26.544  23.344  1.00  0.00    -0.460 OA
BRANCH   4   5
ATOM      5  C   UNL A   1      31.473  25.190  23.332  1.00  0.00     0.340 C 
ATOM      6  O   UNL A   1      30.478  24.537  23.048  1.00  0.00    -0.246 OA
BRANCH   5   7
ATOM      7  C   UNL A   1      32.773  24.532  23.669  1.00  0.00     0.083 A 
ATOM      8  C   UNL A   1      33.288  23.339  23.110  1.00  0.00     0.057 A 
ATOM      9  C   UNL A   1      34.621  22.996  23.373  1.00  0.00     0.042 A 
ATOM     10  C   UNL A   1      35.359  23.706  24.324  1.00  0.00     0.020 A 
ATOM     11  C   UNL A   1      33.512  25.191  24.670  1.00  0.00     0.019 A 
ATOM     12  Br  UNL A   1      37.133  23.188  24.716  1.00  0.00    -0.051 Br
ATOM     13  C   UNL A   1      34.788  24.763  25.019  1.00  0.00     0.017 A 
BRANCH   8  14
ATOM     14  N   UNL A   1      32.467  22.512  22.323  1.00  0.00    -0.321 N 
ATOM     15  C   UNL A   1      32.157  21.170  22.329  1.00  0.00     0.256 C 
ATOM     16  O   UNL A   1      31.586  20.748  21.318  1.00  0.00    -0.269 OA
ATOM     17  H   UNL A   1      32.010  23.005  21.604  1.00  0.00     0.170 HD
BRANCH  15  18
ATOM     18  C   UNL A   1      32.405  20.259  23.463  1.00  0.00     0.053 A 
ATOM     19  C   UNL A   1      31.931  21.661  25.675  1.00  0.00     0.046 C 
ATOM     20  C   UNL A   1      32.318  20.437  24.909  1.00  0.00    -0.028 A 
ATOM     21  C   UNL A   1      32.623  19.262  25.581  1.00  0.00     0.069 A 
ATOM     22  S   UNL A   1      32.888  17.941  24.548  1.00  0.00    -0.151 S 
ATOM     23  C   UNL A   1      32.644  18.918  23.177  1.00  0.00     0.079 A 
ENDBRANCH  15  18
ENDBRANCH   8  14
ENDBRANCH   5   7
ENDBRANCH   4   5
ENDBRANCH   3   4
ENDBRANCH   2   3
ENDBRANCH   1   2
BRANCH   1  24
ATOM     24  C   UNL A   1      31.492  29.715  24.845  1.00  0.00     0.202 C 
BRANCH  24  25
ATOM     25  C   UNL A   1      31.467  30.793  25.934  1.00  0.00     0.261 C 
BRANCH  25  26
ATOM     26  O   UNL A   1      32.514  30.600  26.903  1.00  0.00    -0.460 OA
BRANCH  26  27
ATOM     27  C   UNL A   1      33.207  31.716  27.223  1.00  0.00     0.338 C 
ATOM     28  O   UNL A   1      32.789  32.869  27.242  1.00  0.00    -0.246 OA
BRANCH  27  29
ATOM     29  C   UNL A   1      34.533  31.356  27.753  1.00  0.00     0.060 A 
ATOM     30  C   UNL A   1      34.761  30.011  28.072  1.00  0.00     0.016 A 
ATOM     31  C   UNL A   1      35.513  32.320  27.998  1.00  0.00     0.016 A 
ATOM     32  C   UNL A   1      35.955  29.630  28.682  1.00  0.00     0.010 A 
ATOM     33  C   UNL A   1      36.705  31.938  28.621  1.00  0.00     0.010 A 
ATOM     34  C   UNL A   1      36.917  30.598  28.995  1.00  0.00    -0.014 A 
BRANCH  34  35
ATOM     35  C   UNL A   1      38.086  30.227  29.828  1.00  0.00     0.031 A 
ATOM     36  C   UNL A   1      39.099  29.261  29.281  1.00  0.00     0.074 A 
ATOM     37  C   UNL A   1      38.253  30.764  31.049  1.00  0.00     0.049 A 
ATOM     38  N   UNL A   1      40.171  28.771  29.847  1.00  0.00    -0.248 NA
ATOM     39  C   UNL A   1      38.870  28.783  27.909  1.00  0.00     0.031 C 
ATOM     40  C   UNL A   1      37.359  31.737  31.671  1.00  0.00     0.029 A 
ATOM     41  N   UNL A   1      39.234  30.556  31.987  1.00  0.00    -0.354 N 
ATOM     42  C   UNL A   1      40.739  27.920  28.907  1.00  0.00     0.074 A 
ATOM     43  C   UNL A   1      39.878  27.939  27.744  1.00  0.00     0.031 C 
ATOM     44  C   UNL A   1      37.824  32.035  32.896  1.00  0.00     0.029 A 
ATOM     45  C   UNL A   1      39.030  31.247  33.154  1.00  0.00     0.049 A 
ATOM     46  H   UNL A   1      40.009  29.969  31.836  1.00  0.00     0.167 HD
ATOM     47  C   UNL A   1      41.880  27.196  29.005  1.00  0.00     0.037 A 
ATOM     48  C   UNL A   1      39.723  31.225  34.309  1.00  0.00     0.037 A 
ATOM     49  C   UNL A   1      42.732  27.179  30.166  1.00  0.00     0.049 A 
ATOM     50  C   UNL A   1      40.949  30.356  34.418  1.00  0.00     0.074 A 
ATOM     51  C   UNL A   1      43.922  26.498  30.352  1.00  0.00     0.029 A 
ATOM     52  N   UNL A   1      42.476  27.868  31.342  1.00  0.00    -0.354 N 
ATOM     53  N   UNL A   1      41.498  29.580  33.515  1.00  0.00    -0.248 NA
ATOM     54  C   UNL A   1      41.652  30.363  35.708  1.00  0.00     0.031 C 
ATOM     55  C   UNL A   1      44.358  26.730  31.662  1.00  0.00     0.029 A 
ATOM     56  C   UNL A   1      43.471  27.603  32.271  1.00  0.00     0.049 A 
ATOM     57  H   UNL A   1      41.702  28.457  31.495  1.00  0.00     0.167 HD
ATOM     58  C   UNL A   1      42.623  29.028  34.115  1.00  0.00     0.074 A 
ATOM     59  C   UNL A   1      42.686  29.571  35.457  1.00  0.00     0.031 C 
ATOM     60  C   UNL A   1      43.523  28.153  33.603  1.00  0.00     0.037 A 
BRANCH  47  61
ATOM     61  C   UNL A   1      42.257  26.336  27.833  1.00  0.00     0.064 A 
ATOM     62  C   UNL A   1      41.711  25.057  27.647  1.00  0.00     0.173 A 
ATOM     63  C   UNL A   1      43.153  26.812  26.864  1.00  0.00     0.173 A 
ATOM     64  F   UNL A   1      40.858  24.549  28.550  1.00  0.00    -0.203 F 
ATOM     65  C   UNL A   1      42.070  24.277  26.551  1.00  0.00     0.198 A 
ATOM     66  C   UNL A   1      43.487  26.042  25.753  1.00  0.00     0.198 A 
ATOM     67  F   UNL A   1      43.701  28.031  26.990  1.00  0.00    -0.203 F 
ATOM     68  F   UNL A   1      41.572  23.039  26.419  1.00  0.00    -0.200 F 
ATOM     69  C   UNL A   1      42.951  24.773  25.601  1.00  0.00     0.200 A 
ATOM     70  F   UNL A   1      44.328  26.529  24.831  1.00  0.00    -0.200 F 
ATOM     71  F   UNL A   1      43.290  24.024  24.543  1.00  0.00    -0.200 F 
ENDBRANCH  47  61
BRANCH  48  72
ATOM     72  C   UNL A   1      39.267  32.044  35.462  1.00  0.00     0.064 A 
ATOM     73  C   UNL A   1      39.674  33.377  35.609  1.00  0.00     0.173 A 
ATOM     74  C   UNL A   1      38.423  31.508  36.446  1.00  0.00     0.173 A 
ATOM     75  F   UNL A   1      40.501  33.927  34.708  1.00  0.00    -0.203 F 
ATOM     76  C   UNL A   1      39.268  34.138  36.703  1.00  0.00     0.198 A 
ATOM     77  C   UNL A   1      37.993  32.278  37.525  1.00  0.00     0.198 A 
ATOM     78  F   UNL A   1      38.007  30.236  36.355  1.00  0.00    -0.203 F 
ATOM     79  F   UNL A   1      39.708  35.395  36.842  1.00  0.00    -0.200 F 
ATOM     80  C   UNL A   1      38.421  33.591  37.656  1.00  0.00     0.200 A 
ATOM     81  F   UNL A   1      37.166  31.749  38.436  1.00  0.00    -0.200 F 
ATOM     82  F   UNL A   1      38.027  34.324  38.705  1.00  0.00    -0.200 F 
ENDBRANCH  48  72
BRANCH  60  83
ATOM     83  C   UNL A   1      44.674  27.753  34.480  1.00  0.00     0.064 A 
ATOM     84  C   UNL A   1      45.862  28.499  34.526  1.00  0.00     0.173 A 
ATOM     85  C   UNL A   1      44.573  26.629  35.315  1.00  0.00     0.173 A 
ATOM     86  F   UNL A   1      46.016  29.573  33.737  1.00  0.00    -0.203 F 
ATOM     87  C   UNL A   1      46.914  28.119  35.355  1.00  0.00     0.198 A 
ATOM     88  C   UNL A   1      45.615  26.271  36.167  1.00  0.00     0.198 A 
ATOM     89  F   UNL A   1      43.457  25.885  35.316  1.00  0.00    -0.203 F 
ATOM     90  F   UNL A   1      48.058  28.818  35.346  1.00  0.00    -0.200 F 
ATOM     91  C   UNL A   1      46.787  27.011  36.180  1.00  0.00     0.200 A 
ATOM     92  F   UNL A   1      45.485  25.209  36.973  1.00  0.00    -0.200 F 
ATOM     93  F   UNL A   1      47.799  26.652  36.983  1.00  0.00    -0.200 F 
ENDBRANCH  60  83
ENDBRANCH  34  35
ENDBRANCH  27  29
ENDBRANCH  26  27
ENDBRANCH  25  26
ENDBRANCH  24  25
ENDBRANCH   1  24
TORSDOF 16
ENDMDL
MODEL 3
REMARK VINA RESULT:     -11.4      4.501      7.726
REMARK SMILES Cc1cscc1C(=O)Nc1cc(Br)ccc1C(=O)OCCOCCOC(=O)c1ccc(-c2c3nc(c(-c4c(F)c(F)c(F)c(F)c4F)c4ccc([nH]4)c(-c4c(F)c(F)c(F)c(F)c4F)c4nc(c(-c5c(F)c(F)c(F)c(F)c5F)c5ccc2[nH]5)C=C4)C=C3)cc1
REMARK SMILES IDX 22 1 21 2 20 3 19 4 17 5 18 6 16 7 10 8 11 9 12 10 15 11
REMARK SMILES IDX 13 12 14 13 9 14 7 15 8 16 6 18 1 19 2 20 3 21 4 22 5 23
REMARK SMILES IDX 23 24 24 25 25 26 26 27 27 28 28 29 29 30 90 31 30 32 89 33
REMARK SMILES IDX 31 34 32 35 33 36 83 37 34 38 88 39 82 40 84 41 35 42 87 43
REMARK SMILES IDX 81 44 80 45 36 47 68 48 48 49 67 50 49 51 52 52 66 53 85 54
REMARK SMILES IDX 50 55 51 56 65 58 86 59 53 60 37 61 38 62 46 63 39 64 40 65
REMARK SMILES IDX 44 66 47 67 41 68 42 69 45 70 43 71 69 72 70 73 78 74 71 75
REMARK SMILES IDX 72 76 76 77 79 78 73 79 74 80 77 81 75 82 54 83 55 84 63 85
REMARK SMILES IDX 56 86 57 87 61 88 64 89 58 90 59 91 62 92 60 93
REMARK H PARENT 9 17 84 46 52 57
REMARK Flexibility Score: inf
ROOT
ATOM      1  O   UNL A   1      32.163  30.522  27.119  1.00  0.00    -0.374 OA
ENDROOT
BRANCH   1   2
ATOM      2  C   UNL A   1      33.115  30.082  26.155  1.00  0.00     0.202 C 
BRANCH   2   3
ATOM      3  C   UNL A   1      33.865  28.784  26.471  1.00  0.00     0.261 C 
BRANCH   3   4
ATOM      4  O   UNL A   1      33.223  27.630  25.897  1.00  0.00    -0.460 OA
BRANCH   4   5
ATOM      5  C   UNL A   1      33.792  27.189  24.748  1.00  0.00     0.340 C 
ATOM      6  O   UNL A   1      34.141  27.901  23.816  1.00  0.00    -0.246 OA
BRANCH   5   7
ATOM      7  C   UNL A   1      34.003  25.709  24.724  1.00  0.00     0.083 A 
ATOM      8  C   UNL A   1      34.124  24.888  23.578  1.00  0.00     0.057 A 
ATOM      9  C   UNL A   1      34.550  23.564  23.743  1.00  0.00     0.042 A 
ATOM     10  C   UNL A   1      34.657  23.010  25.022  1.00  0.00     0.020 A 
ATOM     11  C   UNL A   1      34.054  25.112  25.999  1.00  0.00     0.019 A 
ATOM     12  Br  UNL A   1      35.167  21.202  25.223  1.00  0.00    -0.051 Br
ATOM     13  C   UNL A   1      34.351  23.762  26.148  1.00  0.00     0.017 A 
BRANCH   8  14
ATOM     14  N   UNL A   1      33.804  25.395  22.306  1.00  0.00    -0.321 N 
ATOM     15  C   UNL A   1      32.640  25.804  21.694  1.00  0.00     0.256 C 
ATOM     16  O   UNL A   1      32.705  25.956  20.469  1.00  0.00    -0.269 OA
ATOM     17  H   UNL A   1      34.591  25.478  21.721  1.00  0.00     0.170 HD
BRANCH  15  18
ATOM     18  C   UNL A   1      31.386  26.118  22.403  1.00  0.00     0.053 A 
ATOM     19  C   UNL A   1      30.737  23.939  23.788  1.00  0.00     0.046 C 
ATOM     20  C   UNL A   1      30.543  25.342  23.308  1.00  0.00    -0.028 A 
ATOM     21  C   UNL A   1      29.461  26.087  23.754  1.00  0.00     0.069 A 
ATOM     22  S   UNL A   1      29.489  27.701  23.228  1.00  0.00    -0.151 S 
ATOM     23  C   UNL A   1      30.924  27.430  22.356  1.00  0.00     0.079 A 
ENDBRANCH  15  18
ENDBRANCH   8  14
ENDBRANCH   5   7
ENDBRANCH   4   5
ENDBRANCH   3   4
ENDBRANCH   2   3
ENDBRANCH   1   2
BRANCH   1  24
ATOM     24  C   UNL A   1      31.456  31.734  26.844  1.00  0.00     0.202 C 
BRANCH  24  25
ATOM     25  C   UNL A   1      32.280  33.026  26.829  1.00  0.00     0.261 C 
BRANCH  25  26
ATOM     26  O   UNL A   1      32.431  33.581  28.149  1.00  0.00    -0.460 OA
BRANCH  26  27
ATOM     27  C   UNL A   1      33.528  34.351  28.322  1.00  0.00     0.338 C 
ATOM     28  O   UNL A   1      33.578  35.577  28.339  1.00  0.00    -0.246 OA
BRANCH  27  29
ATOM     29  C   UNL A   1      34.682  33.516  28.692  1.00  0.00     0.060 A 
ATOM     30  C   UNL A   1      34.428  32.340  29.411  1.00  0.00     0.016 A 
ATOM     31  C   UNL A   1      35.992  33.903  28.405  1.00  0.00     0.016 A 
ATOM     32  C   UNL A   1      35.488  31.570  29.888  1.00  0.00     0.010 A 
ATOM     33  C   UNL A   1      37.053  33.135  28.892  1.00  0.00     0.010 A 
ATOM     34  C   UNL A   1      36.806  31.984  29.664  1.00  0.00    -0.014 A 
BRANCH  34  35
ATOM     35  C   UNL A   1      37.921  31.283  30.345  1.00  0.00     0.031 A 
ATOM     36  C   UNL A   1      38.239  31.627  31.773  1.00  0.00     0.074 A 
ATOM     37  C   UNL A   1      38.626  30.335  29.704  1.00  0.00     0.049 A 
ATOM     38  N   UNL A   1      39.188  31.168  32.548  1.00  0.00    -0.248 NA
ATOM     39  C   UNL A   1      37.367  32.624  32.414  1.00  0.00     0.031 C 
ATOM     40  C   UNL A   1      38.388  29.892  28.333  1.00  0.00     0.029 A 
ATOM     41  N   UNL A   1      39.693  29.581  30.125  1.00  0.00    -0.354 N 
ATOM     42  C   UNL A   1      39.036  31.826  33.761  1.00  0.00     0.074 A 
ATOM     43  C   UNL A   1      37.920  32.736  33.613  1.00  0.00     0.031 C 
ATOM     44  C   UNL A   1      39.293  28.949  28.018  1.00  0.00     0.029 A 
ATOM     45  C   UNL A   1      40.192  28.750  29.154  1.00  0.00     0.049 A 
ATOM     46  H   UNL A   1      40.064  29.631  31.035  1.00  0.00     0.167 HD
ATOM     47  C   UNL A   1      39.758  31.678  34.898  1.00  0.00     0.037 A 
ATOM     48  C   UNL A   1      41.269  27.940  29.173  1.00  0.00     0.037 A 
ATOM     49  C   UNL A   1      40.869  30.772  35.040  1.00  0.00     0.049 A 
ATOM     50  C   UNL A   1      42.099  27.845  30.427  1.00  0.00     0.074 A 
ATOM     51  C   UNL A   1      41.647  30.530  36.158  1.00  0.00     0.029 A 
ATOM     52  N   UNL A   1      41.365  29.968  34.025  1.00  0.00    -0.354 N 
ATOM     53  N   UNL A   1      41.929  28.445  31.581  1.00  0.00    -0.248 NA
ATOM     54  C   UNL A   1      43.269  26.958  30.380  1.00  0.00     0.031 C 
ATOM     55  C   UNL A   1      42.650  29.621  35.804  1.00  0.00     0.029 A 
ATOM     56  C   UNL A   1      42.460  29.251  34.482  1.00  0.00     0.049 A 
ATOM     57  H   UNL A   1      40.996  29.915  33.114  1.00  0.00     0.167 HD
ATOM     58  C   UNL A   1      42.952  27.989  32.404  1.00  0.00     0.074 A 
ATOM     59  C   UNL A   1      43.728  27.050  31.621  1.00  0.00     0.031 C 
ATOM     60  C   UNL A   1      43.223  28.316  33.692  1.00  0.00     0.037 A 
BRANCH  47  61
ATOM     61  C   UNL A   1      39.386  32.537  36.072  1.00  0.00     0.064 A 
ATOM     62  C   UNL A   1      38.466  32.108  37.041  1.00  0.00     0.173 A 
ATOM     63  C   UNL A   1      39.985  33.793  36.249  1.00  0.00     0.173 A 
ATOM     64  F   UNL A   1      37.856  30.920  36.914  1.00  0.00    -0.203 F 
ATOM     65  C   UNL A   1      38.138  32.917  38.126  1.00  0.00     0.198 A 
ATOM     66  C   UNL A   1      39.678  34.588  37.351  1.00  0.00     0.198 A 
ATOM     67  F   UNL A   1      40.876  34.249  35.356  1.00  0.00    -0.203 F 
ATOM     68  F   UNL A   1      37.220  32.508  39.013  1.00  0.00    -0.200 F 
ATOM     69  C   UNL A   1      38.749  34.153  38.284  1.00  0.00     0.200 A 
ATOM     70  F   UNL A   1      40.280  35.774  37.508  1.00  0.00    -0.200 F 
ATOM     71  F   UNL A   1      38.438  34.927  39.332  1.00  0.00    -0.200 F 
ENDBRANCH  47  61
BRANCH  48  72
ATOM     72  C   UNL A   1      41.631  27.162  27.961  1.00  0.00     0.064 A 
ATOM     73  C   UNL A   1      42.478  27.699  26.982  1.00  0.00     0.173 A 
ATOM     74  C   UNL A   1      41.129  25.869  27.751  1.00  0.00     0.173 A 
ATOM     75  F   UNL A   1      42.962  28.941  27.124  1.00  0.00    -0.203 F 
ATOM     76  C   UNL A   1      42.797  26.979  25.832  1.00  0.00     0.198 A 
ATOM     77  C   UNL A   1      41.472  25.138  26.615  1.00  0.00     0.198 A 
ATOM     78  F   UNL A   1      40.312  25.310  28.655  1.00  0.00    -0.203 F 
ATOM     79  F   UNL A   1      43.572  27.534  24.891  1.00  0.00    -0.200 F 
ATOM     80  C   UNL A   1      42.300  25.697  25.653  1.00  0.00     0.200 A 
ATOM     81  F   UNL A   1      40.999  23.895  26.452  1.00  0.00    -0.200 F 
ATOM     82  F   UNL A   1      42.611  25.003  24.550  1.00  0.00    -0.200 F 
ENDBRANCH  48  72
BRANCH  60  83
ATOM     83  C   UNL A   1      44.385  27.631  34.349  1.00  0.00     0.064 A 
ATOM     84  C   UNL A   1      44.228  26.433  35.064  1.00  0.00     0.173 A 
ATOM     85  C   UNL A   1      45.681  28.158  34.230  1.00  0.00     0.173 A 
ATOM     86  F   UNL A   1      43.010  25.895  35.220  1.00  0.00    -0.203 F 
ATOM     87  C   UNL A   1      45.321  25.805  35.656  1.00  0.00     0.198 A 
ATOM     88  C   UNL A   1      46.775  27.509  34.796  1.00  0.00     0.198 A 
ATOM     89  F   UNL A   1      45.888  29.296  33.551  1.00  0.00    -0.203 F 
ATOM     90  F   UNL A   1      45.140  24.689  36.376  1.00  0.00    -0.200 F 
ATOM     91  C   UNL A   1      46.594  26.338  35.516  1.00  0.00     0.200 A 
ATOM     92  F   UNL A   1      48.006  28.019  34.647  1.00  0.00    -0.200 F 
ATOM     93  F   UNL A   1      47.645  25.728  36.080  1.00  0.00    -0.200 F 
ENDBRANCH  60  83
ENDBRANCH  34  35
ENDBRANCH  27  29
ENDBRANCH  26  27
ENDBRANCH  25  26
ENDBRANCH  24  25
ENDBRANCH   1  24
TORSDOF 16
ENDMDL
