MODEL 1
REMARK VINA RESULT:     -10.0      0.000      0.000
REMARK SMILES C[C@H](C(=O)OCCOCCOC(=O)c1ccc(-c2c3nc(c(-c4c(F)c(F)c(F)c(F)c4F)c4ccc([nH]4)c(-c4c(F)c(F)c(F)c(F)c4F)c4nc(c(-c5c(F)c(F)c(F)c(F)c5F)c5ccc2[nH]5)C=C4)C=C3)cc1)c1cccc(C(=O)c2ccccc2)c1
REMARK SMILES IDX 7 1 6 2 5 3 3 4 4 5 2 6 1 7 77 8 78 9 90 10 79 11 81 12
REMARK SMILES IDX 80 13 82 14 83 15 84 16 85 17 89 18 86 19 88 20 87 21 8 22
REMARK SMILES IDX 9 23 10 24 11 25 12 26 13 27 14 28 15 29 76 30 16 31 75 32
REMARK SMILES IDX 17 33 18 34 19 35 69 36 20 37 74 38 68 39 70 40 21 41 73 42
REMARK SMILES IDX 67 43 66 44 22 46 54 47 34 48 53 49 35 50 38 51 52 52 71 53
REMARK SMILES IDX 36 54 37 55 51 57 72 58 39 59 23 60 24 61 32 62 25 63 26 64
REMARK SMILES IDX 30 65 33 66 27 67 28 68 31 69 29 70 55 71 56 72 64 73 57 74
REMARK SMILES IDX 58 75 62 76 65 77 59 78 60 79 63 80 61 81 40 82 41 83 49 84
REMARK SMILES IDX 42 85 43 86 47 87 50 88 44 89 45 90 48 91 46 92
REMARK H PARENT 70 45 38 56
REMARK Flexibility Score: inf
ROOT
ATOM      1  C   UNL A   1      33.580  35.344  29.541  1.00  0.00     0.202 C 
ENDROOT
BRANCH   1   2
ATOM      2  C   UNL A   1      33.700  35.020  31.033  1.00  0.00     0.261 C 
BRANCH   2   3
ATOM      3  O   UNL A   1      34.934  34.362  31.370  1.00  0.00    -0.463 OA
BRANCH   3   4
ATOM      4  C   UNL A   1      34.796  33.113  31.903  1.00  0.00     0.313 C 
ATOM      5  O   UNL A   1      33.825  32.751  32.558  1.00  0.00    -0.252 OA
BRANCH   4   6
ATOM      6  C   UNL A   1      36.029  32.240  31.669  1.00  0.00     0.126 C 
ATOM      7  C   UNL A   1      36.874  32.889  30.559  1.00  0.00     0.025 C 
BRANCH   6   8
ATOM      8  C   UNL A   1      36.852  31.903  32.914  1.00  0.00    -0.033 A 
ATOM      9  C   UNL A   1      37.568  30.700  33.041  1.00  0.00     0.004 A 
ATOM     10  C   UNL A   1      36.872  32.802  34.002  1.00  0.00     0.016 A 
ATOM     11  C   UNL A   1      38.228  30.378  34.228  1.00  0.00     0.001 A 
ATOM     12  C   UNL A   1      37.507  32.474  35.211  1.00  0.00     0.023 A 
ATOM     13  C   UNL A   1      38.187  31.253  35.310  1.00  0.00     0.012 A 
BRANCH  12  14
ATOM     14  C   UNL A   1      37.538  33.375  36.404  1.00  0.00     0.193 C 
ATOM     15  O   UNL A   1      36.664  33.262  37.263  1.00  0.00    -0.289 OA
BRANCH  14  16
ATOM     16  C   UNL A   1      38.608  34.377  36.639  1.00  0.00     0.022 A 
ATOM     17  C   UNL A   1      39.187  34.986  35.518  1.00  0.00     0.012 A 
ATOM     18  C   UNL A   1      39.071  34.702  37.917  1.00  0.00     0.012 A 
ATOM     19  C   UNL A   1      40.159  35.974  35.677  1.00  0.00     0.001 A 
ATOM     20  C   UNL A   1      40.037  35.699  38.073  1.00  0.00     0.001 A 
ATOM     21  C   UNL A   1      40.567  36.345  36.956  1.00  0.00     0.000 A 
ENDBRANCH  14  16
ENDBRANCH  12  14
ENDBRANCH   6   8
ENDBRANCH   4   6
ENDBRANCH   3   4
ENDBRANCH   2   3
ENDBRANCH   1   2
BRANCH   1  22
ATOM     22  O   UNL A   1      34.339  34.545  28.638  1.00  0.00    -0.374 OA
BRANCH  22  23
ATOM     23  C   UNL A   1      33.672  33.445  28.018  1.00  0.00     0.202 C 
BRANCH  23  24
ATOM     24  C   UNL A   1      34.099  32.038  28.454  1.00  0.00     0.261 C 
BRANCH  24  25
ATOM     25  O   UNL A   1      34.272  31.152  27.332  1.00  0.00    -0.460 OA
BRANCH  25  26
ATOM     26  C   UNL A   1      34.568  29.873  27.660  1.00  0.00     0.338 C 
ATOM     27  O   UNL A   1      33.908  28.870  27.419  1.00  0.00    -0.246 OA
BRANCH  26  28
ATOM     28  C   UNL A   1      35.930  29.792  28.217  1.00  0.00     0.060 A 
ATOM     29  C   UNL A   1      36.999  30.109  27.368  1.00  0.00     0.016 A 
ATOM     30  C   UNL A   1      36.166  29.334  29.512  1.00  0.00     0.016 A 
ATOM     31  C   UNL A   1      38.312  29.917  27.795  1.00  0.00     0.010 A 
ATOM     32  C   UNL A   1      37.486  29.135  29.936  1.00  0.00     0.010 A 
ATOM     33  C   UNL A   1      38.564  29.390  29.068  1.00  0.00    -0.014 A 
BRANCH  33  34
ATOM     34  C   UNL A   1      39.937  28.952  29.420  1.00  0.00     0.031 A 
ATOM     35  C   UNL A   1      40.750  29.797  30.364  1.00  0.00     0.074 A 
ATOM     36  C   UNL A   1      40.443  27.801  28.942  1.00  0.00     0.049 A 
ATOM     37  N   UNL A   1      41.967  29.612  30.809  1.00  0.00    -0.248 NA
ATOM     38  C   UNL A   1      40.104  31.018  30.871  1.00  0.00     0.031 C 
ATOM     39  C   UNL A   1      39.747  26.881  28.046  1.00  0.00     0.029 A 
ATOM     40  N   UNL A   1      41.665  27.211  29.150  1.00  0.00    -0.354 N 
ATOM     41  C   UNL A   1      42.234  30.693  31.639  1.00  0.00     0.074 A 
ATOM     42  C   UNL A   1      41.067  31.547  31.611  1.00  0.00     0.031 C 
ATOM     43  C   UNL A   1      40.553  25.838  27.782  1.00  0.00     0.029 A 
ATOM     44  C   UNL A   1      41.829  26.030  28.469  1.00  0.00     0.049 A 
ATOM     45  H   UNL A   1      42.359  27.598  29.733  1.00  0.00     0.167 HD
ATOM     46  C   UNL A   1      43.346  30.945  32.370  1.00  0.00     0.037 A 
ATOM     47  C   UNL A   1      42.895  25.207  28.401  1.00  0.00     0.037 A 
ATOM     48  C   UNL A   1      44.501  30.089  32.413  1.00  0.00     0.049 A 
ATOM     49  C   UNL A   1      44.140  25.538  29.182  1.00  0.00     0.074 A 
ATOM     50  C   UNL A   1      45.662  30.243  33.150  1.00  0.00     0.029 A 
ATOM     51  N   UNL A   1      44.641  28.918  31.684  1.00  0.00    -0.354 N 
ATOM     52  N   UNL A   1      44.368  26.544  29.991  1.00  0.00    -0.248 NA
ATOM     53  C   UNL A   1      45.276  24.614  29.043  1.00  0.00     0.031 C 
ATOM     54  C   UNL A   1      46.524  29.188  32.833  1.00  0.00     0.029 A 
ATOM     55  C   UNL A   1      45.881  28.353  31.934  1.00  0.00     0.049 A 
ATOM     56  H   UNL A   1      43.961  28.544  31.079  1.00  0.00     0.167 HD
ATOM     57  C   UNL A   1      45.657  26.360  30.476  1.00  0.00     0.074 A 
ATOM     58  C   UNL A   1      46.158  25.140  29.880  1.00  0.00     0.031 C 
ATOM     59  C   UNL A   1      46.362  27.132  31.340  1.00  0.00     0.037 A 
BRANCH  46  60
ATOM     60  C   UNL A   1      43.374  32.212  33.172  1.00  0.00     0.064 A 
ATOM     61  C   UNL A   1      42.819  32.281  34.459  1.00  0.00     0.173 A 
ATOM     62  C   UNL A   1      43.994  33.361  32.660  1.00  0.00     0.173 A 
ATOM     63  F   UNL A   1      42.204  31.213  34.987  1.00  0.00    -0.203 F 
ATOM     64  C   UNL A   1      42.866  33.463  35.195  1.00  0.00     0.198 A 
ATOM     65  C   UNL A   1      44.061  34.533  33.408  1.00  0.00     0.198 A 
ATOM     66  F   UNL A   1      44.542  33.345  31.435  1.00  0.00    -0.203 F 
ATOM     67  F   UNL A   1      42.294  33.518  36.406  1.00  0.00    -0.200 F 
ATOM     68  C   UNL A   1      43.492  34.585  34.672  1.00  0.00     0.200 A 
ATOM     69  F   UNL A   1      44.676  35.612  32.906  1.00  0.00    -0.200 F 
ATOM     70  F   UNL A   1      43.542  35.719  35.384  1.00  0.00    -0.200 F 
ENDBRANCH  46  60
BRANCH  47  71
ATOM     71  C   UNL A   1      42.836  23.984  27.559  1.00  0.00     0.064 A 
ATOM     72  C   UNL A   1      42.460  22.748  28.104  1.00  0.00     0.173 A 
ATOM     73  C   UNL A   1      43.180  24.020  26.200  1.00  0.00     0.173 A 
ATOM     74  F   UNL A   1      42.151  22.658  29.406  1.00  0.00    -0.203 F 
ATOM     75  C   UNL A   1      42.447  21.592  27.325  1.00  0.00     0.198 A 
ATOM     76  C   UNL A   1      43.140  22.869  25.416  1.00  0.00     0.198 A 
ATOM     77  F   UNL A   1      43.549  25.178  25.631  1.00  0.00    -0.203 F 
ATOM     78  F   UNL A   1      42.128  20.416  27.882  1.00  0.00    -0.200 F 
ATOM     79  C   UNL A   1      42.782  21.655  25.981  1.00  0.00     0.200 A 
ATOM     80  F   UNL A   1      43.455  22.936  24.115  1.00  0.00    -0.200 F 
ATOM     81  F   UNL A   1      42.768  20.543  25.232  1.00  0.00    -0.200 F 
ENDBRANCH  47  71
BRANCH  59  82
ATOM     82  C   UNL A   1      47.737  26.667  31.721  1.00  0.00     0.064 A 
ATOM     83  C   UNL A   1      47.944  25.773  32.781  1.00  0.00     0.173 A 
ATOM     84  C   UNL A   1      48.856  27.086  30.985  1.00  0.00     0.173 A 
ATOM     85  F   UNL A   1      46.907  25.354  33.523  1.00  0.00    -0.203 F 
ATOM     86  C   UNL A   1      49.224  25.330  33.103  1.00  0.00     0.198 A 
ATOM     87  C   UNL A   1      50.131  26.621  31.294  1.00  0.00     0.198 A 
ATOM     88  F   UNL A   1      48.711  27.936  29.958  1.00  0.00    -0.203 F 
ATOM     89  F   UNL A   1      49.403  24.508  34.147  1.00  0.00    -0.200 F 
ATOM     90  C   UNL A   1      50.315  25.748  32.357  1.00  0.00     0.200 A 
ATOM     91  F   UNL A   1      51.183  27.017  30.564  1.00  0.00    -0.200 F 
ATOM     92  F   UNL A   1      51.546  25.316  32.664  1.00  0.00    -0.200 F 
ENDBRANCH  59  82
ENDBRANCH  33  34
ENDBRANCH  26  28
ENDBRANCH  25  26
ENDBRANCH  24  25
ENDBRANCH  23  24
ENDBRANCH  22  23
ENDBRANCH   1  22
TORSDOF 17
ENDMDL
MODEL 2
REMARK VINA RESULT:      -9.9      4.541      8.681
REMARK SMILES C[C@H](C(=O)OCCOCCOC(=O)c1ccc(-c2c3nc(c(-c4c(F)c(F)c(F)c(F)c4F)c4ccc([nH]4)c(-c4c(F)c(F)c(F)c(F)c4F)c4nc(c(-c5c(F)c(F)c(F)c(F)c5F)c5ccc2[nH]5)C=C4)C=C3)cc1)c1cccc(C(=O)c2ccccc2)c1
REMARK SMILES IDX 7 1 6 2 5 3 3 4 4 5 2 6 1 7 77 8 78 9 90 10 79 11 81 12
REMARK SMILES IDX 80 13 82 14 83 15 84 16 85 17 89 18 86 19 88 20 87 21 8 22
REMARK SMILES IDX 9 23 10 24 11 25 12 26 13 27 14 28 15 29 76 30 16 31 75 32
REMARK SMILES IDX 17 33 18 34 19 35 69 36 20 37 74 38 68 39 70 40 21 41 73 42
REMARK SMILES IDX 67 43 66 44 22 46 54 47 34 48 53 49 35 50 38 51 52 52 71 53
REMARK SMILES IDX 36 54 37 55 51 57 72 58 39 59 23 60 24 61 32 62 25 63 26 64
REMARK SMILES IDX 30 65 33 66 27 67 28 68 31 69 29 70 55 71 56 72 64 73 57 74
REMARK SMILES IDX 58 75 62 76 65 77 59 78 60 79 63 80 61 81 40 82 41 83 49 84
REMARK SMILES IDX 42 85 43 86 47 87 50 88 44 89 45 90 48 91 46 92
REMARK H PARENT 70 45 38 56
REMARK Flexibility Score: inf
ROOT
ATOM      1  C   UNL A   1      33.340  28.807  24.387  1.00  0.00     0.202 C 
ENDROOT
BRANCH   1   2
ATOM      2  C   UNL A   1      32.689  28.797  23.001  1.00  0.00     0.261 C 
BRANCH   2   3
ATOM      3  O   UNL A   1      32.812  27.532  22.329  1.00  0.00    -0.463 OA
BRANCH   3   4
ATOM      4  C   UNL A   1      31.789  26.655  22.551  1.00  0.00     0.313 C 
ATOM      5  O   UNL A   1      30.805  26.911  23.237  1.00  0.00    -0.252 OA
BRANCH   4   6
ATOM      6  C   UNL A   1      32.047  25.286  21.923  1.00  0.00     0.126 C 
ATOM      7  C   UNL A   1      32.638  25.505  20.519  1.00  0.00     0.025 C 
BRANCH   6   8
ATOM      8  C   UNL A   1      32.876  24.313  22.765  1.00  0.00    -0.033 A 
ATOM      9  C   UNL A   1      34.250  24.497  22.993  1.00  0.00     0.004 A 
ATOM     10  C   UNL A   1      32.264  23.163  23.305  1.00  0.00     0.016 A 
ATOM     11  C   UNL A   1      34.999  23.542  23.682  1.00  0.00     0.001 A 
ATOM     12  C   UNL A   1      33.014  22.179  23.972  1.00  0.00     0.023 A 
ATOM     13  C   UNL A   1      34.387  22.384  24.157  1.00  0.00     0.012 A 
BRANCH  12  14
ATOM     14  C   UNL A   1      32.424  20.930  24.542  1.00  0.00     0.193 C 
ATOM     15  O   UNL A   1      31.531  21.019  25.384  1.00  0.00    -0.289 OA
BRANCH  14  16
ATOM     16  C   UNL A   1      32.824  19.569  24.106  1.00  0.00     0.022 A 
ATOM     17  C   UNL A   1      32.280  19.081  22.911  1.00  0.00     0.012 A 
ATOM     18  C   UNL A   1      33.683  18.757  24.854  1.00  0.00     0.012 A 
ATOM     19  C   UNL A   1      32.660  17.832  22.422  1.00  0.00     0.001 A 
ATOM     20  C   UNL A   1      34.069  17.510  24.357  1.00  0.00     0.001 A 
ATOM     21  C   UNL A   1      33.571  17.056  23.135  1.00  0.00     0.000 A 
ENDBRANCH  14  16
ENDBRANCH  12  14
ENDBRANCH   6   8
ENDBRANCH   4   6
ENDBRANCH   3   4
ENDBRANCH   2   3
ENDBRANCH   1   2
BRANCH   1  22
ATOM     22  O   UNL A   1      32.473  28.888  25.514  1.00  0.00    -0.374 OA
BRANCH  22  23
ATOM     23  C   UNL A   1      31.494  29.928  25.513  1.00  0.00     0.202 C 
BRANCH  23  24
ATOM     24  C   UNL A   1      31.773  31.146  26.402  1.00  0.00     0.261 C 
BRANCH  24  25
ATOM     25  O   UNL A   1      32.808  30.887  27.368  1.00  0.00    -0.460 OA
BRANCH  25  26
ATOM     26  C   UNL A   1      33.633  31.932  27.610  1.00  0.00     0.338 C 
ATOM     27  O   UNL A   1      33.333  33.117  27.681  1.00  0.00    -0.246 OA
BRANCH  26  28
ATOM     28  C   UNL A   1      34.978  31.448  27.968  1.00  0.00     0.060 A 
ATOM     29  C   UNL A   1      35.126  30.081  28.236  1.00  0.00     0.016 A 
ATOM     30  C   UNL A   1      36.054  32.321  28.124  1.00  0.00     0.016 A 
ATOM     31  C   UNL A   1      36.339  29.589  28.715  1.00  0.00     0.010 A 
ATOM     32  C   UNL A   1      37.270  31.826  28.612  1.00  0.00     0.010 A 
ATOM     33  C   UNL A   1      37.408  30.466  28.944  1.00  0.00    -0.014 A 
BRANCH  33  34
ATOM     34  C   UNL A   1      38.601  29.987  29.686  1.00  0.00     0.031 A 
ATOM     35  C   UNL A   1      38.826  30.473  31.093  1.00  0.00     0.074 A 
ATOM     36  C   UNL A   1      39.453  29.104  29.135  1.00  0.00     0.049 A 
ATOM     37  N   UNL A   1      39.796  30.191  31.926  1.00  0.00    -0.248 NA
ATOM     38  C   UNL A   1      37.824  31.405  31.631  1.00  0.00     0.031 C 
ATOM     39  C   UNL A   1      39.331  28.536  27.794  1.00  0.00     0.029 A 
ATOM     40  N   UNL A   1      40.592  28.529  29.643  1.00  0.00    -0.354 N 
ATOM     41  C   UNL A   1      39.524  30.915  33.079  1.00  0.00     0.074 A 
ATOM     42  C   UNL A   1      38.319  31.674  32.830  1.00  0.00     0.031 C 
ATOM     43  C   UNL A   1      40.354  27.689  27.586  1.00  0.00     0.029 A 
ATOM     44  C   UNL A   1      41.216  27.676  28.766  1.00  0.00     0.049 A 
ATOM     45  H   UNL A   1      40.929  28.710  30.550  1.00  0.00     0.167 HD
ATOM     46  C   UNL A   1      40.209  30.934  34.247  1.00  0.00     0.037 A 
ATOM     47  C   UNL A   1      42.359  26.975  28.901  1.00  0.00     0.037 A 
ATOM     48  C   UNL A   1      41.398  30.167  34.504  1.00  0.00     0.049 A 
ATOM     49  C   UNL A   1      43.132  27.056  30.192  1.00  0.00     0.074 A 
ATOM     50  C   UNL A   1      42.144  30.095  35.668  1.00  0.00     0.029 A 
ATOM     51  N   UNL A   1      42.017  29.340  33.580  1.00  0.00    -0.354 N 
ATOM     52  N   UNL A   1      42.848  27.716  31.288  1.00  0.00    -0.248 NA
ATOM     53  C   UNL A   1      44.386  26.290  30.264  1.00  0.00     0.031 C 
ATOM     54  C   UNL A   1      43.241  29.259  35.433  1.00  0.00     0.029 A 
ATOM     55  C   UNL A   1      43.152  28.773  34.139  1.00  0.00     0.049 A 
ATOM     56  H   UNL A   1      41.698  29.179  32.663  1.00  0.00     0.167 HD
ATOM     57  C   UNL A   1      43.867  27.424  32.186  1.00  0.00     0.074 A 
ATOM     58  C   UNL A   1      44.772  26.518  31.511  1.00  0.00     0.031 C 
ATOM     59  C   UNL A   1      44.037  27.865  33.457  1.00  0.00     0.037 A 
BRANCH  46  60
ATOM     60  C   UNL A   1      39.698  31.832  35.334  1.00  0.00     0.064 A 
ATOM     61  C   UNL A   1      40.173  33.143  35.489  1.00  0.00     0.173 A 
ATOM     62  C   UNL A   1      38.697  31.386  36.210  1.00  0.00     0.173 A 
ATOM     63  F   UNL A   1      41.139  33.611  34.686  1.00  0.00    -0.203 F 
ATOM     64  C   UNL A   1      39.677  33.968  36.497  1.00  0.00     0.198 A 
ATOM     65  C   UNL A   1      38.186  32.221  37.199  1.00  0.00     0.198 A 
ATOM     66  F   UNL A   1      38.209  30.142  36.100  1.00  0.00    -0.203 F 
ATOM     67  F   UNL A   1      40.173  35.203  36.653  1.00  0.00    -0.200 F 
ATOM     68  C   UNL A   1      38.680  33.509  37.346  1.00  0.00     0.200 A 
ATOM     69  F   UNL A   1      37.216  31.781  38.011  1.00  0.00    -0.200 F 
ATOM     70  F   UNL A   1      38.201  34.306  38.311  1.00  0.00    -0.200 F 
ENDBRANCH  46  60
BRANCH  47  71
ATOM     71  C   UNL A   1      42.850  26.131  27.781  1.00  0.00     0.064 A 
ATOM     72  C   UNL A   1      42.474  24.785  27.671  1.00  0.00     0.173 A 
ATOM     73  C   UNL A   1      43.725  26.646  26.813  1.00  0.00     0.173 A 
ATOM     74  F   UNL A   1      41.663  24.240  28.589  1.00  0.00    -0.203 F 
ATOM     75  C   UNL A   1      42.969  23.981  26.645  1.00  0.00     0.198 A 
ATOM     76  C   UNL A   1      44.197  25.848  25.773  1.00  0.00     0.198 A 
ATOM     77  F   UNL A   1      44.117  27.927  26.875  1.00  0.00    -0.203 F 
ATOM     78  F   UNL A   1      42.630  22.686  26.590  1.00  0.00    -0.200 F 
ATOM     79  C   UNL A   1      43.825  24.515  25.694  1.00  0.00     0.200 A 
ATOM     80  F   UNL A   1      45.017  26.371  24.850  1.00  0.00    -0.200 F 
ATOM     81  F   UNL A   1      44.299  23.742  24.707  1.00  0.00    -0.200 F 
ENDBRANCH  47  71
BRANCH  59  82
ATOM     82  C   UNL A   1      45.226  27.351  34.215  1.00  0.00     0.064 A 
ATOM     83  C   UNL A   1      45.168  26.162  34.957  1.00  0.00     0.173 A 
ATOM     84  C   UNL A   1      46.451  28.033  34.160  1.00  0.00     0.173 A 
ATOM     85  F   UNL A   1      44.015  25.482  35.052  1.00  0.00    -0.203 F 
ATOM     86  C   UNL A   1      46.288  25.686  35.633  1.00  0.00     0.198 A 
ATOM     87  C   UNL A   1      47.576  27.540  34.815  1.00  0.00     0.198 A 
ATOM     88  F   UNL A   1      46.561  29.171  33.459  1.00  0.00    -0.203 F 
ATOM     89  F   UNL A   1      46.199  24.569  36.369  1.00  0.00    -0.200 F 
ATOM     90  C   UNL A   1      47.492  26.369  35.556  1.00  0.00     0.200 A 
ATOM     91  F   UNL A   1      48.742  28.195  34.730  1.00  0.00    -0.200 F 
ATOM     92  F   UNL A   1      48.571  25.905  36.201  1.00  0.00    -0.200 F 
ENDBRANCH  59  82
ENDBRANCH  33  34
ENDBRANCH  26  28
ENDBRANCH  25  26
ENDBRANCH  24  25
ENDBRANCH  23  24
ENDBRANCH  22  23
ENDBRANCH   1  22
TORSDOF 17
ENDMDL
MODEL 3
REMARK VINA RESULT:      -9.9      4.702     11.202
REMARK SMILES C[C@H](C(=O)OCCOCCOC(=O)c1ccc(-c2c3nc(c(-c4c(F)c(F)c(F)c(F)c4F)c4ccc([nH]4)c(-c4c(F)c(F)c(F)c(F)c4F)c4nc(c(-c5c(F)c(F)c(F)c(F)c5F)c5ccc2[nH]5)C=C4)C=C3)cc1)c1cccc(C(=O)c2ccccc2)c1
REMARK SMILES IDX 7 1 6 2 5 3 3 4 4 5 2 6 1 7 77 8 78 9 90 10 79 11 81 12
REMARK SMILES IDX 80 13 82 14 83 15 84 16 85 17 89 18 86 19 88 20 87 21 8 22
REMARK SMILES IDX 9 23 10 24 11 25 12 26 13 27 14 28 15 29 76 30 16 31 75 32
REMARK SMILES IDX 17 33 18 34 19 35 69 36 20 37 74 38 68 39 70 40 21 41 73 42
REMARK SMILES IDX 67 43 66 44 22 46 54 47 34 48 53 49 35 50 38 51 52 52 71 53
REMARK SMILES IDX 36 54 37 55 51 57 72 58 39 59 23 60 24 61 32 62 25 63 26 64
REMARK SMILES IDX 30 65 33 66 27 67 28 68 31 69 29 70 55 71 56 72 64 73 57 74
REMARK SMILES IDX 58 75 62 76 65 77 59 78 60 79 63 80 61 81 40 82 41 83 49 84
REMARK SMILES IDX 42 85 43 86 47 87 50 88 44 89 45 90 48 91 46 92
REMARK H PARENT 70 45 38 56
REMARK Flexibility Score: inf
ROOT
ATOM      1  C   UNL A   1      43.434  18.918  25.506  1.00  0.00     0.202 C 
ENDROOT
BRANCH   1   2
ATOM      2  C   UNL A   1      44.501  19.198  24.445  1.00  0.00     0.261 C 
BRANCH   2   3
ATOM      3  O   UNL A   1      44.544  20.576  24.038  1.00  0.00    -0.463 OA
BRANCH   3   4
ATOM      4  C   UNL A   1      45.555  21.312  24.588  1.00  0.00     0.313 C 
ATOM      5  O   UNL A   1      46.603  20.831  25.005  1.00  0.00    -0.252 OA
BRANCH   4   6
ATOM      6  C   UNL A   1      45.199  22.793  24.708  1.00  0.00     0.126 C 
ATOM      7  C   UNL A   1      43.736  22.974  24.269  1.00  0.00     0.025 C 
BRANCH   6   8
ATOM      8  C   UNL A   1      45.490  23.439  26.065  1.00  0.00    -0.033 A 
ATOM      9  C   UNL A   1      46.687  24.126  26.329  1.00  0.00     0.004 A 
ATOM     10  C   UNL A   1      44.553  23.316  27.112  1.00  0.00     0.016 A 
ATOM     11  C   UNL A   1      46.966  24.620  27.605  1.00  0.00     0.001 A 
ATOM     12  C   UNL A   1      44.837  23.780  28.407  1.00  0.00     0.023 A 
ATOM     13  C   UNL A   1      46.053  24.436  28.640  1.00  0.00     0.012 A 
BRANCH  12  14
ATOM     14  C   UNL A   1      43.894  23.653  29.560  1.00  0.00     0.193 C 
ATOM     15  O   UNL A   1      42.884  22.962  29.434  1.00  0.00    -0.289 OA
BRANCH  14  16
ATOM     16  C   UNL A   1      44.137  24.281  30.883  1.00  0.00     0.022 A 
ATOM     17  C   UNL A   1      44.212  23.438  32.000  1.00  0.00     0.012 A 
ATOM     18  C   UNL A   1      44.256  25.663  31.053  1.00  0.00     0.012 A 
ATOM     19  C   UNL A   1      44.493  23.964  33.261  1.00  0.00     0.001 A 
ATOM     20  C   UNL A   1      44.547  26.186  32.316  1.00  0.00     0.001 A 
ATOM     21  C   UNL A   1      44.681  25.335  33.414  1.00  0.00     0.000 A 
ENDBRANCH  14  16
ENDBRANCH  12  14
ENDBRANCH   6   8
ENDBRANCH   4   6
ENDBRANCH   3   4
ENDBRANCH   2   3
ENDBRANCH   1   2
BRANCH   1  22
ATOM     22  O   UNL A   1      42.715  20.036  26.018  1.00  0.00    -0.374 OA
BRANCH  22  23
ATOM     23  C   UNL A   1      41.901  19.817  27.171  1.00  0.00     0.202 C 
BRANCH  23  24
ATOM     24  C   UNL A   1      40.801  20.849  27.452  1.00  0.00     0.261 C 
BRANCH  24  25
ATOM     25  O   UNL A   1      40.754  21.878  26.446  1.00  0.00    -0.460 OA
BRANCH  25  26
ATOM     26  C   UNL A   1      39.557  22.498  26.325  1.00  0.00     0.338 C 
ATOM     27  O   UNL A   1      38.484  21.993  26.016  1.00  0.00    -0.246 OA
BRANCH  26  28
ATOM     28  C   UNL A   1      39.654  23.890  26.798  1.00  0.00     0.060 A 
ATOM     29  C   UNL A   1      40.176  24.842  25.912  1.00  0.00     0.016 A 
ATOM     30  C   UNL A   1      39.323  24.246  28.105  1.00  0.00     0.016 A 
ATOM     31  C   UNL A   1      40.421  26.143  26.348  1.00  0.00     0.010 A 
ATOM     32  C   UNL A   1      39.577  25.551  28.542  1.00  0.00     0.010 A 
ATOM     33  C   UNL A   1      40.161  26.496  27.679  1.00  0.00    -0.014 A 
BRANCH  33  34
ATOM     34  C   UNL A   1      40.655  27.794  28.202  1.00  0.00     0.031 A 
ATOM     35  C   UNL A   1      42.140  28.038  28.254  1.00  0.00     0.074 A 
ATOM     36  C   UNL A   1      39.801  28.757  28.590  1.00  0.00     0.049 A 
ATOM     37  N   UNL A   1      42.795  29.092  28.671  1.00  0.00    -0.248 NA
ATOM     38  C   UNL A   1      43.000  26.947  27.772  1.00  0.00     0.031 C 
ATOM     39  C   UNL A   1      38.344  28.655  28.561  1.00  0.00     0.029 A 
ATOM     40  N   UNL A   1      40.041  30.016  29.082  1.00  0.00    -0.354 N 
ATOM     41  C   UNL A   1      44.140  28.786  28.510  1.00  0.00     0.074 A 
ATOM     42  C   UNL A   1      44.210  27.440  27.989  1.00  0.00     0.031 C 
ATOM     43  C   UNL A   1      37.818  29.806  29.014  1.00  0.00     0.029 A 
ATOM     44  C   UNL A   1      38.900  30.715  29.389  1.00  0.00     0.049 A 
ATOM     45  H   UNL A   1      40.947  30.383  29.204  1.00  0.00     0.167 HD
ATOM     46  C   UNL A   1      45.221  29.564  28.761  1.00  0.00     0.037 A 
ATOM     47  C   UNL A   1      38.750  31.944  29.922  1.00  0.00     0.037 A 
ATOM     48  C   UNL A   1      45.154  30.910  29.264  1.00  0.00     0.049 A 
ATOM     49  C   UNL A   1      39.970  32.768  30.242  1.00  0.00     0.074 A 
ATOM     50  C   UNL A   1      46.192  31.788  29.519  1.00  0.00     0.029 A 
ATOM     51  N   UNL A   1      43.981  31.571  29.592  1.00  0.00    -0.354 N 
ATOM     52  N   UNL A   1      41.236  32.484  30.053  1.00  0.00    -0.248 NA
ATOM     53  C   UNL A   1      39.739  34.089  30.848  1.00  0.00     0.031 C 
ATOM     54  C   UNL A   1      45.650  32.966  30.044  1.00  0.00     0.029 A 
ATOM     55  C   UNL A   1      44.270  32.838  30.072  1.00  0.00     0.049 A 
ATOM     56  H   UNL A   1      43.075  31.195  29.499  1.00  0.00     0.167 HD
ATOM     57  C   UNL A   1      41.947  33.595  30.489  1.00  0.00     0.074 A 
ATOM     58  C   UNL A   1      40.972  34.564  30.942  1.00  0.00     0.031 C 
ATOM     59  C   UNL A   1      43.288  33.795  30.510  1.00  0.00     0.037 A 
BRANCH  46  60
ATOM     60  C   UNL A   1      46.575  28.968  28.513  1.00  0.00     0.064 A 
ATOM     61  C   UNL A   1      47.275  28.288  29.520  1.00  0.00     0.173 A 
ATOM     62  C   UNL A   1      47.163  29.049  27.242  1.00  0.00     0.173 A 
ATOM     63  F   UNL A   1      46.761  28.195  30.756  1.00  0.00    -0.203 F 
ATOM     64  C   UNL A   1      48.526  27.729  29.268  1.00  0.00     0.198 A 
ATOM     65  C   UNL A   1      48.402  28.469  26.987  1.00  0.00     0.198 A 
ATOM     66  F   UNL A   1      46.531  29.687  26.245  1.00  0.00    -0.203 F 
ATOM     67  F   UNL A   1      49.196  27.119  30.256  1.00  0.00    -0.200 F 
ATOM     68  C   UNL A   1      49.085  27.814  28.001  1.00  0.00     0.200 A 
ATOM     69  F   UNL A   1      48.934  28.541  25.760  1.00  0.00    -0.200 F 
ATOM     70  F   UNL A   1      50.286  27.271  27.759  1.00  0.00    -0.200 F 
ENDBRANCH  46  60
BRANCH  47  71
ATOM     71  C   UNL A   1      37.389  32.476  30.190  1.00  0.00     0.064 A 
ATOM     72  C   UNL A   1      36.683  33.184  29.207  1.00  0.00     0.173 A 
ATOM     73  C   UNL A   1      36.779  32.312  31.442  1.00  0.00     0.173 A 
ATOM     74  F   UNL A   1      37.237  33.392  28.004  1.00  0.00    -0.203 F 
ATOM     75  C   UNL A   1      35.424  33.722  29.473  1.00  0.00     0.198 A 
ATOM     76  C   UNL A   1      35.509  32.827  31.697  1.00  0.00     0.198 A 
ATOM     77  F   UNL A   1      37.414  31.645  32.417  1.00  0.00    -0.203 F 
ATOM     78  F   UNL A   1      34.790  34.432  28.530  1.00  0.00    -0.200 F 
ATOM     79  C   UNL A   1      34.836  33.538  30.715  1.00  0.00     0.200 A 
ATOM     80  F   UNL A   1      34.941  32.639  32.896  1.00  0.00    -0.200 F 
ATOM     81  F   UNL A   1      33.626  34.054  30.969  1.00  0.00    -0.200 F 
ENDBRANCH  47  71
BRANCH  59  82
ATOM     82  C   UNL A   1      43.782  35.122  31.007  1.00  0.00     0.064 A 
ATOM     83  C   UNL A   1      43.911  36.226  30.152  1.00  0.00     0.173 A 
ATOM     84  C   UNL A   1      44.086  35.302  32.365  1.00  0.00     0.173 A 
ATOM     85  F   UNL A   1      43.646  36.100  28.842  1.00  0.00    -0.203 F 
ATOM     86  C   UNL A   1      44.345  37.458  30.635  1.00  0.00     0.198 A 
ATOM     87  C   UNL A   1      44.494  36.541  32.850  1.00  0.00     0.198 A 
ATOM     88  F   UNL A   1      43.973  34.279  33.225  1.00  0.00    -0.203 F 
ATOM     89  F   UNL A   1      44.501  38.489  29.793  1.00  0.00    -0.200 F 
ATOM     90  C   UNL A   1      44.630  37.617  31.983  1.00  0.00     0.200 A 
ATOM     91  F   UNL A   1      44.757  36.696  34.154  1.00  0.00    -0.200 F 
ATOM     92  F   UNL A   1      45.041  38.804  32.448  1.00  0.00    -0.200 F 
ENDBRANCH  59  82
ENDBRANCH  33  34
ENDBRANCH  26  28
ENDBRANCH  25  26
ENDBRANCH  24  25
ENDBRANCH  23  24
ENDBRANCH  22  23
ENDBRANCH   1  22
TORSDOF 17
ENDMDL
