MODEL 1
REMARK VINA RESULT:     -12.1      0.000      0.000
REMARK SMILES CC1CCN(S(=O)(=O)c2ccc3c(ccn3CC(=O)OCCOCCOC(=O)c3ccc(-c4c5nc(c(-c6c(F)c(F)c(F)c(F)c6F)c6ccc([nH]6)c(-c6c(F)c(F)c(F)c(F)c6F)c6nc(c(-c7c(F)c(F)c(F)c(F)c7F)c7ccc4[nH]7)C=C6)C=C5)cc3)c2)CC1
REMARK SMILES IDX 22 1 21 2 20 3 18 4 19 5 17 6 16 7 9 8 10 9 92 10 11 11
REMARK SMILES IDX 13 12 12 13 14 14 15 15 6 16 7 17 8 18 5 19 1 20 2 21 3 22
REMARK SMILES IDX 94 23 4 24 93 25 23 26 24 27 25 28 26 29 27 30 28 31 29 32
REMARK SMILES IDX 30 33 91 34 31 35 90 36 32 37 33 38 34 39 84 40 35 41 89 42
REMARK SMILES IDX 83 43 85 44 36 45 88 46 82 47 81 48 37 50 69 51 49 52 68 53
REMARK SMILES IDX 50 54 53 55 67 56 86 57 51 58 52 59 66 61 87 62 54 63 38 64
REMARK SMILES IDX 39 65 47 66 40 67 41 68 45 69 48 70 42 71 43 72 46 73 44 74
REMARK SMILES IDX 70 75 71 76 79 77 72 78 73 79 77 80 80 81 74 82 75 83 78 84
REMARK SMILES IDX 76 85 55 86 56 87 64 88 57 89 58 90 62 91 65 92 59 93 60 94
REMARK SMILES IDX 63 95 61 96
REMARK H PARENT 85 49 53 60
REMARK Flexibility Score: inf
ROOT
ATOM      1  C   UNL A   1      44.245  18.954  24.851  1.00  0.00     0.202 C 
ENDROOT
BRANCH   1   2
ATOM      2  C   UNL A   1      42.977  18.921  25.723  1.00  0.00     0.261 C 
BRANCH   2   3
ATOM      3  O   UNL A   1      42.136  20.085  25.646  1.00  0.00    -0.462 OA
BRANCH   3   4
ATOM      4  C   UNL A   1      41.120  20.104  26.546  1.00  0.00     0.326 C 
ATOM      5  O   UNL A   1      41.269  19.920  27.753  1.00  0.00    -0.250 OA
BRANCH   4   6
ATOM      6  C   UNL A   1      39.745  20.331  25.978  1.00  0.00     0.244 C 
BRANCH   6   7
ATOM      7  N   UNL A   1      39.210  21.691  25.945  1.00  0.00    -0.336 N 
ATOM      8  C   UNL A   1      35.498  23.189  24.915  1.00  0.00     0.083 A 
ATOM      9  C   UNL A   1      35.808  21.926  24.409  1.00  0.00     0.024 A 
ATOM     10  C   UNL A   1      36.451  23.935  25.615  1.00  0.00     0.032 A 
ATOM     11  C   UNL A   1      37.036  21.321  24.689  1.00  0.00     0.028 A 
ATOM     12  C   UNL A   1      37.702  23.346  25.892  1.00  0.00     0.001 A 
ATOM     13  C   UNL A   1      37.965  22.044  25.451  1.00  0.00     0.049 A 
ATOM     14  C   UNL A   1      38.843  23.792  26.603  1.00  0.00     0.028 A 
ATOM     15  C   UNL A   1      39.710  22.730  26.694  1.00  0.00     0.087 A 
BRANCH   8  16
ATOM     16  S   UNL A   1      33.916  23.916  24.550  1.00  0.00     0.243 S 
ATOM     17  O   UNL A   1      33.039  22.824  24.167  1.00  0.00    -0.207 OA
ATOM     18  O   UNL A   1      34.134  25.021  23.645  1.00  0.00    -0.207 OA
BRANCH  16  19
ATOM     19  N   UNL A   1      33.363  24.587  26.033  1.00  0.00    -0.198 NA
ATOM     20  C   UNL A   1      29.688  26.187  24.609  1.00  0.00     0.008 C 
ATOM     21  C   UNL A   1      30.770  25.916  25.656  1.00  0.00    -0.012 C 
ATOM     22  C   UNL A   1      32.097  26.573  25.230  1.00  0.00     0.020 C 
ATOM     23  C   UNL A   1      30.891  24.404  25.900  1.00  0.00     0.020 C 
ATOM     24  C   UNL A   1      33.298  26.078  26.034  1.00  0.00     0.103 C 
ATOM     25  C   UNL A   1      32.146  24.046  26.683  1.00  0.00     0.103 C 
ENDBRANCH  16  19
ENDBRANCH   8  16
ENDBRANCH   6   7
ENDBRANCH   4   6
ENDBRANCH   3   4
ENDBRANCH   2   3
ENDBRANCH   1   2
BRANCH   1  26
ATOM     26  O   UNL A   1      44.788  20.193  24.421  1.00  0.00    -0.374 OA
BRANCH  26  27
ATOM     27  C   UNL A   1      45.715  20.853  25.281  1.00  0.00     0.202 C 
BRANCH  27  28
ATOM     28  C   UNL A   1      45.540  22.348  25.608  1.00  0.00     0.261 C 
BRANCH  28  29
ATOM     29  O   UNL A   1      44.261  22.632  26.191  1.00  0.00    -0.460 OA
BRANCH  29  30
ATOM     30  C   UNL A   1      43.405  23.309  25.376  1.00  0.00     0.338 C 
ATOM     31  O   UNL A   1      42.897  22.919  24.343  1.00  0.00    -0.246 OA
BRANCH  30  32
ATOM     32  C   UNL A   1      42.885  24.428  26.187  1.00  0.00     0.060 A 
ATOM     33  C   UNL A   1      42.095  25.427  25.619  1.00  0.00     0.016 A 
ATOM     34  C   UNL A   1      43.454  24.592  27.462  1.00  0.00     0.016 A 
ATOM     35  C   UNL A   1      41.929  26.621  26.316  1.00  0.00     0.010 A 
ATOM     36  C   UNL A   1      43.314  25.802  28.139  1.00  0.00     0.010 A 
ATOM     37  C   UNL A   1      42.568  26.828  27.559  1.00  0.00    -0.014 A 
BRANCH  37  38
ATOM     38  C   UNL A   1      42.156  27.997  28.345  1.00  0.00     0.031 A 
ATOM     39  C   UNL A   1      43.129  29.115  28.195  1.00  0.00     0.074 A 
ATOM     40  C   UNL A   1      41.010  28.203  29.032  1.00  0.00     0.049 A 
ATOM     41  N   UNL A   1      43.862  29.637  29.121  1.00  0.00    -0.248 NA
ATOM     42  C   UNL A   1      43.436  29.593  26.838  1.00  0.00     0.031 C 
ATOM     43  C   UNL A   1      39.819  27.362  29.105  1.00  0.00     0.029 A 
ATOM     44  N   UNL A   1      40.649  29.299  29.775  1.00  0.00    -0.354 N 
ATOM     45  C   UNL A   1      44.619  30.622  28.497  1.00  0.00     0.074 A 
ATOM     46  C   UNL A   1      44.426  30.453  27.081  1.00  0.00     0.031 C 
ATOM     47  C   UNL A   1      38.802  28.071  29.653  1.00  0.00     0.029 A 
ATOM     48  C   UNL A   1      39.291  29.374  30.078  1.00  0.00     0.049 A 
ATOM     49  H   UNL A   1      41.297  29.980  30.069  1.00  0.00     0.167 HD
ATOM     50  C   UNL A   1      45.169  31.637  29.214  1.00  0.00     0.037 A 
ATOM     51  C   UNL A   1      38.617  30.443  30.591  1.00  0.00     0.037 A 
ATOM     52  C   UNL A   1      45.274  31.295  30.609  1.00  0.00     0.049 A 
ATOM     53  C   UNL A   1      39.610  31.313  31.268  1.00  0.00     0.074 A 
ATOM     54  C   UNL A   1      45.883  30.268  31.307  1.00  0.00     0.029 A 
ATOM     55  N   UNL A   1      44.391  31.865  31.492  1.00  0.00    -0.354 N 
ATOM     56  N   UNL A   1      40.219  30.996  32.376  1.00  0.00    -0.248 NA
ATOM     57  C   UNL A   1      40.247  32.352  30.474  1.00  0.00     0.031 C 
ATOM     58  C   UNL A   1      44.977  29.954  32.361  1.00  0.00     0.029 A 
ATOM     59  C   UNL A   1      43.914  30.853  32.282  1.00  0.00     0.049 A 
ATOM     60  H   UNL A   1      44.146  32.818  31.547  1.00  0.00     0.167 HD
ATOM     61  C   UNL A   1      41.517  31.437  32.186  1.00  0.00     0.074 A 
ATOM     62  C   UNL A   1      41.457  32.336  31.035  1.00  0.00     0.031 C 
ATOM     63  C   UNL A   1      42.568  30.813  32.790  1.00  0.00     0.037 A 
BRANCH  50  64
ATOM     64  C   UNL A   1      45.241  33.060  28.721  1.00  0.00     0.064 A 
ATOM     65  C   UNL A   1      44.048  33.713  28.352  1.00  0.00     0.173 A 
ATOM     66  C   UNL A   1      46.435  33.683  28.294  1.00  0.00     0.173 A 
ATOM     67  F   UNL A   1      42.855  33.199  28.688  1.00  0.00    -0.203 F 
ATOM     68  C   UNL A   1      44.051  34.842  27.530  1.00  0.00     0.198 A 
ATOM     69  C   UNL A   1      46.433  34.842  27.522  1.00  0.00     0.198 A 
ATOM     70  F   UNL A   1      47.639  33.140  28.496  1.00  0.00    -0.203 F 
ATOM     71  F   UNL A   1      42.890  35.339  27.082  1.00  0.00    -0.200 F 
ATOM     72  C   UNL A   1      45.243  35.400  27.109  1.00  0.00     0.200 A 
ATOM     73  F   UNL A   1      47.600  35.356  27.107  1.00  0.00    -0.200 F 
ATOM     74  F   UNL A   1      45.248  36.439  26.265  1.00  0.00    -0.200 F 
ENDBRANCH  50  64
BRANCH  51  75
ATOM     75  C   UNL A   1      37.231  30.922  30.323  1.00  0.00     0.064 A 
ATOM     76  C   UNL A   1      36.390  31.358  31.368  1.00  0.00     0.173 A 
ATOM     77  C   UNL A   1      36.805  31.244  29.020  1.00  0.00     0.173 A 
ATOM     78  F   UNL A   1      36.728  31.137  32.648  1.00  0.00    -0.203 F 
ATOM     79  C   UNL A   1      35.226  32.100  31.125  1.00  0.00     0.198 A 
ATOM     80  C   UNL A   1      35.640  31.979  28.779  1.00  0.00     0.198 A 
ATOM     81  F   UNL A   1      37.559  30.942  27.955  1.00  0.00    -0.203 F 
ATOM     82  F   UNL A   1      34.495  32.558  32.152  1.00  0.00    -0.200 F 
ATOM     83  C   UNL A   1      34.860  32.421  29.830  1.00  0.00     0.200 A 
ATOM     84  F   UNL A   1      35.316  32.312  27.521  1.00  0.00    -0.200 F 
ATOM     85  F   UNL A   1      33.786  33.190  29.597  1.00  0.00    -0.200 F 
ENDBRANCH  51  75
BRANCH  63  86
ATOM     86  C   UNL A   1      42.296  29.818  33.880  1.00  0.00     0.064 A 
ATOM     87  C   UNL A   1      41.915  28.484  33.655  1.00  0.00     0.173 A 
ATOM     88  C   UNL A   1      42.634  30.183  35.191  1.00  0.00     0.173 A 
ATOM     89  F   UNL A   1      41.665  28.033  32.418  1.00  0.00    -0.203 F 
ATOM     90  C   UNL A   1      41.863  27.566  34.702  1.00  0.00     0.198 A 
ATOM     91  C   UNL A   1      42.619  29.254  36.226  1.00  0.00     0.198 A 
ATOM     92  F   UNL A   1      43.048  31.432  35.456  1.00  0.00    -0.203 F 
ATOM     93  F   UNL A   1      41.506  26.295  34.464  1.00  0.00    -0.200 F 
ATOM     94  C   UNL A   1      42.230  27.947  35.983  1.00  0.00     0.200 A 
ATOM     95  F   UNL A   1      43.024  29.616  37.451  1.00  0.00    -0.200 F 
ATOM     96  F   UNL A   1      42.242  27.047  36.976  1.00  0.00    -0.200 F 
ENDBRANCH  63  86
ENDBRANCH  37  38
ENDBRANCH  30  32
ENDBRANCH  29  30
ENDBRANCH  28  29
ENDBRANCH  27  28
ENDBRANCH  26  27
ENDBRANCH   1  26
TORSDOF 17
ENDMDL
MODEL 2
REMARK VINA RESULT:     -11.9      2.271      3.601
REMARK SMILES CC1CCN(S(=O)(=O)c2ccc3c(ccn3CC(=O)OCCOCCOC(=O)c3ccc(-c4c5nc(c(-c6c(F)c(F)c(F)c(F)c6F)c6ccc([nH]6)c(-c6c(F)c(F)c(F)c(F)c6F)c6nc(c(-c7c(F)c(F)c(F)c(F)c7F)c7ccc4[nH]7)C=C6)C=C5)cc3)c2)CC1
REMARK SMILES IDX 22 1 21 2 20 3 18 4 19 5 17 6 16 7 9 8 10 9 92 10 11 11
REMARK SMILES IDX 13 12 12 13 14 14 15 15 6 16 7 17 8 18 5 19 1 20 2 21 3 22
REMARK SMILES IDX 94 23 4 24 93 25 23 26 24 27 25 28 26 29 27 30 28 31 29 32
REMARK SMILES IDX 30 33 91 34 31 35 90 36 32 37 33 38 34 39 84 40 35 41 89 42
REMARK SMILES IDX 83 43 85 44 36 45 88 46 82 47 81 48 37 50 69 51 49 52 68 53
REMARK SMILES IDX 50 54 53 55 67 56 86 57 51 58 52 59 66 61 87 62 54 63 38 64
REMARK SMILES IDX 39 65 47 66 40 67 41 68 45 69 48 70 42 71 43 72 46 73 44 74
REMARK SMILES IDX 70 75 71 76 79 77 72 78 73 79 77 80 80 81 74 82 75 83 78 84
REMARK SMILES IDX 76 85 55 86 56 87 64 88 57 89 58 90 62 91 65 92 59 93 60 94
REMARK SMILES IDX 63 95 61 96
REMARK H PARENT 85 49 53 60
REMARK Flexibility Score: inf
ROOT
ATOM      1  C   UNL A   1      40.428  21.361  26.594  1.00  0.00     0.202 C 
ENDROOT
BRANCH   1   2
ATOM      2  C   UNL A   1      39.089  21.073  25.890  1.00  0.00     0.261 C 
BRANCH   2   3
ATOM      3  O   UNL A   1      38.388  22.223  25.387  1.00  0.00    -0.462 OA
BRANCH   3   4
ATOM      4  C   UNL A   1      37.218  21.938  24.760  1.00  0.00     0.326 C 
ATOM      5  O   UNL A   1      36.912  22.371  23.650  1.00  0.00    -0.250 OA
BRANCH   4   6
ATOM      6  C   UNL A   1      36.259  21.067  25.525  1.00  0.00     0.244 C 
BRANCH   6   7
ATOM      7  N   UNL A   1      34.823  21.242  25.312  1.00  0.00    -0.336 N 
ATOM      8  C   UNL A   1      32.371  24.564  25.530  1.00  0.00     0.083 A 
ATOM      9  C   UNL A   1      33.581  24.651  26.222  1.00  0.00     0.024 A 
ATOM     10  C   UNL A   1      31.980  23.369  24.918  1.00  0.00     0.032 A 
ATOM     11  C   UNL A   1      34.487  23.588  26.222  1.00  0.00     0.028 A 
ATOM     12  C   UNL A   1      32.877  22.280  24.923  1.00  0.00     0.001 A 
ATOM     13  C   UNL A   1      34.122  22.414  25.547  1.00  0.00     0.049 A 
ATOM     14  C   UNL A   1      32.819  20.979  24.366  1.00  0.00     0.028 A 
ATOM     15  C   UNL A   1      34.053  20.402  24.543  1.00  0.00     0.087 A 
BRANCH   8  16
ATOM     16  S   UNL A   1      31.253  25.947  25.540  1.00  0.00     0.243 S 
ATOM     17  O   UNL A   1      31.479  26.650  26.790  1.00  0.00    -0.207 OA
ATOM     18  O   UNL A   1      29.934  25.453  25.215  1.00  0.00    -0.207 OA
BRANCH  16  19
ATOM     19  N   UNL A   1      31.746  26.949  24.233  1.00  0.00    -0.198 NA
ATOM     20  C   UNL A   1      33.293  30.176  26.531  1.00  0.00     0.008 C 
ATOM     21  C   UNL A   1      32.911  29.451  25.239  1.00  0.00    -0.012 C 
ATOM     22  C   UNL A   1      31.390  29.217  25.193  1.00  0.00     0.020 C 
ATOM     23  C   UNL A   1      33.730  28.158  25.107  1.00  0.00     0.020 C 
ATOM     24  C   UNL A   1      30.968  28.217  24.117  1.00  0.00     0.103 C 
ATOM     25  C   UNL A   1      33.184  27.239  24.024  1.00  0.00     0.103 C 
ENDBRANCH  16  19
ENDBRANCH   8  16
ENDBRANCH   6   7
ENDBRANCH   4   6
ENDBRANCH   3   4
ENDBRANCH   2   3
ENDBRANCH   1   2
BRANCH   1  26
ATOM     26  O   UNL A   1      41.255  20.292  27.027  1.00  0.00    -0.374 OA
BRANCH  26  27
ATOM     27  C   UNL A   1      41.694  19.349  26.051  1.00  0.00     0.202 C 
BRANCH  27  28
ATOM     28  C   UNL A   1      43.193  19.224  25.714  1.00  0.00     0.261 C 
BRANCH  28  29
ATOM     29  O   UNL A   1      43.562  20.015  24.576  1.00  0.00    -0.460 OA
BRANCH  29  30
ATOM     30  C   UNL A   1      44.665  20.793  24.761  1.00  0.00     0.338 C 
ATOM     31  O   UNL A   1      45.723  20.735  24.168  1.00  0.00    -0.246 OA
BRANCH  30  32
ATOM     32  C   UNL A   1      44.195  21.975  25.511  1.00  0.00     0.060 A 
ATOM     33  C   UNL A   1      43.244  22.842  24.974  1.00  0.00     0.016 A 
ATOM     34  C   UNL A   1      44.950  22.339  26.640  1.00  0.00     0.016 A 
ATOM     35  C   UNL A   1      43.097  24.105  25.542  1.00  0.00     0.010 A 
ATOM     36  C   UNL A   1      44.824  23.616  27.182  1.00  0.00     0.010 A 
ATOM     37  C   UNL A   1      43.912  24.510  26.623  1.00  0.00    -0.014 A 
BRANCH  37  38
ATOM     38  C   UNL A   1      43.540  25.746  27.323  1.00  0.00     0.031 A 
ATOM     39  C   UNL A   1      44.460  26.862  26.969  1.00  0.00     0.074 A 
ATOM     40  C   UNL A   1      42.459  25.997  28.093  1.00  0.00     0.049 A 
ATOM     41  N   UNL A   1      45.261  27.491  27.762  1.00  0.00    -0.248 NA
ATOM     42  C   UNL A   1      44.625  27.204  25.547  1.00  0.00     0.031 C 
ATOM     43  C   UNL A   1      41.305  25.144  28.364  1.00  0.00     0.029 A 
ATOM     44  N   UNL A   1      42.135  27.156  28.753  1.00  0.00    -0.354 N 
ATOM     45  C   UNL A   1      45.926  28.422  26.972  1.00  0.00     0.074 A 
ATOM     46  C   UNL A   1      45.606  28.105  25.606  1.00  0.00     0.031 C 
ATOM     47  C   UNL A   1      40.323  25.884  28.934  1.00  0.00     0.029 A 
ATOM     48  C   UNL A   1      40.810  27.234  29.177  1.00  0.00     0.049 A 
ATOM     49  H   UNL A   1      42.787  27.877  28.914  1.00  0.00     0.167 HD
ATOM     50  C   UNL A   1      46.510  29.517  27.528  1.00  0.00     0.037 A 
ATOM     51  C   UNL A   1      40.155  28.336  29.643  1.00  0.00     0.037 A 
ATOM     52  C   UNL A   1      46.756  29.323  28.933  1.00  0.00     0.049 A 
ATOM     53  C   UNL A   1      41.181  29.292  30.130  1.00  0.00     0.074 A 
ATOM     54  C   UNL A   1      47.458  28.386  29.669  1.00  0.00     0.029 A 
ATOM     55  N   UNL A   1      45.942  29.962  29.835  1.00  0.00    -0.354 N 
ATOM     56  N   UNL A   1      41.900  29.103  31.199  1.00  0.00    -0.248 NA
ATOM     57  C   UNL A   1      41.708  30.256  29.177  1.00  0.00     0.031 C 
ATOM     58  C   UNL A   1      46.665  28.163  30.832  1.00  0.00     0.029 A 
ATOM     59  C   UNL A   1      45.573  29.027  30.765  1.00  0.00     0.049 A 
ATOM     60  H   UNL A   1      45.675  30.910  29.818  1.00  0.00     0.167 HD
ATOM     61  C   UNL A   1      43.161  29.549  30.843  1.00  0.00     0.074 A 
ATOM     62  C   UNL A   1      42.966  30.322  29.618  1.00  0.00     0.031 C 
ATOM     63  C   UNL A   1      44.281  29.011  31.402  1.00  0.00     0.037 A 
BRANCH  50  64
ATOM     64  C   UNL A   1      46.492  30.883  26.890  1.00  0.00     0.064 A 
ATOM     65  C   UNL A   1      47.670  31.656  26.907  1.00  0.00     0.173 A 
ATOM     66  C   UNL A   1      45.309  31.583  26.564  1.00  0.00     0.173 A 
ATOM     67  F   UNL A   1      48.849  31.098  27.222  1.00  0.00    -0.203 F 
ATOM     68  C   UNL A   1      47.647  33.039  26.715  1.00  0.00     0.198 A 
ATOM     69  C   UNL A   1      45.300  32.953  26.317  1.00  0.00     0.198 A 
ATOM     70  F   UNL A   1      44.104  31.004  26.589  1.00  0.00    -0.203 F 
ATOM     71  F   UNL A   1      48.768  33.752  26.889  1.00  0.00    -0.200 F 
ATOM     72  C   UNL A   1      46.460  33.687  26.429  1.00  0.00     0.200 A 
ATOM     73  F   UNL A   1      44.135  33.565  26.062  1.00  0.00    -0.200 F 
ATOM     74  F   UNL A   1      46.422  35.020  26.315  1.00  0.00    -0.200 F 
ENDBRANCH  50  64
BRANCH  51  75
ATOM     75  C   UNL A   1      38.736  28.756  29.462  1.00  0.00     0.064 A 
ATOM     76  C   UNL A   1      37.896  28.999  30.569  1.00  0.00     0.173 A 
ATOM     77  C   UNL A   1      38.259  29.216  28.220  1.00  0.00     0.173 A 
ATOM     78  F   UNL A   1      38.279  28.637  31.803  1.00  0.00    -0.203 F 
ATOM     79  C   UNL A   1      36.684  29.691  30.445  1.00  0.00     0.198 A 
ATOM     80  C   UNL A   1      37.046  29.900  28.097  1.00  0.00     0.198 A 
ATOM     81  F   UNL A   1      39.003  29.103  27.113  1.00  0.00    -0.203 F 
ATOM     82  F   UNL A   1      35.952  29.965  31.534  1.00  0.00    -0.200 F 
ATOM     83  C   UNL A   1      36.266  30.152  29.209  1.00  0.00     0.200 A 
ATOM     84  F   UNL A   1      36.670  30.371  26.898  1.00  0.00    -0.200 F 
ATOM     85  F   UNL A   1      35.142  30.874  29.096  1.00  0.00    -0.200 F 
ENDBRANCH  51  75
BRANCH  63  86
ATOM     86  C   UNL A   1      44.143  28.129  32.608  1.00  0.00     0.064 A 
ATOM     87  C   UNL A   1      43.934  26.740  32.550  1.00  0.00     0.173 A 
ATOM     88  C   UNL A   1      44.438  28.688  33.859  1.00  0.00     0.173 A 
ATOM     89  F   UNL A   1      43.738  26.116  31.381  1.00  0.00    -0.203 F 
ATOM     90  C   UNL A   1      44.004  25.955  33.700  1.00  0.00     0.198 A 
ATOM     91  C   UNL A   1      44.546  27.896  34.997  1.00  0.00     0.198 A 
ATOM     92  F   UNL A   1      44.691  30.002  33.966  1.00  0.00    -0.203 F 
ATOM     93  F   UNL A   1      43.811  24.630  33.621  1.00  0.00    -0.200 F 
ATOM     94  C   UNL A   1      44.325  26.531  34.919  1.00  0.00     0.200 A 
ATOM     95  F   UNL A   1      44.907  28.451  36.163  1.00  0.00    -0.200 F 
ATOM     96  F   UNL A   1      44.457  25.765  36.011  1.00  0.00    -0.200 F 
ENDBRANCH  63  86
ENDBRANCH  37  38
ENDBRANCH  30  32
ENDBRANCH  29  30
ENDBRANCH  28  29
ENDBRANCH  27  28
ENDBRANCH  26  27
ENDBRANCH   1  26
TORSDOF 17
ENDMDL
MODEL 3
REMARK VINA RESULT:     -11.7      4.750     10.349
REMARK SMILES CC1CCN(S(=O)(=O)c2ccc3c(ccn3CC(=O)OCCOCCOC(=O)c3ccc(-c4c5nc(c(-c6c(F)c(F)c(F)c(F)c6F)c6ccc([nH]6)c(-c6c(F)c(F)c(F)c(F)c6F)c6nc(c(-c7c(F)c(F)c(F)c(F)c7F)c7ccc4[nH]7)C=C6)C=C5)cc3)c2)CC1
REMARK SMILES IDX 22 1 21 2 20 3 18 4 19 5 17 6 16 7 9 8 10 9 92 10 11 11
REMARK SMILES IDX 13 12 12 13 14 14 15 15 6 16 7 17 8 18 5 19 1 20 2 21 3 22
REMARK SMILES IDX 94 23 4 24 93 25 23 26 24 27 25 28 26 29 27 30 28 31 29 32
REMARK SMILES IDX 30 33 91 34 31 35 90 36 32 37 33 38 34 39 84 40 35 41 89 42
REMARK SMILES IDX 83 43 85 44 36 45 88 46 82 47 81 48 37 50 69 51 49 52 68 53
REMARK SMILES IDX 50 54 53 55 67 56 86 57 51 58 52 59 66 61 87 62 54 63 38 64
REMARK SMILES IDX 39 65 47 66 40 67 41 68 45 69 48 70 42 71 43 72 46 73 44 74
REMARK SMILES IDX 70 75 71 76 79 77 72 78 73 79 77 80 80 81 74 82 75 83 78 84
REMARK SMILES IDX 76 85 55 86 56 87 64 88 57 89 58 90 62 91 65 92 59 93 60 94
REMARK SMILES IDX 63 95 61 96
REMARK H PARENT 85 49 53 60
REMARK Flexibility Score: inf
ROOT
ATOM      1  C   UNL A   1      34.646  34.267  32.588  1.00  0.00     0.202 C 
ENDROOT
BRANCH   1   2
ATOM      2  C   UNL A   1      34.059  34.901  31.314  1.00  0.00     0.261 C 
BRANCH   2   3
ATOM      3  O   UNL A   1      33.683  33.981  30.275  1.00  0.00    -0.462 OA
BRANCH   3   4
ATOM      4  C   UNL A   1      33.277  34.572  29.122  1.00  0.00     0.326 C 
ATOM      5  O   UNL A   1      32.791  35.700  29.063  1.00  0.00    -0.250 OA
BRANCH   4   6
ATOM      6  C   UNL A   1      33.418  33.741  27.875  1.00  0.00     0.244 C 
BRANCH   6   7
ATOM      7  N   UNL A   1      34.049  32.426  27.971  1.00  0.00    -0.336 N 
ATOM      8  C   UNL A   1      32.937  28.705  26.555  1.00  0.00     0.083 A 
ATOM      9  C   UNL A   1      31.910  29.642  26.683  1.00  0.00     0.024 A 
ATOM     10  C   UNL A   1      34.228  28.991  27.007  1.00  0.00     0.032 A 
ATOM     11  C   UNL A   1      32.167  30.931  27.155  1.00  0.00     0.028 A 
ATOM     12  C   UNL A   1      34.502  30.283  27.502  1.00  0.00     0.001 A 
ATOM     13  C   UNL A   1      33.479  31.238  27.542  1.00  0.00     0.049 A 
ATOM     14  C   UNL A   1      35.682  30.905  27.979  1.00  0.00     0.028 A 
ATOM     15  C   UNL A   1      35.396  32.234  28.173  1.00  0.00     0.087 A 
BRANCH   8  16
ATOM     16  S   UNL A   1      32.569  27.080  25.933  1.00  0.00     0.243 S 
ATOM     17  O   UNL A   1      31.489  26.560  26.751  1.00  0.00    -0.207 OA
ATOM     18  O   UNL A   1      33.814  26.353  25.830  1.00  0.00    -0.207 OA
BRANCH  16  19
ATOM     19  N   UNL A   1      31.997  27.318  24.330  1.00  0.00    -0.198 NA
ATOM     20  C   UNL A   1      31.034  23.268  23.453  1.00  0.00     0.008 C 
ATOM     21  C   UNL A   1      31.184  24.758  23.138  1.00  0.00    -0.012 C 
ATOM     22  C   UNL A   1      32.662  25.177  23.249  1.00  0.00     0.020 C 
ATOM     23  C   UNL A   1      30.250  25.577  24.042  1.00  0.00     0.020 C 
ATOM     24  C   UNL A   1      32.857  26.692  23.282  1.00  0.00     0.103 C 
ATOM     25  C   UNL A   1      30.573  27.064  24.006  1.00  0.00     0.103 C 
ENDBRANCH  16  19
ENDBRANCH   8  16
ENDBRANCH   6   7
ENDBRANCH   4   6
ENDBRANCH   3   4
ENDBRANCH   2   3
ENDBRANCH   1   2
BRANCH   1  26
ATOM     26  O   UNL A   1      34.831  32.862  32.670  1.00  0.00    -0.374 OA
BRANCH  26  27
ATOM     27  C   UNL A   1      36.142  32.345  32.447  1.00  0.00     0.202 C 
BRANCH  27  28
ATOM     28  C   UNL A   1      37.252  33.262  31.897  1.00  0.00     0.261 C 
BRANCH  28  29
ATOM     29  O   UNL A   1      37.580  32.963  30.534  1.00  0.00    -0.460 OA
BRANCH  29  30
ATOM     30  C   UNL A   1      38.866  33.243  30.186  1.00  0.00     0.338 C 
ATOM     31  O   UNL A   1      39.410  34.330  30.161  1.00  0.00    -0.246 OA
BRANCH  30  32
ATOM     32  C   UNL A   1      39.585  31.955  30.255  1.00  0.00     0.060 A 
ATOM     33  C   UNL A   1      40.961  31.906  30.476  1.00  0.00     0.016 A 
ATOM     34  C   UNL A   1      38.885  30.823  29.804  1.00  0.00     0.016 A 
ATOM     35  C   UNL A   1      41.642  30.727  30.183  1.00  0.00     0.010 A 
ATOM     36  C   UNL A   1      39.575  29.658  29.479  1.00  0.00     0.010 A 
ATOM     37  C   UNL A   1      40.958  29.612  29.648  1.00  0.00    -0.014 A 
BRANCH  37  38
ATOM     38  C   UNL A   1      41.683  28.336  29.595  1.00  0.00     0.031 A 
ATOM     39  C   UNL A   1      42.188  27.949  30.942  1.00  0.00     0.074 A 
ATOM     40  C   UNL A   1      41.818  27.475  28.563  1.00  0.00     0.049 A 
ATOM     41  N   UNL A   1      43.421  27.823  31.303  1.00  0.00    -0.248 NA
ATOM     42  C   UNL A   1      41.221  27.851  32.047  1.00  0.00     0.031 C 
ATOM     43  C   UNL A   1      41.200  27.520  27.241  1.00  0.00     0.029 A 
ATOM     44  N   UNL A   1      42.514  26.292  28.528  1.00  0.00    -0.354 N 
ATOM     45  C   UNL A   1      43.390  27.475  32.648  1.00  0.00     0.074 A 
ATOM     46  C   UNL A   1      42.031  27.650  33.086  1.00  0.00     0.031 C 
ATOM     47  C   UNL A   1      41.364  26.322  26.628  1.00  0.00     0.029 A 
ATOM     48  C   UNL A   1      42.195  25.461  27.457  1.00  0.00     0.049 A 
ATOM     49  H   UNL A   1      43.185  26.048  29.207  1.00  0.00     0.167 HD
ATOM     50  C   UNL A   1      44.451  26.858  33.233  1.00  0.00     0.037 A 
ATOM     51  C   UNL A   1      42.546  24.154  27.292  1.00  0.00     0.037 A 
ATOM     52  C   UNL A   1      45.659  27.065  32.476  1.00  0.00     0.049 A 
ATOM     53  C   UNL A   1      43.740  23.903  28.136  1.00  0.00     0.074 A 
ATOM     54  C   UNL A   1      46.350  28.184  32.048  1.00  0.00     0.029 A 
ATOM     55  N   UNL A   1      46.150  26.023  31.729  1.00  0.00    -0.354 N 
ATOM     56  N   UNL A   1      44.922  24.390  27.886  1.00  0.00    -0.248 NA
ATOM     57  C   UNL A   1      43.516  23.461  29.504  1.00  0.00     0.031 C 
ATOM     58  C   UNL A   1      46.817  27.849  30.744  1.00  0.00     0.029 A 
ATOM     59  C   UNL A   1      46.445  26.530  30.491  1.00  0.00     0.049 A 
ATOM     60  H   UNL A   1      46.266  25.091  32.025  1.00  0.00     0.167 HD
ATOM     61  C   UNL A   1      45.411  24.748  29.131  1.00  0.00     0.074 A 
ATOM     62  C   UNL A   1      44.540  24.079  30.096  1.00  0.00     0.031 C 
ATOM     63  C   UNL A   1      46.289  25.780  29.271  1.00  0.00     0.037 A 
BRANCH  50  64
ATOM     64  C   UNL A   1      44.315  25.760  34.257  1.00  0.00     0.064 A 
ATOM     65  C   UNL A   1      44.777  25.992  35.568  1.00  0.00     0.173 A 
ATOM     66  C   UNL A   1      44.059  24.410  33.931  1.00  0.00     0.173 A 
ATOM     67  F   UNL A   1      45.069  27.236  35.980  1.00  0.00    -0.203 F 
ATOM     68  C   UNL A   1      45.059  24.944  36.446  1.00  0.00     0.198 A 
ATOM     69  C   UNL A   1      44.288  23.372  34.830  1.00  0.00     0.198 A 
ATOM     70  F   UNL A   1      43.697  24.025  32.703  1.00  0.00    -0.203 F 
ATOM     71  F   UNL A   1      45.638  25.204  37.625  1.00  0.00    -0.200 F 
ATOM     72  C   UNL A   1      44.823  23.634  36.072  1.00  0.00     0.200 A 
ATOM     73  F   UNL A   1      44.072  22.107  34.441  1.00  0.00    -0.200 F 
ATOM     74  F   UNL A   1      45.158  22.623  36.883  1.00  0.00    -0.200 F 
ENDBRANCH  50  64
BRANCH  51  75
ATOM     75  C   UNL A   1      41.786  23.026  26.678  1.00  0.00     0.064 A 
ATOM     76  C   UNL A   1      42.422  21.815  26.333  1.00  0.00     0.173 A 
ATOM     77  C   UNL A   1      40.379  22.995  26.692  1.00  0.00     0.173 A 
ATOM     78  F   UNL A   1      43.762  21.728  26.332  1.00  0.00    -0.203 F 
ATOM     79  C   UNL A   1      41.699  20.646  26.062  1.00  0.00     0.198 A 
ATOM     80  C   UNL A   1      39.658  21.830  26.413  1.00  0.00     0.198 A 
ATOM     81  F   UNL A   1      39.671  24.067  27.073  1.00  0.00    -0.203 F 
ATOM     82  F   UNL A   1      42.345  19.499  25.810  1.00  0.00    -0.200 F 
ATOM     83  C   UNL A   1      40.316  20.652  26.115  1.00  0.00     0.200 A 
ATOM     84  F   UNL A   1      38.320  21.843  26.503  1.00  0.00    -0.200 F 
ATOM     85  F   UNL A   1      39.622  19.522  25.924  1.00  0.00    -0.200 F 
ENDBRANCH  51  75
BRANCH  63  86
ATOM     86  C   UNL A   1      46.941  26.355  28.048  1.00  0.00     0.064 A 
ATOM     87  C   UNL A   1      48.097  25.828  27.448  1.00  0.00     0.173 A 
ATOM     88  C   UNL A   1      46.245  27.352  27.349  1.00  0.00     0.173 A 
ATOM     89  F   UNL A   1      48.767  24.811  28.007  1.00  0.00    -0.203 F 
ATOM     90  C   UNL A   1      48.540  26.293  26.211  1.00  0.00     0.198 A 
ATOM     91  C   UNL A   1      46.668  27.785  26.097  1.00  0.00     0.198 A 
ATOM     92  F   UNL A   1      45.109  27.859  27.853  1.00  0.00    -0.203 F 
ATOM     93  F   UNL A   1      49.641  25.769  25.652  1.00  0.00    -0.200 F 
ATOM     94  C   UNL A   1      47.817  27.259  25.530  1.00  0.00     0.200 A 
ATOM     95  F   UNL A   1      45.936  28.682  25.421  1.00  0.00    -0.200 F 
ATOM     96  F   UNL A   1      48.208  27.658  24.311  1.00  0.00    -0.200 F 
ENDBRANCH  63  86
ENDBRANCH  37  38
ENDBRANCH  30  32
ENDBRANCH  29  30
ENDBRANCH  28  29
ENDBRANCH  27  28
ENDBRANCH  26  27
ENDBRANCH   1  26
TORSDOF 17
ENDMDL
