MODEL 1
REMARK VINA RESULT:     -11.8      0.000      0.000
REMARK SMILES COc1ccc(NCc2ccc(C(=O)OCCOCCOC(=O)c3ccc(-c4c5nc(c(-c6c(F)c(F)c(F)c(F)c6F)c6ccc([nH]6)c(-c6c(F)c(F)c(F)c(F)c6F)c6nc(c(-c7c(F)c(F)c(F)c(F)c7F)c7ccc4[nH]7)C=C6)C=C5)cc3)cn2)cc1Br
REMARK SMILES IDX 17 1 16 2 15 3 13 4 14 5 12 6 9 7 10 8 88 9 11 10 87 11 8 12
REMARK SMILES IDX 7 13 6 15 3 16 4 17 90 18 5 19 89 20 91 21 2 22 1 23 18 24
REMARK SMILES IDX 19 25 20 26 21 27 22 28 23 29 24 30 25 31 86 32 26 33 85 34
REMARK SMILES IDX 27 35 28 36 29 37 79 38 30 39 84 40 78 41 80 42 31 43 83 44
REMARK SMILES IDX 77 45 76 46 32 48 64 49 44 50 63 51 45 52 48 53 62 54 81 55
REMARK SMILES IDX 46 56 47 57 61 59 82 60 49 61 33 62 34 63 42 64 35 65 36 66
REMARK SMILES IDX 40 67 43 68 37 69 38 70 41 71 39 72 65 73 66 74 74 75 67 76
REMARK SMILES IDX 68 77 72 78 75 79 69 80 70 81 73 82 71 83 50 84 51 85 59 86
REMARK SMILES IDX 52 87 53 88 57 89 60 90 54 91 55 92 58 93 56 94
REMARK H PARENT 7 14 80 47 48 58
REMARK Flexibility Score: inf
ROOT
ATOM      1  C   UNL A   1      33.696  36.337  32.944  1.00  0.00     0.202 C 
ENDROOT
BRANCH   1   2
ATOM      2  C   UNL A   1      33.299  37.227  31.762  1.00  0.00     0.261 C 
BRANCH   2   3
ATOM      3  O   UNL A   1      32.603  36.472  30.756  1.00  0.00    -0.460 OA
BRANCH   3   4
ATOM      4  C   UNL A   1      33.181  36.482  29.532  1.00  0.00     0.339 C 
ATOM      5  O   UNL A   1      33.307  37.445  28.790  1.00  0.00    -0.246 OA
BRANCH   4   6
ATOM      6  C   UNL A   1      33.802  35.178  29.243  1.00  0.00     0.078 A 
ATOM      7  C   UNL A   1      35.011  32.828  28.452  1.00  0.00     0.059 A 
ATOM      8  C   UNL A   1      34.382  32.890  29.699  1.00  0.00     0.026 A 
ATOM      9  N   UNL A   1      35.063  33.902  27.622  1.00  0.00    -0.259 NA
ATOM     10  C   UNL A   1      33.783  34.085  30.108  1.00  0.00     0.019 A 
ATOM     11  C   UNL A   1      34.457  35.042  28.029  1.00  0.00     0.127 A 
BRANCH   7  12
ATOM     12  C   UNL A   1      35.573  31.530  27.903  1.00  0.00     0.169 C 
BRANCH  12  13
ATOM     13  N   UNL A   1      34.701  30.390  28.152  1.00  0.00    -0.379 N 
ATOM     14  H   UNL A   1      34.761  29.966  29.037  1.00  0.00     0.160 HD
BRANCH  13  15
ATOM     15  C   UNL A   1      33.798  29.853  27.257  1.00  0.00     0.036 A 
ATOM     16  C   UNL A   1      32.020  28.627  25.427  1.00  0.00     0.133 A 
ATOM     17  C   UNL A   1      31.758  29.903  25.918  1.00  0.00     0.050 A 
ATOM     18  C   UNL A   1      33.179  27.964  25.825  1.00  0.00     0.062 A 
ATOM     19  C   UNL A   1      32.635  30.503  26.831  1.00  0.00     0.029 A 
ATOM     20  C   UNL A   1      34.045  28.569  26.745  1.00  0.00     0.045 A 
ATOM     21  Br  UNL A   1      33.670  26.270  25.129  1.00  0.00    -0.047 Br
BRANCH  16  22
ATOM     22  O   UNL A   1      31.150  28.129  24.495  1.00  0.00    -0.496 OA
ATOM     23  C   UNL A   1      31.515  28.529  23.173  1.00  0.00     0.278 C 
ENDBRANCH  16  22
ENDBRANCH  13  15
ENDBRANCH  12  13
ENDBRANCH   7  12
ENDBRANCH   4   6
ENDBRANCH   3   4
ENDBRANCH   2   3
ENDBRANCH   1   2
BRANCH   1  24
ATOM     24  O   UNL A   1      35.099  36.176  33.155  1.00  0.00    -0.374 OA
BRANCH  24  25
ATOM     25  C   UNL A   1      35.649  34.882  32.896  1.00  0.00     0.202 C 
BRANCH  25  26
ATOM     26  C   UNL A   1      34.921  33.701  33.546  1.00  0.00     0.261 C 
BRANCH  26  27
ATOM     27  O   UNL A   1      35.460  32.439  33.112  1.00  0.00    -0.460 OA
BRANCH  27  28
ATOM     28  C   UNL A   1      36.668  32.132  33.639  1.00  0.00     0.338 C 
ATOM     29  O   UNL A   1      37.034  32.292  34.794  1.00  0.00    -0.246 OA
BRANCH  28  30
ATOM     30  C   UNL A   1      37.484  31.397  32.657  1.00  0.00     0.060 A 
ATOM     31  C   UNL A   1      38.527  30.608  33.159  1.00  0.00     0.016 A 
ATOM     32  C   UNL A   1      37.302  31.536  31.278  1.00  0.00     0.016 A 
ATOM     33  C   UNL A   1      39.435  30.014  32.287  1.00  0.00     0.010 A 
ATOM     34  C   UNL A   1      38.218  30.941  30.402  1.00  0.00     0.010 A 
ATOM     35  C   UNL A   1      39.315  30.218  30.906  1.00  0.00    -0.014 A 
BRANCH  35  36
ATOM     36  C   UNL A   1      40.437  29.812  30.024  1.00  0.00     0.031 A 
ATOM     37  C   UNL A   1      41.530  30.804  29.731  1.00  0.00     0.074 A 
ATOM     38  C   UNL A   1      40.521  28.556  29.549  1.00  0.00     0.049 A 
ATOM     39  N   UNL A   1      42.625  30.654  29.030  1.00  0.00    -0.248 NA
ATOM     40  C   UNL A   1      41.366  32.148  30.308  1.00  0.00     0.031 C 
ATOM     41  C   UNL A   1      39.544  27.498  29.789  1.00  0.00     0.029 A 
ATOM     42  N   UNL A   1      41.481  27.962  28.771  1.00  0.00    -0.354 N 
ATOM     43  C   UNL A   1      43.278  31.878  29.083  1.00  0.00     0.074 A 
ATOM     44  C   UNL A   1      42.441  32.773  29.852  1.00  0.00     0.031 C 
ATOM     45  C   UNL A   1      39.956  26.378  29.169  1.00  0.00     0.029 A 
ATOM     46  C   UNL A   1      41.212  26.649  28.474  1.00  0.00     0.049 A 
ATOM     47  H   UNL A   1      42.286  28.432  28.454  1.00  0.00     0.167 HD
ATOM     48  C   UNL A   1      44.477  32.222  28.553  1.00  0.00     0.037 A 
ATOM     49  C   UNL A   1      41.902  25.770  27.721  1.00  0.00     0.037 A 
ATOM     50  C   UNL A   1      45.313  31.331  27.792  1.00  0.00     0.049 A 
ATOM     51  C   UNL A   1      43.207  26.194  27.097  1.00  0.00     0.074 A 
ATOM     52  C   UNL A   1      46.553  31.580  27.230  1.00  0.00     0.029 A 
ATOM     53  N   UNL A   1      44.991  30.019  27.483  1.00  0.00    -0.354 N 
ATOM     54  N   UNL A   1      43.832  27.343  27.181  1.00  0.00    -0.248 NA
ATOM     55  C   UNL A   1      43.905  25.191  26.281  1.00  0.00     0.031 C 
ATOM     56  C   UNL A   1      46.958  30.432  26.539  1.00  0.00     0.029 A 
ATOM     57  C   UNL A   1      45.996  29.452  26.716  1.00  0.00     0.049 A 
ATOM     58  H   UNL A   1      44.168  29.557  27.767  1.00  0.00     0.167 HD
ATOM     59  C   UNL A   1      45.006  27.194  26.454  1.00  0.00     0.074 A 
ATOM     60  C   UNL A   1      45.014  25.837  25.950  1.00  0.00     0.031 C 
ATOM     61  C   UNL A   1      45.990  28.098  26.224  1.00  0.00     0.037 A 
BRANCH  48  62
ATOM     62  C   UNL A   1      44.947  33.632  28.763  1.00  0.00     0.064 A 
ATOM     63  C   UNL A   1      45.759  33.985  29.852  1.00  0.00     0.173 A 
ATOM     64  C   UNL A   1      44.603  34.638  27.848  1.00  0.00     0.173 A 
ATOM     65  F   UNL A   1      46.102  33.063  30.764  1.00  0.00    -0.203 F 
ATOM     66  C   UNL A   1      46.189  35.298  30.029  1.00  0.00     0.198 A 
ATOM     67  C   UNL A   1      45.058  35.943  28.012  1.00  0.00     0.198 A 
ATOM     68  F   UNL A   1      43.830  34.354  26.788  1.00  0.00    -0.203 F 
ATOM     69  F   UNL A   1      46.926  35.620  31.100  1.00  0.00    -0.200 F 
ATOM     70  C   UNL A   1      45.844  36.273  29.105  1.00  0.00     0.200 A 
ATOM     71  F   UNL A   1      44.733  36.883  27.114  1.00  0.00    -0.200 F 
ATOM     72  F   UNL A   1      46.263  37.535  29.274  1.00  0.00    -0.200 F 
ENDBRANCH  48  62
BRANCH  49  73
ATOM     73  C   UNL A   1      41.374  24.397  27.514  1.00  0.00     0.064 A 
ATOM     74  C   UNL A   1      41.993  23.286  28.104  1.00  0.00     0.173 A 
ATOM     75  C   UNL A   1      40.252  24.166  26.704  1.00  0.00     0.173 A 
ATOM     76  F   UNL A   1      43.084  23.453  28.866  1.00  0.00    -0.203 F 
ATOM     77  C   UNL A   1      41.521  21.994  27.876  1.00  0.00     0.198 A 
ATOM     78  C   UNL A   1      39.766  22.878  26.499  1.00  0.00     0.198 A 
ATOM     79  F   UNL A   1      39.627  25.195  26.116  1.00  0.00    -0.203 F 
ATOM     80  F   UNL A   1      42.159  20.946  28.413  1.00  0.00    -0.200 F 
ATOM     81  C   UNL A   1      40.404  21.792  27.079  1.00  0.00     0.200 A 
ATOM     82  F   UNL A   1      38.680  22.688  25.737  1.00  0.00    -0.200 F 
ATOM     83  F   UNL A   1      39.951  20.550  26.861  1.00  0.00    -0.200 F 
ENDBRANCH  49  73
BRANCH  61  84
ATOM     84  C   UNL A   1      47.170  27.640  25.416  1.00  0.00     0.064 A 
ATOM     85  C   UNL A   1      47.215  27.798  24.022  1.00  0.00     0.173 A 
ATOM     86  C   UNL A   1      48.280  27.057  26.046  1.00  0.00     0.173 A 
ATOM     87  F   UNL A   1      46.174  28.336  23.370  1.00  0.00    -0.203 F 
ATOM     88  C   UNL A   1      48.315  27.359  23.287  1.00  0.00     0.198 A 
ATOM     89  C   UNL A   1      49.390  26.648  25.312  1.00  0.00     0.198 A 
ATOM     90  F   UNL A   1      48.292  26.891  27.377  1.00  0.00    -0.203 F 
ATOM     91  F   UNL A   1      48.312  27.471  21.951  1.00  0.00    -0.200 F 
ATOM     92  C   UNL A   1      49.402  26.791  23.932  1.00  0.00     0.200 A 
ATOM     93  F   UNL A   1      50.446  26.112  25.939  1.00  0.00    -0.200 F 
ATOM     94  F   UNL A   1      50.460  26.371  23.224  1.00  0.00    -0.200 F 
ENDBRANCH  61  84
ENDBRANCH  35  36
ENDBRANCH  28  30
ENDBRANCH  27  28
ENDBRANCH  26  27
ENDBRANCH  25  26
ENDBRANCH  24  25
ENDBRANCH   1  24
TORSDOF 18
ENDMDL
MODEL 2
REMARK VINA RESULT:     -11.6      6.027     12.141
REMARK SMILES COc1ccc(NCc2ccc(C(=O)OCCOCCOC(=O)c3ccc(-c4c5nc(c(-c6c(F)c(F)c(F)c(F)c6F)c6ccc([nH]6)c(-c6c(F)c(F)c(F)c(F)c6F)c6nc(c(-c7c(F)c(F)c(F)c(F)c7F)c7ccc4[nH]7)C=C6)C=C5)cc3)cn2)cc1Br
REMARK SMILES IDX 17 1 16 2 15 3 13 4 14 5 12 6 9 7 10 8 88 9 11 10 87 11 8 12
REMARK SMILES IDX 7 13 6 15 3 16 4 17 90 18 5 19 89 20 91 21 2 22 1 23 18 24
REMARK SMILES IDX 19 25 20 26 21 27 22 28 23 29 24 30 25 31 86 32 26 33 85 34
REMARK SMILES IDX 27 35 28 36 29 37 79 38 30 39 84 40 78 41 80 42 31 43 83 44
REMARK SMILES IDX 77 45 76 46 32 48 64 49 44 50 63 51 45 52 48 53 62 54 81 55
REMARK SMILES IDX 46 56 47 57 61 59 82 60 49 61 33 62 34 63 42 64 35 65 36 66
REMARK SMILES IDX 40 67 43 68 37 69 38 70 41 71 39 72 65 73 66 74 74 75 67 76
REMARK SMILES IDX 68 77 72 78 75 79 69 80 70 81 73 82 71 83 50 84 51 85 59 86
REMARK SMILES IDX 52 87 53 88 57 89 60 90 54 91 55 92 58 93 56 94
REMARK H PARENT 7 14 80 47 48 58
REMARK Flexibility Score: inf
ROOT
ATOM      1  C   UNL A   1      44.753  19.220  23.933  1.00  0.00     0.202 C 
ENDROOT
BRANCH   1   2
ATOM      2  C   UNL A   1      44.061  18.726  25.207  1.00  0.00     0.261 C 
BRANCH   2   3
ATOM      3  O   UNL A   1      42.662  19.060  25.199  1.00  0.00    -0.460 OA
BRANCH   3   4
ATOM      4  C   UNL A   1      42.113  19.252  26.421  1.00  0.00     0.339 C 
ATOM      5  O   UNL A   1      42.554  18.857  27.491  1.00  0.00    -0.246 OA
BRANCH   4   6
ATOM      6  C   UNL A   1      40.955  20.156  26.331  1.00  0.00     0.078 A 
ATOM      7  C   UNL A   1      38.670  21.668  26.003  1.00  0.00     0.059 A 
ATOM      8  C   UNL A   1      39.771  22.224  26.661  1.00  0.00     0.026 A 
ATOM      9  N   UNL A   1      38.683  20.392  25.536  1.00  0.00    -0.259 NA
ATOM     10  C   UNL A   1      40.924  21.453  26.842  1.00  0.00     0.019 A 
ATOM     11  C   UNL A   1      39.818  19.672  25.703  1.00  0.00     0.127 A 
BRANCH   7  12
ATOM     12  C   UNL A   1      37.439  22.489  25.671  1.00  0.00     0.169 C 
BRANCH  12  13
ATOM     13  N   UNL A   1      36.199  21.814  26.030  1.00  0.00    -0.379 N 
ATOM     14  H   UNL A   1      36.218  20.830  26.058  1.00  0.00     0.160 HD
BRANCH  13  15
ATOM     15  C   UNL A   1      35.002  22.429  26.334  1.00  0.00     0.036 A 
ATOM     16  C   UNL A   1      32.587  23.802  26.875  1.00  0.00     0.133 A 
ATOM     17  C   UNL A   1      32.778  22.502  27.335  1.00  0.00     0.050 A 
ATOM     18  C   UNL A   1      33.605  24.434  26.164  1.00  0.00     0.062 A 
ATOM     19  C   UNL A   1      33.971  21.822  27.057  1.00  0.00     0.029 A 
ATOM     20  C   UNL A   1      34.791  23.743  25.884  1.00  0.00     0.045 A 
ATOM     21  Br  UNL A   1      33.475  26.236  25.589  1.00  0.00    -0.047 Br
BRANCH  16  22
ATOM     22  O   UNL A   1      31.421  24.424  27.234  1.00  0.00    -0.496 OA
ATOM     23  C   UNL A   1      30.481  24.433  26.159  1.00  0.00     0.278 C 
ENDBRANCH  16  22
ENDBRANCH  13  15
ENDBRANCH  12  13
ENDBRANCH   7  12
ENDBRANCH   4   6
ENDBRANCH   3   4
ENDBRANCH   2   3
ENDBRANCH   1   2
BRANCH   1  24
ATOM     24  O   UNL A   1      44.582  20.606  23.632  1.00  0.00    -0.374 OA
BRANCH  24  25
ATOM     25  C   UNL A   1      45.187  21.543  24.525  1.00  0.00     0.202 C 
BRANCH  25  26
ATOM     26  C   UNL A   1      44.225  22.377  25.377  1.00  0.00     0.261 C 
BRANCH  26  27
ATOM     27  O   UNL A   1      43.737  23.526  24.660  1.00  0.00    -0.460 OA
BRANCH  27  28
ATOM     28  C   UNL A   1      44.346  24.690  24.982  1.00  0.00     0.338 C 
ATOM     29  O   UNL A   1      45.391  25.131  24.528  1.00  0.00    -0.246 OA
BRANCH  28  30
ATOM     30  C   UNL A   1      43.485  25.489  25.874  1.00  0.00     0.060 A 
ATOM     31  C   UNL A   1      43.894  26.800  26.146  1.00  0.00     0.016 A 
ATOM     32  C   UNL A   1      42.357  24.954  26.501  1.00  0.00     0.016 A 
ATOM     33  C   UNL A   1      43.221  27.557  27.100  1.00  0.00     0.010 A 
ATOM     34  C   UNL A   1      41.682  25.716  27.463  1.00  0.00     0.010 A 
ATOM     35  C   UNL A   1      42.141  27.001  27.799  1.00  0.00    -0.014 A 
BRANCH  35  36
ATOM     36  C   UNL A   1      41.619  27.716  28.990  1.00  0.00     0.031 A 
ATOM     37  C   UNL A   1      42.357  27.593  30.297  1.00  0.00     0.074 A 
ATOM     38  C   UNL A   1      40.545  28.520  28.896  1.00  0.00     0.049 A 
ATOM     39  N   UNL A   1      42.112  28.163  31.448  1.00  0.00    -0.248 NA
ATOM     40  C   UNL A   1      43.533  26.708  30.302  1.00  0.00     0.031 C 
ATOM     41  C   UNL A   1      39.766  28.746  27.682  1.00  0.00     0.029 A 
ATOM     42  N   UNL A   1      39.933  29.301  29.844  1.00  0.00    -0.354 N 
ATOM     43  C   UNL A   1      43.099  27.709  32.312  1.00  0.00     0.074 A 
ATOM     44  C   UNL A   1      43.926  26.786  31.565  1.00  0.00     0.031 C 
ATOM     45  C   UNL A   1      38.774  29.612  27.957  1.00  0.00     0.029 A 
ATOM     46  C   UNL A   1      38.839  29.982  29.370  1.00  0.00     0.049 A 
ATOM     47  H   UNL A   1      40.246  29.366  30.775  1.00  0.00     0.167 HD
ATOM     48  C   UNL A   1      43.310  28.043  33.609  1.00  0.00     0.037 A 
ATOM     49  C   UNL A   1      37.986  30.807  30.008  1.00  0.00     0.037 A 
ATOM     50  C   UNL A   1      42.492  28.964  34.352  1.00  0.00     0.049 A 
ATOM     51  C   UNL A   1      38.210  31.120  31.465  1.00  0.00     0.074 A 
ATOM     52  C   UNL A   1      42.634  29.381  35.664  1.00  0.00     0.029 A 
ATOM     53  N   UNL A   1      41.372  29.608  33.848  1.00  0.00    -0.354 N 
ATOM     54  N   UNL A   1      39.166  30.712  32.264  1.00  0.00    -0.248 NA
ATOM     55  C   UNL A   1      37.239  32.019  32.105  1.00  0.00     0.031 C 
ATOM     56  C   UNL A   1      41.572  30.241  35.968  1.00  0.00     0.029 A 
ATOM     57  C   UNL A   1      40.800  30.401  34.830  1.00  0.00     0.049 A 
ATOM     58  H   UNL A   1      41.034  29.516  32.927  1.00  0.00     0.167 HD
ATOM     59  C   UNL A   1      38.928  31.322  33.489  1.00  0.00     0.074 A 
ATOM     60  C   UNL A   1      37.747  32.143  33.323  1.00  0.00     0.031 C 
ATOM     61  C   UNL A   1      39.624  31.214  34.648  1.00  0.00     0.037 A 
BRANCH  48  62
ATOM     62  C   UNL A   1      44.463  27.390  34.312  1.00  0.00     0.064 A 
ATOM     63  C   UNL A   1      45.732  27.986  34.360  1.00  0.00     0.173 A 
ATOM     64  C   UNL A   1      44.290  26.163  34.972  1.00  0.00     0.173 A 
ATOM     65  F   UNL A   1      45.954  29.151  33.731  1.00  0.00    -0.203 F 
ATOM     66  C   UNL A   1      46.791  27.368  35.021  1.00  0.00     0.198 A 
ATOM     67  C   UNL A   1      45.343  25.562  35.656  1.00  0.00     0.198 A 
ATOM     68  F   UNL A   1      43.096  25.551  34.959  1.00  0.00    -0.203 F 
ATOM     69  F   UNL A   1      48.005  27.934  35.014  1.00  0.00    -0.200 F 
ATOM     70  C   UNL A   1      46.593  26.160  35.674  1.00  0.00     0.200 A 
ATOM     71  F   UNL A   1      45.147  24.400  36.295  1.00  0.00    -0.200 F 
ATOM     72  F   UNL A   1      47.611  25.569  36.314  1.00  0.00    -0.200 F 
ENDBRANCH  48  62
BRANCH  49  73
ATOM     73  C   UNL A   1      36.838  31.399  29.274  1.00  0.00     0.064 A 
ATOM     74  C   UNL A   1      36.810  32.762  28.949  1.00  0.00     0.173 A 
ATOM     75  C   UNL A   1      35.735  30.616  28.902  1.00  0.00     0.173 A 
ATOM     76  F   UNL A   1      37.830  33.557  29.307  1.00  0.00    -0.203 F 
ATOM     77  C   UNL A   1      35.714  33.324  28.297  1.00  0.00     0.198 A 
ATOM     78  C   UNL A   1      34.652  31.173  28.226  1.00  0.00     0.198 A 
ATOM     79  F   UNL A   1      35.712  29.307  29.192  1.00  0.00    -0.203 F 
ATOM     80  F   UNL A   1      35.691  34.638  28.040  1.00  0.00    -0.200 F 
ATOM     81  C   UNL A   1      34.639  32.528  27.931  1.00  0.00     0.200 A 
ATOM     82  F   UNL A   1      33.621  30.399  27.865  1.00  0.00    -0.200 F 
ATOM     83  F   UNL A   1      33.586  33.069  27.303  1.00  0.00    -0.200 F 
ENDBRANCH  49  73
BRANCH  61  84
ATOM     84  C   UNL A   1      39.144  32.025  35.817  1.00  0.00     0.064 A 
ATOM     85  C   UNL A   1      38.247  31.499  36.760  1.00  0.00     0.173 A 
ATOM     86  C   UNL A   1      39.603  33.336  36.010  1.00  0.00     0.173 A 
ATOM     87  F   UNL A   1      37.767  30.255  36.614  1.00  0.00    -0.203 F 
ATOM     88  C   UNL A   1      37.806  32.268  37.834  1.00  0.00     0.198 A 
ATOM     89  C   UNL A   1      39.183  34.092  37.102  1.00  0.00     0.198 A 
ATOM     90  F   UNL A   1      40.467  33.884  35.142  1.00  0.00    -0.203 F 
ATOM     91  F   UNL A   1      36.908  31.762  38.692  1.00  0.00    -0.200 F 
ATOM     92  C   UNL A   1      38.277  33.560  38.007  1.00  0.00     0.200 A 
ATOM     93  F   UNL A   1      39.652  35.335  37.274  1.00  0.00    -0.200 F 
ATOM     94  F   UNL A   1      37.853  34.298  39.042  1.00  0.00    -0.200 F 
ENDBRANCH  61  84
ENDBRANCH  35  36
ENDBRANCH  28  30
ENDBRANCH  27  28
ENDBRANCH  26  27
ENDBRANCH  25  26
ENDBRANCH  24  25
ENDBRANCH   1  24
TORSDOF 18
ENDMDL
MODEL 3
REMARK VINA RESULT:     -11.3      5.956     11.990
REMARK SMILES COc1ccc(NCc2ccc(C(=O)OCCOCCOC(=O)c3ccc(-c4c5nc(c(-c6c(F)c(F)c(F)c(F)c6F)c6ccc([nH]6)c(-c6c(F)c(F)c(F)c(F)c6F)c6nc(c(-c7c(F)c(F)c(F)c(F)c7F)c7ccc4[nH]7)C=C6)C=C5)cc3)cn2)cc1Br
REMARK SMILES IDX 17 1 16 2 15 3 13 4 14 5 12 6 9 7 10 8 88 9 11 10 87 11 8 12
REMARK SMILES IDX 7 13 6 15 3 16 4 17 90 18 5 19 89 20 91 21 2 22 1 23 18 24
REMARK SMILES IDX 19 25 20 26 21 27 22 28 23 29 24 30 25 31 86 32 26 33 85 34
REMARK SMILES IDX 27 35 28 36 29 37 79 38 30 39 84 40 78 41 80 42 31 43 83 44
REMARK SMILES IDX 77 45 76 46 32 48 64 49 44 50 63 51 45 52 48 53 62 54 81 55
REMARK SMILES IDX 46 56 47 57 61 59 82 60 49 61 33 62 34 63 42 64 35 65 36 66
REMARK SMILES IDX 40 67 43 68 37 69 38 70 41 71 39 72 65 73 66 74 74 75 67 76
REMARK SMILES IDX 68 77 72 78 75 79 69 80 70 81 73 82 71 83 50 84 51 85 59 86
REMARK SMILES IDX 52 87 53 88 57 89 60 90 54 91 55 92 58 93 56 94
REMARK H PARENT 7 14 80 47 48 58
REMARK Flexibility Score: inf
ROOT
ATOM      1  C   UNL A   1      44.546  18.968  24.894  1.00  0.00     0.202 C 
ENDROOT
BRANCH   1   2
ATOM      2  C   UNL A   1      43.310  18.714  25.763  1.00  0.00     0.261 C 
BRANCH   2   3
ATOM      3  O   UNL A   1      42.206  19.536  25.344  1.00  0.00    -0.460 OA
BRANCH   3   4
ATOM      4  C   UNL A   1      41.820  20.475  26.239  1.00  0.00     0.339 C 
ATOM      5  O   UNL A   1      42.536  21.059  27.040  1.00  0.00    -0.246 OA
BRANCH   4   6
ATOM      6  C   UNL A   1      40.409  20.839  26.031  1.00  0.00     0.078 A 
ATOM      7  C   UNL A   1      37.735  21.284  25.516  1.00  0.00     0.059 A 
ATOM      8  C   UNL A   1      38.513  22.318  26.045  1.00  0.00     0.026 A 
ATOM      9  N   UNL A   1      38.253  20.053  25.266  1.00  0.00    -0.259 NA
ATOM     10  C   UNL A   1      39.864  22.088  26.322  1.00  0.00     0.019 A 
ATOM     11  C   UNL A   1      39.569  19.861  25.520  1.00  0.00     0.127 A 
BRANCH   7  12
ATOM     12  C   UNL A   1      36.298  21.505  25.085  1.00  0.00     0.169 C 
BRANCH  12  13
ATOM     13  N   UNL A   1      36.178  22.472  24.003  1.00  0.00    -0.379 N 
ATOM     14  H   UNL A   1      36.928  22.529  23.368  1.00  0.00     0.160 HD
BRANCH  13  15
ATOM     15  C   UNL A   1      35.107  23.316  23.787  1.00  0.00     0.036 A 
ATOM     16  C   UNL A   1      32.965  25.134  23.445  1.00  0.00     0.133 A 
ATOM     17  C   UNL A   1      33.085  24.021  22.617  1.00  0.00     0.050 A 
ATOM     18  C   UNL A   1      33.896  25.336  24.462  1.00  0.00     0.062 A 
ATOM     19  C   UNL A   1      34.151  23.128  22.783  1.00  0.00     0.029 A 
ATOM     20  C   UNL A   1      34.964  24.441  24.614  1.00  0.00     0.045 A 
ATOM     21  Br  UNL A   1      33.755  26.764  25.700  1.00  0.00    -0.047 Br
BRANCH  16  22
ATOM     22  O   UNL A   1      31.866  25.930  23.261  1.00  0.00    -0.496 OA
ATOM     23  C   UNL A   1      32.188  27.098  22.505  1.00  0.00     0.278 C 
ENDBRANCH  16  22
ENDBRANCH  13  15
ENDBRANCH  12  13
ENDBRANCH   7  12
ENDBRANCH   4   6
ENDBRANCH   3   4
ENDBRANCH   2   3
ENDBRANCH   1   2
BRANCH   1  24
ATOM     24  O   UNL A   1      44.456  20.074  23.995  1.00  0.00    -0.374 OA
BRANCH  24  25
ATOM     25  C   UNL A   1      45.054  21.302  24.415  1.00  0.00     0.202 C 
BRANCH  25  26
ATOM     26  C   UNL A   1      44.557  22.567  23.708  1.00  0.00     0.261 C 
BRANCH  26  27
ATOM     27  O   UNL A   1      43.791  23.406  24.592  1.00  0.00    -0.460 OA
BRANCH  27  28
ATOM     28  C   UNL A   1      44.433  24.525  25.001  1.00  0.00     0.338 C 
ATOM     29  O   UNL A   1      45.516  24.941  24.617  1.00  0.00    -0.246 OA
BRANCH  28  30
ATOM     30  C   UNL A   1      43.564  25.316  25.892  1.00  0.00     0.060 A 
ATOM     31  C   UNL A   1      43.917  26.656  26.099  1.00  0.00     0.016 A 
ATOM     32  C   UNL A   1      42.486  24.754  26.579  1.00  0.00     0.016 A 
ATOM     33  C   UNL A   1      43.241  27.417  27.047  1.00  0.00     0.010 A 
ATOM     34  C   UNL A   1      41.807  25.520  27.535  1.00  0.00     0.010 A 
ATOM     35  C   UNL A   1      42.214  26.839  27.805  1.00  0.00    -0.014 A 
BRANCH  35  36
ATOM     36  C   UNL A   1      41.698  27.575  28.986  1.00  0.00     0.031 A 
ATOM     37  C   UNL A   1      42.441  27.470  30.292  1.00  0.00     0.074 A 
ATOM     38  C   UNL A   1      40.627  28.381  28.883  1.00  0.00     0.049 A 
ATOM     39  N   UNL A   1      42.202  28.061  31.434  1.00  0.00    -0.248 NA
ATOM     40  C   UNL A   1      43.614  26.582  30.308  1.00  0.00     0.031 C 
ATOM     41  C   UNL A   1      39.844  28.589  27.668  1.00  0.00     0.029 A 
ATOM     42  N   UNL A   1      40.020  29.179  29.819  1.00  0.00    -0.354 N 
ATOM     43  C   UNL A   1      43.191  27.617  32.303  1.00  0.00     0.074 A 
ATOM     44  C   UNL A   1      44.012  26.680  31.568  1.00  0.00     0.031 C 
ATOM     45  C   UNL A   1      38.856  29.463  27.932  1.00  0.00     0.029 A 
ATOM     46  C   UNL A   1      38.927  29.856  29.338  1.00  0.00     0.049 A 
ATOM     47  H   UNL A   1      40.337  29.258  30.748  1.00  0.00     0.167 HD
ATOM     48  C   UNL A   1      43.407  27.972  33.593  1.00  0.00     0.037 A 
ATOM     49  C   UNL A   1      38.079  30.693  29.966  1.00  0.00     0.037 A 
ATOM     50  C   UNL A   1      42.594  28.908  34.323  1.00  0.00     0.049 A 
ATOM     51  C   UNL A   1      38.309  31.030  31.417  1.00  0.00     0.074 A 
ATOM     52  C   UNL A   1      42.743  29.346  35.628  1.00  0.00     0.029 A 
ATOM     53  N   UNL A   1      41.475  29.547  33.813  1.00  0.00    -0.354 N 
ATOM     54  N   UNL A   1      39.266  30.631  32.219  1.00  0.00    -0.248 NA
ATOM     55  C   UNL A   1      37.343  31.942  32.045  1.00  0.00     0.031 C 
ATOM     56  C   UNL A   1      41.685  30.214  35.921  1.00  0.00     0.029 A 
ATOM     57  C   UNL A   1      40.908  30.358  34.784  1.00  0.00     0.049 A 
ATOM     58  H   UNL A   1      41.133  29.441  32.895  1.00  0.00     0.167 HD
ATOM     59  C   UNL A   1      39.035  31.263  33.434  1.00  0.00     0.074 A 
ATOM     60  C   UNL A   1      37.856  32.084  33.259  1.00  0.00     0.031 C 
ATOM     61  C   UNL A   1      39.735  31.171  34.592  1.00  0.00     0.037 A 
BRANCH  48  62
ATOM     62  C   UNL A   1      44.561  27.327  34.303  1.00  0.00     0.064 A 
ATOM     63  C   UNL A   1      45.855  27.865  34.248  1.00  0.00     0.173 A 
ATOM     64  C   UNL A   1      44.364  26.169  35.071  1.00  0.00     0.173 A 
ATOM     65  F   UNL A   1      46.099  28.961  33.514  1.00  0.00    -0.203 F 
ATOM     66  C   UNL A   1      46.914  27.255  34.917  1.00  0.00     0.198 A 
ATOM     67  C   UNL A   1      45.419  25.578  35.762  1.00  0.00     0.198 A 
ATOM     68  F   UNL A   1      43.145  25.615  35.159  1.00  0.00    -0.203 F 
ATOM     69  F   UNL A   1      48.150  27.762  34.813  1.00  0.00    -0.200 F 
ATOM     70  C   UNL A   1      46.693  26.117  35.678  1.00  0.00     0.200 A 
ATOM     71  F   UNL A   1      45.202  24.485  36.505  1.00  0.00    -0.200 F 
ATOM     72  F   UNL A   1      47.712  25.535  36.325  1.00  0.00    -0.200 F 
ENDBRANCH  48  62
BRANCH  49  73
ATOM     73  C   UNL A   1      36.930  31.276  29.226  1.00  0.00     0.064 A 
ATOM     74  C   UNL A   1      36.918  32.628  28.853  1.00  0.00     0.173 A 
ATOM     75  C   UNL A   1      35.810  30.498  28.897  1.00  0.00     0.173 A 
ATOM     76  F   UNL A   1      37.955  33.418  29.169  1.00  0.00    -0.203 F 
ATOM     77  C   UNL A   1      35.822  33.183  28.196  1.00  0.00     0.198 A 
ATOM     78  C   UNL A   1      34.727  31.048  28.216  1.00  0.00     0.198 A 
ATOM     79  F   UNL A   1      35.772  29.201  29.233  1.00  0.00    -0.203 F 
ATOM     80  F   UNL A   1      35.815  34.488  27.893  1.00  0.00    -0.200 F 
ATOM     81  C   UNL A   1      34.730  32.391  27.872  1.00  0.00     0.200 A 
ATOM     82  F   UNL A   1      33.679  30.277  27.895  1.00  0.00    -0.200 F 
ATOM     83  F   UNL A   1      33.677  32.926  27.239  1.00  0.00    -0.200 F 
ENDBRANCH  49  73
BRANCH  61  84
ATOM     84  C   UNL A   1      39.261  32.003  35.750  1.00  0.00     0.064 A 
ATOM     85  C   UNL A   1      39.695  33.324  35.934  1.00  0.00     0.173 A 
ATOM     86  C   UNL A   1      38.343  31.479  36.673  1.00  0.00     0.173 A 
ATOM     87  F   UNL A   1      40.583  33.867  35.088  1.00  0.00    -0.203 F 
ATOM     88  C   UNL A   1      39.252  34.078  37.018  1.00  0.00     0.198 A 
ATOM     89  C   UNL A   1      37.879  32.246  37.738  1.00  0.00     0.198 A 
ATOM     90  F   UNL A   1      37.890  30.223  36.539  1.00  0.00    -0.203 F 
ATOM     91  F   UNL A   1      39.722  35.320  37.204  1.00  0.00    -0.200 F 
ATOM     92  C   UNL A   1      38.341  33.542  37.915  1.00  0.00     0.200 A 
ATOM     93  F   UNL A   1      36.988  31.729  38.596  1.00  0.00    -0.200 F 
ATOM     94  F   UNL A   1      37.915  34.269  38.957  1.00  0.00    -0.200 F 
ENDBRANCH  61  84
ENDBRANCH  35  36
ENDBRANCH  28  30
ENDBRANCH  27  28
ENDBRANCH  26  27
ENDBRANCH  25  26
ENDBRANCH  24  25
ENDBRANCH   1  24
TORSDOF 18
ENDMDL
