MODEL 1
REMARK VINA RESULT:     -13.0      0.000      0.000
REMARK SMILES Cc1ccc(/C=C(\NC(=O)c2cccc(C)c2)C(=O)OCCOCCOC(=O)c2ccc(-c3c4nc(c(-c5c(F)c(F)c(F)c(F)c5F)c5ccc([nH]5)c(-c5c(F)c(F)c(F)c(F)c5F)c5nc(c(-c6c(F)c(F)c(F)c(F)c6F)c6ccc3[nH]6)C=C5)C=C4)cc2)cc1
REMARK SMILES IDX 23 1 22 2 21 3 20 4 18 5 19 6 7 7 6 8 5 9 1 10 2 11 3 12
REMARK SMILES IDX 93 13 4 14 92 15 8 16 9 17 10 19 11 20 12 21 17 22 13 23
REMARK SMILES IDX 15 24 14 25 16 26 24 27 25 28 26 29 27 30 28 31 29 32 30 33
REMARK SMILES IDX 91 34 31 35 90 36 32 37 33 38 34 39 84 40 35 41 89 42 83 43
REMARK SMILES IDX 85 44 36 45 88 46 82 47 81 48 37 50 69 51 49 52 68 53 50 54
REMARK SMILES IDX 53 55 67 56 86 57 51 58 52 59 66 61 87 62 54 63 38 64 39 65
REMARK SMILES IDX 47 66 40 67 41 68 45 69 48 70 42 71 43 72 46 73 44 74 70 75
REMARK SMILES IDX 71 76 79 77 72 78 73 79 77 80 80 81 74 82 75 83 78 84 76 85
REMARK SMILES IDX 55 86 56 87 64 88 57 89 58 90 62 91 65 92 59 93 60 94 63 95
REMARK SMILES IDX 61 96
REMARK H PARENT 8 18 85 49 53 60
REMARK Flexibility Score: inf
ROOT
ATOM      1  O   UNL A   1      37.250  23.237  24.802  1.00  0.00    -0.374 OA
ENDROOT
BRANCH   1   2
ATOM      2  C   UNL A   1      36.189  22.337  24.556  1.00  0.00     0.202 C 
BRANCH   2   3
ATOM      3  C   UNL A   1      35.051  23.245  24.422  1.00  0.00     0.261 C 
BRANCH   3   4
ATOM      4  O   UNL A   1      34.132  22.596  23.574  1.00  0.00    -0.459 OA
BRANCH   4   5
ATOM      5  C   UNL A   1      32.949  23.249  23.588  1.00  0.00     0.354 C 
ATOM      6  O   UNL A   1      32.561  24.161  22.883  1.00  0.00    -0.244 OA
BRANCH   5   7
ATOM      7  C   UNL A   1      32.109  22.280  24.294  1.00  0.00     0.128 C 
ATOM      8  C   UNL A   1      32.451  21.082  23.774  1.00  0.00     0.042 C 
BRANCH   8   9
ATOM      9  C   UNL A   1      32.494  19.676  24.160  1.00  0.00    -0.023 A 
ATOM     10  C   UNL A   1      33.052  15.492  24.997  1.00  0.00     0.044 C 
ATOM     11  C   UNL A   1      32.907  16.946  24.678  1.00  0.00    -0.051 A 
ATOM     12  C   UNL A   1      32.896  17.889  25.716  1.00  0.00     0.004 A 
ATOM     13  C   UNL A   1      32.756  17.376  23.363  1.00  0.00     0.004 A 
ATOM     14  C   UNL A   1      32.694  19.246  25.460  1.00  0.00     0.008 A 
ATOM     15  C   UNL A   1      32.548  18.727  23.109  1.00  0.00     0.008 A 
ENDBRANCH   8   9
BRANCH   7  16
ATOM     16  N   UNL A   1      31.434  22.706  25.435  1.00  0.00    -0.316 N 
ATOM     17  C   UNL A   1      31.364  23.929  26.179  1.00  0.00     0.255 C 
ATOM     18  H   UNL A   1      30.871  21.998  25.823  1.00  0.00     0.170 HD
ATOM     19  O   UNL A   1      31.169  23.702  27.388  1.00  0.00    -0.269 OA
BRANCH  17  20
ATOM     20  C   UNL A   1      31.402  25.535  25.849  1.00  0.00     0.040 A 
ATOM     21  C   UNL A   1      29.895  25.986  25.078  1.00  0.00     0.014 A 
ATOM     22  C   UNL A   1      32.723  26.630  25.377  1.00  0.00     0.017 A 
ATOM     23  C   UNL A   1      29.833  27.407  23.653  1.00  0.00     0.001 A 
ATOM     24  C   UNL A   1      32.753  27.872  24.060  1.00  0.00    -0.050 A 
ATOM     25  C   UNL A   1      31.316  28.272  23.191  1.00  0.00     0.003 A 
ATOM     26  C   UNL A   1      34.061  28.544  23.746  1.00  0.00     0.044 C 
ENDBRANCH  17  20
ENDBRANCH   7  16
ENDBRANCH   5   7
ENDBRANCH   4   5
ENDBRANCH   3   4
ENDBRANCH   2   3
ENDBRANCH   1   2
BRANCH   1  27
ATOM     27  C   UNL A   1      37.343  23.715  26.118  1.00  0.00     0.202 C 
BRANCH  27  28
ATOM     28  C   UNL A   1      38.813  23.610  26.493  1.00  0.00     0.261 C 
BRANCH  28  29
ATOM     29  O   UNL A   1      39.388  24.960  26.521  1.00  0.00    -0.460 OA
BRANCH  29  30
ATOM     30  C   UNL A   1      40.083  25.346  27.646  1.00  0.00     0.338 C 
ATOM     31  O   UNL A   1      40.702  24.568  28.361  1.00  0.00    -0.246 OA
BRANCH  30  32
ATOM     32  C   UNL A   1      39.747  26.778  28.056  1.00  0.00     0.060 A 
ATOM     33  C   UNL A   1      40.353  27.887  27.449  1.00  0.00     0.016 A 
ATOM     34  C   UNL A   1      39.166  26.988  29.302  1.00  0.00     0.016 A 
ATOM     35  C   UNL A   1      40.533  29.088  28.192  1.00  0.00     0.010 A 
ATOM     36  C   UNL A   1      39.563  28.087  30.086  1.00  0.00     0.010 A 
ATOM     37  C   UNL A   1      40.345  29.141  29.594  1.00  0.00    -0.014 A 
BRANCH  37  38
ATOM     38  C   UNL A   1      40.590  30.377  30.532  1.00  0.00     0.031 A 
ATOM     39  C   UNL A   1      41.141  29.817  31.798  1.00  0.00     0.074 A 
ATOM     40  C   UNL A   1      40.243  31.748  30.484  1.00  0.00     0.049 A 
ATOM     41  N   UNL A   1      40.779  30.153  32.992  1.00  0.00    -0.248 NA
ATOM     42  C   UNL A   1      41.993  28.600  31.814  1.00  0.00     0.031 C 
ATOM     43  C   UNL A   1      40.491  32.880  31.393  1.00  0.00     0.029 A 
ATOM     44  N   UNL A   1      39.333  32.473  29.636  1.00  0.00    -0.354 N 
ATOM     45  C   UNL A   1      41.770  29.599  33.776  1.00  0.00     0.074 A 
ATOM     46  C   UNL A   1      42.137  28.396  33.119  1.00  0.00     0.031 C 
ATOM     47  C   UNL A   1      39.481  33.801  31.305  1.00  0.00     0.029 A 
ATOM     48  C   UNL A   1      38.426  33.262  30.422  1.00  0.00     0.049 A 
ATOM     49  H   UNL A   1      39.332  32.434  28.653  1.00  0.00     0.167 HD
ATOM     50  C   UNL A   1      42.510  30.458  34.531  1.00  0.00     0.037 A 
ATOM     51  C   UNL A   1      37.021  33.139  30.616  1.00  0.00     0.037 A 
ATOM     52  C   UNL A   1      41.770  31.711  34.716  1.00  0.00     0.049 A 
ATOM     53  C   UNL A   1      36.830  33.318  32.162  1.00  0.00     0.074 A 
ATOM     54  C   UNL A   1      41.991  33.025  34.344  1.00  0.00     0.029 A 
ATOM     55  N   UNL A   1      40.426  31.641  35.086  1.00  0.00    -0.354 N 
ATOM     56  N   UNL A   1      37.824  33.085  32.989  1.00  0.00    -0.248 NA
ATOM     57  C   UNL A   1      35.631  33.688  32.911  1.00  0.00     0.031 C 
ATOM     58  C   UNL A   1      40.751  33.729  34.459  1.00  0.00     0.029 A 
ATOM     59  C   UNL A   1      39.777  32.845  34.898  1.00  0.00     0.049 A 
ATOM     60  H   UNL A   1      39.994  30.831  35.440  1.00  0.00     0.167 HD
ATOM     61  C   UNL A   1      37.470  33.242  34.293  1.00  0.00     0.074 A 
ATOM     62  C   UNL A   1      36.074  33.639  34.190  1.00  0.00     0.031 C 
ATOM     63  C   UNL A   1      38.371  32.970  35.296  1.00  0.00     0.037 A 
BRANCH  50  64
ATOM     64  C   UNL A   1      44.001  30.277  34.817  1.00  0.00     0.064 A 
ATOM     65  C   UNL A   1      44.929  30.690  33.841  1.00  0.00     0.173 A 
ATOM     66  C   UNL A   1      44.600  29.646  35.942  1.00  0.00     0.173 A 
ATOM     67  F   UNL A   1      44.522  31.297  32.718  1.00  0.00    -0.203 F 
ATOM     68  C   UNL A   1      46.309  30.490  33.971  1.00  0.00     0.198 A 
ATOM     69  C   UNL A   1      45.982  29.486  36.090  1.00  0.00     0.198 A 
ATOM     70  F   UNL A   1      43.906  29.105  36.947  1.00  0.00    -0.203 F 
ATOM     71  F   UNL A   1      47.127  30.869  32.981  1.00  0.00    -0.200 F 
ATOM     72  C   UNL A   1      46.838  29.902  35.101  1.00  0.00     0.200 A 
ATOM     73  F   UNL A   1      46.466  28.902  37.197  1.00  0.00    -0.200 F 
ATOM     74  F   UNL A   1      48.158  29.729  35.234  1.00  0.00    -0.200 F 
ENDBRANCH  50  64
BRANCH  51  75
ATOM     75  C   UNL A   1      35.828  32.177  29.636  1.00  0.00     0.064 A 
ATOM     76  C   UNL A   1      34.408  33.194  29.103  1.00  0.00     0.173 A 
ATOM     77  C   UNL A   1      35.889  30.337  28.767  1.00  0.00     0.173 A 
ATOM     78  F   UNL A   1      34.308  34.484  29.440  1.00  0.00    -0.203 F 
ATOM     79  C   UNL A   1      33.254  32.510  27.898  1.00  0.00     0.198 A 
ATOM     80  C   UNL A   1      34.680  29.803  27.599  1.00  0.00     0.198 A 
ATOM     81  F   UNL A   1      36.737  29.265  28.937  1.00  0.00    -0.203 F 
ATOM     82  F   UNL A   1      32.326  33.302  27.341  1.00  0.00    -0.200 F 
ATOM     83  C   UNL A   1      33.413  30.881  27.187  1.00  0.00     0.200 A 
ATOM     84  F   UNL A   1      34.825  28.599  27.023  1.00  0.00    -0.200 F 
ATOM     85  F   UNL A   1      32.603  30.504  26.183  1.00  0.00    -0.200 F 
ENDBRANCH  51  75
BRANCH  63  86
ATOM     86  C   UNL A   1      38.085  32.808  36.779  1.00  0.00     0.064 A 
ATOM     87  C   UNL A   1      37.665  31.615  37.375  1.00  0.00     0.173 A 
ATOM     88  C   UNL A   1      38.362  33.867  37.693  1.00  0.00     0.173 A 
ATOM     89  F   UNL A   1      37.549  30.483  36.672  1.00  0.00    -0.203 F 
ATOM     90  C   UNL A   1      37.415  31.525  38.749  1.00  0.00     0.198 A 
ATOM     91  C   UNL A   1      38.201  33.743  39.069  1.00  0.00     0.198 A 
ATOM     92  F   UNL A   1      38.827  35.060  37.293  1.00  0.00    -0.203 F 
ATOM     93  F   UNL A   1      36.931  30.382  39.255  1.00  0.00    -0.200 F 
ATOM     94  C   UNL A   1      37.684  32.585  39.594  1.00  0.00     0.200 A 
ATOM     95  F   UNL A   1      38.562  34.754  39.875  1.00  0.00    -0.200 F 
ATOM     96  F   UNL A   1      37.466  32.482  40.910  1.00  0.00    -0.200 F 
ENDBRANCH  63  86
ENDBRANCH  37  38
ENDBRANCH  30  32
ENDBRANCH  29  30
ENDBRANCH  28  29
ENDBRANCH  27  28
ENDBRANCH   1  27
TORSDOF 17
ENDMDL
MODEL 2
REMARK VINA RESULT:     -13.0      3.580      7.612
REMARK SMILES Cc1ccc(/C=C(\NC(=O)c2cccc(C)c2)C(=O)OCCOCCOC(=O)c2ccc(-c3c4nc(c(-c5c(F)c(F)c(F)c(F)c5F)c5ccc([nH]5)c(-c5c(F)c(F)c(F)c(F)c5F)c5nc(c(-c6c(F)c(F)c(F)c(F)c6F)c6ccc3[nH]6)C=C5)C=C4)cc2)cc1
REMARK SMILES IDX 23 1 22 2 21 3 20 4 18 5 19 6 7 7 6 8 5 9 1 10 2 11 3 12
REMARK SMILES IDX 93 13 4 14 92 15 8 16 9 17 10 19 11 20 12 21 17 22 13 23
REMARK SMILES IDX 15 24 14 25 16 26 24 27 25 28 26 29 27 30 28 31 29 32 30 33
REMARK SMILES IDX 91 34 31 35 90 36 32 37 33 38 34 39 84 40 35 41 89 42 83 43
REMARK SMILES IDX 85 44 36 45 88 46 82 47 81 48 37 50 69 51 49 52 68 53 50 54
REMARK SMILES IDX 53 55 67 56 86 57 51 58 52 59 66 61 87 62 54 63 38 64 39 65
REMARK SMILES IDX 47 66 40 67 41 68 45 69 48 70 42 71 43 72 46 73 44 74 70 75
REMARK SMILES IDX 71 76 79 77 72 78 73 79 77 80 80 81 74 82 75 83 78 84 76 85
REMARK SMILES IDX 55 86 56 87 64 88 57 89 58 90 62 91 65 92 59 93 60 94 63 95
REMARK SMILES IDX 61 96
REMARK H PARENT 8 18 85 49 53 60
REMARK Flexibility Score: inf
ROOT
ATOM      1  O   UNL A   1      31.410  28.695  25.698  1.00  0.00    -0.374 OA
ENDROOT
BRANCH   1   2
ATOM      2  C   UNL A   1      31.264  29.602  24.626  1.00  0.00     0.202 C 
BRANCH   2   3
ATOM      3  C   UNL A   1      31.525  28.745  23.470  1.00  0.00     0.261 C 
BRANCH   3   4
ATOM      4  O   UNL A   1      32.826  28.236  23.649  1.00  0.00    -0.459 OA
BRANCH   4   5
ATOM      5  C   UNL A   1      33.097  27.317  22.696  1.00  0.00     0.354 C 
ATOM      6  O   UNL A   1      33.731  27.437  21.664  1.00  0.00    -0.244 OA
BRANCH   5   7
ATOM      7  C   UNL A   1      32.881  26.076  23.442  1.00  0.00     0.128 C 
ATOM      8  C   UNL A   1      34.018  25.369  23.275  1.00  0.00     0.042 C 
BRANCH   8   9
ATOM      9  C   UNL A   1      34.809  24.358  23.970  1.00  0.00    -0.023 A 
ATOM     10  C   UNL A   1      37.534  21.503  25.685  1.00  0.00     0.044 C 
ATOM     11  C   UNL A   1      36.628  22.514  25.055  1.00  0.00    -0.051 A 
ATOM     12  C   UNL A   1      36.075  23.537  25.840  1.00  0.00     0.004 A 
ATOM     13  C   UNL A   1      36.305  22.439  23.704  1.00  0.00     0.004 A 
ATOM     14  C   UNL A   1      35.174  24.457  25.301  1.00  0.00     0.008 A 
ATOM     15  C   UNL A   1      35.402  23.351  23.169  1.00  0.00     0.008 A 
ENDBRANCH   8   9
BRANCH   7  16
ATOM     16  N   UNL A   1      31.801  26.020  24.319  1.00  0.00    -0.316 N 
ATOM     17  C   UNL A   1      31.039  24.970  24.931  1.00  0.00     0.255 C 
ATOM     18  H   UNL A   1      31.486  26.915  24.582  1.00  0.00     0.170 HD
ATOM     19  O   UNL A   1      29.860  25.328  25.115  1.00  0.00    -0.269 OA
BRANCH  17  20
ATOM     20  C   UNL A   1      31.326  23.464  25.510  1.00  0.00     0.040 A 
ATOM     21  C   UNL A   1      31.845  23.593  27.178  1.00  0.00     0.014 A 
ATOM     22  C   UNL A   1      31.966  21.988  24.747  1.00  0.00     0.017 A 
ATOM     23  C   UNL A   1      33.205  22.325  27.954  1.00  0.00     0.001 A 
ATOM     24  C   UNL A   1      33.236  20.853  25.357  1.00  0.00    -0.050 A 
ATOM     25  C   UNL A   1      33.864  21.008  26.959  1.00  0.00     0.003 A 
ATOM     26  C   UNL A   1      33.729  19.774  24.434  1.00  0.00     0.044 C 
ENDBRANCH  17  20
ENDBRANCH   7  16
ENDBRANCH   5   7
ENDBRANCH   4   5
ENDBRANCH   3   4
ENDBRANCH   2   3
ENDBRANCH   1   2
BRANCH   1  27
ATOM     27  C   UNL A   1      31.598  29.278  26.961  1.00  0.00     0.202 C 
BRANCH  27  28
ATOM     28  C   UNL A   1      32.381  30.558  26.713  1.00  0.00     0.261 C 
BRANCH  28  29
ATOM     29  O   UNL A   1      33.497  30.618  27.666  1.00  0.00    -0.460 OA
BRANCH  29  30
ATOM     30  C   UNL A   1      34.630  29.888  27.385  1.00  0.00     0.338 C 
ATOM     31  O   UNL A   1      34.636  28.894  26.669  1.00  0.00    -0.246 OA
BRANCH  30  32
ATOM     32  C   UNL A   1      35.794  30.278  28.293  1.00  0.00     0.060 A 
ATOM     33  C   UNL A   1      36.637  31.359  27.999  1.00  0.00     0.016 A 
ATOM     34  C   UNL A   1      36.287  29.325  29.178  1.00  0.00     0.016 A 
ATOM     35  C   UNL A   1      37.992  31.336  28.433  1.00  0.00     0.010 A 
ATOM     36  C   UNL A   1      37.674  29.212  29.388  1.00  0.00     0.010 A 
ATOM     37  C   UNL A   1      38.600  30.164  28.942  1.00  0.00    -0.014 A 
BRANCH  37  38
ATOM     38  C   UNL A   1      40.101  29.991  29.374  1.00  0.00     0.031 A 
ATOM     39  C   UNL A   1      40.433  28.564  29.109  1.00  0.00     0.074 A 
ATOM     40  C   UNL A   1      41.034  30.792  30.074  1.00  0.00     0.049 A 
ATOM     41  N   UNL A   1      41.076  27.778  29.907  1.00  0.00    -0.248 NA
ATOM     42  C   UNL A   1      39.815  27.809  27.987  1.00  0.00     0.031 C 
ATOM     43  C   UNL A   1      42.439  30.590  30.463  1.00  0.00     0.029 A 
ATOM     44  N   UNL A   1      40.870  31.999  30.843  1.00  0.00    -0.354 N 
ATOM     45  C   UNL A   1      41.383  26.706  29.094  1.00  0.00     0.074 A 
ATOM     46  C   UNL A   1      40.282  26.584  28.205  1.00  0.00     0.031 C 
ATOM     47  C   UNL A   1      42.724  31.269  31.618  1.00  0.00     0.029 A 
ATOM     48  C   UNL A   1      41.474  31.859  32.139  1.00  0.00     0.049 A 
ATOM     49  H   UNL A   1      40.408  32.807  30.526  1.00  0.00     0.167 HD
ATOM     50  C   UNL A   1      42.704  26.429  28.911  1.00  0.00     0.037 A 
ATOM     51  C   UNL A   1      40.885  31.803  33.434  1.00  0.00     0.037 A 
ATOM     52  C   UNL A   1      43.485  27.021  30.003  1.00  0.00     0.049 A 
ATOM     53  C   UNL A   1      41.628  30.616  34.142  1.00  0.00     0.074 A 
ATOM     54  C   UNL A   1      44.463  27.995  30.071  1.00  0.00     0.029 A 
ATOM     55  N   UNL A   1      43.041  26.835  31.313  1.00  0.00    -0.354 N 
ATOM     56  N   UNL A   1      42.210  29.676  33.433  1.00  0.00    -0.248 NA
ATOM     57  C   UNL A   1      41.761  30.325  35.567  1.00  0.00     0.031 C 
ATOM     58  C   UNL A   1      44.569  28.418  31.434  1.00  0.00     0.029 A 
ATOM     59  C   UNL A   1      43.656  27.704  32.193  1.00  0.00     0.049 A 
ATOM     60  H   UNL A   1      42.370  26.165  31.578  1.00  0.00     0.167 HD
ATOM     61  C   UNL A   1      42.762  28.702  34.206  1.00  0.00     0.074 A 
ATOM     62  C   UNL A   1      42.463  29.167  35.551  1.00  0.00     0.031 C 
ATOM     63  C   UNL A   1      43.354  27.605  33.625  1.00  0.00     0.037 A 
BRANCH  50  64
ATOM     64  C   UNL A   1      43.295  25.912  27.599  1.00  0.00     0.064 A 
ATOM     65  C   UNL A   1      43.169  24.542  27.297  1.00  0.00     0.173 A 
ATOM     66  C   UNL A   1      44.061  26.638  26.645  1.00  0.00     0.173 A 
ATOM     67  F   UNL A   1      42.481  23.720  28.102  1.00  0.00    -0.203 F 
ATOM     68  C   UNL A   1      43.749  23.956  26.165  1.00  0.00     0.198 A 
ATOM     69  C   UNL A   1      44.603  26.059  25.492  1.00  0.00     0.198 A 
ATOM     70  F   UNL A   1      44.375  27.929  26.773  1.00  0.00    -0.203 F 
ATOM     71  F   UNL A   1      43.624  22.637  25.967  1.00  0.00    -0.200 F 
ATOM     72  C   UNL A   1      44.453  24.716  25.254  1.00  0.00     0.200 A 
ATOM     73  F   UNL A   1      45.290  26.823  24.629  1.00  0.00    -0.200 F 
ATOM     74  F   UNL A   1      44.990  24.159  24.162  1.00  0.00    -0.200 F 
ENDBRANCH  50  64
BRANCH  51  75
ATOM     75  C   UNL A   1      39.197  32.270  33.926  1.00  0.00     0.064 A 
ATOM     76  C   UNL A   1      39.129  32.852  35.655  1.00  0.00     0.173 A 
ATOM     77  C   UNL A   1      37.469  32.569  32.892  1.00  0.00     0.173 A 
ATOM     78  F   UNL A   1      40.224  32.891  36.422  1.00  0.00    -0.203 F 
ATOM     79  C   UNL A   1      37.611  33.618  36.254  1.00  0.00     0.198 A 
ATOM     80  C   UNL A   1      36.055  33.336  33.618  1.00  0.00     0.198 A 
ATOM     81  F   UNL A   1      37.088  32.227  31.614  1.00  0.00    -0.203 F 
ATOM     82  F   UNL A   1      37.601  34.233  37.446  1.00  0.00    -0.200 F 
ATOM     83  C   UNL A   1      36.152  33.844  35.252  1.00  0.00     0.200 A 
ATOM     84  F   UNL A   1      34.974  33.554  32.852  1.00  0.00    -0.200 F 
ATOM     85  F   UNL A   1      35.117  34.561  35.722  1.00  0.00    -0.200 F 
ENDBRANCH  51  75
BRANCH  63  86
ATOM     86  C   UNL A   1      43.757  26.305  34.299  1.00  0.00     0.064 A 
ATOM     87  C   UNL A   1      45.080  25.884  34.473  1.00  0.00     0.173 A 
ATOM     88  C   UNL A   1      42.780  25.476  34.925  1.00  0.00     0.173 A 
ATOM     89  F   UNL A   1      46.112  26.653  34.110  1.00  0.00    -0.203 F 
ATOM     90  C   UNL A   1      45.393  24.674  35.102  1.00  0.00     0.198 A 
ATOM     91  C   UNL A   1      43.104  24.321  35.630  1.00  0.00     0.198 A 
ATOM     92  F   UNL A   1      41.470  25.765  34.903  1.00  0.00    -0.203 F 
ATOM     93  F   UNL A   1      46.671  24.278  35.165  1.00  0.00    -0.200 F 
ATOM     94  C   UNL A   1      44.407  23.896  35.681  1.00  0.00     0.200 A 
ATOM     95  F   UNL A   1      42.139  23.637  36.264  1.00  0.00    -0.200 F 
ATOM     96  F   UNL A   1      44.718  22.752  36.302  1.00  0.00    -0.200 F 
ENDBRANCH  63  86
ENDBRANCH  37  38
ENDBRANCH  30  32
ENDBRANCH  29  30
ENDBRANCH  28  29
ENDBRANCH  27  28
ENDBRANCH   1  27
TORSDOF 17
ENDMDL
MODEL 3
REMARK VINA RESULT:     -12.7      3.848      8.586
REMARK SMILES Cc1ccc(/C=C(\NC(=O)c2cccc(C)c2)C(=O)OCCOCCOC(=O)c2ccc(-c3c4nc(c(-c5c(F)c(F)c(F)c(F)c5F)c5ccc([nH]5)c(-c5c(F)c(F)c(F)c(F)c5F)c5nc(c(-c6c(F)c(F)c(F)c(F)c6F)c6ccc3[nH]6)C=C5)C=C4)cc2)cc1
REMARK SMILES IDX 23 1 22 2 21 3 20 4 18 5 19 6 7 7 6 8 5 9 1 10 2 11 3 12
REMARK SMILES IDX 93 13 4 14 92 15 8 16 9 17 10 19 11 20 12 21 17 22 13 23
REMARK SMILES IDX 15 24 14 25 16 26 24 27 25 28 26 29 27 30 28 31 29 32 30 33
REMARK SMILES IDX 91 34 31 35 90 36 32 37 33 38 34 39 84 40 35 41 89 42 83 43
REMARK SMILES IDX 85 44 36 45 88 46 82 47 81 48 37 50 69 51 49 52 68 53 50 54
REMARK SMILES IDX 53 55 67 56 86 57 51 58 52 59 66 61 87 62 54 63 38 64 39 65
REMARK SMILES IDX 47 66 40 67 41 68 45 69 48 70 42 71 43 72 46 73 44 74 70 75
REMARK SMILES IDX 71 76 79 77 72 78 73 79 77 80 80 81 74 82 75 83 78 84 76 85
REMARK SMILES IDX 55 86 56 87 64 88 57 89 58 90 62 91 65 92 59 93 60 94 63 95
REMARK SMILES IDX 61 96
REMARK H PARENT 8 18 85 49 53 60
REMARK Flexibility Score: inf
ROOT
ATOM      1  O   UNL A   1      36.605  21.926  25.197  1.00  0.00    -0.374 OA
ENDROOT
BRANCH   1   2
ATOM      2  C   UNL A   1      36.354  20.548  25.013  1.00  0.00     0.202 C 
BRANCH   2   3
ATOM      3  C   UNL A   1      34.892  20.510  24.990  1.00  0.00     0.261 C 
BRANCH   3   4
ATOM      4  O   UNL A   1      34.475  21.795  24.593  1.00  0.00    -0.459 OA
BRANCH   4   5
ATOM      5  C   UNL A   1      33.245  22.055  25.088  1.00  0.00     0.354 C 
ATOM      6  O   UNL A   1      32.700  21.608  26.080  1.00  0.00    -0.244 OA
BRANCH   5   7
ATOM      7  C   UNL A   1      32.953  23.335  24.440  1.00  0.00     0.128 C 
ATOM      8  C   UNL A   1      32.527  24.138  25.437  1.00  0.00     0.042 C 
BRANCH   8   9
ATOM      9  C   UNL A   1      32.491  25.555  25.783  1.00  0.00    -0.023 A 
ATOM     10  C   UNL A   1      32.148  29.586  27.251  1.00  0.00     0.044 C 
ATOM     11  C   UNL A   1      32.247  28.166  26.790  1.00  0.00    -0.051 A 
ATOM     12  C   UNL A   1      33.503  27.617  26.491  1.00  0.00     0.004 A 
ATOM     13  C   UNL A   1      31.105  27.388  26.628  1.00  0.00     0.004 A 
ATOM     14  C   UNL A   1      33.626  26.319  25.994  1.00  0.00     0.008 A 
ATOM     15  C   UNL A   1      31.227  26.097  26.126  1.00  0.00     0.008 A 
ENDBRANCH   8   9
BRANCH   7  16
ATOM     16  N   UNL A   1      33.414  23.531  23.141  1.00  0.00    -0.316 N 
ATOM     17  C   UNL A   1      33.033  24.366  22.040  1.00  0.00     0.255 C 
ATOM     18  H   UNL A   1      34.187  22.959  22.928  1.00  0.00     0.170 HD
ATOM     19  O   UNL A   1      33.277  23.807  20.954  1.00  0.00    -0.269 OA
BRANCH  17  20
ATOM     20  C   UNL A   1      32.430  25.877  21.836  1.00  0.00     0.040 A 
ATOM     21  C   UNL A   1      33.672  27.038  22.256  1.00  0.00     0.014 A 
ATOM     22  C   UNL A   1      30.802  26.560  22.069  1.00  0.00     0.017 A 
ATOM     23  C   UNL A   1      33.213  28.793  23.132  1.00  0.00     0.001 A 
ATOM     24  C   UNL A   1      30.321  28.088  22.910  1.00  0.00    -0.050 A 
ATOM     25  C   UNL A   1      31.515  29.215  23.445  1.00  0.00     0.003 A 
ATOM     26  C   UNL A   1      28.856  28.349  23.128  1.00  0.00     0.044 C 
ENDBRANCH  17  20
ENDBRANCH   7  16
ENDBRANCH   5   7
ENDBRANCH   4   5
ENDBRANCH   3   4
ENDBRANCH   2   3
ENDBRANCH   1   2
BRANCH   1  27
ATOM     27  C   UNL A   1      37.947  22.270  25.423  1.00  0.00     0.202 C 
BRANCH  27  28
ATOM     28  C   UNL A   1      37.915  23.620  26.122  1.00  0.00     0.261 C 
BRANCH  28  29
ATOM     29  O   UNL A   1      38.960  23.640  27.154  1.00  0.00    -0.460 OA
BRANCH  29  30
ATOM     30  C   UNL A   1      40.005  24.523  27.001  1.00  0.00     0.338 C 
ATOM     31  O   UNL A   1      41.143  24.182  26.703  1.00  0.00    -0.246 OA
BRANCH  30  32
ATOM     32  C   UNL A   1      39.654  25.912  27.530  1.00  0.00     0.060 A 
ATOM     33  C   UNL A   1      40.079  27.082  26.887  1.00  0.00     0.016 A 
ATOM     34  C   UNL A   1      39.281  26.033  28.865  1.00  0.00     0.016 A 
ATOM     35  C   UNL A   1      40.307  28.264  27.647  1.00  0.00     0.010 A 
ATOM     36  C   UNL A   1      39.736  27.127  29.624  1.00  0.00     0.010 A 
ATOM     37  C   UNL A   1      40.356  28.251  29.062  1.00  0.00    -0.014 A 
BRANCH  37  38
ATOM     38  C   UNL A   1      40.679  29.465  30.005  1.00  0.00     0.031 A 
ATOM     39  C   UNL A   1      39.678  30.514  29.665  1.00  0.00     0.074 A 
ATOM     40  C   UNL A   1      41.742  29.791  30.880  1.00  0.00     0.049 A 
ATOM     41  N   UNL A   1      39.929  31.770  29.496  1.00  0.00    -0.248 NA
ATOM     42  C   UNL A   1      38.302  30.172  29.217  1.00  0.00     0.031 C 
ATOM     43  C   UNL A   1      42.009  30.950  31.749  1.00  0.00     0.029 A 
ATOM     44  N   UNL A   1      43.045  29.205  31.060  1.00  0.00    -0.354 N 
ATOM     45  C   UNL A   1      38.670  32.335  29.510  1.00  0.00     0.074 A 
ATOM     46  C   UNL A   1      37.821  31.371  28.906  1.00  0.00     0.031 C 
ATOM     47  C   UNL A   1      43.357  31.152  31.884  1.00  0.00     0.029 A 
ATOM     48  C   UNL A   1      44.067  30.212  30.994  1.00  0.00     0.049 A 
ATOM     49  H   UNL A   1      43.212  28.247  31.207  1.00  0.00     0.167 HD
ATOM     50  C   UNL A   1      38.417  33.251  30.486  1.00  0.00     0.037 A 
ATOM     51  C   UNL A   1      45.088  30.433  30.026  1.00  0.00     0.037 A 
ATOM     52  C   UNL A   1      39.684  33.790  30.993  1.00  0.00     0.049 A 
ATOM     53  C   UNL A   1      45.045  31.981  29.772  1.00  0.00     0.074 A 
ATOM     54  C   UNL A   1      40.321  33.763  32.219  1.00  0.00     0.029 A 
ATOM     55  N   UNL A   1      40.651  34.193  30.071  1.00  0.00    -0.354 N 
ATOM     56  N   UNL A   1      43.957  32.670  30.032  1.00  0.00    -0.248 NA
ATOM     57  C   UNL A   1      46.072  32.856  29.213  1.00  0.00     0.031 C 
ATOM     58  C   UNL A   1      41.692  34.115  32.012  1.00  0.00     0.029 A 
ATOM     59  C   UNL A   1      41.889  34.355  30.661  1.00  0.00     0.049 A 
ATOM     60  H   UNL A   1      40.471  34.344  29.115  1.00  0.00     0.167 HD
ATOM     61  C   UNL A   1      44.080  33.985  29.707  1.00  0.00     0.074 A 
ATOM     62  C   UNL A   1      45.443  34.055  29.206  1.00  0.00     0.031 C 
ATOM     63  C   UNL A   1      43.011  34.839  29.849  1.00  0.00     0.037 A 
BRANCH  50  64
ATOM     64  C   UNL A   1      37.064  33.409  31.180  1.00  0.00     0.064 A 
ATOM     65  C   UNL A   1      35.991  33.952  30.448  1.00  0.00     0.173 A 
ATOM     66  C   UNL A   1      36.752  33.150  32.543  1.00  0.00     0.173 A 
ATOM     67  F   UNL A   1      36.126  34.256  29.150  1.00  0.00    -0.203 F 
ATOM     68  C   UNL A   1      34.738  34.215  31.017  1.00  0.00     0.198 A 
ATOM     69  C   UNL A   1      35.487  33.374  33.099  1.00  0.00     0.198 A 
ATOM     70  F   UNL A   1      37.640  32.712  33.438  1.00  0.00    -0.203 F 
ATOM     71  F   UNL A   1      33.778  34.776  30.270  1.00  0.00    -0.200 F 
ATOM     72  C   UNL A   1      34.481  33.913  32.338  1.00  0.00     0.200 A 
ATOM     73  F   UNL A   1      35.270  33.077  34.390  1.00  0.00    -0.200 F 
ATOM     74  F   UNL A   1      33.278  34.146  32.876  1.00  0.00    -0.200 F 
ENDBRANCH  50  64
BRANCH  51  75
ATOM     75  C   UNL A   1      45.689  29.295  28.741  1.00  0.00     0.064 A 
ATOM     76  C   UNL A   1      44.372  28.850  27.557  1.00  0.00     0.173 A 
ATOM     77  C   UNL A   1      47.543  28.677  28.174  1.00  0.00     0.173 A 
ATOM     78  F   UNL A   1      43.128  29.324  27.685  1.00  0.00    -0.203 F 
ATOM     79  C   UNL A   1      44.819  27.957  26.056  1.00  0.00     0.198 A 
ATOM     80  C   UNL A   1      47.829  27.805  26.666  1.00  0.00     0.198 A 
ATOM     81  F   UNL A   1      48.770  28.751  28.795  1.00  0.00    -0.203 F 
ATOM     82  F   UNL A   1      43.912  27.797  25.081  1.00  0.00    -0.200 F 
ATOM     83  C   UNL A   1      46.489  27.474  25.650  1.00  0.00     0.200 A 
ATOM     84  F   UNL A   1      49.089  27.486  26.333  1.00  0.00    -0.200 F 
ATOM     85  F   UNL A   1      46.762  26.950  24.443  1.00  0.00    -0.200 F 
ENDBRANCH  51  75
BRANCH  63  86
ATOM     86  C   UNL A   1      42.864  36.241  29.283  1.00  0.00     0.064 A 
ATOM     87  C   UNL A   1      43.408  37.388  29.869  1.00  0.00     0.173 A 
ATOM     88  C   UNL A   1      42.250  36.452  28.013  1.00  0.00     0.173 A 
ATOM     89  F   UNL A   1      44.176  37.320  30.962  1.00  0.00    -0.203 F 
ATOM     90  C   UNL A   1      43.240  38.657  29.303  1.00  0.00     0.198 A 
ATOM     91  C   UNL A   1      42.167  37.703  27.410  1.00  0.00     0.198 A 
ATOM     92  F   UNL A   1      41.729  35.451  27.290  1.00  0.00    -0.203 F 
ATOM     93  F   UNL A   1      43.707  39.732  29.950  1.00  0.00    -0.200 F 
ATOM     94  C   UNL A   1      42.622  38.814  28.075  1.00  0.00     0.200 A 
ATOM     95  F   UNL A   1      41.651  37.813  26.176  1.00  0.00    -0.200 F 
ATOM     96  F   UNL A   1      42.488  40.028  27.529  1.00  0.00    -0.200 F 
ENDBRANCH  63  86
ENDBRANCH  37  38
ENDBRANCH  30  32
ENDBRANCH  29  30
ENDBRANCH  28  29
ENDBRANCH  27  28
ENDBRANCH   1  27
TORSDOF 17
ENDMDL
