MODEL 1
REMARK VINA RESULT:     -13.3      0.000      0.000
REMARK SMILES Cc1cnn(C2(C(=O)OCCOCCOC(=O)c3ccc(-c4c5nc(c(-c6c(F)c(F)c(F)c(F)c6F)c6ccc([nH]6)c(-c6c(F)c(F)c(F)c(F)c6F)c6nc(c(-c7c(F)c(F)c(F)c(F)c7F)c7ccc4[nH]7)C=C6)C=C5)cc3)CCN(C(=O)c3cc4ccccc4[nH]3)CC2)c1
REMARK SMILES IDX 13 1 12 2 11 3 10 4 9 5 7 6 8 7 6 8 81 9 96 10 82 11 95 12
REMARK SMILES IDX 83 13 84 14 85 15 5 16 1 17 2 18 3 19 97 20 4 21 86 22 87 23
REMARK SMILES IDX 94 24 88 25 93 26 89 28 92 29 90 30 91 31 14 32 15 33 16 34
REMARK SMILES IDX 17 35 18 36 19 37 80 38 20 39 79 40 21 41 22 42 23 43 73 44
REMARK SMILES IDX 24 45 78 46 72 47 74 48 25 49 77 50 71 51 70 52 26 54 58 55
REMARK SMILES IDX 38 56 57 57 39 58 42 59 56 60 75 61 40 62 41 63 55 65 76 66
REMARK SMILES IDX 43 67 27 68 28 69 36 70 29 71 30 72 34 73 37 74 31 75 32 76
REMARK SMILES IDX 35 77 33 78 59 79 60 80 68 81 61 82 62 83 66 84 69 85 63 86
REMARK SMILES IDX 64 87 67 88 65 89 44 90 45 91 53 92 46 93 47 94 51 95 54 96
REMARK SMILES IDX 48 97 49 98 52 99 50 100
REMARK H PARENT 94 27 74 53 42 64
REMARK Flexibility Score: inf
ROOT
ATOM      1  C   UNL A   1      40.911  21.188  27.109  1.00  0.00     0.202 C 
ENDROOT
BRANCH   1   2
ATOM      2  O   UNL A   1      40.254  21.880  26.049  1.00  0.00    -0.374 OA
BRANCH   2   3
ATOM      3  C   UNL A   1      39.000  22.522  26.279  1.00  0.00     0.202 C 
BRANCH   3   4
ATOM      4  C   UNL A   1      37.832  22.146  25.373  1.00  0.00     0.261 C 
BRANCH   4   5
ATOM      5  O   UNL A   1      37.222  23.322  24.817  1.00  0.00    -0.461 OA
BRANCH   5   6
ATOM      6  C   UNL A   1      36.306  23.109  23.827  1.00  0.00     0.334 C 
ATOM      7  O   UNL A   1      36.618  22.910  22.656  1.00  0.00    -0.249 OA
BRANCH   6   8
ATOM      8  C   UNL A   1      34.854  23.297  24.322  1.00  0.00     0.163 C 
ATOM      9  C   UNL A   1      34.780  23.834  25.772  1.00  0.00     0.064 C 
ATOM     10  C   UNL A   1      34.366  24.381  23.346  1.00  0.00     0.064 C 
ATOM     11  C   UNL A   1      33.451  24.484  26.137  1.00  0.00     0.123 C 
ATOM     12  C   UNL A   1      33.044  25.003  23.711  1.00  0.00     0.123 C 
ATOM     13  N   UNL A   1      32.954  25.398  25.115  1.00  0.00    -0.337 N 
ATOM     14  C   UNL A   1      32.243  26.537  25.524  1.00  0.00     0.270 C 
ATOM     15  O   UNL A   1      32.325  26.982  26.665  1.00  0.00    -0.267 OA
BRANCH   8  16
ATOM     16  N   UNL A   1      34.081  22.045  24.174  1.00  0.00    -0.255 N 
ATOM     17  C   UNL A   1      32.740  18.860  25.339  1.00  0.00     0.048 C 
ATOM     18  C   UNL A   1      33.107  20.117  24.652  1.00  0.00    -0.013 A 
ATOM     19  C   UNL A   1      32.416  20.835  23.660  1.00  0.00     0.138 A 
ATOM     20  C   UNL A   1      34.242  20.867  24.858  1.00  0.00     0.113 A 
ATOM     21  N   UNL A   1      33.054  21.952  23.303  1.00  0.00    -0.180 NA
ENDBRANCH   8  16
BRANCH  14  22
ATOM     22  C   UNL A   1      31.451  27.192  24.509  1.00  0.00     0.105 A 
ATOM     23  C   UNL A   1      31.810  28.149  23.574  1.00  0.00     0.042 A 
ATOM     24  N   UNL A   1      30.107  26.960  24.337  1.00  0.00    -0.351 N 
ATOM     25  C   UNL A   1      30.621  28.677  23.012  1.00  0.00     0.000 A 
ATOM     26  C   UNL A   1      29.565  27.910  23.502  1.00  0.00     0.046 A 
ATOM     27  H   UNL A   1      29.606  26.221  24.752  1.00  0.00     0.167 HD
ATOM     28  C   UNL A   1      30.345  29.756  22.155  1.00  0.00     0.010 A 
ATOM     29  C   UNL A   1      28.234  28.156  23.153  1.00  0.00     0.026 A 
ATOM     30  C   UNL A   1      29.017  30.031  21.815  1.00  0.00     0.001 A 
ATOM     31  C   UNL A   1      27.980  29.236  22.302  1.00  0.00     0.002 A 
ENDBRANCH  14  22
ENDBRANCH   6   8
ENDBRANCH   5   6
ENDBRANCH   4   5
ENDBRANCH   3   4
ENDBRANCH   2   3
ENDBRANCH   1   2
BRANCH   1  32
ATOM     32  C   UNL A   1      42.105  20.317  26.746  1.00  0.00     0.261 C 
BRANCH  32  33
ATOM     33  O   UNL A   1      42.557  20.594  25.428  1.00  0.00    -0.460 OA
BRANCH  33  34
ATOM     34  C   UNL A   1      43.904  20.678  25.315  1.00  0.00     0.338 C 
ATOM     35  O   UNL A   1      44.712  19.778  25.385  1.00  0.00    -0.246 OA
BRANCH  34  36
ATOM     36  C   UNL A   1      44.268  22.100  25.234  1.00  0.00     0.060 A 
ATOM     37  C   UNL A   1      45.234  22.502  26.154  1.00  0.00     0.016 A 
ATOM     38  C   UNL A   1      43.400  23.007  24.608  1.00  0.00     0.016 A 
ATOM     39  C   UNL A   1      45.089  23.742  26.716  1.00  0.00     0.010 A 
ATOM     40  C   UNL A   1      43.256  24.248  25.170  1.00  0.00     0.010 A 
ATOM     41  C   UNL A   1      44.016  24.535  26.299  1.00  0.00    -0.014 A 
BRANCH  41  42
ATOM     42  C   UNL A   1      43.739  25.730  27.056  1.00  0.00     0.031 A 
ATOM     43  C   UNL A   1      44.739  26.781  26.803  1.00  0.00     0.074 A 
ATOM     44  C   UNL A   1      42.656  25.849  27.844  1.00  0.00     0.049 A 
ATOM     45  N   UNL A   1      45.658  27.199  27.607  1.00  0.00    -0.248 NA
ATOM     46  C   UNL A   1      44.874  27.261  25.419  1.00  0.00     0.031 C 
ATOM     47  C   UNL A   1      41.503  24.957  27.979  1.00  0.00     0.029 A 
ATOM     48  N   UNL A   1      42.338  26.886  28.663  1.00  0.00    -0.354 N 
ATOM     49  C   UNL A   1      46.366  28.148  26.884  1.00  0.00     0.074 A 
ATOM     50  C   UNL A   1      45.991  27.980  25.507  1.00  0.00     0.031 C 
ATOM     51  C   UNL A   1      40.517  25.599  28.648  1.00  0.00     0.029 A 
ATOM     52  C   UNL A   1      41.018  26.885  29.099  1.00  0.00     0.049 A 
ATOM     53  H   UNL A   1      42.986  27.578  28.925  1.00  0.00     0.167 HD
ATOM     54  C   UNL A   1      46.976  29.185  27.516  1.00  0.00     0.037 A 
ATOM     55  C   UNL A   1      40.400  27.939  29.690  1.00  0.00     0.037 A 
ATOM     56  C   UNL A   1      47.187  28.893  28.912  1.00  0.00     0.049 A 
ATOM     57  C   UNL A   1      41.474  28.818  30.238  1.00  0.00     0.074 A 
ATOM     58  C   UNL A   1      47.902  27.929  29.597  1.00  0.00     0.029 A 
ATOM     59  N   UNL A   1      46.295  29.409  29.822  1.00  0.00    -0.354 N 
ATOM     60  N   UNL A   1      42.257  28.459  31.221  1.00  0.00    -0.248 NA
ATOM     61  C   UNL A   1      42.007  29.851  29.360  1.00  0.00     0.031 C 
ATOM     62  C   UNL A   1      47.083  27.583  30.713  1.00  0.00     0.029 A 
ATOM     63  C   UNL A   1      45.951  28.397  30.683  1.00  0.00     0.049 A 
ATOM     64  H   UNL A   1      45.964  30.336  29.850  1.00  0.00     0.167 HD
ATOM     65  C   UNL A   1      43.520  28.904  30.852  1.00  0.00     0.074 A 
ATOM     66  C   UNL A   1      43.295  29.796  29.717  1.00  0.00     0.031 C 
ATOM     67  C   UNL A   1      44.651  28.282  31.298  1.00  0.00     0.037 A 
BRANCH  54  68
ATOM     68  C   UNL A   1      46.998  30.584  26.960  1.00  0.00     0.064 A 
ATOM     69  C   UNL A   1      48.214  31.291  26.952  1.00  0.00     0.173 A 
ATOM     70  C   UNL A   1      45.842  31.362  26.716  1.00  0.00     0.173 A 
ATOM     71  F   UNL A   1      49.373  30.656  27.189  1.00  0.00    -0.203 F 
ATOM     72  C   UNL A   1      48.257  32.678  26.799  1.00  0.00     0.198 A 
ATOM     73  C   UNL A   1      45.895  32.735  26.506  1.00  0.00     0.198 A 
ATOM     74  F   UNL A   1      44.604  30.858  26.785  1.00  0.00    -0.203 F 
ATOM     75  F   UNL A   1      49.423  33.323  26.931  1.00  0.00    -0.200 F 
ATOM     76  C   UNL A   1      47.097  33.400  26.583  1.00  0.00     0.200 A 
ATOM     77  F   UNL A   1      44.755  33.414  26.314  1.00  0.00    -0.200 F 
ATOM     78  F   UNL A   1      47.129  34.735  26.499  1.00  0.00    -0.200 F 
ENDBRANCH  54  68
BRANCH  55  79
ATOM     79  C   UNL A   1      39.013  28.408  29.452  1.00  0.00     0.064 A 
ATOM     80  C   UNL A   1      38.119  28.634  30.510  1.00  0.00     0.173 A 
ATOM     81  C   UNL A   1      38.616  28.893  28.189  1.00  0.00     0.173 A 
ATOM     82  F   UNL A   1      38.443  28.260  31.757  1.00  0.00    -0.203 F 
ATOM     83  C   UNL A   1      36.904  29.304  30.317  1.00  0.00     0.198 A 
ATOM     84  C   UNL A   1      37.404  29.557  27.994  1.00  0.00     0.198 A 
ATOM     85  F   UNL A   1      39.439  28.816  27.133  1.00  0.00    -0.203 F 
ATOM     86  F   UNL A   1      36.096  29.543  31.359  1.00  0.00    -0.200 F 
ATOM     87  C   UNL A   1      36.551  29.770  29.060  1.00  0.00     0.200 A 
ATOM     88  F   UNL A   1      37.096  30.038  26.782  1.00  0.00    -0.200 F 
ATOM     89  F   UNL A   1      35.412  30.455  28.883  1.00  0.00    -0.200 F 
ENDBRANCH  55  79
BRANCH  67  90
ATOM     90  C   UNL A   1      44.498  27.218  32.352  1.00  0.00     0.064 A 
ATOM     91  C   UNL A   1      44.333  25.853  32.062  1.00  0.00     0.173 A 
ATOM     92  C   UNL A   1      44.703  27.571  33.691  1.00  0.00     0.173 A 
ATOM     93  F   UNL A   1      44.232  25.426  30.797  1.00  0.00    -0.203 F 
ATOM     94  C   UNL A   1      44.339  24.890  33.071  1.00  0.00     0.198 A 
ATOM     95  C   UNL A   1      44.744  26.605  34.694  1.00  0.00     0.198 A 
ATOM     96  F   UNL A   1      44.926  28.852  34.021  1.00  0.00    -0.203 F 
ATOM     97  F   UNL A   1      44.181  23.593  32.767  1.00  0.00    -0.200 F 
ATOM     98  C   UNL A   1      44.555  25.267  34.386  1.00  0.00     0.200 A 
ATOM     99  F   UNL A   1      45.003  26.969  35.957  1.00  0.00    -0.200 F 
ATOM    100  F   UNL A   1      44.611  24.339  35.352  1.00  0.00    -0.200 F 
ENDBRANCH  67  90
ENDBRANCH  41  42
ENDBRANCH  34  36
ENDBRANCH  33  34
ENDBRANCH  32  33
ENDBRANCH   1  32
TORSDOF 16
ENDMDL
MODEL 2
REMARK VINA RESULT:     -12.9      3.779      9.737
REMARK SMILES Cc1cnn(C2(C(=O)OCCOCCOC(=O)c3ccc(-c4c5nc(c(-c6c(F)c(F)c(F)c(F)c6F)c6ccc([nH]6)c(-c6c(F)c(F)c(F)c(F)c6F)c6nc(c(-c7c(F)c(F)c(F)c(F)c7F)c7ccc4[nH]7)C=C6)C=C5)cc3)CCN(C(=O)c3cc4ccccc4[nH]3)CC2)c1
REMARK SMILES IDX 13 1 12 2 11 3 10 4 9 5 7 6 8 7 6 8 81 9 96 10 82 11 95 12
REMARK SMILES IDX 83 13 84 14 85 15 5 16 1 17 2 18 3 19 97 20 4 21 86 22 87 23
REMARK SMILES IDX 94 24 88 25 93 26 89 28 92 29 90 30 91 31 14 32 15 33 16 34
REMARK SMILES IDX 17 35 18 36 19 37 80 38 20 39 79 40 21 41 22 42 23 43 73 44
REMARK SMILES IDX 24 45 78 46 72 47 74 48 25 49 77 50 71 51 70 52 26 54 58 55
REMARK SMILES IDX 38 56 57 57 39 58 42 59 56 60 75 61 40 62 41 63 55 65 76 66
REMARK SMILES IDX 43 67 27 68 28 69 36 70 29 71 30 72 34 73 37 74 31 75 32 76
REMARK SMILES IDX 35 77 33 78 59 79 60 80 68 81 61 82 62 83 66 84 69 85 63 86
REMARK SMILES IDX 64 87 67 88 65 89 44 90 45 91 53 92 46 93 47 94 51 95 54 96
REMARK SMILES IDX 48 97 49 98 52 99 50 100
REMARK H PARENT 94 27 74 53 42 64
REMARK Flexibility Score: inf
ROOT
ATOM      1  C   UNL A   1      34.137  33.632  28.093  1.00  0.00     0.202 C 
ENDROOT
BRANCH   1   2
ATOM      2  O   UNL A   1      33.974  32.294  28.558  1.00  0.00    -0.374 OA
BRANCH   2   3
ATOM      3  C   UNL A   1      34.163  31.196  27.665  1.00  0.00     0.202 C 
BRANCH   3   4
ATOM      4  C   UNL A   1      32.931  30.398  27.249  1.00  0.00     0.261 C 
BRANCH   4   5
ATOM      5  O   UNL A   1      33.185  28.987  27.343  1.00  0.00    -0.461 OA
BRANCH   5   6
ATOM      6  C   UNL A   1      32.107  28.172  27.149  1.00  0.00     0.334 C 
ATOM      7  O   UNL A   1      31.221  28.019  27.985  1.00  0.00    -0.249 OA
BRANCH   6   8
ATOM      8  C   UNL A   1      32.213  27.363  25.835  1.00  0.00     0.163 C 
ATOM      9  C   UNL A   1      33.625  27.431  25.204  1.00  0.00     0.064 C 
ATOM     10  C   UNL A   1      31.952  25.942  26.361  1.00  0.00     0.064 C 
ATOM     11  C   UNL A   1      33.930  26.308  24.219  1.00  0.00     0.123 C 
ATOM     12  C   UNL A   1      32.241  24.845  25.372  1.00  0.00     0.123 C 
ATOM     13  N   UNL A   1      33.532  24.990  24.702  1.00  0.00    -0.337 N 
ATOM     14  C   UNL A   1      34.315  23.882  24.345  1.00  0.00     0.270 C 
ATOM     15  O   UNL A   1      35.476  23.999  23.964  1.00  0.00    -0.267 OA
BRANCH   8  16
ATOM     16  N   UNL A   1      31.175  27.786  24.872  1.00  0.00    -0.255 N 
ATOM     17  C   UNL A   1      29.916  29.701  22.035  1.00  0.00     0.048 C 
ATOM     18  C   UNL A   1      30.187  28.780  23.159  1.00  0.00    -0.013 A 
ATOM     19  C   UNL A   1      29.611  27.533  23.460  1.00  0.00     0.138 A 
ATOM     20  C   UNL A   1      31.100  28.965  24.172  1.00  0.00     0.113 A 
ATOM     21  N   UNL A   1      30.143  26.977  24.552  1.00  0.00    -0.180 NA
ENDBRANCH   8  16
BRANCH  14  22
ATOM     22  C   UNL A   1      33.695  22.587  24.504  1.00  0.00     0.105 A 
ATOM     23  C   UNL A   1      33.672  21.736  25.597  1.00  0.00     0.042 A 
ATOM     24  N   UNL A   1      33.012  21.950  23.496  1.00  0.00    -0.351 N 
ATOM     25  C   UNL A   1      33.193  20.476  25.158  1.00  0.00     0.000 A 
ATOM     26  C   UNL A   1      32.778  20.637  23.837  1.00  0.00     0.046 A 
ATOM     27  H   UNL A   1      32.731  22.373  22.652  1.00  0.00     0.167 HD
ATOM     28  C   UNL A   1      33.101  19.207  25.756  1.00  0.00     0.010 A 
ATOM     29  C   UNL A   1      32.247  19.587  23.083  1.00  0.00     0.026 A 
ATOM     30  C   UNL A   1      32.595  18.140  25.009  1.00  0.00     0.001 A 
ATOM     31  C   UNL A   1      32.168  18.332  23.695  1.00  0.00     0.002 A 
ENDBRANCH  14  22
ENDBRANCH   6   8
ENDBRANCH   5   6
ENDBRANCH   4   5
ENDBRANCH   3   4
ENDBRANCH   2   3
ENDBRANCH   1   2
BRANCH   1  32
ATOM     32  C   UNL A   1      34.105  34.745  29.130  1.00  0.00     0.261 C 
BRANCH  32  33
ATOM     33  O   UNL A   1      33.288  34.388  30.237  1.00  0.00    -0.460 OA
BRANCH  33  34
ATOM     34  C   UNL A   1      33.565  35.077  31.369  1.00  0.00     0.338 C 
ATOM     35  O   UNL A   1      33.204  36.196  31.664  1.00  0.00    -0.246 OA
BRANCH  34  36
ATOM     36  C   UNL A   1      34.525  34.292  32.158  1.00  0.00     0.060 A 
ATOM     37  C   UNL A   1      35.698  34.971  32.483  1.00  0.00     0.016 A 
ATOM     38  C   UNL A   1      34.436  32.892  32.172  1.00  0.00     0.016 A 
ATOM     39  C   UNL A   1      36.865  34.254  32.460  1.00  0.00     0.010 A 
ATOM     40  C   UNL A   1      35.604  32.176  32.151  1.00  0.00     0.010 A 
ATOM     41  C   UNL A   1      36.798  32.890  32.162  1.00  0.00    -0.014 A 
BRANCH  41  42
ATOM     42  C   UNL A   1      38.039  32.202  31.914  1.00  0.00     0.031 A 
ATOM     43  C   UNL A   1      38.852  32.083  33.137  1.00  0.00     0.074 A 
ATOM     44  C   UNL A   1      38.354  31.694  30.710  1.00  0.00     0.049 A 
ATOM     45  N   UNL A   1      39.943  32.712  33.416  1.00  0.00    -0.248 NA
ATOM     46  C   UNL A   1      38.260  31.353  34.269  1.00  0.00     0.031 C 
ATOM     47  C   UNL A   1      37.523  31.564  29.511  1.00  0.00     0.029 A 
ATOM     48  N   UNL A   1      39.520  31.105  30.338  1.00  0.00    -0.354 N 
ATOM     49  C   UNL A   1      40.283  32.295  34.695  1.00  0.00     0.074 A 
ATOM     50  C   UNL A   1      39.118  31.654  35.242  1.00  0.00     0.031 C 
ATOM     51  C   UNL A   1      38.134  30.735  28.632  1.00  0.00     0.029 A 
ATOM     52  C   UNL A   1      39.446  30.391  29.148  1.00  0.00     0.049 A 
ATOM     53  H   UNL A   1      40.347  31.176  30.868  1.00  0.00     0.167 HD
ATOM     54  C   UNL A   1      41.583  32.252  35.086  1.00  0.00     0.037 A 
ATOM     55  C   UNL A   1      40.383  29.508  28.718  1.00  0.00     0.037 A 
ATOM     56  C   UNL A   1      42.406  33.092  34.253  1.00  0.00     0.049 A 
ATOM     57  C   UNL A   1      41.652  29.844  29.428  1.00  0.00     0.074 A 
ATOM     58  C   UNL A   1      42.434  34.447  33.980  1.00  0.00     0.029 A 
ATOM     59  N   UNL A   1      43.124  32.497  33.244  1.00  0.00    -0.354 N 
ATOM     60  N   UNL A   1      42.308  30.956  29.228  1.00  0.00    -0.248 NA
ATOM     61  C   UNL A   1      41.891  29.200  30.714  1.00  0.00     0.031 C 
ATOM     62  C   UNL A   1      42.737  34.539  32.589  1.00  0.00     0.029 A 
ATOM     63  C   UNL A   1      42.941  33.246  32.109  1.00  0.00     0.049 A 
ATOM     64  H   UNL A   1      43.671  31.681  33.322  1.00  0.00     0.167 HD
ATOM     65  C   UNL A   1      42.710  31.367  30.493  1.00  0.00     0.074 A 
ATOM     66  C   UNL A   1      42.464  30.219  31.364  1.00  0.00     0.031 C 
ATOM     67  C   UNL A   1      42.919  32.686  30.779  1.00  0.00     0.037 A 
BRANCH  54  68
ATOM     68  C   UNL A   1      42.144  31.148  35.943  1.00  0.00     0.064 A 
ATOM     69  C   UNL A   1      42.977  31.486  37.025  1.00  0.00     0.173 A 
ATOM     70  C   UNL A   1      42.148  29.781  35.577  1.00  0.00     0.173 A 
ATOM     71  F   UNL A   1      43.064  32.757  37.446  1.00  0.00    -0.203 F 
ATOM     72  C   UNL A   1      43.811  30.546  37.633  1.00  0.00     0.198 A 
ATOM     73  C   UNL A   1      42.937  28.836  36.224  1.00  0.00     0.198 A 
ATOM     74  F   UNL A   1      41.486  29.316  34.512  1.00  0.00    -0.203 F 
ATOM     75  F   UNL A   1      44.682  30.941  38.570  1.00  0.00    -0.200 F 
ATOM     76  C   UNL A   1      43.795  29.223  37.228  1.00  0.00     0.200 A 
ATOM     77  F   UNL A   1      42.916  27.564  35.802  1.00  0.00    -0.200 F 
ATOM     78  F   UNL A   1      44.639  28.335  37.766  1.00  0.00    -0.200 F 
ENDBRANCH  54  68
BRANCH  55  79
ATOM     79  C   UNL A   1      40.142  28.196  28.070  1.00  0.00     0.064 A 
ATOM     80  C   UNL A   1      40.753  27.850  26.855  1.00  0.00     0.173 A 
ATOM     81  C   UNL A   1      39.503  27.148  28.765  1.00  0.00     0.173 A 
ATOM     82  F   UNL A   1      41.435  28.771  26.158  1.00  0.00    -0.203 F 
ATOM     83  C   UNL A   1      40.727  26.537  26.365  1.00  0.00     0.198 A 
ATOM     84  C   UNL A   1      39.474  25.841  28.276  1.00  0.00     0.198 A 
ATOM     85  F   UNL A   1      38.974  27.350  29.980  1.00  0.00    -0.203 F 
ATOM     86  F   UNL A   1      41.362  26.234  25.224  1.00  0.00    -0.200 F 
ATOM     87  C   UNL A   1      40.093  25.533  27.080  1.00  0.00     0.200 A 
ATOM     88  F   UNL A   1      38.892  24.874  28.999  1.00  0.00    -0.200 F 
ATOM     89  F   UNL A   1      40.110  24.267  26.638  1.00  0.00    -0.200 F 
ENDBRANCH  55  79
BRANCH  67  90
ATOM     90  C   UNL A   1      42.888  33.665  29.637  1.00  0.00     0.064 A 
ATOM     91  C   UNL A   1      41.744  34.395  29.268  1.00  0.00     0.173 A 
ATOM     92  C   UNL A   1      44.095  34.005  29.015  1.00  0.00     0.173 A 
ATOM     93  F   UNL A   1      40.574  34.198  29.889  1.00  0.00    -0.203 F 
ATOM     94  C   UNL A   1      41.802  35.394  28.297  1.00  0.00     0.198 A 
ATOM     95  C   UNL A   1      44.158  35.026  28.070  1.00  0.00     0.198 A 
ATOM     96  F   UNL A   1      45.230  33.384  29.369  1.00  0.00    -0.203 F 
ATOM     97  F   UNL A   1      40.695  36.076  27.964  1.00  0.00    -0.200 F 
ATOM     98  C   UNL A   1      43.012  35.715  27.705  1.00  0.00     0.200 A 
ATOM     99  F   UNL A   1      45.340  35.368  27.539  1.00  0.00    -0.200 F 
ATOM    100  F   UNL A   1      43.081  36.708  26.808  1.00  0.00    -0.200 F 
ENDBRANCH  67  90
ENDBRANCH  41  42
ENDBRANCH  34  36
ENDBRANCH  33  34
ENDBRANCH  32  33
ENDBRANCH   1  32
TORSDOF 16
ENDMDL
MODEL 3
REMARK VINA RESULT:     -12.6      2.190      3.098
REMARK SMILES Cc1cnn(C2(C(=O)OCCOCCOC(=O)c3ccc(-c4c5nc(c(-c6c(F)c(F)c(F)c(F)c6F)c6ccc([nH]6)c(-c6c(F)c(F)c(F)c(F)c6F)c6nc(c(-c7c(F)c(F)c(F)c(F)c7F)c7ccc4[nH]7)C=C6)C=C5)cc3)CCN(C(=O)c3cc4ccccc4[nH]3)CC2)c1
REMARK SMILES IDX 13 1 12 2 11 3 10 4 9 5 7 6 8 7 6 8 81 9 96 10 82 11 95 12
REMARK SMILES IDX 83 13 84 14 85 15 5 16 1 17 2 18 3 19 97 20 4 21 86 22 87 23
REMARK SMILES IDX 94 24 88 25 93 26 89 28 92 29 90 30 91 31 14 32 15 33 16 34
REMARK SMILES IDX 17 35 18 36 19 37 80 38 20 39 79 40 21 41 22 42 23 43 73 44
REMARK SMILES IDX 24 45 78 46 72 47 74 48 25 49 77 50 71 51 70 52 26 54 58 55
REMARK SMILES IDX 38 56 57 57 39 58 42 59 56 60 75 61 40 62 41 63 55 65 76 66
REMARK SMILES IDX 43 67 27 68 28 69 36 70 29 71 30 72 34 73 37 74 31 75 32 76
REMARK SMILES IDX 35 77 33 78 59 79 60 80 68 81 61 82 62 83 66 84 69 85 63 86
REMARK SMILES IDX 64 87 67 88 65 89 44 90 45 91 53 92 46 93 47 94 51 95 54 96
REMARK SMILES IDX 48 97 49 98 52 99 50 100
REMARK H PARENT 94 27 74 53 42 64
REMARK Flexibility Score: inf
ROOT
ATOM      1  C   UNL A   1      41.048  20.953  26.396  1.00  0.00     0.202 C 
ENDROOT
BRANCH   1   2
ATOM      2  O   UNL A   1      39.943  21.584  25.752  1.00  0.00    -0.374 OA
BRANCH   2   3
ATOM      3  C   UNL A   1      39.018  22.362  26.510  1.00  0.00     0.202 C 
BRANCH   3   4
ATOM      4  C   UNL A   1      38.084  23.298  25.749  1.00  0.00     0.261 C 
BRANCH   4   5
ATOM      5  O   UNL A   1      36.718  22.871  25.885  1.00  0.00    -0.461 OA
BRANCH   5   6
ATOM      6  C   UNL A   1      36.058  22.600  24.721  1.00  0.00     0.334 C 
ATOM      7  O   UNL A   1      36.633  22.389  23.657  1.00  0.00    -0.249 OA
BRANCH   6   8
ATOM      8  C   UNL A   1      34.526  22.740  24.870  1.00  0.00     0.163 C 
ATOM      9  C   UNL A   1      34.092  23.057  26.322  1.00  0.00     0.064 C 
ATOM     10  C   UNL A   1      34.271  23.966  23.977  1.00  0.00     0.064 C 
ATOM     11  C   UNL A   1      32.703  23.671  26.445  1.00  0.00     0.123 C 
ATOM     12  C   UNL A   1      32.888  24.552  24.097  1.00  0.00     0.123 C 
ATOM     13  N   UNL A   1      32.453  24.736  25.479  1.00  0.00    -0.337 N 
ATOM     14  C   UNL A   1      31.644  25.815  25.868  1.00  0.00     0.270 C 
ATOM     15  O   UNL A   1      31.438  26.084  27.048  1.00  0.00    -0.267 OA
BRANCH   8  16
ATOM     16  N   UNL A   1      33.835  21.539  24.355  1.00  0.00    -0.255 N 
ATOM     17  C   UNL A   1      32.524  18.145  24.611  1.00  0.00     0.048 C 
ATOM     18  C   UNL A   1      32.906  19.532  24.270  1.00  0.00    -0.013 A 
ATOM     19  C   UNL A   1      32.297  20.443  23.387  1.00  0.00     0.138 A 
ATOM     20  C   UNL A   1      33.974  20.239  24.773  1.00  0.00     0.113 A 
ATOM     21  N   UNL A   1      32.918  21.625  23.368  1.00  0.00    -0.180 NA
ENDBRANCH   8  16
BRANCH  14  22
ATOM     22  C   UNL A   1      31.111  26.627  24.799  1.00  0.00     0.105 A 
ATOM     23  C   UNL A   1      31.746  27.526  23.957  1.00  0.00     0.042 A 
ATOM     24  N   UNL A   1      29.778  26.648  24.463  1.00  0.00    -0.351 N 
ATOM     25  C   UNL A   1      30.747  28.275  23.286  1.00  0.00     0.000 A 
ATOM     26  C   UNL A   1      29.520  27.702  23.615  1.00  0.00     0.046 A 
ATOM     27  H   UNL A   1      29.107  26.004  24.782  1.00  0.00     0.167 HD
ATOM     28  C   UNL A   1      30.774  29.407  22.454  1.00  0.00     0.010 A 
ATOM     29  C   UNL A   1      28.306  28.194  23.126  1.00  0.00     0.026 A 
ATOM     30  C   UNL A   1      29.568  29.927  21.975  1.00  0.00     0.001 A 
ATOM     31  C   UNL A   1      28.355  29.323  22.302  1.00  0.00     0.002 A 
ENDBRANCH  14  22
ENDBRANCH   6   8
ENDBRANCH   5   6
ENDBRANCH   4   5
ENDBRANCH   3   4
ENDBRANCH   2   3
ENDBRANCH   1   2
BRANCH   1  32
ATOM     32  C   UNL A   1      42.443  21.453  26.051  1.00  0.00     0.261 C 
BRANCH  32  33
ATOM     33  O   UNL A   1      42.382  22.602  25.217  1.00  0.00    -0.460 OA
BRANCH  33  34
ATOM     34  C   UNL A   1      43.007  23.688  25.730  1.00  0.00     0.338 C 
ATOM     35  O   UNL A   1      44.160  24.025  25.568  1.00  0.00    -0.246 OA
BRANCH  34  36
ATOM     36  C   UNL A   1      42.084  24.347  26.664  1.00  0.00     0.060 A 
ATOM     37  C   UNL A   1      41.208  25.252  26.068  1.00  0.00     0.016 A 
ATOM     38  C   UNL A   1      42.384  24.380  28.034  1.00  0.00     0.016 A 
ATOM     39  C   UNL A   1      40.924  26.400  26.759  1.00  0.00     0.010 A 
ATOM     40  C   UNL A   1      42.098  25.527  28.725  1.00  0.00     0.010 A 
ATOM     41  C   UNL A   1      41.490  26.565  28.027  1.00  0.00    -0.014 A 
BRANCH  41  42
ATOM     42  C   UNL A   1      41.375  27.863  28.642  1.00  0.00     0.031 A 
ATOM     43  C   UNL A   1      42.512  28.733  28.298  1.00  0.00     0.074 A 
ATOM     44  C   UNL A   1      40.313  28.216  29.387  1.00  0.00     0.049 A 
ATOM     45  N   UNL A   1      43.474  29.109  29.072  1.00  0.00    -0.248 NA
ATOM     46  C   UNL A   1      42.723  29.032  26.873  1.00  0.00     0.031 C 
ATOM     47  C   UNL A   1      39.047  27.510  29.592  1.00  0.00     0.029 A 
ATOM     48  N   UNL A   1      40.134  29.371  30.080  1.00  0.00    -0.354 N 
ATOM     49  C   UNL A   1      44.311  29.866  28.266  1.00  0.00     0.074 A 
ATOM     50  C   UNL A   1      43.928  29.598  26.907  1.00  0.00     0.031 C 
ATOM     51  C   UNL A   1      38.153  28.352  30.164  1.00  0.00     0.029 A 
ATOM     52  C   UNL A   1      38.824  29.599  30.483  1.00  0.00     0.049 A 
ATOM     53  H   UNL A   1      40.870  29.994  30.279  1.00  0.00     0.167 HD
ATOM     54  C   UNL A   1      45.054  30.874  28.795  1.00  0.00     0.037 A 
ATOM     55  C   UNL A   1      38.353  30.787  30.941  1.00  0.00     0.037 A 
ATOM     56  C   UNL A   1      45.212  30.714  30.219  1.00  0.00     0.049 A 
ATOM     57  C   UNL A   1      39.534  31.567  31.413  1.00  0.00     0.074 A 
ATOM     58  C   UNL A   1      45.782  29.744  31.021  1.00  0.00     0.029 A 
ATOM     59  N   UNL A   1      44.393  31.445  31.045  1.00  0.00    -0.354 N 
ATOM     60  N   UNL A   1      40.252  31.217  32.447  1.00  0.00    -0.248 NA
ATOM     61  C   UNL A   1      40.211  32.414  30.439  1.00  0.00     0.031 C 
ATOM     62  C   UNL A   1      44.915  29.639  32.149  1.00  0.00     0.029 A 
ATOM     63  C   UNL A   1      43.907  30.592  32.004  1.00  0.00     0.049 A 
ATOM     64  H   UNL A   1      44.193  32.406  30.964  1.00  0.00     0.167 HD
ATOM     65  C   UNL A   1      41.568  31.442  32.061  1.00  0.00     0.074 A 
ATOM     66  C   UNL A   1      41.477  32.224  30.830  1.00  0.00     0.031 C 
ATOM     67  C   UNL A   1      42.598  30.725  32.599  1.00  0.00     0.037 A 
BRANCH  54  68
ATOM     68  C   UNL A   1      45.273  32.186  28.089  1.00  0.00     0.064 A 
ATOM     69  C   UNL A   1      44.165  33.017  27.844  1.00  0.00     0.173 A 
ATOM     70  C   UNL A   1      46.453  32.524  27.385  1.00  0.00     0.173 A 
ATOM     71  F   UNL A   1      42.989  32.780  28.446  1.00  0.00    -0.203 F 
ATOM     72  C   UNL A   1      44.213  34.049  26.905  1.00  0.00     0.198 A 
ATOM     73  C   UNL A   1      46.513  33.589  26.493  1.00  0.00     0.198 A 
ATOM     74  F   UNL A   1      47.563  31.778  27.434  1.00  0.00    -0.203 F 
ATOM     75  F   UNL A   1      43.097  34.727  26.609  1.00  0.00    -0.200 F 
ATOM     76  C   UNL A   1      45.385  34.329  26.225  1.00  0.00     0.200 A 
ATOM     77  F   UNL A   1      47.656  33.830  25.835  1.00  0.00    -0.200 F 
ATOM     78  F   UNL A   1      45.415  35.275  25.279  1.00  0.00    -0.200 F 
ENDBRANCH  54  68
BRANCH  55  79
ATOM     79  C   UNL A   1      37.045  31.412  30.621  1.00  0.00     0.064 A 
ATOM     80  C   UNL A   1      36.093  31.680  31.616  1.00  0.00     0.173 A 
ATOM     81  C   UNL A   1      36.808  31.996  29.360  1.00  0.00     0.173 A 
ATOM     82  F   UNL A   1      36.272  31.214  32.862  1.00  0.00    -0.203 F 
ATOM     83  C   UNL A   1      34.973  32.483  31.366  1.00  0.00     0.198 A 
ATOM     84  C   UNL A   1      35.690  32.793  29.108  1.00  0.00     0.198 A 
ATOM     85  F   UNL A   1      37.704  31.883  28.369  1.00  0.00    -0.203 F 
ATOM     86  F   UNL A   1      34.109  32.757  32.353  1.00  0.00    -0.200 F 
ATOM     87  C   UNL A   1      34.777  33.045  30.114  1.00  0.00     0.200 A 
ATOM     88  F   UNL A   1      35.537  33.362  27.905  1.00  0.00    -0.200 F 
ATOM     89  F   UNL A   1      33.732  33.854  29.886  1.00  0.00    -0.200 F 
ENDBRANCH  55  79
BRANCH  67  90
ATOM     90  C   UNL A   1      42.292  29.817  33.759  1.00  0.00     0.064 A 
ATOM     91  C   UNL A   1      41.855  28.488  33.613  1.00  0.00     0.173 A 
ATOM     92  C   UNL A   1      42.621  30.248  35.049  1.00  0.00     0.173 A 
ATOM     93  F   UNL A   1      41.617  27.972  32.402  1.00  0.00    -0.203 F 
ATOM     94  C   UNL A   1      41.722  27.643  34.715  1.00  0.00     0.198 A 
ATOM     95  C   UNL A   1      42.521  29.392  36.144  1.00  0.00     0.198 A 
ATOM     96  F   UNL A   1      43.101  31.485  35.241  1.00  0.00    -0.203 F 
ATOM     97  F   UNL A   1      41.304  26.379  34.548  1.00  0.00    -0.200 F 
ATOM     98  C   UNL A   1      42.065  28.093  35.979  1.00  0.00     0.200 A 
ATOM     99  F   UNL A   1      42.903  29.816  37.356  1.00  0.00    -0.200 F 
ATOM    100  F   UNL A   1      41.986  27.269  37.033  1.00  0.00    -0.200 F 
ENDBRANCH  67  90
ENDBRANCH  41  42
ENDBRANCH  34  36
ENDBRANCH  33  34
ENDBRANCH  32  33
ENDBRANCH   1  32
TORSDOF 16
ENDMDL
