MODEL 1
REMARK VINA RESULT:     -11.2      0.000      0.000
REMARK SMILES CC(C)(C)OC(=O)N[C@@H](Cc1c[nH]c2cccc(Cl)c12)C(=O)OCCOCCOC(=O)c1ccc(-c2c3nc(c(-c4c(F)c(F)c(F)c(F)c4F)c4ccc([nH]4)c(-c4c(F)c(F)c(F)c(F)c4F)c4nc(c(-c5c(F)c(F)c(F)c(F)c5F)c5ccc2[nH]5)C=C4)C=C3)cc1
REMARK SMILES IDX 25 1 24 2 23 3 21 4 22 5 9 6 8 7 6 8 7 9 5 11 2 12 1 13 3 14
REMARK SMILES IDX 4 15 10 16 11 17 12 18 20 19 13 20 14 21 18 22 15 24 17 25
REMARK SMILES IDX 19 26 16 27 26 28 27 29 28 30 29 31 30 32 31 33 32 34 33 35
REMARK SMILES IDX 94 36 34 37 93 38 35 39 36 40 37 41 87 42 38 43 92 44 86 45
REMARK SMILES IDX 88 46 39 47 91 48 85 49 84 50 40 52 72 53 52 54 71 55 53 56
REMARK SMILES IDX 56 57 70 58 89 59 54 60 55 61 69 63 90 64 57 65 41 66 42 67
REMARK SMILES IDX 50 68 43 69 44 70 48 71 51 72 45 73 46 74 49 75 47 76 73 77
REMARK SMILES IDX 74 78 82 79 75 80 76 81 80 82 83 83 77 84 78 85 81 86 79 87
REMARK SMILES IDX 58 88 59 89 67 90 60 91 61 92 65 93 68 94 62 95 63 96 66 97
REMARK SMILES IDX 64 98
REMARK H PARENT 8 10 13 23 88 51 56 62
REMARK Flexibility Score: inf
ROOT
ATOM      1  C   UNL A   1      39.229  22.212  26.127  1.00  0.00     0.202 C 
ENDROOT
BRANCH   1   2
ATOM      2  C   UNL A   1      37.802  22.101  25.594  1.00  0.00     0.261 C 
BRANCH   2   3
ATOM      3  O   UNL A   1      37.241  23.369  25.237  1.00  0.00    -0.462 OA
BRANCH   3   4
ATOM      4  C   UNL A   1      36.243  23.314  24.307  1.00  0.00     0.329 C 
ATOM      5  O   UNL A   1      36.413  23.088  23.113  1.00  0.00    -0.250 OA
BRANCH   4   6
ATOM      6  C   UNL A   1      34.873  23.665  24.896  1.00  0.00     0.200 C 
BRANCH   6   7
ATOM      7  N   UNL A   1      34.593  23.052  26.199  1.00  0.00    -0.308 N 
ATOM      8  C   UNL A   1      33.422  22.534  26.657  1.00  0.00     0.408 C 
ATOM      9  O   UNL A   1      33.321  22.163  27.823  1.00  0.00    -0.225 OA
ATOM     10  H   UNL A   1      35.353  23.009  26.824  1.00  0.00     0.168 HD
BRANCH   8  11
ATOM     11  O   UNL A   1      32.450  22.455  25.718  1.00  0.00    -0.444 OA
BRANCH  11  12
ATOM     12  C   UNL A   1      31.279  23.322  25.780  1.00  0.00     0.106 C 
ATOM     13  C   UNL A   1      30.187  22.484  26.464  1.00  0.00     0.056 C 
ATOM     14  C   UNL A   1      30.803  23.685  24.369  1.00  0.00     0.056 C 
ATOM     15  C   UNL A   1      31.508  24.577  26.634  1.00  0.00     0.056 C 
ENDBRANCH  11  12
ENDBRANCH   8  11
ENDBRANCH   6   7
BRANCH   6  16
ATOM     16  C   UNL A   1      34.812  25.205  24.958  1.00  0.00     0.075 C 
BRANCH  16  17
ATOM     17  C   UNL A   1      33.807  25.795  23.999  1.00  0.00    -0.018 A 
ATOM     18  C   UNL A   1      33.579  25.316  22.720  1.00  0.00     0.087 A 
ATOM     19  C   UNL A   1      32.952  26.945  24.175  1.00  0.00     0.021 A 
ATOM     20  N   UNL A   1      32.679  26.134  22.101  1.00  0.00    -0.361 N 
ATOM     21  C   UNL A   1      32.283  27.132  22.956  1.00  0.00     0.047 A 
ATOM     22  C   UNL A   1      32.657  27.876  25.200  1.00  0.00     0.050 A 
ATOM     23  H   UNL A   1      32.361  26.023  21.175  1.00  0.00     0.166 HD
ATOM     24  C   UNL A   1      31.376  28.180  22.729  1.00  0.00     0.027 A 
ATOM     25  C   UNL A   1      31.759  28.927  25.000  1.00  0.00     0.021 A 
ATOM     26  Cl  UNL A   1      33.408  27.685  26.723  1.00  0.00    -0.084 Cl
ATOM     27  C   UNL A   1      31.127  29.074  23.772  1.00  0.00     0.004 A 
ENDBRANCH  16  17
ENDBRANCH   6  16
ENDBRANCH   4   6
ENDBRANCH   3   4
ENDBRANCH   2   3
ENDBRANCH   1   2
BRANCH   1  28
ATOM     28  O   UNL A   1      39.692  21.278  27.099  1.00  0.00    -0.374 OA
BRANCH  28  29
ATOM     29  C   UNL A   1      41.062  20.892  27.171  1.00  0.00     0.202 C 
BRANCH  29  30
ATOM     30  C   UNL A   1      41.902  20.856  25.898  1.00  0.00     0.261 C 
BRANCH  30  31
ATOM     31  O   UNL A   1      43.289  20.778  26.182  1.00  0.00    -0.460 OA
BRANCH  31  32
ATOM     32  C   UNL A   1      44.039  20.698  25.062  1.00  0.00     0.338 C 
ATOM     33  O   UNL A   1      44.166  19.736  24.321  1.00  0.00    -0.246 OA
BRANCH  32  34
ATOM     34  C   UNL A   1      44.785  21.954  24.879  1.00  0.00     0.060 A 
ATOM     35  C   UNL A   1      45.701  22.196  25.907  1.00  0.00     0.016 A 
ATOM     36  C   UNL A   1      44.060  22.974  24.261  1.00  0.00     0.016 A 
ATOM     37  C   UNL A   1      45.552  23.363  26.614  1.00  0.00     0.010 A 
ATOM     38  C   UNL A   1      43.877  24.116  24.992  1.00  0.00     0.010 A 
ATOM     39  C   UNL A   1      44.543  24.239  26.213  1.00  0.00    -0.014 A 
BRANCH  39  40
ATOM     40  C   UNL A   1      44.240  25.367  27.060  1.00  0.00     0.031 A 
ATOM     41  C   UNL A   1      45.255  26.429  26.929  1.00  0.00     0.074 A 
ATOM     42  C   UNL A   1      43.102  25.457  27.772  1.00  0.00     0.049 A 
ATOM     43  N   UNL A   1      46.174  26.750  27.776  1.00  0.00    -0.248 NA
ATOM     44  C   UNL A   1      45.416  27.043  25.599  1.00  0.00     0.031 C 
ATOM     45  C   UNL A   1      41.925  24.587  27.752  1.00  0.00     0.029 A 
ATOM     46  N   UNL A   1      42.735  26.448  28.627  1.00  0.00    -0.354 N 
ATOM     47  C   UNL A   1      46.904  27.746  27.144  1.00  0.00     0.074 A 
ATOM     48  C   UNL A   1      46.574  27.680  25.747  1.00  0.00     0.031 C 
ATOM     49  C   UNL A   1      40.899  25.209  28.383  1.00  0.00     0.029 A 
ATOM     50  C   UNL A   1      41.382  26.457  28.951  1.00  0.00     0.049 A 
ATOM     51  H   UNL A   1      43.374  27.105  28.987  1.00  0.00     0.167 HD
ATOM     52  C   UNL A   1      47.478  28.758  27.844  1.00  0.00     0.037 A 
ATOM     53  C   UNL A   1      40.743  27.498  29.546  1.00  0.00     0.037 A 
ATOM     54  C   UNL A   1      47.593  28.440  29.241  1.00  0.00     0.049 A 
ATOM     55  C   UNL A   1      41.796  28.341  30.184  1.00  0.00     0.074 A 
ATOM     56  C   UNL A   1      48.254  27.454  29.948  1.00  0.00     0.029 A 
ATOM     57  N   UNL A   1      46.632  28.930  30.093  1.00  0.00    -0.354 N 
ATOM     58  N   UNL A   1      42.512  27.953  31.204  1.00  0.00    -0.248 NA
ATOM     59  C   UNL A   1      42.384  29.401  29.374  1.00  0.00     0.031 C 
ATOM     60  C   UNL A   1      47.356  27.079  30.992  1.00  0.00     0.029 A 
ATOM     61  C   UNL A   1      46.231  27.899  30.906  1.00  0.00     0.049 A 
ATOM     62  H   UNL A   1      46.293  29.854  30.116  1.00  0.00     0.167 HD
ATOM     63  C   UNL A   1      43.795  28.407  30.931  1.00  0.00     0.074 A 
ATOM     64  C   UNL A   1      43.644  29.336  29.812  1.00  0.00     0.031 C 
ATOM     65  C   UNL A   1      44.892  27.768  31.432  1.00  0.00     0.037 A 
BRANCH  52  66
ATOM     66  C   UNL A   1      47.597  30.151  27.293  1.00  0.00     0.064 A 
ATOM     67  C   UNL A   1      48.843  30.794  27.294  1.00  0.00     0.173 A 
ATOM     68  C   UNL A   1      46.487  30.967  26.970  1.00  0.00     0.173 A 
ATOM     69  F   UNL A   1      49.953  30.127  27.642  1.00  0.00    -0.203 F 
ATOM     70  C   UNL A   1      48.963  32.157  27.004  1.00  0.00     0.198 A 
ATOM     71  C   UNL A   1      46.618  32.303  26.609  1.00  0.00     0.198 A 
ATOM     72  F   UNL A   1      45.224  30.540  27.094  1.00  0.00    -0.203 F 
ATOM     73  F   UNL A   1      50.157  32.755  27.115  1.00  0.00    -0.200 F 
ATOM     74  C   UNL A   1      47.854  32.906  26.650  1.00  0.00     0.200 A 
ATOM     75  F   UNL A   1      45.524  33.012  26.295  1.00  0.00    -0.200 F 
ATOM     76  F   UNL A   1      47.966  34.217  26.401  1.00  0.00    -0.200 F 
ENDBRANCH  52  66
BRANCH  53  77
ATOM     77  C   UNL A   1      39.385  28.029  29.261  1.00  0.00     0.064 A 
ATOM     78  C   UNL A   1      38.451  28.209  30.297  1.00  0.00     0.173 A 
ATOM     79  C   UNL A   1      39.081  28.651  28.035  1.00  0.00     0.173 A 
ATOM     80  F   UNL A   1      38.682  27.689  31.511  1.00  0.00    -0.203 F 
ATOM     81  C   UNL A   1      37.303  28.993  30.125  1.00  0.00     0.198 A 
ATOM     82  C   UNL A   1      37.933  29.428  27.864  1.00  0.00     0.198 A 
ATOM     83  F   UNL A   1      39.939  28.605  27.006  1.00  0.00    -0.203 F 
ATOM     84  F   UNL A   1      36.472  29.198  31.158  1.00  0.00    -0.200 F 
ATOM     85  C   UNL A   1      37.053  29.613  28.913  1.00  0.00     0.200 A 
ATOM     86  F   UNL A   1      37.723  30.054  26.697  1.00  0.00    -0.200 F 
ATOM     87  F   UNL A   1      35.993  30.420  28.769  1.00  0.00    -0.200 F 
ENDBRANCH  53  77
BRANCH  65  88
ATOM     88  C   UNL A   1      44.663  26.684  32.452  1.00  0.00     0.064 A 
ATOM     89  C   UNL A   1      44.490  25.325  32.127  1.00  0.00     0.173 A 
ATOM     90  C   UNL A   1      44.769  27.007  33.810  1.00  0.00     0.173 A 
ATOM     91  F   UNL A   1      44.481  24.920  30.850  1.00  0.00    -0.203 F 
ATOM     92  C   UNL A   1      44.387  24.347  33.116  1.00  0.00     0.198 A 
ATOM     93  C   UNL A   1      44.705  26.024  34.795  1.00  0.00     0.198 A 
ATOM     94  F   UNL A   1      44.991  28.278  34.181  1.00  0.00    -0.203 F 
ATOM     95  F   UNL A   1      44.214  23.061  32.777  1.00  0.00    -0.200 F 
ATOM     96  C   UNL A   1      44.504  24.698  34.450  1.00  0.00     0.200 A 
ATOM     97  F   UNL A   1      44.870  26.362  36.081  1.00  0.00    -0.200 F 
ATOM     98  F   UNL A   1      44.452  23.755  35.401  1.00  0.00    -0.200 F 
ENDBRANCH  65  88
ENDBRANCH  39  40
ENDBRANCH  32  34
ENDBRANCH  31  32
ENDBRANCH  30  31
ENDBRANCH  29  30
ENDBRANCH  28  29
ENDBRANCH   1  28
TORSDOF 19
ENDMDL
MODEL 2
REMARK VINA RESULT:     -11.1      2.331      7.411
REMARK SMILES CC(C)(C)OC(=O)N[C@@H](Cc1c[nH]c2cccc(Cl)c12)C(=O)OCCOCCOC(=O)c1ccc(-c2c3nc(c(-c4c(F)c(F)c(F)c(F)c4F)c4ccc([nH]4)c(-c4c(F)c(F)c(F)c(F)c4F)c4nc(c(-c5c(F)c(F)c(F)c(F)c5F)c5ccc2[nH]5)C=C4)C=C3)cc1
REMARK SMILES IDX 25 1 24 2 23 3 21 4 22 5 9 6 8 7 6 8 7 9 5 11 2 12 1 13 3 14
REMARK SMILES IDX 4 15 10 16 11 17 12 18 20 19 13 20 14 21 18 22 15 24 17 25
REMARK SMILES IDX 19 26 16 27 26 28 27 29 28 30 29 31 30 32 31 33 32 34 33 35
REMARK SMILES IDX 94 36 34 37 93 38 35 39 36 40 37 41 87 42 38 43 92 44 86 45
REMARK SMILES IDX 88 46 39 47 91 48 85 49 84 50 40 52 72 53 52 54 71 55 53 56
REMARK SMILES IDX 56 57 70 58 89 59 54 60 55 61 69 63 90 64 57 65 41 66 42 67
REMARK SMILES IDX 50 68 43 69 44 70 48 71 51 72 45 73 46 74 49 75 47 76 73 77
REMARK SMILES IDX 74 78 82 79 75 80 76 81 80 82 83 83 77 84 78 85 81 86 79 87
REMARK SMILES IDX 58 88 59 89 67 90 60 91 61 92 65 93 68 94 62 95 63 96 66 97
REMARK SMILES IDX 64 98
REMARK H PARENT 8 10 13 23 88 51 56 62
REMARK Flexibility Score: inf
ROOT
ATOM      1  C   UNL A   1      35.773  23.918  25.413  1.00  0.00     0.202 C 
ENDROOT
BRANCH   1   2
ATOM      2  C   UNL A   1      34.806  24.821  24.650  1.00  0.00     0.261 C 
BRANCH   2   3
ATOM      3  O   UNL A   1      34.574  24.380  23.307  1.00  0.00    -0.462 OA
BRANCH   3   4
ATOM      4  C   UNL A   1      33.531  24.990  22.674  1.00  0.00     0.329 C 
ATOM      5  O   UNL A   1      33.609  25.565  21.593  1.00  0.00    -0.250 OA
BRANCH   4   6
ATOM      6  C   UNL A   1      32.246  24.969  23.508  1.00  0.00     0.200 C 
BRANCH   6   7
ATOM      7  N   UNL A   1      31.336  26.092  23.256  1.00  0.00    -0.308 N 
ATOM      8  C   UNL A   1      31.116  27.193  24.024  1.00  0.00     0.408 C 
ATOM      9  O   UNL A   1      30.228  27.988  23.730  1.00  0.00    -0.225 OA
ATOM     10  H   UNL A   1      30.816  26.043  22.421  1.00  0.00     0.168 HD
BRANCH   8  11
ATOM     11  O   UNL A   1      31.964  27.311  25.072  1.00  0.00    -0.444 OA
BRANCH  11  12
ATOM     12  C   UNL A   1      32.944  28.389  25.121  1.00  0.00     0.106 C 
ATOM     13  C   UNL A   1      33.936  27.989  26.226  1.00  0.00     0.056 C 
ATOM     14  C   UNL A   1      32.275  29.709  25.521  1.00  0.00     0.056 C 
ATOM     15  C   UNL A   1      33.737  28.537  23.814  1.00  0.00     0.056 C 
ENDBRANCH  11  12
ENDBRANCH   8  11
ENDBRANCH   6   7
BRANCH   6  16
ATOM     16  C   UNL A   1      31.573  23.609  23.230  1.00  0.00     0.075 C 
BRANCH  16  17
ATOM     17  C   UNL A   1      31.892  22.568  24.275  1.00  0.00    -0.018 A 
ATOM     18  C   UNL A   1      32.000  22.834  25.630  1.00  0.00     0.087 A 
ATOM     19  C   UNL A   1      32.181  21.165  24.099  1.00  0.00     0.021 A 
ATOM     20  N   UNL A   1      32.384  21.692  26.270  1.00  0.00    -0.361 N 
ATOM     21  C   UNL A   1      32.506  20.664  25.368  1.00  0.00     0.047 A 
ATOM     22  C   UNL A   1      32.232  20.239  23.029  1.00  0.00     0.050 A 
ATOM     23  H   UNL A   1      32.551  21.618  27.238  1.00  0.00     0.166 HD
ATOM     24  C   UNL A   1      32.876  19.330  25.597  1.00  0.00     0.027 A 
ATOM     25  C   UNL A   1      32.596  18.906  23.230  1.00  0.00     0.021 A 
ATOM     26  Cl  UNL A   1      31.811  20.772  21.460  1.00  0.00    -0.084 Cl
ATOM     27  C   UNL A   1      32.916  18.459  24.506  1.00  0.00     0.004 A 
ENDBRANCH  16  17
ENDBRANCH   6  16
ENDBRANCH   4   6
ENDBRANCH   3   4
ENDBRANCH   2   3
ENDBRANCH   1   2
BRANCH   1  28
ATOM     28  O   UNL A   1      35.473  22.533  25.562  1.00  0.00    -0.374 OA
BRANCH  28  29
ATOM     29  C   UNL A   1      36.499  21.563  25.753  1.00  0.00     0.202 C 
BRANCH  29  30
ATOM     30  C   UNL A   1      37.852  21.754  25.076  1.00  0.00     0.261 C 
BRANCH  30  31
ATOM     31  O   UNL A   1      38.921  21.702  26.005  1.00  0.00    -0.460 OA
BRANCH  31  32
ATOM     32  C   UNL A   1      39.704  20.616  25.827  1.00  0.00     0.338 C 
ATOM     33  O   UNL A   1      39.367  19.518  25.416  1.00  0.00    -0.246 OA
BRANCH  32  34
ATOM     34  C   UNL A   1      41.069  20.914  26.290  1.00  0.00     0.060 A 
ATOM     35  C   UNL A   1      41.229  20.727  27.666  1.00  0.00     0.016 A 
ATOM     36  C   UNL A   1      41.709  21.939  25.590  1.00  0.00     0.016 A 
ATOM     37  C   UNL A   1      41.642  21.812  28.399  1.00  0.00     0.010 A 
ATOM     38  C   UNL A   1      42.075  23.035  26.322  1.00  0.00     0.010 A 
ATOM     39  C   UNL A   1      41.928  22.990  27.709  1.00  0.00    -0.014 A 
BRANCH  39  40
ATOM     40  C   UNL A   1      42.166  24.190  28.474  1.00  0.00     0.031 A 
ATOM     41  C   UNL A   1      41.077  25.169  28.296  1.00  0.00     0.074 A 
ATOM     42  C   UNL A   1      43.197  24.315  29.329  1.00  0.00     0.049 A 
ATOM     43  N   UNL A   1      41.107  26.265  27.614  1.00  0.00    -0.248 NA
ATOM     44  C   UNL A   1      39.728  24.759  28.725  1.00  0.00     0.031 C 
ATOM     45  C   UNL A   1      44.162  23.307  29.772  1.00  0.00     0.029 A 
ATOM     46  N   UNL A   1      43.536  25.406  30.065  1.00  0.00    -0.354 N 
ATOM     47  C   UNL A   1      39.818  26.770  27.703  1.00  0.00     0.074 A 
ATOM     48  C   UNL A   1      38.978  25.690  28.143  1.00  0.00     0.031 C 
ATOM     49  C   UNL A   1      44.827  23.772  30.857  1.00  0.00     0.029 A 
ATOM     50  C   UNL A   1      44.424  25.146  31.105  1.00  0.00     0.049 A 
ATOM     51  H   UNL A   1      43.183  26.306  29.878  1.00  0.00     0.167 HD
ATOM     52  C   UNL A   1      39.579  28.106  27.721  1.00  0.00     0.037 A 
ATOM     53  C   UNL A   1      44.679  26.003  32.127  1.00  0.00     0.037 A 
ATOM     54  C   UNL A   1      40.704  28.854  27.231  1.00  0.00     0.049 A 
ATOM     55  C   UNL A   1      44.242  27.356  31.674  1.00  0.00     0.074 A 
ATOM     56  C   UNL A   1      41.373  28.898  26.022  1.00  0.00     0.029 A 
ATOM     57  N   UNL A   1      41.564  29.400  28.154  1.00  0.00    -0.354 N 
ATOM     58  N   UNL A   1      44.833  28.023  30.719  1.00  0.00    -0.248 NA
ATOM     59  C   UNL A   1      42.860  27.736  31.940  1.00  0.00     0.031 C 
ATOM     60  C   UNL A   1      42.753  29.017  26.364  1.00  0.00     0.029 A 
ATOM     61  C   UNL A   1      42.845  29.107  27.753  1.00  0.00     0.049 A 
ATOM     62  H   UNL A   1      41.308  29.909  28.956  1.00  0.00     0.167 HD
ATOM     63  C   UNL A   1      43.798  28.599  29.996  1.00  0.00     0.074 A 
ATOM     64  C   UNL A   1      42.607  28.428  30.825  1.00  0.00     0.031 C 
ATOM     65  C   UNL A   1      43.940  28.893  28.670  1.00  0.00     0.037 A 
BRANCH  52  66
ATOM     66  C   UNL A   1      38.457  28.712  28.516  1.00  0.00     0.064 A 
ATOM     67  C   UNL A   1      37.609  29.654  27.915  1.00  0.00     0.173 A 
ATOM     68  C   UNL A   1      38.319  28.571  29.918  1.00  0.00     0.173 A 
ATOM     69  F   UNL A   1      37.696  29.906  26.601  1.00  0.00    -0.203 F 
ATOM     70  C   UNL A   1      36.701  30.405  28.666  1.00  0.00     0.198 A 
ATOM     71  C   UNL A   1      37.365  29.266  30.651  1.00  0.00     0.198 A 
ATOM     72  F   UNL A   1      39.171  27.842  30.651  1.00  0.00    -0.203 F 
ATOM     73  F   UNL A   1      35.983  31.366  28.069  1.00  0.00    -0.200 F 
ATOM     74  C   UNL A   1      36.571  30.203  30.030  1.00  0.00     0.200 A 
ATOM     75  F   UNL A   1      37.277  29.068  31.975  1.00  0.00    -0.200 F 
ATOM     76  F   UNL A   1      35.722  30.943  30.753  1.00  0.00    -0.200 F 
ENDBRANCH  52  66
BRANCH  53  77
ATOM     77  C   UNL A   1      44.872  25.688  33.566  1.00  0.00     0.064 A 
ATOM     78  C   UNL A   1      46.101  25.949  34.201  1.00  0.00     0.173 A 
ATOM     79  C   UNL A   1      43.781  25.415  34.413  1.00  0.00     0.173 A 
ATOM     80  F   UNL A   1      47.182  26.261  33.473  1.00  0.00    -0.203 F 
ATOM     81  C   UNL A   1      46.218  25.970  35.596  1.00  0.00     0.198 A 
ATOM     82  C   UNL A   1      43.902  25.432  35.804  1.00  0.00     0.198 A 
ATOM     83  F   UNL A   1      42.551  25.227  33.915  1.00  0.00    -0.203 F 
ATOM     84  F   UNL A   1      47.390  26.291  36.164  1.00  0.00    -0.200 F 
ATOM     85  C   UNL A   1      45.115  25.725  36.396  1.00  0.00     0.200 A 
ATOM     86  F   UNL A   1      42.817  25.231  36.567  1.00  0.00    -0.200 F 
ATOM     87  F   UNL A   1      45.210  25.815  37.730  1.00  0.00    -0.200 F 
ENDBRANCH  53  77
BRANCH  65  88
ATOM     88  C   UNL A   1      45.316  28.761  28.070  1.00  0.00     0.064 A 
ATOM     89  C   UNL A   1      46.304  29.761  28.145  1.00  0.00     0.173 A 
ATOM     90  C   UNL A   1      45.697  27.526  27.532  1.00  0.00     0.173 A 
ATOM     91  F   UNL A   1      46.049  30.934  28.738  1.00  0.00    -0.203 F 
ATOM     92  C   UNL A   1      47.595  29.545  27.665  1.00  0.00     0.198 A 
ATOM     93  C   UNL A   1      46.997  27.299  27.088  1.00  0.00     0.198 A 
ATOM     94  F   UNL A   1      44.815  26.514  27.485  1.00  0.00    -0.203 F 
ATOM     95  F   UNL A   1      48.514  30.519  27.741  1.00  0.00    -0.200 F 
ATOM     96  C   UNL A   1      47.943  28.310  27.145  1.00  0.00     0.200 A 
ATOM     97  F   UNL A   1      47.343  26.087  26.634  1.00  0.00    -0.200 F 
ATOM     98  F   UNL A   1      49.195  28.084  26.725  1.00  0.00    -0.200 F 
ENDBRANCH  65  88
ENDBRANCH  39  40
ENDBRANCH  32  34
ENDBRANCH  31  32
ENDBRANCH  30  31
ENDBRANCH  29  30
ENDBRANCH  28  29
ENDBRANCH   1  28
TORSDOF 19
ENDMDL
MODEL 3
REMARK VINA RESULT:     -11.0      4.362      8.851
REMARK SMILES CC(C)(C)OC(=O)N[C@@H](Cc1c[nH]c2cccc(Cl)c12)C(=O)OCCOCCOC(=O)c1ccc(-c2c3nc(c(-c4c(F)c(F)c(F)c(F)c4F)c4ccc([nH]4)c(-c4c(F)c(F)c(F)c(F)c4F)c4nc(c(-c5c(F)c(F)c(F)c(F)c5F)c5ccc2[nH]5)C=C4)C=C3)cc1
REMARK SMILES IDX 25 1 24 2 23 3 21 4 22 5 9 6 8 7 6 8 7 9 5 11 2 12 1 13 3 14
REMARK SMILES IDX 4 15 10 16 11 17 12 18 20 19 13 20 14 21 18 22 15 24 17 25
REMARK SMILES IDX 19 26 16 27 26 28 27 29 28 30 29 31 30 32 31 33 32 34 33 35
REMARK SMILES IDX 94 36 34 37 93 38 35 39 36 40 37 41 87 42 38 43 92 44 86 45
REMARK SMILES IDX 88 46 39 47 91 48 85 49 84 50 40 52 72 53 52 54 71 55 53 56
REMARK SMILES IDX 56 57 70 58 89 59 54 60 55 61 69 63 90 64 57 65 41 66 42 67
REMARK SMILES IDX 50 68 43 69 44 70 48 71 51 72 45 73 46 74 49 75 47 76 73 77
REMARK SMILES IDX 74 78 82 79 75 80 76 81 80 82 83 83 77 84 78 85 81 86 79 87
REMARK SMILES IDX 58 88 59 89 67 90 60 91 61 92 65 93 68 94 62 95 63 96 66 97
REMARK SMILES IDX 64 98
REMARK H PARENT 8 10 13 23 88 51 56 62
REMARK Flexibility Score: inf
ROOT
ATOM      1  C   UNL A   1      32.767  27.854  27.261  1.00  0.00     0.202 C 
ENDROOT
BRANCH   1   2
ATOM      2  C   UNL A   1      31.464  27.437  26.583  1.00  0.00     0.261 C 
BRANCH   2   3
ATOM      3  O   UNL A   1      31.140  26.059  26.799  1.00  0.00    -0.462 OA
BRANCH   3   4
ATOM      4  C   UNL A   1      30.080  25.597  26.074  1.00  0.00     0.329 C 
ATOM      5  O   UNL A   1      29.015  25.223  26.553  1.00  0.00    -0.250 OA
BRANCH   4   6
ATOM      6  C   UNL A   1      30.392  25.499  24.577  1.00  0.00     0.200 C 
BRANCH   6   7
ATOM      7  N   UNL A   1      30.565  24.130  24.078  1.00  0.00    -0.308 N 
ATOM      8  C   UNL A   1      31.718  23.485  23.755  1.00  0.00     0.408 C 
ATOM      9  O   UNL A   1      31.684  22.374  23.235  1.00  0.00    -0.225 OA
ATOM     10  H   UNL A   1      29.737  23.610  23.961  1.00  0.00     0.168 HD
BRANCH   8  11
ATOM     11  O   UNL A   1      32.840  24.166  24.086  1.00  0.00    -0.444 OA
BRANCH  11  12
ATOM     12  C   UNL A   1      33.776  23.630  25.067  1.00  0.00     0.106 C 
ATOM     13  C   UNL A   1      34.700  24.804  25.433  1.00  0.00     0.056 C 
ATOM     14  C   UNL A   1      34.627  22.515  24.447  1.00  0.00     0.056 C 
ATOM     15  C   UNL A   1      33.088  23.158  26.356  1.00  0.00     0.056 C 
ENDBRANCH  11  12
ENDBRANCH   8  11
ENDBRANCH   6   7
BRANCH   6  16
ATOM     16  C   UNL A   1      29.251  26.238  23.848  1.00  0.00     0.075 C 
BRANCH  16  17
ATOM     17  C   UNL A   1      29.725  27.455  23.091  1.00  0.00    -0.018 A 
ATOM     18  C   UNL A   1      30.998  27.596  22.566  1.00  0.00     0.087 A 
ATOM     19  C   UNL A   1      29.015  28.678  22.805  1.00  0.00     0.021 A 
ATOM     20  N   UNL A   1      31.113  28.845  22.028  1.00  0.00    -0.361 N 
ATOM     21  C   UNL A   1      29.928  29.526  22.161  1.00  0.00     0.047 A 
ATOM     22  C   UNL A   1      27.717  29.203  23.018  1.00  0.00     0.050 A 
ATOM     23  H   UNL A   1      31.927  29.205  21.607  1.00  0.00     0.166 HD
ATOM     24  C   UNL A   1      29.610  30.830  21.749  1.00  0.00     0.027 A 
ATOM     25  C   UNL A   1      27.375  30.497  22.617  1.00  0.00     0.021 A 
ATOM     26  Cl  UNL A   1      26.542  28.211  23.763  1.00  0.00    -0.084 Cl
ATOM     27  C   UNL A   1      28.317  31.301  21.989  1.00  0.00     0.004 A 
ENDBRANCH  16  17
ENDBRANCH   6  16
ENDBRANCH   4   6
ENDBRANCH   3   4
ENDBRANCH   2   3
ENDBRANCH   1   2
BRANCH   1  28
ATOM     28  O   UNL A   1      33.737  28.596  26.525  1.00  0.00    -0.374 OA
BRANCH  28  29
ATOM     29  C   UNL A   1      34.280  29.816  27.024  1.00  0.00     0.202 C 
BRANCH  29  30
ATOM     30  C   UNL A   1      33.357  31.005  27.268  1.00  0.00     0.261 C 
BRANCH  30  31
ATOM     31  O   UNL A   1      34.072  32.229  27.308  1.00  0.00    -0.460 OA
BRANCH  31  32
ATOM     32  C   UNL A   1      33.432  33.176  28.028  1.00  0.00     0.338 C 
ATOM     33  O   UNL A   1      32.310  33.617  27.841  1.00  0.00    -0.246 OA
BRANCH  32  34
ATOM     34  C   UNL A   1      34.332  33.692  29.072  1.00  0.00     0.060 A 
ATOM     35  C   UNL A   1      35.349  34.502  28.559  1.00  0.00     0.016 A 
ATOM     36  C   UNL A   1      34.531  32.824  30.147  1.00  0.00     0.016 A 
ATOM     37  C   UNL A   1      36.642  34.115  28.810  1.00  0.00     0.010 A 
ATOM     38  C   UNL A   1      35.816  32.407  30.360  1.00  0.00     0.010 A 
ATOM     39  C   UNL A   1      36.838  32.985  29.604  1.00  0.00    -0.014 A 
BRANCH  39  40
ATOM     40  C   UNL A   1      38.172  32.447  29.711  1.00  0.00     0.031 A 
ATOM     41  C   UNL A   1      38.217  31.029  29.309  1.00  0.00     0.074 A 
ATOM     42  C   UNL A   1      39.239  33.206  30.022  1.00  0.00     0.049 A 
ATOM     43  N   UNL A   1      38.341  29.997  30.074  1.00  0.00    -0.248 NA
ATOM     44  C   UNL A   1      37.839  30.713  27.920  1.00  0.00     0.031 C 
ATOM     45  C   UNL A   1      39.332  34.660  30.168  1.00  0.00     0.029 A 
ATOM     46  N   UNL A   1      40.525  32.799  30.187  1.00  0.00    -0.354 N 
ATOM     47  C   UNL A   1      38.247  28.910  29.216  1.00  0.00     0.074 A 
ATOM     48  C   UNL A   1      37.672  29.395  27.991  1.00  0.00     0.031 C 
ATOM     49  C   UNL A   1      40.637  35.024  30.177  1.00  0.00     0.029 A 
ATOM     50  C   UNL A   1      41.462  33.829  30.161  1.00  0.00     0.049 A 
ATOM     51  H   UNL A   1      40.774  31.856  30.315  1.00  0.00     0.167 HD
ATOM     52  C   UNL A   1      38.936  27.763  29.446  1.00  0.00     0.037 A 
ATOM     53  C   UNL A   1      42.801  33.643  30.023  1.00  0.00     0.037 A 
ATOM     54  C   UNL A   1      39.383  27.676  30.809  1.00  0.00     0.049 A 
ATOM     55  C   UNL A   1      43.078  32.223  30.386  1.00  0.00     0.074 A 
ATOM     56  C   UNL A   1      38.737  27.640  32.030  1.00  0.00     0.029 A 
ATOM     57  N   UNL A   1      40.680  28.038  31.084  1.00  0.00    -0.354 N 
ATOM     58  N   UNL A   1      42.948  31.748  31.596  1.00  0.00    -0.248 NA
ATOM     59  C   UNL A   1      43.014  31.234  29.316  1.00  0.00     0.031 C 
ATOM     60  C   UNL A   1      39.538  28.439  32.899  1.00  0.00     0.029 A 
ATOM     61  C   UNL A   1      40.658  28.860  32.184  1.00  0.00     0.049 A 
ATOM     62  H   UNL A   1      41.480  27.759  30.583  1.00  0.00     0.167 HD
ATOM     63  C   UNL A   1      42.376  30.495  31.425  1.00  0.00     0.074 A 
ATOM     64  C   UNL A   1      42.486  30.213  29.996  1.00  0.00     0.031 C 
ATOM     65  C   UNL A   1      41.601  29.934  32.400  1.00  0.00     0.037 A 
BRANCH  52  66
ATOM     66  C   UNL A   1      39.485  26.917  28.332  1.00  0.00     0.064 A 
ATOM     67  C   UNL A   1      39.302  25.527  28.361  1.00  0.00     0.173 A 
ATOM     68  C   UNL A   1      40.382  27.397  27.348  1.00  0.00     0.173 A 
ATOM     69  F   UNL A   1      38.517  24.963  29.290  1.00  0.00    -0.203 F 
ATOM     70  C   UNL A   1      39.979  24.682  27.476  1.00  0.00     0.198 A 
ATOM     71  C   UNL A   1      40.996  26.561  26.422  1.00  0.00     0.198 A 
ATOM     72  F   UNL A   1      40.786  28.673  27.309  1.00  0.00    -0.203 F 
ATOM     73  F   UNL A   1      39.855  23.354  27.604  1.00  0.00    -0.200 F 
ATOM     74  C   UNL A   1      40.814  25.199  26.501  1.00  0.00     0.200 A 
ATOM     75  F   UNL A   1      41.819  27.087  25.504  1.00  0.00    -0.200 F 
ATOM     76  F   UNL A   1      41.484  24.388  25.673  1.00  0.00    -0.200 F 
ENDBRANCH  52  66
BRANCH  53  77
ATOM     77  C   UNL A   1      43.764  34.446  29.227  1.00  0.00     0.064 A 
ATOM     78  C   UNL A   1      43.854  34.287  27.832  1.00  0.00     0.173 A 
ATOM     79  C   UNL A   1      44.390  35.588  29.764  1.00  0.00     0.173 A 
ATOM     80  F   UNL A   1      43.249  33.252  27.231  1.00  0.00    -0.203 F 
ATOM     81  C   UNL A   1      44.500  35.230  27.023  1.00  0.00     0.198 A 
ATOM     82  C   UNL A   1      45.038  36.525  28.956  1.00  0.00     0.198 A 
ATOM     83  F   UNL A   1      44.301  35.873  31.070  1.00  0.00    -0.203 F 
ATOM     84  F   UNL A   1      44.504  35.079  25.691  1.00  0.00    -0.200 F 
ATOM     85  C   UNL A   1      45.079  36.355  27.585  1.00  0.00     0.200 A 
ATOM     86  F   UNL A   1      45.561  37.629  29.509  1.00  0.00    -0.200 F 
ATOM     87  F   UNL A   1      45.635  37.294  26.807  1.00  0.00    -0.200 F 
ENDBRANCH  53  77
BRANCH  65  88
ATOM     88  C   UNL A   1      41.554  30.624  33.738  1.00  0.00     0.064 A 
ATOM     89  C   UNL A   1      40.638  31.642  34.064  1.00  0.00     0.173 A 
ATOM     90  C   UNL A   1      42.364  30.137  34.771  1.00  0.00     0.173 A 
ATOM     91  F   UNL A   1      39.759  32.089  33.159  1.00  0.00    -0.203 F 
ATOM     92  C   UNL A   1      40.569  32.172  35.352  1.00  0.00     0.198 A 
ATOM     93  C   UNL A   1      42.266  30.641  36.066  1.00  0.00     0.198 A 
ATOM     94  F   UNL A   1      43.218  29.129  34.536  1.00  0.00    -0.203 F 
ATOM     95  F   UNL A   1      39.691  33.147  35.633  1.00  0.00    -0.200 F 
ATOM     96  C   UNL A   1      41.378  31.664  36.354  1.00  0.00     0.200 A 
ATOM     97  F   UNL A   1      43.015  30.112  37.043  1.00  0.00    -0.200 F 
ATOM     98  F   UNL A   1      41.281  32.140  37.604  1.00  0.00    -0.200 F 
ENDBRANCH  65  88
ENDBRANCH  39  40
ENDBRANCH  32  34
ENDBRANCH  31  32
ENDBRANCH  30  31
ENDBRANCH  29  30
ENDBRANCH  28  29
ENDBRANCH   1  28
TORSDOF 19
ENDMDL
