MODEL 1
REMARK VINA RESULT:     -12.4      0.000      0.000
REMARK SMILES Cc1c(CC(=O)OCCOCCOC(=O)c2ccc(-c3c4nc(c(-c5c(F)c(F)c(F)c(F)c5F)c5ccc([nH]5)c(-c5c(F)c(F)c(F)c(F)c5F)c5nc(c(-c6c(F)c(F)c(F)c(F)c6F)c6ccc3[nH]6)C=C5)C=C4)cc2)cc(-c2ccccc2)cc1-c1ccccc1
REMARK SMILES IDX 10 1 9 2 8 3 7 4 5 5 6 6 4 7 3 8 1 9 2 10 88 11 79 12 87 13
REMARK SMILES IDX 80 14 89 15 90 16 94 17 91 18 93 19 92 20 81 21 82 22 86 23
REMARK SMILES IDX 83 24 85 25 84 26 11 27 12 28 13 29 14 30 15 31 16 32 17 33
REMARK SMILES IDX 78 34 18 35 77 36 19 37 20 38 21 39 71 40 22 41 76 42 70 43
REMARK SMILES IDX 72 44 23 45 75 46 69 47 68 48 24 50 56 51 36 52 55 53 37 54
REMARK SMILES IDX 40 55 54 56 73 57 38 58 39 59 53 61 74 62 41 63 25 64 26 65
REMARK SMILES IDX 34 66 27 67 28 68 32 69 35 70 29 71 30 72 33 73 31 74 57 75
REMARK SMILES IDX 58 76 66 77 59 78 60 79 64 80 67 81 61 82 62 83 65 84 63 85
REMARK SMILES IDX 42 86 43 87 51 88 44 89 45 90 49 91 52 92 46 93 47 94 50 95
REMARK SMILES IDX 48 96
REMARK H PARENT 72 49 40 60
REMARK Flexibility Score: inf
ROOT
ATOM      1  O   UNL A   1      41.929  20.311  26.346  1.00  0.00    -0.374 OA
ENDROOT
BRANCH   1   2
ATOM      2  C   UNL A   1      40.518  20.290  26.494  1.00  0.00     0.202 C 
BRANCH   2   3
ATOM      3  C   UNL A   1      40.092  21.688  26.803  1.00  0.00     0.261 C 
BRANCH   3   4
ATOM      4  O   UNL A   1      38.846  22.048  26.205  1.00  0.00    -0.463 OA
BRANCH   4   5
ATOM      5  C   UNL A   1      38.391  23.328  26.391  1.00  0.00     0.310 C 
ATOM      6  O   UNL A   1      38.569  24.004  27.380  1.00  0.00    -0.252 OA
BRANCH   5   7
ATOM      7  C   UNL A   1      37.612  23.771  25.160  1.00  0.00     0.158 C 
BRANCH   7   8
ATOM      8  C   UNL A   1      36.127  23.494  25.346  1.00  0.00    -0.033 A 
ATOM      9  C   UNL A   1      36.386  21.217  24.265  1.00  0.00     0.045 C 
ATOM     10  C   UNL A   1      35.525  22.305  24.875  1.00  0.00    -0.039 A 
ATOM     11  C   UNL A   1      34.114  22.185  24.920  1.00  0.00    -0.015 A 
ATOM     12  C   UNL A   1      35.318  24.571  25.760  1.00  0.00     0.013 A 
ATOM     13  C   UNL A   1      33.338  23.318  25.250  1.00  0.00     0.017 A 
ATOM     14  C   UNL A   1      33.923  24.521  25.655  1.00  0.00    -0.017 A 
BRANCH  11  15
ATOM     15  C   UNL A   1      33.437  20.892  24.734  1.00  0.00    -0.018 A 
ATOM     16  C   UNL A   1      33.432  19.891  25.714  1.00  0.00     0.009 A 
ATOM     17  C   UNL A   1      32.816  20.621  23.500  1.00  0.00     0.009 A 
ATOM     18  C   UNL A   1      32.830  18.655  25.459  1.00  0.00     0.001 A 
ATOM     19  C   UNL A   1      32.204  19.397  23.251  1.00  0.00     0.001 A 
ATOM     20  C   UNL A   1      32.217  18.410  24.230  1.00  0.00     0.000 A 
ENDBRANCH  11  15
BRANCH  14  21
ATOM     21  C   UNL A   1      33.118  25.711  25.954  1.00  0.00    -0.018 A 
ATOM     22  C   UNL A   1      31.728  25.632  26.154  1.00  0.00     0.009 A 
ATOM     23  C   UNL A   1      33.718  26.974  25.989  1.00  0.00     0.009 A 
ATOM     24  C   UNL A   1      30.953  26.786  26.307  1.00  0.00     0.001 A 
ATOM     25  C   UNL A   1      32.950  28.126  26.175  1.00  0.00     0.001 A 
ATOM     26  C   UNL A   1      31.566  28.033  26.313  1.00  0.00     0.000 A 
ENDBRANCH  14  21
ENDBRANCH   7   8
ENDBRANCH   5   7
ENDBRANCH   4   5
ENDBRANCH   3   4
ENDBRANCH   2   3
ENDBRANCH   1   2
BRANCH   1  27
ATOM     27  C   UNL A   1      42.512  19.125  25.827  1.00  0.00     0.202 C 
BRANCH  27  28
ATOM     28  C   UNL A   1      43.946  19.281  25.288  1.00  0.00     0.261 C 
BRANCH  28  29
ATOM     29  O   UNL A   1      44.074  20.502  24.530  1.00  0.00    -0.460 OA
BRANCH  29  30
ATOM     30  C   UNL A   1      44.960  21.416  25.011  1.00  0.00     0.338 C 
ATOM     31  O   UNL A   1      46.131  21.191  25.285  1.00  0.00    -0.246 OA
BRANCH  30  32
ATOM     32  C   UNL A   1      44.220  22.632  25.455  1.00  0.00     0.060 A 
ATOM     33  C   UNL A   1      44.277  23.820  24.700  1.00  0.00     0.016 A 
ATOM     34  C   UNL A   1      43.800  22.673  26.779  1.00  0.00     0.016 A 
ATOM     35  C   UNL A   1      44.055  25.061  25.321  1.00  0.00     0.010 A 
ATOM     36  C   UNL A   1      43.750  23.892  27.411  1.00  0.00     0.010 A 
ATOM     37  C   UNL A   1      43.873  25.098  26.702  1.00  0.00    -0.014 A 
BRANCH  37  38
ATOM     38  C   UNL A   1      43.849  26.291  27.554  1.00  0.00     0.031 A 
ATOM     39  C   UNL A   1      42.532  26.944  27.749  1.00  0.00     0.074 A 
ATOM     40  C   UNL A   1      44.904  26.665  28.325  1.00  0.00     0.049 A 
ATOM     41  N   UNL A   1      42.379  28.167  28.119  1.00  0.00    -0.248 NA
ATOM     42  C   UNL A   1      41.255  26.279  27.497  1.00  0.00     0.031 C 
ATOM     43  C   UNL A   1      44.894  27.537  29.503  1.00  0.00     0.029 A 
ATOM     44  N   UNL A   1      46.266  26.329  28.217  1.00  0.00    -0.354 N 
ATOM     45  C   UNL A   1      41.057  28.336  28.471  1.00  0.00     0.074 A 
ATOM     46  C   UNL A   1      40.384  27.177  27.955  1.00  0.00     0.031 C 
ATOM     47  C   UNL A   1      46.154  27.914  29.792  1.00  0.00     0.029 A 
ATOM     48  C   UNL A   1      47.015  27.393  28.744  1.00  0.00     0.049 A 
ATOM     49  H   UNL A   1      46.629  25.495  27.839  1.00  0.00     0.167 HD
ATOM     50  C   UNL A   1      40.731  29.369  29.299  1.00  0.00     0.037 A 
ATOM     51  C   UNL A   1      47.919  28.060  27.976  1.00  0.00     0.037 A 
ATOM     52  C   UNL A   1      41.939  30.142  29.628  1.00  0.00     0.049 A 
ATOM     53  C   UNL A   1      47.457  29.476  27.833  1.00  0.00     0.074 A 
ATOM     54  C   UNL A   1      42.756  30.152  30.748  1.00  0.00     0.029 A 
ATOM     55  N   UNL A   1      42.667  30.762  28.611  1.00  0.00    -0.354 N 
ATOM     56  N   UNL A   1      46.215  29.815  28.044  1.00  0.00    -0.248 NA
ATOM     57  C   UNL A   1      48.305  30.615  27.508  1.00  0.00     0.031 C 
ATOM     58  C   UNL A   1      44.003  30.727  30.375  1.00  0.00     0.029 A 
ATOM     59  C   UNL A   1      43.942  31.089  29.038  1.00  0.00     0.049 A 
ATOM     60  H   UNL A   1      42.318  30.943  27.707  1.00  0.00     0.167 HD
ATOM     61  C   UNL A   1      46.086  31.158  27.947  1.00  0.00     0.074 A 
ATOM     62  C   UNL A   1      47.414  31.622  27.579  1.00  0.00     0.031 C 
ATOM     63  C   UNL A   1      44.888  31.768  28.158  1.00  0.00     0.037 A 
BRANCH  50  64
ATOM     64  C   UNL A   1      39.410  29.515  30.044  1.00  0.00     0.064 A 
ATOM     65  C   UNL A   1      38.502  30.536  29.686  1.00  0.00     0.173 A 
ATOM     66  C   UNL A   1      38.976  28.722  31.127  1.00  0.00     0.173 A 
ATOM     67  F   UNL A   1      38.715  31.318  28.619  1.00  0.00    -0.203 F 
ATOM     68  C   UNL A   1      37.325  30.792  30.398  1.00  0.00     0.198 A 
ATOM     69  C   UNL A   1      37.823  29.005  31.870  1.00  0.00     0.198 A 
ATOM     70  F   UNL A   1      39.592  27.591  31.475  1.00  0.00    -0.203 F 
ATOM     71  F   UNL A   1      36.507  31.775  29.998  1.00  0.00    -0.200 F 
ATOM     72  C   UNL A   1      36.997  30.043  31.508  1.00  0.00     0.200 A 
ATOM     73  F   UNL A   1      37.513  28.242  32.930  1.00  0.00    -0.200 F 
ATOM     74  F   UNL A   1      35.877  30.295  32.199  1.00  0.00    -0.200 F 
ENDBRANCH  50  64
BRANCH  51  75
ATOM     75  C   UNL A   1      48.537  27.175  26.943  1.00  0.00     0.064 A 
ATOM     76  C   UNL A   1      48.081  27.325  25.614  1.00  0.00     0.173 A 
ATOM     77  C   UNL A   1      49.808  26.611  27.123  1.00  0.00     0.173 A 
ATOM     78  F   UNL A   1      46.878  27.873  25.379  1.00  0.00    -0.203 F 
ATOM     79  C   UNL A   1      48.912  27.068  24.523  1.00  0.00     0.198 A 
ATOM     80  C   UNL A   1      50.637  26.353  26.024  1.00  0.00     0.198 A 
ATOM     81  F   UNL A   1      50.305  26.438  28.355  1.00  0.00    -0.203 F 
ATOM     82  F   UNL A   1      48.506  27.377  23.282  1.00  0.00    -0.200 F 
ATOM     83  C   UNL A   1      50.206  26.624  24.732  1.00  0.00     0.200 A 
ATOM     84  F   UNL A   1      51.898  25.942  26.221  1.00  0.00    -0.200 F 
ATOM     85  F   UNL A   1      51.056  26.523  23.700  1.00  0.00    -0.200 F 
ENDBRANCH  51  75
BRANCH  63  86
ATOM     86  C   UNL A   1      44.571  33.119  27.608  1.00  0.00     0.064 A 
ATOM     87  C   UNL A   1      43.977  33.299  26.347  1.00  0.00     0.173 A 
ATOM     88  C   UNL A   1      44.700  34.273  28.408  1.00  0.00     0.173 A 
ATOM     89  F   UNL A   1      43.670  32.256  25.562  1.00  0.00    -0.203 F 
ATOM     90  C   UNL A   1      43.630  34.561  25.877  1.00  0.00     0.198 A 
ATOM     91  C   UNL A   1      44.284  35.522  27.962  1.00  0.00     0.198 A 
ATOM     92  F   UNL A   1      45.200  34.211  29.652  1.00  0.00    -0.203 F 
ATOM     93  F   UNL A   1      43.127  34.690  24.642  1.00  0.00    -0.200 F 
ATOM     94  C   UNL A   1      43.776  35.669  26.687  1.00  0.00     0.200 A 
ATOM     95  F   UNL A   1      44.362  36.577  28.784  1.00  0.00    -0.200 F 
ATOM     96  F   UNL A   1      43.405  36.878  26.247  1.00  0.00    -0.200 F 
ENDBRANCH  63  86
ENDBRANCH  37  38
ENDBRANCH  30  32
ENDBRANCH  29  30
ENDBRANCH  28  29
ENDBRANCH  27  28
ENDBRANCH   1  27
TORSDOF 17
ENDMDL
MODEL 2
REMARK VINA RESULT:     -12.3      2.858      5.479
REMARK SMILES Cc1c(CC(=O)OCCOCCOC(=O)c2ccc(-c3c4nc(c(-c5c(F)c(F)c(F)c(F)c5F)c5ccc([nH]5)c(-c5c(F)c(F)c(F)c(F)c5F)c5nc(c(-c6c(F)c(F)c(F)c(F)c6F)c6ccc3[nH]6)C=C5)C=C4)cc2)cc(-c2ccccc2)cc1-c1ccccc1
REMARK SMILES IDX 10 1 9 2 8 3 7 4 5 5 6 6 4 7 3 8 1 9 2 10 88 11 79 12 87 13
REMARK SMILES IDX 80 14 89 15 90 16 94 17 91 18 93 19 92 20 81 21 82 22 86 23
REMARK SMILES IDX 83 24 85 25 84 26 11 27 12 28 13 29 14 30 15 31 16 32 17 33
REMARK SMILES IDX 78 34 18 35 77 36 19 37 20 38 21 39 71 40 22 41 76 42 70 43
REMARK SMILES IDX 72 44 23 45 75 46 69 47 68 48 24 50 56 51 36 52 55 53 37 54
REMARK SMILES IDX 40 55 54 56 73 57 38 58 39 59 53 61 74 62 41 63 25 64 26 65
REMARK SMILES IDX 34 66 27 67 28 68 32 69 35 70 29 71 30 72 33 73 31 74 57 75
REMARK SMILES IDX 58 76 66 77 59 78 60 79 64 80 67 81 61 82 62 83 65 84 63 85
REMARK SMILES IDX 42 86 43 87 51 88 44 89 45 90 49 91 52 92 46 93 47 94 50 95
REMARK SMILES IDX 48 96
REMARK H PARENT 72 49 40 60
REMARK Flexibility Score: inf
ROOT
ATOM      1  O   UNL A   1      35.591  22.072  23.942  1.00  0.00    -0.374 OA
ENDROOT
BRANCH   1   2
ATOM      2  C   UNL A   1      35.261  23.440  23.754  1.00  0.00     0.202 C 
BRANCH   2   3
ATOM      3  C   UNL A   1      33.812  23.493  23.395  1.00  0.00     0.261 C 
BRANCH   3   4
ATOM      4  O   UNL A   1      33.557  24.169  22.163  1.00  0.00    -0.463 OA
BRANCH   4   5
ATOM      5  C   UNL A   1      33.211  25.495  22.219  1.00  0.00     0.310 C 
ATOM      6  O   UNL A   1      33.717  26.384  21.570  1.00  0.00    -0.252 OA
BRANCH   5   7
ATOM      7  C   UNL A   1      32.095  25.684  23.237  1.00  0.00     0.158 C 
BRANCH   7   8
ATOM      8  C   UNL A   1      32.044  27.132  23.704  1.00  0.00    -0.033 A 
ATOM      9  C   UNL A   1      33.640  26.608  25.602  1.00  0.00     0.045 C 
ATOM     10  C   UNL A   1      32.733  27.568  24.859  1.00  0.00    -0.039 A 
ATOM     11  C   UNL A   1      32.504  28.881  25.340  1.00  0.00    -0.015 A 
ATOM     12  C   UNL A   1      31.078  27.967  23.109  1.00  0.00     0.013 A 
ATOM     13  C   UNL A   1      31.462  29.648  24.774  1.00  0.00     0.017 A 
ATOM     14  C   UNL A   1      30.729  29.200  23.672  1.00  0.00    -0.017 A 
BRANCH  11  15
ATOM     15  C   UNL A   1      33.384  29.509  26.339  1.00  0.00    -0.018 A 
ATOM     16  C   UNL A   1      33.039  30.684  27.021  1.00  0.00     0.009 A 
ATOM     17  C   UNL A   1      34.650  28.944  26.580  1.00  0.00     0.009 A 
ATOM     18  C   UNL A   1      33.942  31.275  27.910  1.00  0.00     0.001 A 
ATOM     19  C   UNL A   1      35.543  29.523  27.477  1.00  0.00     0.001 A 
ATOM     20  C   UNL A   1      35.190  30.694  28.137  1.00  0.00     0.000 A 
ENDBRANCH  11  15
BRANCH  14  21
ATOM     21  C   UNL A   1      29.616  29.977  23.114  1.00  0.00    -0.018 A 
ATOM     22  C   UNL A   1      29.045  29.662  21.869  1.00  0.00     0.009 A 
ATOM     23  C   UNL A   1      29.131  31.098  23.797  1.00  0.00     0.009 A 
ATOM     24  C   UNL A   1      28.077  30.487  21.288  1.00  0.00     0.001 A 
ATOM     25  C   UNL A   1      28.140  31.905  23.233  1.00  0.00     0.001 A 
ATOM     26  C   UNL A   1      27.628  31.611  21.971  1.00  0.00     0.000 A 
ENDBRANCH  14  21
ENDBRANCH   7   8
ENDBRANCH   5   7
ENDBRANCH   4   5
ENDBRANCH   3   4
ENDBRANCH   2   3
ENDBRANCH   1   2
BRANCH   1  27
ATOM     27  C   UNL A   1      36.201  21.749  25.183  1.00  0.00     0.202 C 
BRANCH  27  28
ATOM     28  C   UNL A   1      37.115  22.841  25.768  1.00  0.00     0.261 C 
BRANCH  28  29
ATOM     29  O   UNL A   1      38.501  22.540  25.499  1.00  0.00    -0.460 OA
BRANCH  29  30
ATOM     30  C   UNL A   1      39.365  22.726  26.533  1.00  0.00     0.338 C 
ATOM     31  O   UNL A   1      39.837  21.838  27.230  1.00  0.00    -0.246 OA
BRANCH  30  32
ATOM     32  C   UNL A   1      39.399  24.172  26.891  1.00  0.00     0.060 A 
ATOM     33  C   UNL A   1      40.107  25.093  26.092  1.00  0.00     0.016 A 
ATOM     34  C   UNL A   1      39.045  24.514  28.191  1.00  0.00     0.016 A 
ATOM     35  C   UNL A   1      40.585  26.289  26.652  1.00  0.00     0.010 A 
ATOM     36  C   UNL A   1      39.656  25.600  28.770  1.00  0.00     0.010 A 
ATOM     37  C   UNL A   1      40.428  26.501  28.020  1.00  0.00    -0.014 A 
BRANCH  37  38
ATOM     38  C   UNL A   1      41.042  27.565  28.821  1.00  0.00     0.031 A 
ATOM     39  C   UNL A   1      40.157  28.678  29.242  1.00  0.00     0.074 A 
ATOM     40  C   UNL A   1      42.282  27.453  29.365  1.00  0.00     0.049 A 
ATOM     41  N   UNL A   1      40.577  29.842  29.593  1.00  0.00    -0.248 NA
ATOM     42  C   UNL A   1      38.698  28.588  29.260  1.00  0.00     0.031 C 
ATOM     43  C   UNL A   1      42.843  28.201  30.494  1.00  0.00     0.029 A 
ATOM     44  N   UNL A   1      43.351  26.609  29.010  1.00  0.00    -0.354 N 
ATOM     45  C   UNL A   1      39.523  30.506  30.185  1.00  0.00     0.074 A 
ATOM     46  C   UNL A   1      38.360  29.736  29.845  1.00  0.00     0.031 C 
ATOM     47  C   UNL A   1      44.179  28.032  30.525  1.00  0.00     0.029 A 
ATOM     48  C   UNL A   1      44.547  27.261  29.350  1.00  0.00     0.049 A 
ATOM     49  H   UNL A   1      43.273  25.718  28.598  1.00  0.00     0.167 HD
ATOM     50  C   UNL A   1      39.798  31.544  31.026  1.00  0.00     0.037 A 
ATOM     51  C   UNL A   1      45.480  27.549  28.403  1.00  0.00     0.037 A 
ATOM     52  C   UNL A   1      41.252  31.757  31.093  1.00  0.00     0.049 A 
ATOM     53  C   UNL A   1      45.603  29.037  28.304  1.00  0.00     0.074 A 
ATOM     54  C   UNL A   1      42.200  31.390  32.036  1.00  0.00     0.029 A 
ATOM     55  N   UNL A   1      41.962  32.083  29.936  1.00  0.00    -0.354 N 
ATOM     56  N   UNL A   1      44.663  29.831  28.736  1.00  0.00    -0.248 NA
ATOM     57  C   UNL A   1      46.757  29.758  27.786  1.00  0.00     0.031 C 
ATOM     58  C   UNL A   1      43.478  31.438  31.414  1.00  0.00     0.029 A 
ATOM     59  C   UNL A   1      43.317  31.856  30.102  1.00  0.00     0.049 A 
ATOM     60  H   UNL A   1      41.552  32.429  29.110  1.00  0.00     0.167 HD
ATOM     61  C   UNL A   1      45.065  31.118  28.621  1.00  0.00     0.074 A 
ATOM     62  C   UNL A   1      46.373  31.032  27.992  1.00  0.00     0.031 C 
ATOM     63  C   UNL A   1      44.273  32.144  29.036  1.00  0.00     0.037 A 
BRANCH  50  64
ATOM     64  C   UNL A   1      38.810  32.169  32.003  1.00  0.00     0.064 A 
ATOM     65  C   UNL A   1      38.616  31.597  33.280  1.00  0.00     0.173 A 
ATOM     66  C   UNL A   1      38.001  33.298  31.757  1.00  0.00     0.173 A 
ATOM     67  F   UNL A   1      39.371  30.577  33.710  1.00  0.00    -0.203 F 
ATOM     68  C   UNL A   1      37.648  32.056  34.181  1.00  0.00     0.198 A 
ATOM     69  C   UNL A   1      37.001  33.731  32.636  1.00  0.00     0.198 A 
ATOM     70  F   UNL A   1      38.186  34.091  30.700  1.00  0.00    -0.203 F 
ATOM     71  F   UNL A   1      37.524  31.468  35.379  1.00  0.00    -0.200 F 
ATOM     72  C   UNL A   1      36.821  33.107  33.849  1.00  0.00     0.200 A 
ATOM     73  F   UNL A   1      36.227  34.774  32.300  1.00  0.00    -0.200 F 
ATOM     74  F   UNL A   1      35.885  33.539  34.704  1.00  0.00    -0.200 F 
ENDBRANCH  50  64
BRANCH  51  75
ATOM     75  C   UNL A   1      45.488  26.540  27.301  1.00  0.00     0.064 A 
ATOM     76  C   UNL A   1      46.050  25.276  27.592  1.00  0.00     0.173 A 
ATOM     77  C   UNL A   1      44.578  26.605  26.236  1.00  0.00     0.173 A 
ATOM     78  F   UNL A   1      46.918  25.150  28.609  1.00  0.00    -0.203 F 
ATOM     79  C   UNL A   1      45.608  24.116  26.955  1.00  0.00     0.198 A 
ATOM     80  C   UNL A   1      44.139  25.437  25.599  1.00  0.00     0.198 A 
ATOM     81  F   UNL A   1      44.006  27.769  25.903  1.00  0.00    -0.203 F 
ATOM     82  F   UNL A   1      46.042  22.916  27.368  1.00  0.00    -0.200 F 
ATOM     83  C   UNL A   1      44.620  24.194  25.989  1.00  0.00     0.200 A 
ATOM     84  F   UNL A   1      43.167  25.504  24.678  1.00  0.00    -0.200 F 
ATOM     85  F   UNL A   1      44.084  23.073  25.485  1.00  0.00    -0.200 F 
ENDBRANCH  51  75
BRANCH  63  86
ATOM     86  C   UNL A   1      44.424  33.533  28.512  1.00  0.00     0.064 A 
ATOM     87  C   UNL A   1      44.087  33.882  27.193  1.00  0.00     0.173 A 
ATOM     88  C   UNL A   1      44.752  34.598  29.375  1.00  0.00     0.173 A 
ATOM     89  F   UNL A   1      43.617  32.973  26.326  1.00  0.00    -0.203 F 
ATOM     90  C   UNL A   1      44.173  35.194  26.740  1.00  0.00     0.198 A 
ATOM     91  C   UNL A   1      44.767  35.917  28.937  1.00  0.00     0.198 A 
ATOM     92  F   UNL A   1      45.035  34.390  30.670  1.00  0.00    -0.203 F 
ATOM     93  F   UNL A   1      43.906  35.468  25.457  1.00  0.00    -0.200 F 
ATOM     94  C   UNL A   1      44.505  36.211  27.613  1.00  0.00     0.200 A 
ATOM     95  F   UNL A   1      45.017  36.902  29.810  1.00  0.00    -0.200 F 
ATOM     96  F   UNL A   1      44.550  37.478  27.184  1.00  0.00    -0.200 F 
ENDBRANCH  63  86
ENDBRANCH  37  38
ENDBRANCH  30  32
ENDBRANCH  29  30
ENDBRANCH  28  29
ENDBRANCH  27  28
ENDBRANCH   1  27
TORSDOF 17
ENDMDL
MODEL 3
REMARK VINA RESULT:     -12.3      2.753      5.557
REMARK SMILES Cc1c(CC(=O)OCCOCCOC(=O)c2ccc(-c3c4nc(c(-c5c(F)c(F)c(F)c(F)c5F)c5ccc([nH]5)c(-c5c(F)c(F)c(F)c(F)c5F)c5nc(c(-c6c(F)c(F)c(F)c(F)c6F)c6ccc3[nH]6)C=C5)C=C4)cc2)cc(-c2ccccc2)cc1-c1ccccc1
REMARK SMILES IDX 10 1 9 2 8 3 7 4 5 5 6 6 4 7 3 8 1 9 2 10 88 11 79 12 87 13
REMARK SMILES IDX 80 14 89 15 90 16 94 17 91 18 93 19 92 20 81 21 82 22 86 23
REMARK SMILES IDX 83 24 85 25 84 26 11 27 12 28 13 29 14 30 15 31 16 32 17 33
REMARK SMILES IDX 78 34 18 35 77 36 19 37 20 38 21 39 71 40 22 41 76 42 70 43
REMARK SMILES IDX 72 44 23 45 75 46 69 47 68 48 24 50 56 51 36 52 55 53 37 54
REMARK SMILES IDX 40 55 54 56 73 57 38 58 39 59 53 61 74 62 41 63 25 64 26 65
REMARK SMILES IDX 34 66 27 67 28 68 32 69 35 70 29 71 30 72 33 73 31 74 57 75
REMARK SMILES IDX 58 76 66 77 59 78 60 79 64 80 67 81 61 82 62 83 65 84 63 85
REMARK SMILES IDX 42 86 43 87 51 88 44 89 45 90 49 91 52 92 46 93 47 94 50 95
REMARK SMILES IDX 48 96
REMARK H PARENT 72 49 40 60
REMARK Flexibility Score: inf
ROOT
ATOM      1  O   UNL A   1      35.560  22.620  23.913  1.00  0.00    -0.374 OA
ENDROOT
BRANCH   1   2
ATOM      2  C   UNL A   1      34.253  23.045  23.556  1.00  0.00     0.202 C 
BRANCH   2   3
ATOM      3  C   UNL A   1      34.137  24.480  23.955  1.00  0.00     0.261 C 
BRANCH   3   4
ATOM      4  O   UNL A   1      32.798  24.883  24.241  1.00  0.00    -0.463 OA
BRANCH   4   5
ATOM      5  C   UNL A   1      32.412  24.937  25.555  1.00  0.00     0.310 C 
ATOM      6  O   UNL A   1      33.075  24.574  26.502  1.00  0.00    -0.252 OA
BRANCH   5   7
ATOM      7  C   UNL A   1      31.006  25.515  25.646  1.00  0.00     0.158 C 
BRANCH   7   8
ATOM      8  C   UNL A   1      31.046  27.029  25.494  1.00  0.00    -0.033 A 
ATOM      9  C   UNL A   1      29.524  26.897  23.471  1.00  0.00     0.045 C 
ATOM     10  C   UNL A   1      30.388  27.690  24.431  1.00  0.00    -0.039 A 
ATOM     11  C   UNL A   1      30.609  29.077  24.244  1.00  0.00    -0.015 A 
ATOM     12  C   UNL A   1      31.977  27.732  26.285  1.00  0.00     0.013 A 
ATOM     13  C   UNL A   1      31.618  29.721  24.995  1.00  0.00     0.017 A 
ATOM     14  C   UNL A   1      32.322  29.059  26.005  1.00  0.00    -0.017 A 
BRANCH  11  15
ATOM     15  C   UNL A   1      29.751  29.890  23.367  1.00  0.00    -0.018 A 
ATOM     16  C   UNL A   1      29.867  29.878  21.970  1.00  0.00     0.009 A 
ATOM     17  C   UNL A   1      28.814  30.763  23.951  1.00  0.00     0.009 A 
ATOM     18  C   UNL A   1      29.072  30.721  21.188  1.00  0.00     0.001 A 
ATOM     19  C   UNL A   1      28.012  31.591  23.173  1.00  0.00     0.001 A 
ATOM     20  C   UNL A   1      28.146  31.575  21.789  1.00  0.00     0.000 A 
ENDBRANCH  11  15
BRANCH  14  21
ATOM     21  C   UNL A   1      33.401  29.715  26.752  1.00  0.00    -0.018 A 
ATOM     22  C   UNL A   1      33.254  31.009  27.281  1.00  0.00     0.009 A 
ATOM     23  C   UNL A   1      34.636  29.077  26.908  1.00  0.00     0.009 A 
ATOM     24  C   UNL A   1      34.330  31.674  27.876  1.00  0.00     0.001 A 
ATOM     25  C   UNL A   1      35.704  29.726  27.531  1.00  0.00     0.001 A 
ATOM     26  C   UNL A   1      35.557  31.032  27.996  1.00  0.00     0.000 A 
ENDBRANCH  14  21
ENDBRANCH   7   8
ENDBRANCH   5   7
ENDBRANCH   4   5
ENDBRANCH   3   4
ENDBRANCH   2   3
ENDBRANCH   1   2
BRANCH   1  27
ATOM     27  C   UNL A   1      35.761  22.332  25.288  1.00  0.00     0.202 C 
BRANCH  27  28
ATOM     28  C   UNL A   1      37.118  21.693  25.632  1.00  0.00     0.261 C 
BRANCH  28  29
ATOM     29  O   UNL A   1      38.199  22.598  25.322  1.00  0.00    -0.460 OA
BRANCH  29  30
ATOM     30  C   UNL A   1      39.157  22.737  26.278  1.00  0.00     0.338 C 
ATOM     31  O   UNL A   1      39.684  21.819  26.892  1.00  0.00    -0.246 OA
BRANCH  30  32
ATOM     32  C   UNL A   1      39.234  24.168  26.691  1.00  0.00     0.060 A 
ATOM     33  C   UNL A   1      40.034  25.078  25.973  1.00  0.00     0.016 A 
ATOM     34  C   UNL A   1      38.814  24.482  27.978  1.00  0.00     0.016 A 
ATOM     35  C   UNL A   1      40.531  26.231  26.605  1.00  0.00     0.010 A 
ATOM     36  C   UNL A   1      39.436  25.517  28.634  1.00  0.00     0.010 A 
ATOM     37  C   UNL A   1      40.296  26.404  27.967  1.00  0.00    -0.014 A 
BRANCH  37  38
ATOM     38  C   UNL A   1      40.907  27.409  28.844  1.00  0.00     0.031 A 
ATOM     39  C   UNL A   1      40.018  28.489  29.338  1.00  0.00     0.074 A 
ATOM     40  C   UNL A   1      42.145  27.260  29.383  1.00  0.00     0.049 A 
ATOM     41  N   UNL A   1      40.436  29.626  29.773  1.00  0.00    -0.248 NA
ATOM     42  C   UNL A   1      38.559  28.397  29.344  1.00  0.00     0.031 C 
ATOM     43  C   UNL A   1      42.700  27.926  30.564  1.00  0.00     0.029 A 
ATOM     44  N   UNL A   1      43.215  26.443  28.974  1.00  0.00    -0.354 N 
ATOM     45  C   UNL A   1      39.380  30.246  30.406  1.00  0.00     0.074 A 
ATOM     46  C   UNL A   1      38.218  29.500  30.008  1.00  0.00     0.031 C 
ATOM     47  C   UNL A   1      44.036  27.757  30.589  1.00  0.00     0.029 A 
ATOM     48  C   UNL A   1      44.409  27.070  29.364  1.00  0.00     0.049 A 
ATOM     49  H   UNL A   1      43.140  25.583  28.500  1.00  0.00     0.167 HD
ATOM     50  C   UNL A   1      39.650  31.222  31.318  1.00  0.00     0.037 A 
ATOM     51  C   UNL A   1      45.346  27.425  28.443  1.00  0.00     0.037 A 
ATOM     52  C   UNL A   1      41.104  31.430  31.407  1.00  0.00     0.049 A 
ATOM     53  C   UNL A   1      45.468  28.916  28.449  1.00  0.00     0.074 A 
ATOM     54  C   UNL A   1      42.049  30.998  32.325  1.00  0.00     0.029 A 
ATOM     55  N   UNL A   1      41.818  31.837  30.278  1.00  0.00    -0.354 N 
ATOM     56  N   UNL A   1      44.526  29.677  28.933  1.00  0.00    -0.248 NA
ATOM     57  C   UNL A   1      46.624  29.673  27.988  1.00  0.00     0.031 C 
ATOM     58  C   UNL A   1      43.329  31.091  31.713  1.00  0.00     0.029 A 
ATOM     59  C   UNL A   1      43.173  31.600  30.433  1.00  0.00     0.049 A 
ATOM     60  H   UNL A   1      41.411  32.241  29.477  1.00  0.00     0.167 HD
ATOM     61  C   UNL A   1      44.927  30.969  28.910  1.00  0.00     0.074 A 
ATOM     62  C   UNL A   1      46.237  30.929  28.282  1.00  0.00     0.031 C 
ATOM     63  C   UNL A   1      44.132  31.963  29.394  1.00  0.00     0.037 A 
BRANCH  50  64
ATOM     64  C   UNL A   1      38.658  31.775  32.334  1.00  0.00     0.064 A 
ATOM     65  C   UNL A   1      37.720  32.757  31.947  1.00  0.00     0.173 A 
ATOM     66  C   UNL A   1      38.582  31.422  33.697  1.00  0.00     0.173 A 
ATOM     67  F   UNL A   1      37.593  33.137  30.668  1.00  0.00    -0.203 F 
ATOM     68  C   UNL A   1      36.856  33.383  32.853  1.00  0.00     0.198 A 
ATOM     69  C   UNL A   1      37.752  32.079  34.614  1.00  0.00     0.198 A 
ATOM     70  F   UNL A   1      39.238  30.375  34.200  1.00  0.00    -0.203 F 
ATOM     71  F   UNL A   1      35.986  34.304  32.413  1.00  0.00    -0.200 F 
ATOM     72  C   UNL A   1      36.890  33.064  34.193  1.00  0.00     0.200 A 
ATOM     73  F   UNL A   1      37.786  31.729  35.910  1.00  0.00    -0.200 F 
ATOM     74  F   UNL A   1      36.073  33.671  35.064  1.00  0.00    -0.200 F 
ENDBRANCH  50  64
BRANCH  51  75
ATOM     75  C   UNL A   1      45.359  26.496  27.272  1.00  0.00     0.064 A 
ATOM     76  C   UNL A   1      45.961  25.232  27.463  1.00  0.00     0.173 A 
ATOM     77  C   UNL A   1      44.426  26.609  26.232  1.00  0.00     0.173 A 
ATOM     78  F   UNL A   1      46.852  25.059  28.453  1.00  0.00    -0.203 F 
ATOM     79  C   UNL A   1      45.538  24.107  26.754  1.00  0.00     0.198 A 
ATOM     80  C   UNL A   1      44.006  25.477  25.522  1.00  0.00     0.198 A 
ATOM     81  F   UNL A   1      43.816  27.778  25.992  1.00  0.00    -0.203 F 
ATOM     82  F   UNL A   1      46.012  22.893  27.074  1.00  0.00    -0.200 F 
ATOM     83  C   UNL A   1      44.528  24.224  25.814  1.00  0.00     0.200 A 
ATOM     84  F   UNL A   1      43.015  25.581  24.625  1.00  0.00    -0.200 F 
ATOM     85  F   UNL A   1      44.013  23.126  25.243  1.00  0.00    -0.200 F 
ENDBRANCH  51  75
BRANCH  63  86
ATOM     86  C   UNL A   1      44.284  33.385  28.970  1.00  0.00     0.064 A 
ATOM     87  C   UNL A   1      44.735  34.390  29.845  1.00  0.00     0.173 A 
ATOM     88  C   UNL A   1      44.145  33.754  27.616  1.00  0.00     0.173 A 
ATOM     89  F   UNL A   1      45.044  34.119  31.122  1.00  0.00    -0.203 F 
ATOM     90  C   UNL A   1      44.932  35.697  29.416  1.00  0.00     0.198 A 
ATOM     91  C   UNL A   1      44.413  35.045  27.179  1.00  0.00     0.198 A 
ATOM     92  F   UNL A   1      43.778  32.864  26.682  1.00  0.00    -0.203 F 
ATOM     93  F   UNL A   1      45.297  36.634  30.301  1.00  0.00    -0.200 F 
ATOM     94  C   UNL A   1      44.779  36.023  28.083  1.00  0.00     0.200 A 
ATOM     95  F   UNL A   1      44.334  35.331  25.872  1.00  0.00    -0.200 F 
ATOM     96  F   UNL A   1      45.007  37.274  27.665  1.00  0.00    -0.200 F 
ENDBRANCH  63  86
ENDBRANCH  37  38
ENDBRANCH  30  32
ENDBRANCH  29  30
ENDBRANCH  28  29
ENDBRANCH  27  28
ENDBRANCH   1  27
TORSDOF 17
ENDMDL
