MODEL 1
REMARK VINA RESULT:     -12.6      0.000      0.000
REMARK SMILES NS(=O)(=O)c1ccc(-n2nc(C(=O)OCCOCCOC(=O)c3ccc(-c4c5nc(c(-c6c(F)c(F)c(F)c(F)c6F)c6ccc([nH]6)c(-c6c(F)c(F)c(F)c(F)c6F)c6nc(c(-c7c(F)c(F)c(F)c(F)c7F)c7ccc4[nH]7)C=C6)C=C5)cc3)cc2-c2ccc(Cl)s2)cc1
REMARK SMILES IDX 16 1 15 2 14 3 12 4 13 5 11 6 9 7 10 8 87 9 86 10 8 11 5 12
REMARK SMILES IDX 6 13 95 14 7 15 94 16 2 17 3 18 4 19 1 20 88 23 89 24 93 25
REMARK SMILES IDX 90 26 91 27 92 28 17 29 18 30 19 31 20 32 21 33 22 34 23 35
REMARK SMILES IDX 24 36 85 37 25 38 84 39 26 40 27 41 28 42 78 43 29 44 83 45
REMARK SMILES IDX 77 46 79 47 30 48 82 49 76 50 75 51 31 53 63 54 43 55 62 56
REMARK SMILES IDX 44 57 47 58 61 59 80 60 45 61 46 62 60 64 81 65 48 66 32 67
REMARK SMILES IDX 33 68 41 69 34 70 35 71 39 72 42 73 36 74 37 75 40 76 38 77
REMARK SMILES IDX 64 78 65 79 73 80 66 81 67 82 71 83 74 84 68 85 69 86 72 87
REMARK SMILES IDX 70 88 49 89 50 90 58 91 51 92 52 93 56 94 59 95 53 96 54 97
REMARK SMILES IDX 57 98 55 99
REMARK H PARENT 1 21 1 22 79 52 47 63
REMARK Flexibility Score: inf
ROOT
ATOM      1  C   UNL A   1      35.117  20.707  25.281  1.00  0.00     0.202 C 
ENDROOT
BRANCH   1   2
ATOM      2  C   UNL A   1      34.192  21.927  25.281  1.00  0.00     0.261 C 
BRANCH   2   3
ATOM      3  O   UNL A   1      33.599  22.167  23.995  1.00  0.00    -0.458 OA
BRANCH   3   4
ATOM      4  C   UNL A   1      34.010  23.318  23.379  1.00  0.00     0.358 C 
ATOM      5  O   UNL A   1      34.803  23.361  22.447  1.00  0.00    -0.244 OA
BRANCH   4   6
ATOM      6  C   UNL A   1      33.312  24.497  23.905  1.00  0.00     0.171 A 
ATOM      7  N   UNL A   1      31.973  26.161  23.952  1.00  0.00    -0.231 N 
ATOM      8  N   UNL A   1      32.209  24.995  23.312  1.00  0.00    -0.160 NA
ATOM      9  C   UNL A   1      32.811  26.341  25.039  1.00  0.00     0.085 A 
ATOM     10  C   UNL A   1      33.645  25.244  25.061  1.00  0.00     0.068 A 
BRANCH   7  11
ATOM     11  C   UNL A   1      31.055  27.090  23.413  1.00  0.00     0.065 A 
ATOM     12  C   UNL A   1      29.317  29.077  22.566  1.00  0.00     0.082 A 
ATOM     13  C   UNL A   1      30.660  29.123  22.179  1.00  0.00     0.024 A 
ATOM     14  C   UNL A   1      28.832  28.027  23.356  1.00  0.00     0.024 A 
ATOM     15  C   UNL A   1      31.537  28.133  22.612  1.00  0.00     0.030 A 
ATOM     16  C   UNL A   1      29.702  27.009  23.763  1.00  0.00     0.030 A 
BRANCH  12  17
ATOM     17  S   UNL A   1      28.277  30.404  22.032  1.00  0.00     0.238 S 
ATOM     18  O   UNL A   1      27.251  30.602  23.021  1.00  0.00    -0.207 OA
ATOM     19  O   UNL A   1      27.984  30.206  20.627  1.00  0.00    -0.207 OA
BRANCH  17  20
ATOM     20  N   UNL A   1      29.246  31.775  22.090  1.00  0.00    -0.225 NA
ATOM     21  H   UNL A   1      29.603  31.898  23.038  1.00  0.00     0.137 HD
ATOM     22  H   UNL A   1      28.695  32.592  21.825  1.00  0.00     0.137 HD
ENDBRANCH  17  20
ENDBRANCH  12  17
ENDBRANCH   7  11
BRANCH   9  23
ATOM     23  C   UNL A   1      32.799  27.477  25.912  1.00  0.00     0.054 A 
ATOM     24  C   UNL A   1      31.877  27.724  26.911  1.00  0.00     0.024 A 
ATOM     25  S   UNL A   1      33.988  28.713  25.835  1.00  0.00    -0.122 S 
ATOM     26  C   UNL A   1      32.209  28.882  27.676  1.00  0.00     0.033 A 
ATOM     27  C   UNL A   1      33.344  29.482  27.195  1.00  0.00     0.094 A 
ATOM     28  Cl  UNL A   1      34.115  30.877  27.832  1.00  0.00    -0.072 Cl
ENDBRANCH   9  23
ENDBRANCH   4   6
ENDBRANCH   3   4
ENDBRANCH   2   3
ENDBRANCH   1   2
BRANCH   1  29
ATOM     29  O   UNL A   1      36.380  20.814  24.628  1.00  0.00    -0.374 OA
BRANCH  29  30
ATOM     30  C   UNL A   1      37.249  21.906  24.907  1.00  0.00     0.202 C 
BRANCH  30  31
ATOM     31  C   UNL A   1      38.477  21.655  25.764  1.00  0.00     0.261 C 
BRANCH  31  32
ATOM     32  O   UNL A   1      38.832  22.793  26.534  1.00  0.00    -0.460 OA
BRANCH  32  33
ATOM     33  C   UNL A   1      40.044  22.698  27.124  1.00  0.00     0.338 C 
ATOM     34  O   UNL A   1      40.513  21.739  27.712  1.00  0.00    -0.246 OA
BRANCH  33  35
ATOM     35  C   UNL A   1      40.663  24.026  27.110  1.00  0.00     0.060 A 
ATOM     36  C   UNL A   1      41.648  24.251  28.072  1.00  0.00     0.016 A 
ATOM     37  C   UNL A   1      40.008  25.074  26.446  1.00  0.00     0.016 A 
ATOM     38  C   UNL A   1      41.776  25.523  28.572  1.00  0.00     0.010 A 
ATOM     39  C   UNL A   1      40.120  26.337  26.961  1.00  0.00     0.010 A 
ATOM     40  C   UNL A   1      40.921  26.518  28.082  1.00  0.00    -0.014 A 
BRANCH  40  41
ATOM     41  C   UNL A   1      40.963  27.818  28.704  1.00  0.00     0.031 A 
ATOM     42  C   UNL A   1      42.124  28.593  28.233  1.00  0.00     0.074 A 
ATOM     43  C   UNL A   1      39.990  28.267  29.518  1.00  0.00     0.049 A 
ATOM     44  N   UNL A   1      43.227  28.806  28.866  1.00  0.00    -0.248 NA
ATOM     45  C   UNL A   1      42.166  28.951  26.806  1.00  0.00     0.031 C 
ATOM     46  C   UNL A   1      38.680  27.672  29.792  1.00  0.00     0.029 A 
ATOM     47  N   UNL A   1      39.952  29.429  30.225  1.00  0.00    -0.354 N 
ATOM     48  C   UNL A   1      44.009  29.540  27.983  1.00  0.00     0.074 A 
ATOM     49  C   UNL A   1      43.429  29.359  26.681  1.00  0.00     0.031 C 
ATOM     50  C   UNL A   1      37.898  28.581  30.423  1.00  0.00     0.029 A 
ATOM     51  C   UNL A   1      38.695  29.757  30.722  1.00  0.00     0.049 A 
ATOM     52  H   UNL A   1      40.748  29.989  30.373  1.00  0.00     0.167 HD
ATOM     53  C   UNL A   1      44.838  30.510  28.453  1.00  0.00     0.037 A 
ATOM     54  C   UNL A   1      38.359  30.958  31.261  1.00  0.00     0.037 A 
ATOM     55  C   UNL A   1      45.082  30.328  29.864  1.00  0.00     0.049 A 
ATOM     56  C   UNL A   1      39.627  31.624  31.660  1.00  0.00     0.074 A 
ATOM     57  C   UNL A   1      45.667  29.352  30.645  1.00  0.00     0.029 A 
ATOM     58  N   UNL A   1      44.321  31.089  30.715  1.00  0.00    -0.354 N 
ATOM     59  N   UNL A   1      40.407  31.188  32.611  1.00  0.00    -0.248 NA
ATOM     60  C   UNL A   1      40.257  32.508  30.693  1.00  0.00     0.031 C 
ATOM     61  C   UNL A   1      44.904  29.326  31.853  1.00  0.00     0.029 A 
ATOM     62  C   UNL A   1      43.933  30.326  31.782  1.00  0.00     0.049 A 
ATOM     63  H   UNL A   1      44.090  32.037  30.578  1.00  0.00     0.167 HD
ATOM     64  C   UNL A   1      41.695  31.382  32.129  1.00  0.00     0.074 A 
ATOM     65  C   UNL A   1      41.539  32.284  30.991  1.00  0.00     0.031 C 
ATOM     66  C   UNL A   1      42.712  30.557  32.521  1.00  0.00     0.037 A 
BRANCH  53  67
ATOM     67  C   UNL A   1      45.019  31.851  27.771  1.00  0.00     0.064 A 
ATOM     68  C   UNL A   1      46.264  32.134  27.176  1.00  0.00     0.173 A 
ATOM     69  C   UNL A   1      44.164  32.965  27.935  1.00  0.00     0.173 A 
ATOM     70  F   UNL A   1      47.166  31.160  26.985  1.00  0.00    -0.203 F 
ATOM     71  C   UNL A   1      46.651  33.439  26.857  1.00  0.00     0.198 A 
ATOM     72  C   UNL A   1      44.532  34.256  27.565  1.00  0.00     0.198 A 
ATOM     73  F   UNL A   1      42.984  32.894  28.559  1.00  0.00    -0.203 F 
ATOM     74  F   UNL A   1      47.895  33.673  26.420  1.00  0.00    -0.200 F 
ATOM     75  C   UNL A   1      45.788  34.500  27.058  1.00  0.00     0.200 A 
ATOM     76  F   UNL A   1      43.684  35.270  27.790  1.00  0.00    -0.200 F 
ATOM     77  F   UNL A   1      46.178  35.756  26.813  1.00  0.00    -0.200 F 
ENDBRANCH  53  67
BRANCH  54  78
ATOM     78  C   UNL A   1      37.099  31.722  31.080  1.00  0.00     0.064 A 
ATOM     79  C   UNL A   1      36.262  32.006  32.174  1.00  0.00     0.173 A 
ATOM     80  C   UNL A   1      36.849  32.449  29.900  1.00  0.00     0.173 A 
ATOM     81  F   UNL A   1      36.466  31.400  33.353  1.00  0.00    -0.203 F 
ATOM     82  C   UNL A   1      35.253  32.974  32.098  1.00  0.00     0.198 A 
ATOM     83  C   UNL A   1      35.840  33.412  29.824  1.00  0.00     0.198 A 
ATOM     84  F   UNL A   1      37.643  32.314  28.829  1.00  0.00    -0.203 F 
ATOM     85  F   UNL A   1      34.518  33.263  33.182  1.00  0.00    -0.200 F 
ATOM     86  C   UNL A   1      35.051  33.685  30.926  1.00  0.00     0.200 A 
ATOM     87  F   UNL A   1      35.685  34.122  28.697  1.00  0.00    -0.200 F 
ATOM     88  F   UNL A   1      34.131  34.658  30.871  1.00  0.00    -0.200 F 
ENDBRANCH  54  78
BRANCH  66  89
ATOM     89  C   UNL A   1      42.467  29.679  33.719  1.00  0.00     0.064 A 
ATOM     90  C   UNL A   1      41.897  28.394  33.664  1.00  0.00     0.173 A 
ATOM     91  C   UNL A   1      42.948  30.116  34.959  1.00  0.00     0.173 A 
ATOM     92  F   UNL A   1      41.496  27.867  32.500  1.00  0.00    -0.203 F 
ATOM     93  C   UNL A   1      41.781  27.606  34.810  1.00  0.00     0.198 A 
ATOM     94  C   UNL A   1      42.867  29.313  36.093  1.00  0.00     0.198 A 
ATOM     95  F   UNL A   1      43.544  31.315  35.062  1.00  0.00    -0.203 F 
ATOM     96  F   UNL A   1      41.223  26.389  34.737  1.00  0.00    -0.200 F 
ATOM     97  C   UNL A   1      42.275  28.064  36.021  1.00  0.00     0.200 A 
ATOM     98  F   UNL A   1      43.388  29.743  37.250  1.00  0.00    -0.200 F 
ATOM     99  F   UNL A   1      42.202  27.292  37.114  1.00  0.00    -0.200 F 
ENDBRANCH  66  89
ENDBRANCH  40  41
ENDBRANCH  33  35
ENDBRANCH  32  33
ENDBRANCH  31  32
ENDBRANCH  30  31
ENDBRANCH  29  30
ENDBRANCH   1  29
TORSDOF 18
ENDMDL
MODEL 2
REMARK VINA RESULT:     -11.8      3.311      4.847
REMARK SMILES NS(=O)(=O)c1ccc(-n2nc(C(=O)OCCOCCOC(=O)c3ccc(-c4c5nc(c(-c6c(F)c(F)c(F)c(F)c6F)c6ccc([nH]6)c(-c6c(F)c(F)c(F)c(F)c6F)c6nc(c(-c7c(F)c(F)c(F)c(F)c7F)c7ccc4[nH]7)C=C6)C=C5)cc3)cc2-c2ccc(Cl)s2)cc1
REMARK SMILES IDX 16 1 15 2 14 3 12 4 13 5 11 6 9 7 10 8 87 9 86 10 8 11 5 12
REMARK SMILES IDX 6 13 95 14 7 15 94 16 2 17 3 18 4 19 1 20 88 23 89 24 93 25
REMARK SMILES IDX 90 26 91 27 92 28 17 29 18 30 19 31 20 32 21 33 22 34 23 35
REMARK SMILES IDX 24 36 85 37 25 38 84 39 26 40 27 41 28 42 78 43 29 44 83 45
REMARK SMILES IDX 77 46 79 47 30 48 82 49 76 50 75 51 31 53 63 54 43 55 62 56
REMARK SMILES IDX 44 57 47 58 61 59 80 60 45 61 46 62 60 64 81 65 48 66 32 67
REMARK SMILES IDX 33 68 41 69 34 70 35 71 39 72 42 73 36 74 37 75 40 76 38 77
REMARK SMILES IDX 64 78 65 79 73 80 66 81 67 82 71 83 74 84 68 85 69 86 72 87
REMARK SMILES IDX 70 88 49 89 50 90 58 91 51 92 52 93 56 94 59 95 53 96 54 97
REMARK SMILES IDX 57 98 55 99
REMARK H PARENT 1 21 1 22 79 52 47 63
REMARK Flexibility Score: inf
ROOT
ATOM      1  C   UNL A   1      41.738  19.529  26.067  1.00  0.00     0.202 C 
ENDROOT
BRANCH   1   2
ATOM      2  C   UNL A   1      40.781  20.503  26.758  1.00  0.00     0.261 C 
BRANCH   2   3
ATOM      3  O   UNL A   1      39.712  20.927  25.898  1.00  0.00    -0.458 OA
BRANCH   3   4
ATOM      4  C   UNL A   1      39.101  22.094  26.271  1.00  0.00     0.358 C 
ATOM      5  O   UNL A   1      39.655  23.003  26.877  1.00  0.00    -0.244 OA
BRANCH   4   6
ATOM      6  C   UNL A   1      37.722  22.170  25.776  1.00  0.00     0.171 A 
ATOM      7  N   UNL A   1      35.755  22.949  25.478  1.00  0.00    -0.231 N 
ATOM      8  N   UNL A   1      37.005  23.310  25.841  1.00  0.00    -0.160 NA
ATOM      9  C   UNL A   1      35.695  21.638  25.038  1.00  0.00     0.085 A 
ATOM     10  C   UNL A   1      36.973  21.136  25.166  1.00  0.00     0.068 A 
BRANCH   7  11
ATOM     11  C   UNL A   1      34.673  23.831  25.697  1.00  0.00     0.065 A 
ATOM     12  C   UNL A   1      32.399  25.392  25.972  1.00  0.00     0.082 A 
ATOM     13  C   UNL A   1      32.618  24.330  26.855  1.00  0.00     0.024 A 
ATOM     14  C   UNL A   1      33.324  25.693  24.965  1.00  0.00     0.024 A 
ATOM     15  C   UNL A   1      33.754  23.538  26.712  1.00  0.00     0.030 A 
ATOM     16  C   UNL A   1      34.486  24.923  24.841  1.00  0.00     0.030 A 
BRANCH  12  17
ATOM     17  S   UNL A   1      30.903  26.314  26.174  1.00  0.00     0.238 S 
ATOM     18  O   UNL A   1      31.148  27.375  27.114  1.00  0.00    -0.207 OA
ATOM     19  O   UNL A   1      29.812  25.372  26.321  1.00  0.00    -0.207 OA
BRANCH  17  20
ATOM     20  N   UNL A   1      30.641  27.060  24.692  1.00  0.00    -0.225 NA
ATOM     21  H   UNL A   1      31.125  26.540  23.960  1.00  0.00     0.137 HD
ATOM     22  H   UNL A   1      30.999  28.015  24.725  1.00  0.00     0.137 HD
ENDBRANCH  17  20
ENDBRANCH  12  17
ENDBRANCH   7  11
BRANCH   9  23
ATOM     23  C   UNL A   1      34.510  20.971  24.587  1.00  0.00     0.054 A 
ATOM     24  C   UNL A   1      33.432  21.566  23.960  1.00  0.00     0.024 A 
ATOM     25  S   UNL A   1      34.280  19.278  24.760  1.00  0.00    -0.122 S 
ATOM     26  C   UNL A   1      32.462  20.611  23.534  1.00  0.00     0.033 A 
ATOM     27  C   UNL A   1      32.829  19.340  23.896  1.00  0.00     0.094 A 
ATOM     28  Cl  UNL A   1      31.974  17.891  23.558  1.00  0.00    -0.072 Cl
ENDBRANCH   9  23
ENDBRANCH   4   6
ENDBRANCH   3   4
ENDBRANCH   2   3
ENDBRANCH   1   2
BRANCH   1  29
ATOM     29  O   UNL A   1      43.109  19.898  25.942  1.00  0.00    -0.374 OA
BRANCH  29  30
ATOM     30  C   UNL A   1      43.983  19.163  25.092  1.00  0.00     0.202 C 
BRANCH  30  31
ATOM     31  C   UNL A   1      44.969  19.930  24.228  1.00  0.00     0.261 C 
BRANCH  31  32
ATOM     32  O   UNL A   1      45.859  20.716  25.005  1.00  0.00    -0.460 OA
BRANCH  32  33
ATOM     33  C   UNL A   1      45.856  22.028  24.679  1.00  0.00     0.338 C 
ATOM     34  O   UNL A   1      46.614  22.609  23.922  1.00  0.00    -0.246 OA
BRANCH  33  35
ATOM     35  C   UNL A   1      44.886  22.709  25.541  1.00  0.00     0.060 A 
ATOM     36  C   UNL A   1      43.953  23.517  24.891  1.00  0.00     0.016 A 
ATOM     37  C   UNL A   1      45.163  22.833  26.910  1.00  0.00     0.016 A 
ATOM     38  C   UNL A   1      43.507  24.636  25.549  1.00  0.00     0.010 A 
ATOM     39  C   UNL A   1      44.736  23.961  27.558  1.00  0.00     0.010 A 
ATOM     40  C   UNL A   1      44.004  24.893  26.832  1.00  0.00    -0.014 A 
BRANCH  40  41
ATOM     41  C   UNL A   1      43.641  26.137  27.466  1.00  0.00     0.031 A 
ATOM     42  C   UNL A   1      44.575  27.214  27.095  1.00  0.00     0.074 A 
ATOM     43  C   UNL A   1      42.526  26.277  28.206  1.00  0.00     0.049 A 
ATOM     44  N   UNL A   1      45.528  27.701  27.814  1.00  0.00    -0.248 NA
ATOM     45  C   UNL A   1      44.621  27.613  25.679  1.00  0.00     0.031 C 
ATOM     46  C   UNL A   1      41.414  25.338  28.371  1.00  0.00     0.029 A 
ATOM     47  N   UNL A   1      42.118  27.362  28.918  1.00  0.00    -0.354 N 
ATOM     48  C   UNL A   1      46.139  28.648  27.001  1.00  0.00     0.074 A 
ATOM     49  C   UNL A   1      45.727  28.354  25.657  1.00  0.00     0.031 C 
ATOM     50  C   UNL A   1      40.368  25.978  28.948  1.00  0.00     0.029 A 
ATOM     51  C   UNL A   1      40.786  27.319  29.318  1.00  0.00     0.049 A 
ATOM     52  H   UNL A   1      42.716  28.114  29.133  1.00  0.00     0.167 HD
ATOM     53  C   UNL A   1      46.633  29.793  27.543  1.00  0.00     0.037 A 
ATOM     54  C   UNL A   1      40.094  28.364  29.839  1.00  0.00     0.037 A 
ATOM     55  C   UNL A   1      46.814  29.642  28.968  1.00  0.00     0.049 A 
ATOM     56  C   UNL A   1      41.097  29.340  30.342  1.00  0.00     0.074 A 
ATOM     57  C   UNL A   1      47.587  28.841  29.783  1.00  0.00     0.029 A 
ATOM     58  N   UNL A   1      45.813  30.140  29.763  1.00  0.00    -0.354 N 
ATOM     59  N   UNL A   1      41.896  29.106  31.348  1.00  0.00    -0.248 NA
ATOM     60  C   UNL A   1      41.528  30.392  29.436  1.00  0.00     0.031 C 
ATOM     61  C   UNL A   1      46.775  28.571  30.927  1.00  0.00     0.029 A 
ATOM     62  C   UNL A   1      45.574  29.268  30.790  1.00  0.00     0.049 A 
ATOM     63  H   UNL A   1      45.340  30.992  29.617  1.00  0.00     0.167 HD
ATOM     64  C   UNL A   1      43.112  29.660  30.970  1.00  0.00     0.074 A 
ATOM     65  C   UNL A   1      42.797  30.518  29.831  1.00  0.00     0.031 C 
ATOM     66  C   UNL A   1      44.285  29.134  31.433  1.00  0.00     0.037 A 
BRANCH  53  67
ATOM     67  C   UNL A   1      46.486  31.152  26.890  1.00  0.00     0.064 A 
ATOM     68  C   UNL A   1      47.612  31.999  26.852  1.00  0.00     0.173 A 
ATOM     69  C   UNL A   1      45.255  31.776  26.584  1.00  0.00     0.173 A 
ATOM     70  F   UNL A   1      48.832  31.524  27.142  1.00  0.00    -0.203 F 
ATOM     71  C   UNL A   1      47.496  33.372  26.617  1.00  0.00     0.198 A 
ATOM     72  C   UNL A   1      45.151  33.134  26.295  1.00  0.00     0.198 A 
ATOM     73  F   UNL A   1      44.079  31.144  26.657  1.00  0.00    -0.203 F 
ATOM     74  F   UNL A   1      48.577  34.156  26.725  1.00  0.00    -0.200 F 
ATOM     75  C   UNL A   1      46.265  33.940  26.345  1.00  0.00     0.200 A 
ATOM     76  F   UNL A   1      43.943  33.664  26.055  1.00  0.00    -0.200 F 
ATOM     77  F   UNL A   1      46.143  35.262  26.181  1.00  0.00    -0.200 F 
ENDBRANCH  53  67
BRANCH  54  78
ATOM     78  C   UNL A   1      38.689  28.760  29.568  1.00  0.00     0.064 A 
ATOM     79  C   UNL A   1      37.808  29.066  30.620  1.00  0.00     0.173 A 
ATOM     80  C   UNL A   1      38.275  29.141  28.277  1.00  0.00     0.173 A 
ATOM     81  F   UNL A   1      38.149  28.788  31.887  1.00  0.00    -0.203 F 
ATOM     82  C   UNL A   1      36.598  29.736  30.396  1.00  0.00     0.198 A 
ATOM     83  C   UNL A   1      37.067  29.805  28.055  1.00  0.00     0.198 A 
ATOM     84  F   UNL A   1      39.079  28.970  27.219  1.00  0.00    -0.203 F 
ATOM     85  F   UNL A   1      35.815  30.070  31.432  1.00  0.00    -0.200 F 
ATOM     86  C   UNL A   1      36.234  30.115  29.114  1.00  0.00     0.200 A 
ATOM     87  F   UNL A   1      36.748  30.204  26.814  1.00  0.00    -0.200 F 
ATOM     88  F   UNL A   1      35.110  30.813  28.905  1.00  0.00    -0.200 F 
ENDBRANCH  54  78
BRANCH  66  89
ATOM     89  C   UNL A   1      44.206  28.186  32.600  1.00  0.00     0.064 A 
ATOM     90  C   UNL A   1      44.031  26.795  32.489  1.00  0.00     0.173 A 
ATOM     91  C   UNL A   1      44.441  28.704  33.880  1.00  0.00     0.173 A 
ATOM     92  F   UNL A   1      43.890  26.211  31.292  1.00  0.00    -0.203 F 
ATOM     93  C   UNL A   1      44.052  25.972  33.616  1.00  0.00     0.198 A 
ATOM     94  C   UNL A   1      44.502  27.877  34.998  1.00  0.00     0.198 A 
ATOM     95  F   UNL A   1      44.663  30.019  34.041  1.00  0.00    -0.203 F 
ATOM     96  F   UNL A   1      43.870  24.650  33.488  1.00  0.00    -0.200 F 
ATOM     97  C   UNL A   1      44.297  26.514  34.868  1.00  0.00     0.200 A 
ATOM     98  F   UNL A   1      44.786  28.401  36.197  1.00  0.00    -0.200 F 
ATOM     99  F   UNL A   1      44.359  25.720  35.945  1.00  0.00    -0.200 F 
ENDBRANCH  66  89
ENDBRANCH  40  41
ENDBRANCH  33  35
ENDBRANCH  32  33
ENDBRANCH  31  32
ENDBRANCH  30  31
ENDBRANCH  29  30
ENDBRANCH   1  29
TORSDOF 18
ENDMDL
MODEL 3
REMARK VINA RESULT:     -11.7      1.981      3.157
REMARK SMILES NS(=O)(=O)c1ccc(-n2nc(C(=O)OCCOCCOC(=O)c3ccc(-c4c5nc(c(-c6c(F)c(F)c(F)c(F)c6F)c6ccc([nH]6)c(-c6c(F)c(F)c(F)c(F)c6F)c6nc(c(-c7c(F)c(F)c(F)c(F)c7F)c7ccc4[nH]7)C=C6)C=C5)cc3)cc2-c2ccc(Cl)s2)cc1
REMARK SMILES IDX 16 1 15 2 14 3 12 4 13 5 11 6 9 7 10 8 87 9 86 10 8 11 5 12
REMARK SMILES IDX 6 13 95 14 7 15 94 16 2 17 3 18 4 19 1 20 88 23 89 24 93 25
REMARK SMILES IDX 90 26 91 27 92 28 17 29 18 30 19 31 20 32 21 33 22 34 23 35
REMARK SMILES IDX 24 36 85 37 25 38 84 39 26 40 27 41 28 42 78 43 29 44 83 45
REMARK SMILES IDX 77 46 79 47 30 48 82 49 76 50 75 51 31 53 63 54 43 55 62 56
REMARK SMILES IDX 44 57 47 58 61 59 80 60 45 61 46 62 60 64 81 65 48 66 32 67
REMARK SMILES IDX 33 68 41 69 34 70 35 71 39 72 42 73 36 74 37 75 40 76 38 77
REMARK SMILES IDX 64 78 65 79 73 80 66 81 67 82 71 83 74 84 68 85 69 86 72 87
REMARK SMILES IDX 70 88 49 89 50 90 58 91 51 92 52 93 56 94 59 95 53 96 54 97
REMARK SMILES IDX 57 98 55 99
REMARK H PARENT 1 21 1 22 79 52 47 63
REMARK Flexibility Score: inf
ROOT
ATOM      1  C   UNL A   1      40.161  20.425  26.522  1.00  0.00     0.202 C 
ENDROOT
BRANCH   1   2
ATOM      2  C   UNL A   1      39.695  21.736  25.884  1.00  0.00     0.261 C 
BRANCH   2   3
ATOM      3  O   UNL A   1      38.264  21.866  25.877  1.00  0.00    -0.458 OA
BRANCH   3   4
ATOM      4  C   UNL A   1      37.799  23.113  26.193  1.00  0.00     0.358 C 
ATOM      5  O   UNL A   1      38.476  23.998  26.701  1.00  0.00    -0.244 OA
BRANCH   4   6
ATOM      6  C   UNL A   1      36.408  23.302  25.762  1.00  0.00     0.171 A 
ATOM      7  N   UNL A   1      34.699  24.270  24.922  1.00  0.00    -0.231 N 
ATOM      8  N   UNL A   1      36.050  24.303  24.934  1.00  0.00    -0.160 NA
ATOM      9  C   UNL A   1      34.196  23.174  25.602  1.00  0.00     0.085 A 
ATOM     10  C   UNL A   1      35.291  22.502  26.102  1.00  0.00     0.068 A 
BRANCH   7  11
ATOM     11  C   UNL A   1      33.970  25.350  24.378  1.00  0.00     0.065 A 
ATOM     12  C   UNL A   1      32.316  27.361  23.425  1.00  0.00     0.082 A 
ATOM     13  C   UNL A   1      32.875  27.474  24.702  1.00  0.00     0.024 A 
ATOM     14  C   UNL A   1      32.599  26.257  22.611  1.00  0.00     0.024 A 
ATOM     15  C   UNL A   1      33.697  26.461  25.186  1.00  0.00     0.030 A 
ATOM     16  C   UNL A   1      33.455  25.254  23.079  1.00  0.00     0.030 A 
BRANCH  12  17
ATOM     17  S   UNL A   1      31.230  28.656  22.902  1.00  0.00     0.238 S 
ATOM     18  O   UNL A   1      30.916  29.472  24.044  1.00  0.00    -0.207 OA
ATOM     19  O   UNL A   1      30.215  28.072  22.050  1.00  0.00    -0.207 OA
BRANCH  17  20
ATOM     20  N   UNL A   1      32.154  29.622  21.885  1.00  0.00    -0.225 NA
ATOM     21  H   UNL A   1      32.524  29.055  21.121  1.00  0.00     0.137 HD
ATOM     22  H   UNL A   1      32.928  30.028  22.412  1.00  0.00     0.137 HD
ENDBRANCH  17  20
ENDBRANCH  12  17
ENDBRANCH   7  11
BRANCH   9  23
ATOM     23  C   UNL A   1      32.806  22.866  25.761  1.00  0.00     0.054 A 
ATOM     24  C   UNL A   1      32.064  22.021  24.958  1.00  0.00     0.024 A 
ATOM     25  S   UNL A   1      31.854  23.522  27.030  1.00  0.00    -0.122 S 
ATOM     26  C   UNL A   1      30.737  21.837  25.450  1.00  0.00     0.033 A 
ATOM     27  C   UNL A   1      30.521  22.586  26.577  1.00  0.00     0.094 A 
ATOM     28  Cl  UNL A   1      29.082  22.642  27.510  1.00  0.00    -0.072 Cl
ENDBRANCH   9  23
ENDBRANCH   4   6
ENDBRANCH   3   4
ENDBRANCH   2   3
ENDBRANCH   1   2
BRANCH   1  29
ATOM     29  O   UNL A   1      41.531  20.300  26.893  1.00  0.00    -0.374 OA
BRANCH  29  30
ATOM     30  C   UNL A   1      42.533  20.089  25.904  1.00  0.00     0.202 C 
BRANCH  30  31
ATOM     31  C   UNL A   1      43.577  21.171  25.687  1.00  0.00     0.261 C 
BRANCH  31  32
ATOM     32  O   UNL A   1      43.346  22.306  26.506  1.00  0.00    -0.460 OA
BRANCH  32  33
ATOM     33  C   UNL A   1      43.036  23.425  25.814  1.00  0.00     0.338 C 
ATOM     34  O   UNL A   1      43.479  23.781  24.736  1.00  0.00    -0.246 OA
BRANCH  33  35
ATOM     35  C   UNL A   1      42.193  24.268  26.667  1.00  0.00     0.060 A 
ATOM     36  C   UNL A   1      41.455  25.255  26.012  1.00  0.00     0.016 A 
ATOM     37  C   UNL A   1      42.448  24.311  28.045  1.00  0.00     0.016 A 
ATOM     38  C   UNL A   1      41.218  26.428  26.685  1.00  0.00     0.010 A 
ATOM     39  C   UNL A   1      42.231  25.489  28.708  1.00  0.00     0.010 A 
ATOM     40  C   UNL A   1      41.718  26.560  27.985  1.00  0.00    -0.014 A 
BRANCH  40  41
ATOM     41  C   UNL A   1      41.586  27.839  28.639  1.00  0.00     0.031 A 
ATOM     42  C   UNL A   1      42.714  28.725  28.302  1.00  0.00     0.074 A 
ATOM     43  C   UNL A   1      40.506  28.177  29.366  1.00  0.00     0.049 A 
ATOM     44  N   UNL A   1      43.730  29.010  29.043  1.00  0.00    -0.248 NA
ATOM     45  C   UNL A   1      42.859  29.131  26.894  1.00  0.00     0.031 C 
ATOM     46  C   UNL A   1      39.233  27.464  29.497  1.00  0.00     0.029 A 
ATOM     47  N   UNL A   1      40.299  29.308  30.093  1.00  0.00    -0.354 N 
ATOM     48  C   UNL A   1      44.524  29.837  28.257  1.00  0.00     0.074 A 
ATOM     49  C   UNL A   1      44.087  29.649  26.902  1.00  0.00     0.031 C 
ATOM     50  C   UNL A   1      38.318  28.281  30.072  1.00  0.00     0.029 A 
ATOM     51  C   UNL A   1      38.977  29.511  30.474  1.00  0.00     0.049 A 
ATOM     52  H   UNL A   1      41.026  29.929  30.331  1.00  0.00     0.167 HD
ATOM     53  C   UNL A   1      45.217  30.858  28.828  1.00  0.00     0.037 A 
ATOM     54  C   UNL A   1      38.487  30.661  31.007  1.00  0.00     0.037 A 
ATOM     55  C   UNL A   1      45.341  30.652  30.252  1.00  0.00     0.049 A 
ATOM     56  C   UNL A   1      39.649  31.419  31.542  1.00  0.00     0.074 A 
ATOM     57  C   UNL A   1      45.934  29.705  31.062  1.00  0.00     0.029 A 
ATOM     58  N   UNL A   1      44.440  31.318  31.042  1.00  0.00    -0.354 N 
ATOM     59  N   UNL A   1      40.371  31.021  32.553  1.00  0.00    -0.248 NA
ATOM     60  C   UNL A   1      40.286  32.385  30.662  1.00  0.00     0.031 C 
ATOM     61  C   UNL A   1      45.066  29.575  32.189  1.00  0.00     0.029 A 
ATOM     62  C   UNL A   1      44.022  30.490  32.049  1.00  0.00     0.049 A 
ATOM     63  H   UNL A   1      44.140  32.246  30.907  1.00  0.00     0.167 HD
ATOM     64  C   UNL A   1      41.676  31.340  32.203  1.00  0.00     0.074 A 
ATOM     65  C   UNL A   1      41.550  32.262  31.077  1.00  0.00     0.031 C 
ATOM     66  C   UNL A   1      42.720  30.593  32.672  1.00  0.00     0.037 A 
BRANCH  53  67
ATOM     67  C   UNL A   1      45.342  32.231  28.199  1.00  0.00     0.064 A 
ATOM     68  C   UNL A   1      44.165  32.977  27.988  1.00  0.00     0.173 A 
ATOM     69  C   UNL A   1      46.488  32.714  27.528  1.00  0.00     0.173 A 
ATOM     70  F   UNL A   1      43.010  32.605  28.559  1.00  0.00    -0.203 F 
ATOM     71  C   UNL A   1      44.126  34.060  27.105  1.00  0.00     0.198 A 
ATOM     72  C   UNL A   1      46.457  33.828  26.692  1.00  0.00     0.198 A 
ATOM     73  F   UNL A   1      47.665  32.081  27.546  1.00  0.00    -0.203 F 
ATOM     74  F   UNL A   1      42.955  34.652  26.835  1.00  0.00    -0.200 F 
ATOM     75  C   UNL A   1      45.270  34.480  26.452  1.00  0.00     0.200 A 
ATOM     76  F   UNL A   1      47.576  34.201  26.054  1.00  0.00    -0.200 F 
ATOM     77  F   UNL A   1      45.222  35.476  25.560  1.00  0.00    -0.200 F 
ENDBRANCH  53  67
BRANCH  54  78
ATOM     78  C   UNL A   1      37.188  31.321  30.724  1.00  0.00     0.064 A 
ATOM     79  C   UNL A   1      36.246  31.532  31.746  1.00  0.00     0.173 A 
ATOM     80  C   UNL A   1      36.974  32.028  29.525  1.00  0.00     0.173 A 
ATOM     81  F   UNL A   1      36.404  30.941  32.940  1.00  0.00    -0.203 F 
ATOM     82  C   UNL A   1      35.171  32.415  31.587  1.00  0.00     0.198 A 
ATOM     83  C   UNL A   1      35.899  32.905  29.366  1.00  0.00     0.198 A 
ATOM     84  F   UNL A   1      37.859  31.961  28.521  1.00  0.00    -0.203 F 
ATOM     85  F   UNL A   1      34.331  32.640  32.607  1.00  0.00    -0.200 F 
ATOM     86  C   UNL A   1      35.005  33.109  30.400  1.00  0.00     0.200 A 
ATOM     87  F   UNL A   1      35.777  33.604  28.227  1.00  0.00    -0.200 F 
ATOM     88  F   UNL A   1      34.016  34.004  30.268  1.00  0.00    -0.200 F 
ENDBRANCH  54  78
BRANCH  66  89
ATOM     89  C   UNL A   1      42.442  29.658  33.819  1.00  0.00     0.064 A 
ATOM     90  C   UNL A   1      41.922  28.359  33.682  1.00  0.00     0.173 A 
ATOM     91  C   UNL A   1      42.839  30.061  35.100  1.00  0.00     0.173 A 
ATOM     92  F   UNL A   1      41.603  27.867  32.478  1.00  0.00    -0.203 F 
ATOM     93  C   UNL A   1      41.772  27.521  34.788  1.00  0.00     0.198 A 
ATOM     94  C   UNL A   1      42.725  29.209  36.196  1.00  0.00     0.198 A 
ATOM     95  F   UNL A   1      43.387  31.273  35.283  1.00  0.00    -0.203 F 
ATOM     96  F   UNL A   1      41.261  26.290  34.637  1.00  0.00    -0.200 F 
ATOM     97  C   UNL A   1      42.183  27.945  36.042  1.00  0.00     0.200 A 
ATOM     98  F   UNL A   1      43.168  29.608  37.395  1.00  0.00    -0.200 F 
ATOM     99  F   UNL A   1      42.078  27.127  37.098  1.00  0.00    -0.200 F 
ENDBRANCH  66  89
ENDBRANCH  40  41
ENDBRANCH  33  35
ENDBRANCH  32  33
ENDBRANCH  31  32
ENDBRANCH  30  31
ENDBRANCH  29  30
ENDBRANCH   1  29
TORSDOF 18
ENDMDL
