MODEL 1
REMARK VINA RESULT:     -12.1      0.000      0.000
REMARK SMILES CC1(C)C(C(=O)Nc2ccc(CC(=O)OCCOCCOC(=O)c3ccc(-c4c5nc(c(-c6c(F)c(F)c(F)c(F)c6F)c6ccc([nH]6)c(-c6c(F)c(F)c(F)c(F)c6F)c6nc(c(-c7c(F)c(F)c(F)c(F)c7F)c7ccc4[nH]7)C=C6)C=C5)cc3)cc2)C1(C)C
REMARK SMILES IDX 17 1 16 2 15 3 13 4 14 5 12 6 11 7 8 8 9 9 88 10 10 11 87 12
REMARK SMILES IDX 7 13 5 14 6 15 4 17 1 18 2 19 3 20 89 21 90 22 91 23 18 24
REMARK SMILES IDX 19 25 20 26 21 27 22 28 23 29 24 30 25 31 86 32 26 33 85 34
REMARK SMILES IDX 27 35 28 36 29 37 79 38 30 39 84 40 78 41 80 42 31 43 83 44
REMARK SMILES IDX 77 45 76 46 32 48 64 49 44 50 63 51 45 52 48 53 62 54 81 55
REMARK SMILES IDX 46 56 47 57 61 59 82 60 49 61 33 62 34 63 42 64 35 65 36 66
REMARK SMILES IDX 40 67 43 68 37 69 38 70 41 71 39 72 65 73 66 74 74 75 67 76
REMARK SMILES IDX 68 77 72 78 75 79 69 80 70 81 73 82 71 83 50 84 51 85 59 86
REMARK SMILES IDX 52 87 53 88 57 89 60 90 54 91 55 92 58 93 56 94
REMARK H PARENT 7 16 80 47 48 58
REMARK Flexibility Score: inf
ROOT
ATOM      1  C   UNL A   1      44.243  18.994  24.975  1.00  0.00     0.202 C 
ENDROOT
BRANCH   1   2
ATOM      2  C   UNL A   1      43.074  18.689  25.913  1.00  0.00     0.261 C 
BRANCH   2   3
ATOM      3  O   UNL A   1      41.918  19.446  25.519  1.00  0.00    -0.463 OA
BRANCH   3   4
ATOM      4  C   UNL A   1      41.316  20.155  26.505  1.00  0.00     0.310 C 
ATOM      5  O   UNL A   1      41.022  19.708  27.609  1.00  0.00    -0.252 OA
BRANCH   4   6
ATOM      6  C   UNL A   1      41.014  21.578  26.124  1.00  0.00     0.158 C 
BRANCH   6   7
ATOM      7  C   UNL A   1      39.576  22.056  26.128  1.00  0.00    -0.037 A 
ATOM      8  C   UNL A   1      37.188  23.296  25.430  1.00  0.00     0.041 A 
ATOM      9  C   UNL A   1      37.362  21.949  25.121  1.00  0.00     0.026 A 
ATOM     10  C   UNL A   1      38.069  23.931  26.304  1.00  0.00     0.026 A 
ATOM     11  C   UNL A   1      38.581  21.343  25.435  1.00  0.00     0.006 A 
ATOM     12  C   UNL A   1      39.260  23.307  26.666  1.00  0.00     0.006 A 
BRANCH   8  13
ATOM     13  N   UNL A   1      36.239  24.023  24.692  1.00  0.00    -0.326 N 
ATOM     14  C   UNL A   1      35.119  23.447  24.138  1.00  0.00     0.228 C 
ATOM     15  O   UNL A   1      35.046  23.232  22.930  1.00  0.00    -0.274 OA
ATOM     16  H   UNL A   1      36.381  24.989  24.566  1.00  0.00     0.169 HD
BRANCH  14  17
ATOM     17  C   UNL A   1      33.859  23.371  24.956  1.00  0.00     0.091 C 
ATOM     18  C   UNL A   1      31.433  22.556  24.546  1.00  0.00     0.012 C 
ATOM     19  C   UNL A   1      32.873  22.202  24.860  1.00  0.00    -0.017 C 
ATOM     20  C   UNL A   1      33.249  20.907  24.181  1.00  0.00     0.012 C 
ATOM     21  C   UNL A   1      33.491  22.602  26.223  1.00  0.00    -0.017 C 
ATOM     22  C   UNL A   1      32.609  23.321  27.233  1.00  0.00     0.012 C 
ATOM     23  C   UNL A   1      34.473  21.723  26.953  1.00  0.00     0.012 C 
ENDBRANCH  14  17
ENDBRANCH   8  13
ENDBRANCH   6   7
ENDBRANCH   4   6
ENDBRANCH   3   4
ENDBRANCH   2   3
ENDBRANCH   1   2
BRANCH   1  24
ATOM     24  O   UNL A   1      44.139  20.219  24.245  1.00  0.00    -0.374 OA
BRANCH  24  25
ATOM     25  C   UNL A   1      44.888  21.332  24.736  1.00  0.00     0.202 C 
BRANCH  25  26
ATOM     26  C   UNL A   1      44.761  22.627  23.929  1.00  0.00     0.261 C 
BRANCH  26  27
ATOM     27  O   UNL A   1      43.885  23.572  24.567  1.00  0.00    -0.460 OA
BRANCH  27  28
ATOM     28  C   UNL A   1      44.504  24.694  25.008  1.00  0.00     0.338 C 
ATOM     29  O   UNL A   1      45.570  25.149  24.629  1.00  0.00    -0.246 OA
BRANCH  28  30
ATOM     30  C   UNL A   1      43.627  25.441  25.927  1.00  0.00     0.060 A 
ATOM     31  C   UNL A   1      44.040  26.732  26.277  1.00  0.00     0.016 A 
ATOM     32  C   UNL A   1      42.491  24.876  26.512  1.00  0.00     0.016 A 
ATOM     33  C   UNL A   1      43.360  27.437  27.264  1.00  0.00     0.010 A 
ATOM     34  C   UNL A   1      41.809  25.586  27.511  1.00  0.00     0.010 A 
ATOM     35  C   UNL A   1      42.268  26.850  27.921  1.00  0.00    -0.014 A 
BRANCH  35  36
ATOM     36  C   UNL A   1      41.720  27.537  29.118  1.00  0.00     0.031 A 
ATOM     37  C   UNL A   1      42.429  27.395  30.437  1.00  0.00     0.074 A 
ATOM     38  C   UNL A   1      40.659  28.355  29.005  1.00  0.00     0.049 A 
ATOM     39  N   UNL A   1      42.195  28.004  31.574  1.00  0.00    -0.248 NA
ATOM     40  C   UNL A   1      43.554  26.447  30.485  1.00  0.00     0.031 C 
ATOM     41  C   UNL A   1      39.898  28.585  27.779  1.00  0.00     0.029 A 
ATOM     42  N   UNL A   1      40.047  29.157  29.936  1.00  0.00    -0.354 N 
ATOM     43  C   UNL A   1      43.142  27.516  32.466  1.00  0.00     0.074 A 
ATOM     44  C   UNL A   1      43.935  26.539  31.752  1.00  0.00     0.031 C 
ATOM     45  C   UNL A   1      38.920  29.473  28.031  1.00  0.00     0.029 A 
ATOM     46  C   UNL A   1      38.981  29.866  29.438  1.00  0.00     0.049 A 
ATOM     47  H   UNL A   1      40.345  29.219  30.873  1.00  0.00     0.167 HD
ATOM     48  C   UNL A   1      43.340  27.863  33.760  1.00  0.00     0.037 A 
ATOM     49  C   UNL A   1      38.150  30.731  30.051  1.00  0.00     0.037 A 
ATOM     50  C   UNL A   1      42.563  28.847  34.466  1.00  0.00     0.049 A 
ATOM     51  C   UNL A   1      38.381  31.077  31.499  1.00  0.00     0.074 A 
ATOM     52  C   UNL A   1      42.725  29.305  35.763  1.00  0.00     0.029 A 
ATOM     53  N   UNL A   1      41.473  29.520  33.937  1.00  0.00    -0.354 N 
ATOM     54  N   UNL A   1      39.324  30.664  32.311  1.00  0.00    -0.248 NA
ATOM     55  C   UNL A   1      37.435  32.022  32.113  1.00  0.00     0.031 C 
ATOM     56  C   UNL A   1      41.701  30.219  36.034  1.00  0.00     0.029 A 
ATOM     57  C   UNL A   1      40.932  30.365  34.892  1.00  0.00     0.049 A 
ATOM     58  H   UNL A   1      41.134  29.412  33.019  1.00  0.00     0.167 HD
ATOM     59  C   UNL A   1      39.099  31.312  33.518  1.00  0.00     0.074 A 
ATOM     60  C   UNL A   1      37.947  32.165  33.327  1.00  0.00     0.031 C 
ATOM     61  C   UNL A   1      39.783  31.207  34.684  1.00  0.00     0.037 A 
BRANCH  48  62
ATOM     62  C   UNL A   1      44.435  27.168  34.513  1.00  0.00     0.064 A 
ATOM     63  C   UNL A   1      44.226  25.931  35.137  1.00  0.00     0.173 A 
ATOM     64  C   UNL A   1      45.729  27.710  34.539  1.00  0.00     0.173 A 
ATOM     65  F   UNL A   1      43.005  25.375  35.148  1.00  0.00    -0.203 F 
ATOM     66  C   UNL A   1      45.273  25.264  35.770  1.00  0.00     0.198 A 
ATOM     67  C   UNL A   1      46.777  27.031  35.152  1.00  0.00     0.198 A 
ATOM     68  F   UNL A   1      45.979  28.890  33.950  1.00  0.00    -0.203 F 
ATOM     69  F   UNL A   1      45.049  24.092  36.381  1.00  0.00    -0.200 F 
ATOM     70  C   UNL A   1      46.549  25.811  35.768  1.00  0.00     0.200 A 
ATOM     71  F   UNL A   1      48.011  27.555  35.140  1.00  0.00    -0.200 F 
ATOM     72  F   UNL A   1      47.559  25.160  36.362  1.00  0.00    -0.200 F 
ENDBRANCH  48  62
BRANCH  49  73
ATOM     73  C   UNL A   1      37.015  31.333  29.303  1.00  0.00     0.064 A 
ATOM     74  C   UNL A   1      37.008  32.692  28.958  1.00  0.00     0.173 A 
ATOM     75  C   UNL A   1      35.891  30.567  28.961  1.00  0.00     0.173 A 
ATOM     76  F   UNL A   1      38.049  33.472  29.288  1.00  0.00    -0.203 F 
ATOM     77  C   UNL A   1      35.908  33.268  28.325  1.00  0.00     0.198 A 
ATOM     78  C   UNL A   1      34.804  31.137  28.301  1.00  0.00     0.198 A 
ATOM     79  F   UNL A   1      35.847  29.263  29.270  1.00  0.00    -0.203 F 
ATOM     80  F   UNL A   1      35.903  34.581  28.059  1.00  0.00    -0.200 F 
ATOM     81  C   UNL A   1      34.809  32.489  27.993  1.00  0.00     0.200 A 
ATOM     82  F   UNL A   1      33.750  30.379  27.974  1.00  0.00    -0.200 F 
ATOM     83  F   UNL A   1      33.749  33.044  27.390  1.00  0.00    -0.200 F 
ENDBRANCH  49  73
BRANCH  61  84
ATOM     84  C   UNL A   1      39.310  32.048  35.834  1.00  0.00     0.064 A 
ATOM     85  C   UNL A   1      39.824  33.334  36.060  1.00  0.00     0.173 A 
ATOM     86  C   UNL A   1      38.320  31.573  36.706  1.00  0.00     0.173 A 
ATOM     87  F   UNL A   1      40.784  33.827  35.263  1.00  0.00    -0.203 F 
ATOM     88  C   UNL A   1      39.385  34.100  37.136  1.00  0.00     0.198 A 
ATOM     89  C   UNL A   1      37.863  32.354  37.764  1.00  0.00     0.198 A 
ATOM     90  F   UNL A   1      37.790  30.353  36.528  1.00  0.00    -0.203 F 
ATOM     91  F   UNL A   1      39.929  35.304  37.365  1.00  0.00    -0.200 F 
ATOM     92  C   UNL A   1      38.402  33.612  37.984  1.00  0.00     0.200 A 
ATOM     93  F   UNL A   1      36.903  31.886  38.575  1.00  0.00    -0.200 F 
ATOM     94  F   UNL A   1      37.981  34.351  39.019  1.00  0.00    -0.200 F 
ENDBRANCH  61  84
ENDBRANCH  35  36
ENDBRANCH  28  30
ENDBRANCH  27  28
ENDBRANCH  26  27
ENDBRANCH  25  26
ENDBRANCH  24  25
ENDBRANCH   1  24
TORSDOF 17
ENDMDL
MODEL 2
REMARK VINA RESULT:     -11.8      0.743      1.984
REMARK SMILES CC1(C)C(C(=O)Nc2ccc(CC(=O)OCCOCCOC(=O)c3ccc(-c4c5nc(c(-c6c(F)c(F)c(F)c(F)c6F)c6ccc([nH]6)c(-c6c(F)c(F)c(F)c(F)c6F)c6nc(c(-c7c(F)c(F)c(F)c(F)c7F)c7ccc4[nH]7)C=C6)C=C5)cc3)cc2)C1(C)C
REMARK SMILES IDX 17 1 16 2 15 3 13 4 14 5 12 6 11 7 8 8 9 9 88 10 10 11 87 12
REMARK SMILES IDX 7 13 5 14 6 15 4 17 1 18 2 19 3 20 89 21 90 22 91 23 18 24
REMARK SMILES IDX 19 25 20 26 21 27 22 28 23 29 24 30 25 31 86 32 26 33 85 34
REMARK SMILES IDX 27 35 28 36 29 37 79 38 30 39 84 40 78 41 80 42 31 43 83 44
REMARK SMILES IDX 77 45 76 46 32 48 64 49 44 50 63 51 45 52 48 53 62 54 81 55
REMARK SMILES IDX 46 56 47 57 61 59 82 60 49 61 33 62 34 63 42 64 35 65 36 66
REMARK SMILES IDX 40 67 43 68 37 69 38 70 41 71 39 72 65 73 66 74 74 75 67 76
REMARK SMILES IDX 68 77 72 78 75 79 69 80 70 81 73 82 71 83 50 84 51 85 59 86
REMARK SMILES IDX 52 87 53 88 57 89 60 90 54 91 55 92 58 93 56 94
REMARK H PARENT 7 16 80 47 48 58
REMARK Flexibility Score: inf
ROOT
ATOM      1  C   UNL A   1      45.767  19.289  25.195  1.00  0.00     0.202 C 
ENDROOT
BRANCH   1   2
ATOM      2  C   UNL A   1      44.355  18.708  25.290  1.00  0.00     0.261 C 
BRANCH   2   3
ATOM      3  O   UNL A   1      43.391  19.691  24.874  1.00  0.00    -0.463 OA
BRANCH   3   4
ATOM      4  C   UNL A   1      42.665  20.258  25.868  1.00  0.00     0.310 C 
ATOM      5  O   UNL A   1      43.008  21.244  26.510  1.00  0.00    -0.252 OA
BRANCH   4   6
ATOM      6  C   UNL A   1      41.365  19.551  26.142  1.00  0.00     0.158 C 
BRANCH   6   7
ATOM      7  C   UNL A   1      40.078  20.348  26.147  1.00  0.00    -0.037 A 
ATOM      8  C   UNL A   1      38.054  22.129  25.466  1.00  0.00     0.041 A 
ATOM      9  C   UNL A   1      37.918  20.790  25.112  1.00  0.00     0.026 A 
ATOM     10  C   UNL A   1      39.042  22.515  26.372  1.00  0.00     0.026 A 
ATOM     11  C   UNL A   1      38.958  19.908  25.417  1.00  0.00     0.006 A 
ATOM     12  C   UNL A   1      40.049  21.620  26.725  1.00  0.00     0.006 A 
BRANCH   8  13
ATOM     13  N   UNL A   1      37.313  23.080  24.745  1.00  0.00    -0.326 N 
ATOM     14  C   UNL A   1      36.366  22.737  23.807  1.00  0.00     0.228 C 
ATOM     15  O   UNL A   1      36.593  22.847  22.605  1.00  0.00    -0.274 OA
ATOM     16  H   UNL A   1      37.478  24.035  24.918  1.00  0.00     0.169 HD
BRANCH  14  17
ATOM     17  C   UNL A   1      34.943  22.531  24.251  1.00  0.00     0.091 C 
ATOM     18  C   UNL A   1      33.421  23.515  26.104  1.00  0.00     0.012 C 
ATOM     19  C   UNL A   1      34.047  23.677  24.733  1.00  0.00    -0.017 C 
ATOM     20  C   UNL A   1      34.419  25.122  24.499  1.00  0.00     0.012 C 
ATOM     21  C   UNL A   1      33.600  22.765  23.563  1.00  0.00    -0.017 C 
ATOM     22  C   UNL A   1      32.506  21.740  23.824  1.00  0.00     0.012 C 
ATOM     23  C   UNL A   1      33.488  23.265  22.146  1.00  0.00     0.012 C 
ENDBRANCH  14  17
ENDBRANCH   8  13
ENDBRANCH   6   7
ENDBRANCH   4   6
ENDBRANCH   3   4
ENDBRANCH   2   3
ENDBRANCH   1   2
BRANCH   1  24
ATOM     24  O   UNL A   1      45.935  20.339  24.239  1.00  0.00    -0.374 OA
BRANCH  24  25
ATOM     25  C   UNL A   1      46.003  21.672  24.745  1.00  0.00     0.202 C 
BRANCH  25  26
ATOM     26  C   UNL A   1      45.261  22.733  23.927  1.00  0.00     0.261 C 
BRANCH  26  27
ATOM     27  O   UNL A   1      44.385  23.525  24.748  1.00  0.00    -0.460 OA
BRANCH  27  28
ATOM     28  C   UNL A   1      44.863  24.757  25.045  1.00  0.00     0.338 C 
ATOM     29  O   UNL A   1      45.828  25.315  24.550  1.00  0.00    -0.246 OA
BRANCH  28  30
ATOM     30  C   UNL A   1      43.947  25.462  25.959  1.00  0.00     0.060 A 
ATOM     31  C   UNL A   1      44.260  26.793  26.257  1.00  0.00     0.016 A 
ATOM     32  C   UNL A   1      42.874  24.826  26.588  1.00  0.00     0.016 A 
ATOM     33  C   UNL A   1      43.546  27.474  27.237  1.00  0.00     0.010 A 
ATOM     34  C   UNL A   1      42.157  25.513  27.580  1.00  0.00     0.010 A 
ATOM     35  C   UNL A   1      42.519  26.824  27.938  1.00  0.00    -0.014 A 
BRANCH  35  36
ATOM     36  C   UNL A   1      41.942  27.505  29.124  1.00  0.00     0.031 A 
ATOM     37  C   UNL A   1      42.640  27.389  30.451  1.00  0.00     0.074 A 
ATOM     38  C   UNL A   1      40.861  28.295  28.995  1.00  0.00     0.049 A 
ATOM     39  N   UNL A   1      42.380  28.000  31.581  1.00  0.00    -0.248 NA
ATOM     40  C   UNL A   1      43.788  26.470  30.518  1.00  0.00     0.031 C 
ATOM     41  C   UNL A   1      40.108  28.497  27.759  1.00  0.00     0.029 A 
ATOM     42  N   UNL A   1      40.220  29.087  29.914  1.00  0.00    -0.354 N 
ATOM     43  C   UNL A   1      43.329  27.542  32.486  1.00  0.00     0.074 A 
ATOM     44  C   UNL A   1      44.154  26.580  31.787  1.00  0.00     0.031 C 
ATOM     45  C   UNL A   1      39.105  29.362  27.995  1.00  0.00     0.029 A 
ATOM     46  C   UNL A   1      39.142  29.765  29.400  1.00  0.00     0.049 A 
ATOM     47  H   UNL A   1      40.506  29.163  30.853  1.00  0.00     0.167 HD
ATOM     48  C   UNL A   1      43.504  27.902  33.780  1.00  0.00     0.037 A 
ATOM     49  C   UNL A   1      38.283  30.614  29.998  1.00  0.00     0.037 A 
ATOM     50  C   UNL A   1      42.696  28.871  34.471  1.00  0.00     0.049 A 
ATOM     51  C   UNL A   1      38.490  30.975  31.446  1.00  0.00     0.074 A 
ATOM     52  C   UNL A   1      42.832  29.342  35.767  1.00  0.00     0.029 A 
ATOM     53  N   UNL A   1      41.594  29.512  33.926  1.00  0.00    -0.354 N 
ATOM     54  N   UNL A   1      39.434  30.591  32.270  1.00  0.00    -0.248 NA
ATOM     55  C   UNL A   1      37.515  31.899  32.044  1.00  0.00     0.031 C 
ATOM     56  C   UNL A   1      41.784  30.232  36.021  1.00  0.00     0.029 A 
ATOM     57  C   UNL A   1      41.023  30.350  34.870  1.00  0.00     0.049 A 
ATOM     58  H   UNL A   1      41.268  29.390  33.006  1.00  0.00     0.167 HD
ATOM     59  C   UNL A   1      39.181  31.242  33.471  1.00  0.00     0.074 A 
ATOM     60  C   UNL A   1      38.009  32.064  33.262  1.00  0.00     0.031 C 
ATOM     61  C   UNL A   1      39.855  31.162  34.644  1.00  0.00     0.037 A 
BRANCH  48  62
ATOM     62  C   UNL A   1      44.608  27.240  34.549  1.00  0.00     0.064 A 
ATOM     63  C   UNL A   1      45.869  27.837  34.685  1.00  0.00     0.173 A 
ATOM     64  C   UNL A   1      44.374  26.033  35.224  1.00  0.00     0.173 A 
ATOM     65  F   UNL A   1      46.145  28.987  34.051  1.00  0.00    -0.203 F 
ATOM     66  C   UNL A   1      46.861  27.243  35.463  1.00  0.00     0.198 A 
ATOM     67  C   UNL A   1      45.359  25.453  36.018  1.00  0.00     0.198 A 
ATOM     68  F   UNL A   1      43.181  25.425  35.128  1.00  0.00    -0.203 F 
ATOM     69  F   UNL A   1      48.067  27.818  35.563  1.00  0.00    -0.200 F 
ATOM     70  C   UNL A   1      46.601  26.057  36.136  1.00  0.00     0.200 A 
ATOM     71  F   UNL A   1      45.103  24.314  36.676  1.00  0.00    -0.200 F 
ATOM     72  F   UNL A   1      47.551  25.497  36.898  1.00  0.00    -0.200 F 
ENDBRANCH  48  62
BRANCH  49  73
ATOM     73  C   UNL A   1      37.141  31.182  29.235  1.00  0.00     0.064 A 
ATOM     74  C   UNL A   1      37.123  32.527  28.842  1.00  0.00     0.173 A 
ATOM     75  C   UNL A   1      36.020  30.397  28.925  1.00  0.00     0.173 A 
ATOM     76  F   UNL A   1      38.160  33.325  29.139  1.00  0.00    -0.203 F 
ATOM     77  C   UNL A   1      36.017  33.074  28.194  1.00  0.00     0.198 A 
ATOM     78  C   UNL A   1      34.927  30.936  28.250  1.00  0.00     0.198 A 
ATOM     79  F   UNL A   1      35.986  29.104  29.279  1.00  0.00    -0.203 F 
ATOM     80  F   UNL A   1      36.003  34.377  27.882  1.00  0.00    -0.200 F 
ATOM     81  C   UNL A   1      34.922  32.277  27.895  1.00  0.00     0.200 A 
ATOM     82  F   UNL A   1      33.876  30.161  27.954  1.00  0.00    -0.200 F 
ATOM     83  F   UNL A   1      33.856  32.804  27.277  1.00  0.00    -0.200 F 
ENDBRANCH  49  73
BRANCH  61  84
ATOM     84  C   UNL A   1      39.349  31.999  35.783  1.00  0.00     0.064 A 
ATOM     85  C   UNL A   1      38.405  31.501  36.693  1.00  0.00     0.173 A 
ATOM     86  C   UNL A   1      39.827  33.303  35.979  1.00  0.00     0.173 A 
ATOM     87  F   UNL A   1      37.906  30.265  36.540  1.00  0.00    -0.203 F 
ATOM     88  C   UNL A   1      37.935  32.290  37.740  1.00  0.00     0.198 A 
ATOM     89  C   UNL A   1      39.377  34.078  37.043  1.00  0.00     0.198 A 
ATOM     90  F   UNL A   1      40.737  33.823  35.141  1.00  0.00    -0.203 F 
ATOM     91  F   UNL A   1      36.993  31.812  38.566  1.00  0.00    -0.200 F 
ATOM     92  C   UNL A   1      38.425  33.576  37.917  1.00  0.00     0.200 A 
ATOM     93  F   UNL A   1      39.860  35.316  37.221  1.00  0.00    -0.200 F 
ATOM     94  F   UNL A   1      37.971  34.333  38.924  1.00  0.00    -0.200 F 
ENDBRANCH  61  84
ENDBRANCH  35  36
ENDBRANCH  28  30
ENDBRANCH  27  28
ENDBRANCH  26  27
ENDBRANCH  25  26
ENDBRANCH  24  25
ENDBRANCH   1  24
TORSDOF 17
ENDMDL
MODEL 3
REMARK VINA RESULT:     -11.4      1.380      2.927
REMARK SMILES CC1(C)C(C(=O)Nc2ccc(CC(=O)OCCOCCOC(=O)c3ccc(-c4c5nc(c(-c6c(F)c(F)c(F)c(F)c6F)c6ccc([nH]6)c(-c6c(F)c(F)c(F)c(F)c6F)c6nc(c(-c7c(F)c(F)c(F)c(F)c7F)c7ccc4[nH]7)C=C6)C=C5)cc3)cc2)C1(C)C
REMARK SMILES IDX 17 1 16 2 15 3 13 4 14 5 12 6 11 7 8 8 9 9 88 10 10 11 87 12
REMARK SMILES IDX 7 13 5 14 6 15 4 17 1 18 2 19 3 20 89 21 90 22 91 23 18 24
REMARK SMILES IDX 19 25 20 26 21 27 22 28 23 29 24 30 25 31 86 32 26 33 85 34
REMARK SMILES IDX 27 35 28 36 29 37 79 38 30 39 84 40 78 41 80 42 31 43 83 44
REMARK SMILES IDX 77 45 76 46 32 48 64 49 44 50 63 51 45 52 48 53 62 54 81 55
REMARK SMILES IDX 46 56 47 57 61 59 82 60 49 61 33 62 34 63 42 64 35 65 36 66
REMARK SMILES IDX 40 67 43 68 37 69 38 70 41 71 39 72 65 73 66 74 74 75 67 76
REMARK SMILES IDX 68 77 72 78 75 79 69 80 70 81 73 82 71 83 50 84 51 85 59 86
REMARK SMILES IDX 52 87 53 88 57 89 60 90 54 91 55 92 58 93 56 94
REMARK H PARENT 7 16 80 47 48 58
REMARK Flexibility Score: inf
ROOT
ATOM      1  C   UNL A   1      41.219  20.916  27.109  1.00  0.00     0.202 C 
ENDROOT
BRANCH   1   2
ATOM      2  C   UNL A   1      40.018  21.829  26.852  1.00  0.00     0.261 C 
BRANCH   2   3
ATOM      3  O   UNL A   1      39.061  21.156  26.016  1.00  0.00    -0.463 OA
BRANCH   3   4
ATOM      4  C   UNL A   1      38.053  21.927  25.541  1.00  0.00     0.310 C 
ATOM      5  O   UNL A   1      37.972  23.142  25.689  1.00  0.00    -0.252 OA
BRANCH   4   6
ATOM      6  C   UNL A   1      36.998  21.150  24.802  1.00  0.00     0.158 C 
BRANCH   6   7
ATOM      7  C   UNL A   1      35.612  21.034  25.399  1.00  0.00    -0.037 A 
ATOM      8  C   UNL A   1      32.958  21.526  26.067  1.00  0.00     0.041 A 
ATOM      9  C   UNL A   1      33.238  20.624  25.044  1.00  0.00     0.026 A 
ATOM     10  C   UNL A   1      33.978  21.961  26.913  1.00  0.00     0.026 A 
ATOM     11  C   UNL A   1      34.571  20.414  24.683  1.00  0.00     0.006 A 
ATOM     12  C   UNL A   1      35.307  21.704  26.588  1.00  0.00     0.006 A 
BRANCH   8  13
ATOM     13  N   UNL A   1      31.686  22.122  26.090  1.00  0.00    -0.326 N 
ATOM     14  C   UNL A   1      31.493  23.473  26.263  1.00  0.00     0.228 C 
ATOM     15  O   UNL A   1      31.093  23.925  27.332  1.00  0.00    -0.274 OA
ATOM     16  H   UNL A   1      30.895  21.545  25.976  1.00  0.00     0.169 HD
BRANCH  14  17
ATOM     17  C   UNL A   1      31.466  24.365  25.052  1.00  0.00     0.091 C 
ATOM     18  C   UNL A   1      31.140  26.901  24.629  1.00  0.00     0.012 C 
ATOM     19  C   UNL A   1      32.067  25.775  25.044  1.00  0.00    -0.017 C 
ATOM     20  C   UNL A   1      32.996  26.244  26.138  1.00  0.00     0.012 C 
ATOM     21  C   UNL A   1      32.519  24.720  24.004  1.00  0.00    -0.017 C 
ATOM     22  C   UNL A   1      32.038  24.868  22.569  1.00  0.00     0.012 C 
ATOM     23  C   UNL A   1      33.903  24.124  24.008  1.00  0.00     0.012 C 
ENDBRANCH  14  17
ENDBRANCH   8  13
ENDBRANCH   6   7
ENDBRANCH   4   6
ENDBRANCH   3   4
ENDBRANCH   2   3
ENDBRANCH   1   2
BRANCH   1  24
ATOM     24  O   UNL A   1      42.499  21.503  26.861  1.00  0.00    -0.374 OA
BRANCH  24  25
ATOM     25  C   UNL A   1      43.071  21.287  25.570  1.00  0.00     0.202 C 
BRANCH  25  26
ATOM     26  C   UNL A   1      44.146  22.292  25.143  1.00  0.00     0.261 C 
BRANCH  26  27
ATOM     27  O   UNL A   1      43.571  23.504  24.627  1.00  0.00    -0.460 OA
BRANCH  27  28
ATOM     28  C   UNL A   1      44.222  24.631  24.999  1.00  0.00     0.338 C 
ATOM     29  O   UNL A   1      45.279  25.054  24.561  1.00  0.00    -0.246 OA
BRANCH  28  30
ATOM     30  C   UNL A   1      43.394  25.428  25.921  1.00  0.00     0.060 A 
ATOM     31  C   UNL A   1      43.902  26.675  26.304  1.00  0.00     0.016 A 
ATOM     32  C   UNL A   1      42.208  24.943  26.479  1.00  0.00     0.016 A 
ATOM     33  C   UNL A   1      43.266  27.412  27.296  1.00  0.00     0.010 A 
ATOM     34  C   UNL A   1      41.570  25.686  27.484  1.00  0.00     0.010 A 
ATOM     35  C   UNL A   1      42.121  26.902  27.926  1.00  0.00    -0.014 A 
BRANCH  35  36
ATOM     36  C   UNL A   1      41.611  27.606  29.129  1.00  0.00     0.031 A 
ATOM     37  C   UNL A   1      42.364  27.487  30.426  1.00  0.00     0.074 A 
ATOM     38  C   UNL A   1      40.544  28.420  29.039  1.00  0.00     0.049 A 
ATOM     39  N   UNL A   1      42.167  28.114  31.560  1.00  0.00    -0.248 NA
ATOM     40  C   UNL A   1      43.493  26.543  30.452  1.00  0.00     0.031 C 
ATOM     41  C   UNL A   1      39.741  28.627  27.835  1.00  0.00     0.029 A 
ATOM     42  N   UNL A   1      39.961  29.235  29.977  1.00  0.00    -0.354 N 
ATOM     43  C   UNL A   1      43.145  27.643  32.427  1.00  0.00     0.074 A 
ATOM     44  C   UNL A   1      43.917  26.657  31.703  1.00  0.00     0.031 C 
ATOM     45  C   UNL A   1      38.770  29.517  28.106  1.00  0.00     0.029 A 
ATOM     46  C   UNL A   1      38.877  29.932  29.503  1.00  0.00     0.049 A 
ATOM     47  H   UNL A   1      40.290  29.313  30.901  1.00  0.00     0.167 HD
ATOM     48  C   UNL A   1      43.384  28.012  33.708  1.00  0.00     0.037 A 
ATOM     49  C   UNL A   1      38.064  30.806  30.129  1.00  0.00     0.037 A 
ATOM     50  C   UNL A   1      42.628  29.006  34.424  1.00  0.00     0.049 A 
ATOM     51  C   UNL A   1      38.342  31.176  31.563  1.00  0.00     0.074 A 
ATOM     52  C   UNL A   1      42.832  29.485  35.707  1.00  0.00     0.029 A 
ATOM     53  N   UNL A   1      41.519  29.667  33.921  1.00  0.00    -0.354 N 
ATOM     54  N   UNL A   1      39.313  30.779  32.349  1.00  0.00    -0.248 NA
ATOM     55  C   UNL A   1      37.415  32.127  32.193  1.00  0.00     0.031 C 
ATOM     56  C   UNL A   1      41.816  30.401  35.997  1.00  0.00     0.029 A 
ATOM     57  C   UNL A   1      41.008  30.526  34.880  1.00  0.00     0.049 A 
ATOM     58  H   UNL A   1      41.150  29.543  33.016  1.00  0.00     0.167 HD
ATOM     59  C   UNL A   1      39.127  31.446  33.553  1.00  0.00     0.074 A 
ATOM     60  C   UNL A   1      37.966  32.292  33.387  1.00  0.00     0.031 C 
ATOM     61  C   UNL A   1      39.850  31.362  34.697  1.00  0.00     0.037 A 
BRANCH  48  62
ATOM     62  C   UNL A   1      44.506  27.333  34.435  1.00  0.00     0.064 A 
ATOM     63  C   UNL A   1      45.797  27.876  34.465  1.00  0.00     0.173 A 
ATOM     64  C   UNL A   1      44.264  26.166  35.176  1.00  0.00     0.173 A 
ATOM     65  F   UNL A   1      46.082  28.984  33.765  1.00  0.00    -0.203 F 
ATOM     66  C   UNL A   1      46.811  27.269  35.205  1.00  0.00     0.198 A 
ATOM     67  C   UNL A   1      45.272  25.576  35.932  1.00  0.00     0.198 A 
ATOM     68  F   UNL A   1      43.042  25.611  35.183  1.00  0.00    -0.203 F 
ATOM     69  F   UNL A   1      48.045  27.792  35.204  1.00  0.00    -0.200 F 
ATOM     70  C   UNL A   1      46.544  26.126  35.945  1.00  0.00     0.200 A 
ATOM     71  F   UNL A   1      45.010  24.478  36.655  1.00  0.00    -0.200 F 
ATOM     72  F   UNL A   1      47.515  25.555  36.670  1.00  0.00    -0.200 F 
ENDBRANCH  48  62
BRANCH  49  73
ATOM     73  C   UNL A   1      36.902  31.392  29.410  1.00  0.00     0.064 A 
ATOM     74  C   UNL A   1      35.793  30.611  29.059  1.00  0.00     0.173 A 
ATOM     75  C   UNL A   1      36.903  32.739  29.019  1.00  0.00     0.173 A 
ATOM     76  F   UNL A   1      35.757  29.311  29.389  1.00  0.00    -0.203 F 
ATOM     77  C   UNL A   1      34.740  31.148  28.320  1.00  0.00     0.198 A 
ATOM     78  C   UNL A   1      35.837  33.282  28.305  1.00  0.00     0.198 A 
ATOM     79  F   UNL A   1      37.942  33.528  29.328  1.00  0.00    -0.203 F 
ATOM     80  F   UNL A   1      33.719  30.364  27.947  1.00  0.00    -0.200 F 
ATOM     81  C   UNL A   1      34.761  32.483  27.946  1.00  0.00     0.200 A 
ATOM     82  F   UNL A   1      35.857  34.575  27.956  1.00  0.00    -0.200 F 
ATOM     83  F   UNL A   1      33.753  32.997  27.230  1.00  0.00    -0.200 F 
ENDBRANCH  49  73
BRANCH  61  84
ATOM     84  C   UNL A   1      39.413  32.220  35.848  1.00  0.00     0.064 A 
ATOM     85  C   UNL A   1      38.455  31.774  36.771  1.00  0.00     0.173 A 
ATOM     86  C   UNL A   1      39.971  33.492  36.042  1.00  0.00     0.173 A 
ATOM     87  F   UNL A   1      37.881  30.572  36.619  1.00  0.00    -0.203 F 
ATOM     88  C   UNL A   1      38.050  32.584  37.829  1.00  0.00     0.198 A 
ATOM     89  C   UNL A   1      39.585  34.287  37.117  1.00  0.00     0.198 A 
ATOM     90  F   UNL A   1      40.897  33.962  35.192  1.00  0.00    -0.203 F 
ATOM     91  F   UNL A   1      37.094  32.158  38.667  1.00  0.00    -0.200 F 
ATOM     92  C   UNL A   1      38.619  33.837  38.004  1.00  0.00     0.200 A 
ATOM     93  F   UNL A   1      40.144  35.493  37.293  1.00  0.00    -0.200 F 
ATOM     94  F   UNL A   1      38.227  34.614  39.022  1.00  0.00    -0.200 F 
ENDBRANCH  61  84
ENDBRANCH  35  36
ENDBRANCH  28  30
ENDBRANCH  27  28
ENDBRANCH  26  27
ENDBRANCH  25  26
ENDBRANCH  24  25
ENDBRANCH   1  24
TORSDOF 17
ENDMDL
