MODEL 1
REMARK VINA RESULT:     -10.1      0.000      0.000
REMARK SMILES CC[C@H]1CC[C@](O)([C@H](F)C(=O)OCCOCCOC(=O)c2ccc(-c3c4nc(c(-c5c(F)c(F)c(F)c(F)c5F)c5ccc([nH]5)c(-c5c(F)c(F)c(F)c(F)c5F)c5nc(c(-c6c(F)c(F)c(F)c(F)c6F)c6ccc3[nH]6)C=C5)C=C4)cc2)CC1
REMARK SMILES IDX 15 1 14 2 13 3 12 4 10 5 11 6 8 7 9 8 6 9 3 10 4 11 85 12
REMARK SMILES IDX 5 13 84 14 2 15 1 16 7 17 16 19 17 20 18 21 19 22 20 23
REMARK SMILES IDX 21 24 22 25 83 26 23 27 82 28 24 29 25 30 26 31 76 32 27 33
REMARK SMILES IDX 81 34 75 35 77 36 28 37 80 38 74 39 73 40 29 42 61 43 41 44
REMARK SMILES IDX 60 45 42 46 45 47 59 48 78 49 43 50 44 51 58 53 79 54 46 55
REMARK SMILES IDX 30 56 31 57 39 58 32 59 33 60 37 61 40 62 34 63 35 64 38 65
REMARK SMILES IDX 36 66 62 67 63 68 71 69 64 70 65 71 69 72 72 73 66 74 67 75
REMARK SMILES IDX 70 76 68 77 47 78 48 79 56 80 49 81 50 82 54 83 57 84 51 85
REMARK SMILES IDX 52 86 55 87 53 88
REMARK H PARENT 7 18 77 41 45 52
REMARK Flexibility Score: inf
ROOT
ATOM      1  O   UNL A   1      32.723  34.209  28.401  1.00  0.00    -0.374 OA
ENDROOT
BRANCH   1   2
ATOM      2  C   UNL A   1      32.851  35.629  28.511  1.00  0.00     0.202 C 
BRANCH   2   3
ATOM      3  C   UNL A   1      33.333  36.103  29.883  1.00  0.00     0.261 C 
BRANCH   3   4
ATOM      4  O   UNL A   1      32.444  35.583  30.883  1.00  0.00    -0.461 OA
BRANCH   4   5
ATOM      5  C   UNL A   1      32.629  35.991  32.168  1.00  0.00     0.343 C 
ATOM      6  O   UNL A   1      31.774  36.529  32.859  1.00  0.00    -0.249 OA
BRANCH   5   7
ATOM      7  C   UNL A   1      34.034  35.637  32.647  1.00  0.00     0.307 C 
ATOM      8  F   UNL A   1      34.403  36.381  33.734  1.00  0.00    -0.232 F 
BRANCH   7   9
ATOM      9  C   UNL A   1      34.209  34.128  32.953  1.00  0.00     0.107 C 
ATOM     10  C   UNL A   1      37.050  33.081  32.729  1.00  0.00    -0.011 C 
ATOM     11  C   UNL A   1      36.604  34.027  33.851  1.00  0.00     0.006 C 
ATOM     12  C   UNL A   1      36.231  33.407  31.466  1.00  0.00     0.006 C 
ATOM     13  C   UNL A   1      35.124  33.828  34.159  1.00  0.00     0.039 C 
ATOM     14  C   UNL A   1      34.714  33.375  31.694  1.00  0.00     0.039 C 
BRANCH  10  15
ATOM     15  C   UNL A   1      36.939  31.582  33.099  1.00  0.00    -0.000 C 
ATOM     16  C   UNL A   1      38.249  30.945  33.547  1.00  0.00     0.004 C 
ENDBRANCH  10  15
BRANCH   9  17
ATOM     17  O   UNL A   1      32.904  33.598  33.253  1.00  0.00    -0.386 OA
ATOM     18  H   UNL A   1      32.849  33.387  34.198  1.00  0.00     0.211 HD
ENDBRANCH   9  17
ENDBRANCH   7   9
ENDBRANCH   5   7
ENDBRANCH   4   5
ENDBRANCH   3   4
ENDBRANCH   2   3
ENDBRANCH   1   2
BRANCH   1  19
ATOM     19  C   UNL A   1      33.839  33.508  27.850  1.00  0.00     0.202 C 
BRANCH  19  20
ATOM     20  C   UNL A   1      34.017  32.075  28.362  1.00  0.00     0.261 C 
BRANCH  20  21
ATOM     21  O   UNL A   1      34.279  31.142  27.299  1.00  0.00    -0.460 OA
BRANCH  21  22
ATOM     22  C   UNL A   1      34.588  29.892  27.711  1.00  0.00     0.338 C 
ATOM     23  O   UNL A   1      33.895  28.887  27.626  1.00  0.00    -0.246 OA
BRANCH  22  24
ATOM     24  C   UNL A   1      35.976  29.840  28.202  1.00  0.00     0.060 A 
ATOM     25  C   UNL A   1      36.998  30.077  27.275  1.00  0.00     0.016 A 
ATOM     26  C   UNL A   1      36.279  29.455  29.510  1.00  0.00     0.016 A 
ATOM     27  C   UNL A   1      38.328  29.875  27.637  1.00  0.00     0.010 A 
ATOM     28  C   UNL A   1      37.615  29.247  29.871  1.00  0.00     0.010 A 
ATOM     29  C   UNL A   1      38.641  29.419  28.925  1.00  0.00    -0.014 A 
BRANCH  29  30
ATOM     30  C   UNL A   1      40.029  28.993  29.229  1.00  0.00     0.031 A 
ATOM     31  C   UNL A   1      40.920  29.907  30.022  1.00  0.00     0.074 A 
ATOM     32  C   UNL A   1      40.481  27.794  28.826  1.00  0.00     0.049 A 
ATOM     33  N   UNL A   1      42.164  29.738  30.395  1.00  0.00    -0.248 NA
ATOM     34  C   UNL A   1      40.331  31.184  30.453  1.00  0.00     0.031 C 
ATOM     35  C   UNL A   1      39.705  26.812  28.073  1.00  0.00     0.029 A 
ATOM     36  N   UNL A   1      41.709  27.204  28.991  1.00  0.00    -0.354 N 
ATOM     37  C   UNL A   1      42.507  30.887  31.096  1.00  0.00     0.074 A 
ATOM     38  C   UNL A   1      41.352  31.757  31.073  1.00  0.00     0.031 C 
ATOM     39  C   UNL A   1      40.481  25.742  27.829  1.00  0.00     0.029 A 
ATOM     40  C   UNL A   1      41.811  25.976  28.387  1.00  0.00     0.049 A 
ATOM     41  H   UNL A   1      42.445  27.620  29.494  1.00  0.00     0.167 HD
ATOM     42  C   UNL A   1      43.677  31.183  31.711  1.00  0.00     0.037 A 
ATOM     43  C   UNL A   1      42.866  25.145  28.282  1.00  0.00     0.037 A 
ATOM     44  C   UNL A   1      44.825  30.315  31.738  1.00  0.00     0.049 A 
ATOM     45  C   UNL A   1      44.172  25.517  28.931  1.00  0.00     0.074 A 
ATOM     46  C   UNL A   1      46.040  30.508  32.370  1.00  0.00     0.029 A 
ATOM     47  N   UNL A   1      44.900  29.089  31.093  1.00  0.00    -0.354 N 
ATOM     48  N   UNL A   1      44.475  26.585  29.629  1.00  0.00    -0.248 NA
ATOM     49  C   UNL A   1      45.282  24.564  28.784  1.00  0.00     0.031 C 
ATOM     50  C   UNL A   1      46.870  29.422  32.066  1.00  0.00     0.029 A 
ATOM     51  C   UNL A   1      46.153  28.529  31.285  1.00  0.00     0.049 A 
ATOM     52  H   UNL A   1      44.171  28.678  30.575  1.00  0.00     0.167 HD
ATOM     53  C   UNL A   1      45.798  26.426  30.019  1.00  0.00     0.074 A 
ATOM     54  C   UNL A   1      46.238  25.150  29.492  1.00  0.00     0.031 C 
ATOM     55  C   UNL A   1      46.578  27.260  30.750  1.00  0.00     0.037 A 
BRANCH  42  56
ATOM     56  C   UNL A   1      43.783  32.522  32.382  1.00  0.00     0.064 A 
ATOM     57  C   UNL A   1      43.430  32.705  33.727  1.00  0.00     0.173 A 
ATOM     58  C   UNL A   1      44.264  33.633  31.672  1.00  0.00     0.173 A 
ATOM     59  F   UNL A   1      42.952  31.676  34.445  1.00  0.00    -0.203 F 
ATOM     60  C   UNL A   1      43.526  33.957  34.329  1.00  0.00     0.198 A 
ATOM     61  C   UNL A   1      44.385  34.878  32.285  1.00  0.00     0.198 A 
ATOM     62  F   UNL A   1      44.621  33.511  30.385  1.00  0.00    -0.203 F 
ATOM     63  F   UNL A   1      43.137  34.119  35.601  1.00  0.00    -0.200 F 
ATOM     64  C   UNL A   1      44.008  35.041  33.610  1.00  0.00     0.200 A 
ATOM     65  F   UNL A   1      44.860  35.921  31.592  1.00  0.00    -0.200 F 
ATOM     66  F   UNL A   1      44.101  36.244  34.191  1.00  0.00    -0.200 F 
ENDBRANCH  42  56
BRANCH  43  67
ATOM     67  C   UNL A   1      42.725  23.877  27.522  1.00  0.00     0.064 A 
ATOM     68  C   UNL A   1      42.223  22.719  28.131  1.00  0.00     0.173 A 
ATOM     69  C   UNL A   1      43.076  23.804  26.167  1.00  0.00     0.173 A 
ATOM     70  F   UNL A   1      41.897  22.734  29.431  1.00  0.00    -0.203 F 
ATOM     71  C   UNL A   1      42.087  21.532  27.413  1.00  0.00     0.198 A 
ATOM     72  C   UNL A   1      42.916  22.625  25.444  1.00  0.00     0.198 A 
ATOM     73  F   UNL A   1      43.561  24.887  25.539  1.00  0.00    -0.203 F 
ATOM     74  F   UNL A   1      41.635  20.430  28.026  1.00  0.00    -0.200 F 
ATOM     75  C   UNL A   1      42.425  21.488  26.069  1.00  0.00     0.200 A 
ATOM     76  F   UNL A   1      43.232  22.591  24.142  1.00  0.00    -0.200 F 
ATOM     77  F   UNL A   1      42.282  20.351  25.376  1.00  0.00    -0.200 F 
ENDBRANCH  43  67
BRANCH  55  78
ATOM     78  C   UNL A   1      47.981  26.814  31.041  1.00  0.00     0.064 A 
ATOM     79  C   UNL A   1      48.273  25.964  32.117  1.00  0.00     0.173 A 
ATOM     80  C   UNL A   1      49.040  27.206  30.207  1.00  0.00     0.173 A 
ATOM     81  F   UNL A   1      47.299  25.573  32.953  1.00  0.00    -0.203 F 
ATOM     82  C   UNL A   1      49.578  25.540  32.362  1.00  0.00     0.198 A 
ATOM     83  C   UNL A   1      50.338  26.759  30.438  1.00  0.00     0.198 A 
ATOM     84  F   UNL A   1      48.813  28.013  29.161  1.00  0.00    -0.203 F 
ATOM     85  F   UNL A   1      49.840  24.762  33.421  1.00  0.00    -0.200 F 
ATOM     86  C   UNL A   1      50.607  25.931  31.518  1.00  0.00     0.200 A 
ATOM     87  F   UNL A   1      51.329  27.129  29.615  1.00  0.00    -0.200 F 
ATOM     88  F   UNL A   1      51.860  25.518  31.751  1.00  0.00    -0.200 F 
ENDBRANCH  55  78
ENDBRANCH  29  30
ENDBRANCH  22  24
ENDBRANCH  21  22
ENDBRANCH  20  21
ENDBRANCH  19  20
ENDBRANCH   1  19
TORSDOF 17
ENDMDL
MODEL 2
REMARK VINA RESULT:      -9.9      5.117     11.133
REMARK SMILES CC[C@H]1CC[C@](O)([C@H](F)C(=O)OCCOCCOC(=O)c2ccc(-c3c4nc(c(-c5c(F)c(F)c(F)c(F)c5F)c5ccc([nH]5)c(-c5c(F)c(F)c(F)c(F)c5F)c5nc(c(-c6c(F)c(F)c(F)c(F)c6F)c6ccc3[nH]6)C=C5)C=C4)cc2)CC1
REMARK SMILES IDX 15 1 14 2 13 3 12 4 10 5 11 6 8 7 9 8 6 9 3 10 4 11 85 12
REMARK SMILES IDX 5 13 84 14 2 15 1 16 7 17 16 19 17 20 18 21 19 22 20 23
REMARK SMILES IDX 21 24 22 25 83 26 23 27 82 28 24 29 25 30 26 31 76 32 27 33
REMARK SMILES IDX 81 34 75 35 77 36 28 37 80 38 74 39 73 40 29 42 61 43 41 44
REMARK SMILES IDX 60 45 42 46 45 47 59 48 78 49 43 50 44 51 58 53 79 54 46 55
REMARK SMILES IDX 30 56 31 57 39 58 32 59 33 60 37 61 40 62 34 63 35 64 38 65
REMARK SMILES IDX 36 66 62 67 63 68 71 69 64 70 65 71 69 72 72 73 66 74 67 75
REMARK SMILES IDX 70 76 68 77 47 78 48 79 56 80 49 81 50 82 54 83 57 84 51 85
REMARK SMILES IDX 52 86 55 87 53 88
REMARK H PARENT 7 18 77 41 45 52
REMARK Flexibility Score: inf
ROOT
ATOM      1  O   UNL A   1      41.537  21.214  25.847  1.00  0.00    -0.374 OA
ENDROOT
BRANCH   1   2
ATOM      2  C   UNL A   1      40.409  21.890  26.407  1.00  0.00     0.202 C 
BRANCH   2   3
ATOM      3  C   UNL A   1      39.066  21.435  25.834  1.00  0.00     0.261 C 
BRANCH   3   4
ATOM      4  O   UNL A   1      38.171  22.559  25.824  1.00  0.00    -0.461 OA
BRANCH   4   5
ATOM      5  C   UNL A   1      37.143  22.540  24.932  1.00  0.00     0.343 C 
ATOM      6  O   UNL A   1      37.144  21.913  23.881  1.00  0.00    -0.249 OA
BRANCH   5   7
ATOM      7  C   UNL A   1      35.969  23.365  25.449  1.00  0.00     0.307 C 
ATOM      8  F   UNL A   1      35.547  24.283  24.527  1.00  0.00    -0.232 F 
BRANCH   7   9
ATOM      9  C   UNL A   1      34.774  22.496  25.916  1.00  0.00     0.107 C 
ATOM     10  C   UNL A   1      32.030  23.557  25.171  1.00  0.00    -0.011 C 
ATOM     11  C   UNL A   1      33.006  22.993  24.133  1.00  0.00     0.006 C 
ATOM     12  C   UNL A   1      32.846  24.216  26.298  1.00  0.00     0.006 C 
ATOM     13  C   UNL A   1      33.908  21.938  24.767  1.00  0.00     0.039 C 
ATOM     14  C   UNL A   1      33.892  23.283  26.922  1.00  0.00     0.039 C 
BRANCH  10  15
ATOM     15  C   UNL A   1      31.043  22.504  25.733  1.00  0.00    -0.000 C 
ATOM     16  C   UNL A   1      30.156  23.012  26.863  1.00  0.00     0.004 C 
ENDBRANCH  10  15
BRANCH   9  17
ATOM     17  O   UNL A   1      35.317  21.373  26.637  1.00  0.00    -0.386 OA
ATOM     18  H   UNL A   1      34.823  20.571  26.408  1.00  0.00     0.211 HD
ENDBRANCH   9  17
ENDBRANCH   7   9
ENDBRANCH   5   7
ENDBRANCH   4   5
ENDBRANCH   3   4
ENDBRANCH   2   3
ENDBRANCH   1   2
BRANCH   1  19
ATOM     19  C   UNL A   1      42.822  21.614  26.325  1.00  0.00     0.202 C 
BRANCH  19  20
ATOM     20  C   UNL A   1      43.697  22.336  25.295  1.00  0.00     0.261 C 
BRANCH  20  21
ATOM     21  O   UNL A   1      43.082  23.540  24.801  1.00  0.00    -0.460 OA
BRANCH  21  22
ATOM     22  C   UNL A   1      43.785  24.670  25.041  1.00  0.00     0.338 C 
ATOM     23  O   UNL A   1      44.845  25.010  24.534  1.00  0.00    -0.246 OA
BRANCH  22  24
ATOM     24  C   UNL A   1      43.038  25.557  25.951  1.00  0.00     0.060 A 
ATOM     25  C   UNL A   1      43.600  26.806  26.239  1.00  0.00     0.016 A 
ATOM     26  C   UNL A   1      41.874  25.135  26.598  1.00  0.00     0.016 A 
ATOM     27  C   UNL A   1      43.031  27.617  27.219  1.00  0.00     0.010 A 
ATOM     28  C   UNL A   1      41.307  25.948  27.585  1.00  0.00     0.010 A 
ATOM     29  C   UNL A   1      41.905  27.174  27.927  1.00  0.00    -0.014 A 
BRANCH  29  30
ATOM     30  C   UNL A   1      41.445  27.936  29.113  1.00  0.00     0.031 A 
ATOM     31  C   UNL A   1      42.183  27.787  30.413  1.00  0.00     0.074 A 
ATOM     32  C   UNL A   1      40.397  28.773  29.025  1.00  0.00     0.049 A 
ATOM     33  N   UNL A   1      41.950  28.351  31.571  1.00  0.00    -0.248 NA
ATOM     34  C   UNL A   1      43.339  26.878  30.409  1.00  0.00     0.031 C 
ATOM     35  C   UNL A   1      39.618  29.020  27.815  1.00  0.00     0.029 A 
ATOM     36  N   UNL A   1      39.807  29.563  29.978  1.00  0.00    -0.354 N 
ATOM     37  C   UNL A   1      42.924  27.862  32.433  1.00  0.00     0.074 A 
ATOM     38  C   UNL A   1      43.732  26.933  31.673  1.00  0.00     0.031 C 
ATOM     39  C   UNL A   1      38.640  29.897  28.100  1.00  0.00     0.029 A 
ATOM     40  C   UNL A   1      38.712  30.251  29.517  1.00  0.00     0.049 A 
ATOM     41  H   UNL A   1      40.137  29.632  30.902  1.00  0.00     0.167 HD
ATOM     42  C   UNL A   1      43.129  28.168  33.737  1.00  0.00     0.037 A 
ATOM     43  C   UNL A   1      37.855  31.058  30.171  1.00  0.00     0.037 A 
ATOM     44  C   UNL A   1      42.327  29.096  34.490  1.00  0.00     0.049 A 
ATOM     45  C   UNL A   1      38.074  31.346  31.632  1.00  0.00     0.074 A 
ATOM     46  C   UNL A   1      42.482  29.503  35.803  1.00  0.00     0.029 A 
ATOM     47  N   UNL A   1      41.211  29.753  33.997  1.00  0.00    -0.354 N 
ATOM     48  N   UNL A   1      39.022  30.913  32.428  1.00  0.00    -0.248 NA
ATOM     49  C   UNL A   1      37.106  32.240  32.285  1.00  0.00     0.031 C 
ATOM     50  C   UNL A   1      41.429  30.370  36.120  1.00  0.00     0.029 A 
ATOM     51  C   UNL A   1      40.647  30.540  34.989  1.00  0.00     0.049 A 
ATOM     52  H   UNL A   1      40.868  29.673  33.077  1.00  0.00     0.167 HD
ATOM     53  C   UNL A   1      38.778  31.494  33.665  1.00  0.00     0.074 A 
ATOM     54  C   UNL A   1      37.600  32.323  33.513  1.00  0.00     0.031 C 
ATOM     55  C   UNL A   1      39.471  31.356  34.824  1.00  0.00     0.037 A 
BRANCH  42  56
ATOM     56  C   UNL A   1      44.253  27.465  34.440  1.00  0.00     0.064 A 
ATOM     57  C   UNL A   1      45.542  28.014  34.507  1.00  0.00     0.173 A 
ATOM     58  C   UNL A   1      44.031  26.233  35.074  1.00  0.00     0.173 A 
ATOM     59  F   UNL A   1      45.810  29.183  33.905  1.00  0.00    -0.203 F 
ATOM     60  C   UNL A   1      46.575  27.341  35.156  1.00  0.00     0.198 A 
ATOM     61  C   UNL A   1      45.058  25.576  35.746  1.00  0.00     0.198 A 
ATOM     62  F   UNL A   1      42.815  25.666  35.045  1.00  0.00    -0.203 F 
ATOM     63  F   UNL A   1      47.810  27.861  35.165  1.00  0.00    -0.200 F 
ATOM     64  C   UNL A   1      46.331  26.126  35.779  1.00  0.00     0.200 A 
ATOM     65  F   UNL A   1      44.819  24.408  36.356  1.00  0.00    -0.200 F 
ATOM     66  F   UNL A   1      47.325  25.481  36.404  1.00  0.00    -0.200 F 
ENDBRANCH  42  56
BRANCH  43  67
ATOM     67  C   UNL A   1      36.706  31.649  29.440  1.00  0.00     0.064 A 
ATOM     68  C   UNL A   1      35.622  30.859  29.034  1.00  0.00     0.173 A 
ATOM     69  C   UNL A   1      36.664  33.019  29.147  1.00  0.00     0.173 A 
ATOM     70  F   UNL A   1      35.629  29.540  29.271  1.00  0.00    -0.203 F 
ATOM     71  C   UNL A   1      34.542  31.418  28.353  1.00  0.00     0.198 A 
ATOM     72  C   UNL A   1      35.572  33.581  28.488  1.00  0.00     0.198 A 
ATOM     73  F   UNL A   1      37.678  33.817  29.515  1.00  0.00    -0.203 F 
ATOM     74  F   UNL A   1      33.533  30.637  27.947  1.00  0.00    -0.200 F 
ATOM     75  C   UNL A   1      34.514  32.779  28.089  1.00  0.00     0.200 A 
ATOM     76  F   UNL A   1      35.544  34.899  28.246  1.00  0.00    -0.200 F 
ATOM     77  F   UNL A   1      33.470  33.318  27.445  1.00  0.00    -0.200 F 
ENDBRANCH  43  67
BRANCH  55  78
ATOM     78  C   UNL A   1      38.984  32.130  36.014  1.00  0.00     0.064 A 
ATOM     79  C   UNL A   1      38.144  31.550  36.974  1.00  0.00     0.173 A 
ATOM     80  C   UNL A   1      39.400  33.455  36.219  1.00  0.00     0.173 A 
ATOM     81  F   UNL A   1      37.706  30.292  36.816  1.00  0.00    -0.203 F 
ATOM     82  C   UNL A   1      37.718  32.275  38.085  1.00  0.00     0.198 A 
ATOM     83  C   UNL A   1      38.995  34.168  37.345  1.00  0.00     0.198 A 
ATOM     84  F   UNL A   1      40.209  34.054  35.333  1.00  0.00    -0.203 F 
ATOM     85  F   UNL A   1      36.881  31.713  38.968  1.00  0.00    -0.200 F 
ATOM     86  C   UNL A   1      38.151  33.579  38.274  1.00  0.00     0.200 A 
ATOM     87  F   UNL A   1      39.423  35.424  37.530  1.00  0.00    -0.200 F 
ATOM     88  F   UNL A   1      37.745  34.272  39.346  1.00  0.00    -0.200 F 
ENDBRANCH  55  78
ENDBRANCH  29  30
ENDBRANCH  22  24
ENDBRANCH  21  22
ENDBRANCH  20  21
ENDBRANCH  19  20
ENDBRANCH   1  19
TORSDOF 17
ENDMDL
MODEL 3
REMARK VINA RESULT:      -9.8      4.621      8.851
REMARK SMILES CC[C@H]1CC[C@](O)([C@H](F)C(=O)OCCOCCOC(=O)c2ccc(-c3c4nc(c(-c5c(F)c(F)c(F)c(F)c5F)c5ccc([nH]5)c(-c5c(F)c(F)c(F)c(F)c5F)c5nc(c(-c6c(F)c(F)c(F)c(F)c6F)c6ccc3[nH]6)C=C5)C=C4)cc2)CC1
REMARK SMILES IDX 15 1 14 2 13 3 12 4 10 5 11 6 8 7 9 8 6 9 3 10 4 11 85 12
REMARK SMILES IDX 5 13 84 14 2 15 1 16 7 17 16 19 17 20 18 21 19 22 20 23
REMARK SMILES IDX 21 24 22 25 83 26 23 27 82 28 24 29 25 30 26 31 76 32 27 33
REMARK SMILES IDX 81 34 75 35 77 36 28 37 80 38 74 39 73 40 29 42 61 43 41 44
REMARK SMILES IDX 60 45 42 46 45 47 59 48 78 49 43 50 44 51 58 53 79 54 46 55
REMARK SMILES IDX 30 56 31 57 39 58 32 59 33 60 37 61 40 62 34 63 35 64 38 65
REMARK SMILES IDX 36 66 62 67 63 68 71 69 64 70 65 71 69 72 72 73 66 74 67 75
REMARK SMILES IDX 70 76 68 77 47 78 48 79 56 80 49 81 50 82 54 83 57 84 51 85
REMARK SMILES IDX 52 86 55 87 53 88
REMARK H PARENT 7 18 77 41 45 52
REMARK Flexibility Score: inf
ROOT
ATOM      1  O   UNL A   1      34.529  21.031  25.776  1.00  0.00    -0.374 OA
ENDROOT
BRANCH   1   2
ATOM      2  C   UNL A   1      33.727  21.391  26.903  1.00  0.00     0.202 C 
BRANCH   2   3
ATOM      3  C   UNL A   1      33.292  22.858  26.911  1.00  0.00     0.261 C 
BRANCH   3   4
ATOM      4  O   UNL A   1      32.042  22.958  27.611  1.00  0.00    -0.461 OA
BRANCH   4   5
ATOM      5  C   UNL A   1      30.946  23.335  26.898  1.00  0.00     0.343 C 
ATOM      6  O   UNL A   1      29.798  23.316  27.322  1.00  0.00    -0.249 OA
BRANCH   5   7
ATOM      7  C   UNL A   1      31.351  23.835  25.514  1.00  0.00     0.307 C 
ATOM      8  F   UNL A   1      30.836  23.049  24.519  1.00  0.00    -0.232 F 
BRANCH   7   9
ATOM      9  C   UNL A   1      30.973  25.317  25.269  1.00  0.00     0.107 C 
ATOM     10  C   UNL A   1      33.320  27.214  24.937  1.00  0.00    -0.011 C 
ATOM     11  C   UNL A   1      32.952  26.164  23.883  1.00  0.00     0.006 C 
ATOM     12  C   UNL A   1      32.949  26.661  26.325  1.00  0.00     0.006 C 
ATOM     13  C   UNL A   1      31.454  25.878  23.914  1.00  0.00     0.039 C 
ATOM     14  C   UNL A   1      31.487  26.207  26.433  1.00  0.00     0.039 C 
BRANCH  10  15
ATOM     15  C   UNL A   1      32.666  28.597  24.691  1.00  0.00    -0.000 C 
ATOM     16  C   UNL A   1      33.133  29.693  25.641  1.00  0.00     0.004 C 
ENDBRANCH  10  15
BRANCH   9  17
ATOM     17  O   UNL A   1      29.536  25.402  25.292  1.00  0.00    -0.386 OA
ATOM     18  H   UNL A   1      29.264  26.324  25.162  1.00  0.00     0.211 HD
ENDBRANCH   9  17
ENDBRANCH   7   9
ENDBRANCH   5   7
ENDBRANCH   4   5
ENDBRANCH   3   4
ENDBRANCH   2   3
ENDBRANCH   1   2
BRANCH   1  19
ATOM     19  C   UNL A   1      35.782  21.704  25.644  1.00  0.00     0.202 C 
BRANCH  19  20
ATOM     20  C   UNL A   1      36.912  20.853  25.056  1.00  0.00     0.261 C 
BRANCH  20  21
ATOM     21  O   UNL A   1      38.160  21.568  24.993  1.00  0.00    -0.460 OA
BRANCH  21  22
ATOM     22  C   UNL A   1      39.027  21.275  25.988  1.00  0.00     0.338 C 
ATOM     23  O   UNL A   1      39.436  20.169  26.318  1.00  0.00    -0.246 OA
BRANCH  22  24
ATOM     24  C   UNL A   1      39.549  22.510  26.598  1.00  0.00     0.060 A 
ATOM     25  C   UNL A   1      39.025  23.726  26.143  1.00  0.00     0.016 A 
ATOM     26  C   UNL A   1      40.606  22.490  27.511  1.00  0.00     0.016 A 
ATOM     27  C   UNL A   1      39.594  24.928  26.556  1.00  0.00     0.010 A 
ATOM     28  C   UNL A   1      41.180  23.698  27.921  1.00  0.00     0.010 A 
ATOM     29  C   UNL A   1      40.702  24.920  27.414  1.00  0.00    -0.014 A 
BRANCH  29  30
ATOM     30  C   UNL A   1      41.437  26.183  27.667  1.00  0.00     0.031 A 
ATOM     31  C   UNL A   1      40.758  27.289  28.425  1.00  0.00     0.074 A 
ATOM     32  C   UNL A   1      42.705  26.332  27.251  1.00  0.00     0.049 A 
ATOM     33  N   UNL A   1      41.210  28.473  28.751  1.00  0.00    -0.248 NA
ATOM     34  C   UNL A   1      39.382  27.025  28.875  1.00  0.00     0.031 C 
ATOM     35  C   UNL A   1      43.478  25.324  26.529  1.00  0.00     0.029 A 
ATOM     36  N   UNL A   1      43.563  27.396  27.371  1.00  0.00    -0.354 N 
ATOM     37  C   UNL A   1      40.175  29.097  29.437  1.00  0.00     0.074 A 
ATOM     38  C   UNL A   1      39.062  28.172  29.455  1.00  0.00     0.031 C 
ATOM     39  C   UNL A   1      44.696  25.823  26.259  1.00  0.00     0.029 A 
ATOM     40  C   UNL A   1      44.777  27.192  26.767  1.00  0.00     0.049 A 
ATOM     41  H   UNL A   1      43.330  28.227  27.845  1.00  0.00     0.167 HD
ATOM     42  C   UNL A   1      40.159  30.326  30.007  1.00  0.00     0.037 A 
ATOM     43  C   UNL A   1      45.828  28.023  26.624  1.00  0.00     0.037 A 
ATOM     44  C   UNL A   1      41.268  31.243  29.993  1.00  0.00     0.049 A 
ATOM     45  C   UNL A   1      45.769  29.402  27.223  1.00  0.00     0.074 A 
ATOM     46  C   UNL A   1      41.364  32.492  30.579  1.00  0.00     0.029 A 
ATOM     47  N   UNL A   1      42.474  31.011  29.349  1.00  0.00    -0.354 N 
ATOM     48  N   UNL A   1      44.804  29.968  27.906  1.00  0.00    -0.248 NA
ATOM     49  C   UNL A   1      46.951  30.257  27.036  1.00  0.00     0.031 C 
ATOM     50  C   UNL A   1      42.609  33.039  30.247  1.00  0.00     0.029 A 
ATOM     51  C   UNL A   1      43.309  32.108  29.495  1.00  0.00     0.049 A 
ATOM     52  H   UNL A   1      42.704  30.188  28.858  1.00  0.00     0.167 HD
ATOM     53  C   UNL A   1      45.266  31.232  28.247  1.00  0.00     0.074 A 
ATOM     54  C   UNL A   1      46.605  31.348  27.707  1.00  0.00     0.031 C 
ATOM     55  C   UNL A   1      44.638  32.210  28.947  1.00  0.00     0.037 A 
BRANCH  42  56
ATOM     56  C   UNL A   1      38.885  30.761  30.671  1.00  0.00     0.064 A 
ATOM     57  C   UNL A   1      37.828  31.328  29.943  1.00  0.00     0.173 A 
ATOM     58  C   UNL A   1      38.712  30.587  32.053  1.00  0.00     0.173 A 
ATOM     59  F   UNL A   1      37.950  31.527  28.621  1.00  0.00    -0.203 F 
ATOM     60  C   UNL A   1      36.658  31.734  30.579  1.00  0.00     0.198 A 
ATOM     61  C   UNL A   1      37.530  30.969  32.681  1.00  0.00     0.198 A 
ATOM     62  F   UNL A   1      39.689  30.045  32.794  1.00  0.00    -0.203 F 
ATOM     63  F   UNL A   1      35.681  32.319  29.872  1.00  0.00    -0.200 F 
ATOM     64  C   UNL A   1      36.507  31.550  31.946  1.00  0.00     0.200 A 
ATOM     65  F   UNL A   1      37.382  30.781  33.999  1.00  0.00    -0.200 F 
ATOM     66  F   UNL A   1      35.380  31.940  32.555  1.00  0.00    -0.200 F 
ENDBRANCH  42  56
BRANCH  43  67
ATOM     67  C   UNL A   1      47.024  27.566  25.873  1.00  0.00     0.064 A 
ATOM     68  C   UNL A   1      47.096  27.689  24.479  1.00  0.00     0.173 A 
ATOM     69  C   UNL A   1      48.126  27.010  26.539  1.00  0.00     0.173 A 
ATOM     70  F   UNL A   1      46.058  28.192  23.797  1.00  0.00    -0.203 F 
ATOM     71  C   UNL A   1      48.224  27.264  23.778  1.00  0.00     0.198 A 
ATOM     72  C   UNL A   1      49.262  26.608  25.840  1.00  0.00     0.198 A 
ATOM     73  F   UNL A   1      48.104  26.871  27.873  1.00  0.00    -0.203 F 
ATOM     74  F   UNL A   1      48.256  27.363  22.443  1.00  0.00    -0.200 F 
ATOM     75  C   UNL A   1      49.308  26.733  24.460  1.00  0.00     0.200 A 
ATOM     76  F   UNL A   1      50.312  26.107  26.504  1.00  0.00    -0.200 F 
ATOM     77  F   UNL A   1      50.396  26.335  23.787  1.00  0.00    -0.200 F 
ENDBRANCH  43  67
BRANCH  55  78
ATOM     78  C   UNL A   1      45.396  33.483  29.187  1.00  0.00     0.064 A 
ATOM     79  C   UNL A   1      45.298  34.572  28.309  1.00  0.00     0.173 A 
ATOM     80  C   UNL A   1      46.195  33.630  30.331  1.00  0.00     0.173 A 
ATOM     81  F   UNL A   1      44.560  34.476  27.193  1.00  0.00    -0.203 F 
ATOM     82  C   UNL A   1      45.992  35.755  28.556  1.00  0.00     0.198 A 
ATOM     83  C   UNL A   1      46.865  34.824  30.589  1.00  0.00     0.198 A 
ATOM     84  F   UNL A   1      46.317  32.621  31.205  1.00  0.00    -0.203 F 
ATOM     85  F   UNL A   1      45.917  36.767  27.681  1.00  0.00    -0.200 F 
ATOM     86  C   UNL A   1      46.767  35.882  29.699  1.00  0.00     0.200 A 
ATOM     87  F   UNL A   1      47.605  34.949  31.699  1.00  0.00    -0.200 F 
ATOM     88  F   UNL A   1      47.428  37.024  29.938  1.00  0.00    -0.200 F 
ENDBRANCH  55  78
ENDBRANCH  29  30
ENDBRANCH  22  24
ENDBRANCH  21  22
ENDBRANCH  20  21
ENDBRANCH  19  20
ENDBRANCH   1  19
TORSDOF 17
ENDMDL
