MODEL 1
REMARK VINA RESULT:     -11.2      0.000      0.000
REMARK SMILES O=C(OCCOCCOC(=O)[C@H]1CCCN1C(=O)Cc1csc(-c2cccs2)n1)c1ccc(-c2c3nc(c(-c4c(F)c(F)c(F)c(F)c4F)c4ccc([nH]4)c(-c4c(F)c(F)c(F)c(F)c4F)c4nc(c(-c5c(F)c(F)c(F)c(F)c5F)c5ccc2[nH]5)C=C4)C=C3)cc1
REMARK SMILES IDX 7 1 6 2 5 3 4 4 3 5 2 6 1 7 30 8 31 9 92 10 32 11 91 12
REMARK SMILES IDX 33 13 34 14 35 15 85 16 36 17 90 18 84 19 86 20 37 21 89 22
REMARK SMILES IDX 83 23 82 24 38 26 70 27 50 28 69 29 51 30 54 31 68 32 87 33
REMARK SMILES IDX 52 34 53 35 67 37 88 38 55 39 39 40 40 41 48 42 41 43 42 44
REMARK SMILES IDX 46 45 49 46 43 47 44 48 47 49 45 50 71 51 72 52 80 53 73 54
REMARK SMILES IDX 74 55 78 56 81 57 75 58 76 59 79 60 77 61 56 62 57 63 65 64
REMARK SMILES IDX 58 65 59 66 63 67 66 68 60 69 61 70 64 71 62 72 8 73 9 74
REMARK SMILES IDX 10 75 11 76 12 77 13 78 16 79 14 80 15 81 17 82 18 83 19 84
REMARK SMILES IDX 20 85 21 86 29 87 22 88 23 89 24 90 25 91 28 92 26 93 27 94
REMARK H PARENT 86 25 54 36
REMARK Flexibility Score: inf
ROOT
ATOM      1  C   UNL A   1      33.548  27.335  26.468  1.00  0.00     0.202 C 
ENDROOT
BRANCH   1   2
ATOM      2  O   UNL A   1      33.743  28.536  25.714  1.00  0.00    -0.374 OA
BRANCH   2   3
ATOM      3  C   UNL A   1      32.582  29.353  25.538  1.00  0.00     0.202 C 
BRANCH   3   4
ATOM      4  C   UNL A   1      32.236  30.383  26.630  1.00  0.00     0.261 C 
BRANCH   4   5
ATOM      5  O   UNL A   1      33.106  31.530  26.580  1.00  0.00    -0.460 OA
BRANCH   5   6
ATOM      6  C   UNL A   1      33.745  32.157  27.589  1.00  0.00     0.338 C 
ATOM      7  O   UNL A   1      33.302  33.229  28.011  1.00  0.00    -0.246 OA
BRANCH   6   8
ATOM      8  C   UNL A   1      35.014  31.647  28.170  1.00  0.00     0.060 A 
ATOM      9  C   UNL A   1      35.186  30.348  28.638  1.00  0.00     0.016 A 
ATOM     10  C   UNL A   1      36.118  32.514  28.213  1.00  0.00     0.016 A 
ATOM     11  C   UNL A   1      36.376  29.902  29.156  1.00  0.00     0.010 A 
ATOM     12  C   UNL A   1      37.332  32.087  28.748  1.00  0.00     0.010 A 
ATOM     13  C   UNL A   1      37.439  30.781  29.233  1.00  0.00    -0.014 A 
BRANCH  13  14
ATOM     14  C   UNL A   1      38.569  30.322  30.031  1.00  0.00     0.031 A 
ATOM     15  C   UNL A   1      39.552  29.430  29.358  1.00  0.00     0.074 A 
ATOM     16  C   UNL A   1      38.776  30.877  31.233  1.00  0.00     0.049 A 
ATOM     17  N   UNL A   1      40.576  28.802  29.860  1.00  0.00    -0.248 NA
ATOM     18  C   UNL A   1      39.369  29.231  27.908  1.00  0.00     0.031 C 
ATOM     19  C   UNL A   1      37.950  31.932  31.827  1.00  0.00     0.029 A 
ATOM     20  N   UNL A   1      39.752  30.648  32.156  1.00  0.00    -0.354 N 
ATOM     21  C   UNL A   1      41.124  28.092  28.803  1.00  0.00     0.074 A 
ATOM     22  C   UNL A   1      40.349  28.390  27.623  1.00  0.00     0.031 C 
ATOM     23  C   UNL A   1      38.446  32.242  33.034  1.00  0.00     0.029 A 
ATOM     24  C   UNL A   1      39.559  31.346  33.319  1.00  0.00     0.049 A 
ATOM     25  H   UNL A   1      40.515  30.045  32.003  1.00  0.00     0.167 HD
ATOM     26  C   UNL A   1      42.165  27.233  28.854  1.00  0.00     0.037 A 
ATOM     27  C   UNL A   1      40.180  31.198  34.502  1.00  0.00     0.037 A 
ATOM     28  C   UNL A   1      42.873  26.972  30.076  1.00  0.00     0.049 A 
ATOM     29  C   UNL A   1      41.260  30.155  34.576  1.00  0.00     0.074 A 
ATOM     30  C   UNL A   1      43.878  26.063  30.327  1.00  0.00     0.029 A 
ATOM     31  N   UNL A   1      42.623  27.644  31.271  1.00  0.00    -0.354 N 
ATOM     32  N   UNL A   1      41.715  29.373  33.620  1.00  0.00    -0.248 NA
ATOM     33  C   UNL A   1      41.901  29.951  35.876  1.00  0.00     0.031 C 
ATOM     34  C   UNL A   1      44.201  26.151  31.687  1.00  0.00     0.029 A 
ATOM     35  C   UNL A   1      43.442  27.159  32.270  1.00  0.00     0.049 A 
ATOM     36  H   UNL A   1      41.959  28.362  31.385  1.00  0.00     0.167 HD
ATOM     37  C   UNL A   1      42.705  28.595  34.194  1.00  0.00     0.074 A 
ATOM     38  C   UNL A   1      42.787  29.007  35.586  1.00  0.00     0.031 C 
ATOM     39  C   UNL A   1      43.480  27.632  33.635  1.00  0.00     0.037 A 
BRANCH  26  40
ATOM     40  C   UNL A   1      42.459  26.455  27.606  1.00  0.00     0.064 A 
ATOM     41  C   UNL A   1      41.832  25.235  27.313  1.00  0.00     0.173 A 
ATOM     42  C   UNL A   1      43.473  26.894  26.738  1.00  0.00     0.173 A 
ATOM     43  F   UNL A   1      40.887  24.748  28.131  1.00  0.00    -0.203 F 
ATOM     44  C   UNL A   1      42.239  24.462  26.226  1.00  0.00     0.198 A 
ATOM     45  C   UNL A   1      43.856  26.133  25.637  1.00  0.00     0.198 A 
ATOM     46  F   UNL A   1      44.118  28.044  26.979  1.00  0.00    -0.203 F 
ATOM     47  F   UNL A   1      41.684  23.259  26.016  1.00  0.00    -0.200 F 
ATOM     48  C   UNL A   1      43.249  24.911  25.390  1.00  0.00     0.200 A 
ATOM     49  F   UNL A   1      44.835  26.569  24.832  1.00  0.00    -0.200 F 
ATOM     50  F   UNL A   1      43.656  24.155  24.360  1.00  0.00    -0.200 F 
ENDBRANCH  26  40
BRANCH  27  51
ATOM     51  C   UNL A   1      39.723  31.985  35.674  1.00  0.00     0.064 A 
ATOM     52  C   UNL A   1      40.299  33.219  35.995  1.00  0.00     0.173 A 
ATOM     53  C   UNL A   1      38.644  31.546  36.463  1.00  0.00     0.173 A 
ATOM     54  F   UNL A   1      41.337  33.679  35.282  1.00  0.00    -0.203 F 
ATOM     55  C   UNL A   1      39.815  33.984  37.056  1.00  0.00     0.198 A 
ATOM     56  C   UNL A   1      38.144  32.324  37.504  1.00  0.00     0.198 A 
ATOM     57  F   UNL A   1      38.051  30.373  36.196  1.00  0.00    -0.203 F 
ATOM     58  F   UNL A   1      40.396  35.154  37.355  1.00  0.00    -0.200 F 
ATOM     59  C   UNL A   1      38.732  33.542  37.802  1.00  0.00     0.200 A 
ATOM     60  F   UNL A   1      37.084  31.899  38.205  1.00  0.00    -0.200 F 
ATOM     61  F   UNL A   1      38.255  34.289  38.807  1.00  0.00    -0.200 F 
ENDBRANCH  27  51
BRANCH  39  62
ATOM     62  C   UNL A   1      44.511  27.004  34.516  1.00  0.00     0.064 A 
ATOM     63  C   UNL A   1      45.761  27.602  34.722  1.00  0.00     0.173 A 
ATOM     64  C   UNL A   1      44.195  25.845  35.241  1.00  0.00     0.173 A 
ATOM     65  F   UNL A   1      46.105  28.703  34.038  1.00  0.00    -0.203 F 
ATOM     66  C   UNL A   1      46.666  27.054  35.625  1.00  0.00     0.198 A 
ATOM     67  C   UNL A   1      45.090  25.318  36.162  1.00  0.00     0.198 A 
ATOM     68  F   UNL A   1      43.004  25.250  35.076  1.00  0.00    -0.203 F 
ATOM     69  F   UNL A   1      47.866  27.624  35.794  1.00  0.00    -0.200 F 
ATOM     70  C   UNL A   1      46.324  25.922  36.353  1.00  0.00     0.200 A 
ATOM     71  F   UNL A   1      44.753  24.236  36.876  1.00  0.00    -0.200 F 
ATOM     72  F   UNL A   1      47.187  25.411  37.241  1.00  0.00    -0.200 F 
ENDBRANCH  39  62
ENDBRANCH  13  14
ENDBRANCH   6   8
ENDBRANCH   5   6
ENDBRANCH   4   5
ENDBRANCH   3   4
ENDBRANCH   2   3
ENDBRANCH   1   2
BRANCH   1  73
ATOM     73  C   UNL A   1      33.760  26.076  25.630  1.00  0.00     0.261 C 
BRANCH  73  74
ATOM     74  O   UNL A   1      32.590  25.243  25.708  1.00  0.00    -0.462 OA
BRANCH  74  75
ATOM     75  C   UNL A   1      31.404  25.862  25.484  1.00  0.00     0.328 C 
ATOM     76  O   UNL A   1      30.762  26.461  26.347  1.00  0.00    -0.250 OA
BRANCH  75  77
ATOM     77  C   UNL A   1      30.887  25.614  24.052  1.00  0.00     0.195 C 
ATOM     78  C   UNL A   1      29.472  26.193  23.906  1.00  0.00     0.039 C 
ATOM     79  N   UNL A   1      31.622  26.292  22.964  1.00  0.00    -0.329 N 
ATOM     80  C   UNL A   1      29.735  27.631  23.480  1.00  0.00     0.024 C 
ATOM     81  C   UNL A   1      30.890  27.472  22.507  1.00  0.00     0.120 C 
BRANCH  79  82
ATOM     82  C   UNL A   1      32.755  25.908  22.279  1.00  0.00     0.229 C 
ATOM     83  O   UNL A   1      33.663  26.729  22.096  1.00  0.00    -0.274 OA
BRANCH  82  84
ATOM     84  C   UNL A   1      32.918  24.473  21.785  1.00  0.00     0.157 C 
BRANCH  84  85
ATOM     85  C   UNL A   1      33.566  23.580  22.805  1.00  0.00     0.061 A 
ATOM     86  C   UNL A   1      32.942  22.589  23.537  1.00  0.00     0.091 A 
ATOM     87  N   UNL A   1      34.925  23.735  23.109  1.00  0.00    -0.240 NA
ATOM     88  S   UNL A   1      34.031  21.818  24.584  1.00  0.00    -0.121 S 
ATOM     89  C   UNL A   1      35.265  22.895  24.069  1.00  0.00     0.133 A 
BRANCH  89  90
ATOM     90  C   UNL A   1      36.547  22.798  24.708  1.00  0.00     0.063 A 
ATOM     91  C   UNL A   1      37.146  23.786  25.471  1.00  0.00     0.023 A 
ATOM     92  S   UNL A   1      37.454  21.350  24.743  1.00  0.00    -0.141 S 
ATOM     93  C   UNL A   1      38.281  23.314  26.185  1.00  0.00     0.012 A 
ATOM     94  C   UNL A   1      38.549  21.994  25.897  1.00  0.00     0.065 A 
ENDBRANCH  89  90
ENDBRANCH  84  85
ENDBRANCH  82  84
ENDBRANCH  79  82
ENDBRANCH  75  77
ENDBRANCH  74  75
ENDBRANCH  73  74
ENDBRANCH   1  73
TORSDOF 18
ENDMDL
MODEL 2
REMARK VINA RESULT:     -11.2      4.563     10.070
REMARK SMILES O=C(OCCOCCOC(=O)[C@H]1CCCN1C(=O)Cc1csc(-c2cccs2)n1)c1ccc(-c2c3nc(c(-c4c(F)c(F)c(F)c(F)c4F)c4ccc([nH]4)c(-c4c(F)c(F)c(F)c(F)c4F)c4nc(c(-c5c(F)c(F)c(F)c(F)c5F)c5ccc2[nH]5)C=C4)C=C3)cc1
REMARK SMILES IDX 7 1 6 2 5 3 4 4 3 5 2 6 1 7 30 8 31 9 92 10 32 11 91 12
REMARK SMILES IDX 33 13 34 14 35 15 85 16 36 17 90 18 84 19 86 20 37 21 89 22
REMARK SMILES IDX 83 23 82 24 38 26 70 27 50 28 69 29 51 30 54 31 68 32 87 33
REMARK SMILES IDX 52 34 53 35 67 37 88 38 55 39 39 40 40 41 48 42 41 43 42 44
REMARK SMILES IDX 46 45 49 46 43 47 44 48 47 49 45 50 71 51 72 52 80 53 73 54
REMARK SMILES IDX 74 55 78 56 81 57 75 58 76 59 79 60 77 61 56 62 57 63 65 64
REMARK SMILES IDX 58 65 59 66 63 67 66 68 60 69 61 70 64 71 62 72 8 73 9 74
REMARK SMILES IDX 10 75 11 76 12 77 13 78 16 79 14 80 15 81 17 82 18 83 19 84
REMARK SMILES IDX 20 85 21 86 29 87 22 88 23 89 24 90 25 91 28 92 26 93 27 94
REMARK H PARENT 86 25 54 36
REMARK Flexibility Score: inf
ROOT
ATOM      1  C   UNL A   1      33.781  20.815  26.489  1.00  0.00     0.202 C 
ENDROOT
BRANCH   1   2
ATOM      2  O   UNL A   1      35.077  21.251  26.063  1.00  0.00    -0.374 OA
BRANCH   2   3
ATOM      3  C   UNL A   1      35.665  20.498  24.998  1.00  0.00     0.202 C 
BRANCH   3   4
ATOM      4  C   UNL A   1      37.199  20.512  24.849  1.00  0.00     0.261 C 
BRANCH   4   5
ATOM      5  O   UNL A   1      37.812  21.488  25.714  1.00  0.00    -0.460 OA
BRANCH   5   6
ATOM      6  C   UNL A   1      39.095  21.578  26.119  1.00  0.00     0.338 C 
ATOM      7  O   UNL A   1      39.795  20.562  26.140  1.00  0.00    -0.246 OA
BRANCH   6   8
ATOM      8  C   UNL A   1      39.688  22.847  26.616  1.00  0.00     0.060 A 
ATOM      9  C   UNL A   1      39.312  24.109  26.165  1.00  0.00     0.016 A 
ATOM     10  C   UNL A   1      40.656  22.772  27.631  1.00  0.00     0.016 A 
ATOM     11  C   UNL A   1      39.869  25.263  26.655  1.00  0.00     0.010 A 
ATOM     12  C   UNL A   1      41.245  23.931  28.134  1.00  0.00     0.010 A 
ATOM     13  C   UNL A   1      40.853  25.169  27.620  1.00  0.00    -0.014 A 
BRANCH  13  14
ATOM     14  C   UNL A   1      41.576  26.405  27.893  1.00  0.00     0.031 A 
ATOM     15  C   UNL A   1      40.898  27.408  28.760  1.00  0.00     0.074 A 
ATOM     16  C   UNL A   1      42.864  26.490  27.533  1.00  0.00     0.049 A 
ATOM     17  N   UNL A   1      41.268  28.617  29.068  1.00  0.00    -0.248 NA
ATOM     18  C   UNL A   1      39.632  26.980  29.386  1.00  0.00     0.031 C 
ATOM     19  C   UNL A   1      43.628  25.422  26.881  1.00  0.00     0.029 A 
ATOM     20  N   UNL A   1      43.760  27.505  27.686  1.00  0.00    -0.354 N 
ATOM     21  C   UNL A   1      40.256  29.113  29.876  1.00  0.00     0.074 A 
ATOM     22  C   UNL A   1      39.274  28.070  30.045  1.00  0.00     0.031 C 
ATOM     23  C   UNL A   1      44.880  25.854  26.666  1.00  0.00     0.029 A 
ATOM     24  C   UNL A   1      44.964  27.247  27.086  1.00  0.00     0.049 A 
ATOM     25  H   UNL A   1      43.562  28.336  28.176  1.00  0.00     0.167 HD
ATOM     26  C   UNL A   1      40.162  30.361  30.385  1.00  0.00     0.037 A 
ATOM     27  C   UNL A   1      45.981  28.092  26.843  1.00  0.00     0.037 A 
ATOM     28  C   UNL A   1      41.174  31.353  30.152  1.00  0.00     0.049 A 
ATOM     29  C   UNL A   1      45.813  29.510  27.314  1.00  0.00     0.074 A 
ATOM     30  C   UNL A   1      41.189  32.686  30.505  1.00  0.00     0.029 A 
ATOM     31  N   UNL A   1      42.368  31.094  29.483  1.00  0.00    -0.354 N 
ATOM     32  N   UNL A   1      44.806  30.044  27.970  1.00  0.00    -0.248 NA
ATOM     33  C   UNL A   1      46.894  30.447  27.002  1.00  0.00     0.031 C 
ATOM     34  C   UNL A   1      42.372  33.244  30.004  1.00  0.00     0.029 A 
ATOM     35  C   UNL A   1      43.123  32.246  29.395  1.00  0.00     0.049 A 
ATOM     36  H   UNL A   1      42.635  30.216  29.126  1.00  0.00     0.167 HD
ATOM     37  C   UNL A   1      45.134  31.374  28.168  1.00  0.00     0.074 A 
ATOM     38  C   UNL A   1      46.441  31.563  27.562  1.00  0.00     0.031 C 
ATOM     39  C   UNL A   1      44.430  32.354  28.789  1.00  0.00     0.037 A 
BRANCH  26  40
ATOM     40  C   UNL A   1      38.882  30.708  31.087  1.00  0.00     0.064 A 
ATOM     41  C   UNL A   1      37.767  31.224  30.409  1.00  0.00     0.173 A 
ATOM     42  C   UNL A   1      38.813  30.620  32.487  1.00  0.00     0.173 A 
ATOM     43  F   UNL A   1      37.795  31.369  29.076  1.00  0.00    -0.203 F 
ATOM     44  C   UNL A   1      36.651  31.681  31.110  1.00  0.00     0.198 A 
ATOM     45  C   UNL A   1      37.685  31.049  33.180  1.00  0.00     0.198 A 
ATOM     46  F   UNL A   1      39.856  30.150  33.187  1.00  0.00    -0.203 F 
ATOM     47  F   UNL A   1      35.633  32.249  30.446  1.00  0.00    -0.200 F 
ATOM     48  C   UNL A   1      36.611  31.593  32.492  1.00  0.00     0.200 A 
ATOM     49  F   UNL A   1      37.650  30.966  34.517  1.00  0.00    -0.200 F 
ATOM     50  F   UNL A   1      35.547  32.055  33.165  1.00  0.00    -0.200 F 
ENDBRANCH  26  40
BRANCH  27  51
ATOM     51  C   UNL A   1      47.153  27.624  26.063  1.00  0.00     0.064 A 
ATOM     52  C   UNL A   1      47.178  27.699  24.666  1.00  0.00     0.173 A 
ATOM     53  C   UNL A   1      48.310  27.152  26.709  1.00  0.00     0.173 A 
ATOM     54  F   UNL A   1      46.098  28.131  23.999  1.00  0.00    -0.203 F 
ATOM     55  C   UNL A   1      48.312  27.323  23.945  1.00  0.00     0.198 A 
ATOM     56  C   UNL A   1      49.451  26.804  25.990  1.00  0.00     0.198 A 
ATOM     57  F   UNL A   1      48.343  27.065  28.047  1.00  0.00    -0.203 F 
ATOM     58  F   UNL A   1      48.304  27.387  22.607  1.00  0.00    -0.200 F 
ATOM     59  C   UNL A   1      49.450  26.886  24.608  1.00  0.00     0.200 A 
ATOM     60  F   UNL A   1      50.553  26.404  26.640  1.00  0.00    -0.200 F 
ATOM     61  F   UNL A   1      50.545  26.546  23.915  1.00  0.00    -0.200 F 
ENDBRANCH  27  51
BRANCH  39  62
ATOM     62  C   UNL A   1      45.088  33.693  28.887  1.00  0.00     0.064 A 
ATOM     63  C   UNL A   1      45.962  34.004  29.936  1.00  0.00     0.173 A 
ATOM     64  C   UNL A   1      44.917  34.630  27.858  1.00  0.00     0.173 A 
ATOM     65  F   UNL A   1      46.142  33.140  30.946  1.00  0.00    -0.203 F 
ATOM     66  C   UNL A   1      46.642  35.218  29.953  1.00  0.00     0.198 A 
ATOM     67  C   UNL A   1      45.619  35.827  27.863  1.00  0.00     0.198 A 
ATOM     68  F   UNL A   1      44.094  34.363  26.832  1.00  0.00    -0.203 F 
ATOM     69  F   UNL A   1      47.456  35.512  30.975  1.00  0.00    -0.200 F 
ATOM     70  C   UNL A   1      46.479  36.121  28.911  1.00  0.00     0.200 A 
ATOM     71  F   UNL A   1      45.474  36.691  26.850  1.00  0.00    -0.200 F 
ATOM     72  F   UNL A   1      47.155  37.278  28.916  1.00  0.00    -0.200 F 
ENDBRANCH  39  62
ENDBRANCH  13  14
ENDBRANCH   6   8
ENDBRANCH   5   6
ENDBRANCH   4   5
ENDBRANCH   3   4
ENDBRANCH   2   3
ENDBRANCH   1   2
BRANCH   1  73
ATOM     73  C   UNL A   1      32.995  20.134  25.371  1.00  0.00     0.261 C 
BRANCH  73  74
ATOM     74  O   UNL A   1      31.825  20.911  25.061  1.00  0.00    -0.462 OA
BRANCH  74  75
ATOM     75  C   UNL A   1      32.031  22.018  24.304  1.00  0.00     0.328 C 
ATOM     76  O   UNL A   1      32.940  22.135  23.481  1.00  0.00    -0.250 OA
BRANCH  75  77
ATOM     77  C   UNL A   1      31.074  23.165  24.691  1.00  0.00     0.195 C 
ATOM     78  C   UNL A   1      30.659  23.016  26.162  1.00  0.00     0.039 C 
ATOM     79  N   UNL A   1      31.640  24.530  24.656  1.00  0.00    -0.329 N 
ATOM     80  C   UNL A   1      31.749  23.779  26.902  1.00  0.00     0.024 C 
ATOM     81  C   UNL A   1      31.961  24.988  26.007  1.00  0.00     0.120 C 
BRANCH  79  82
ATOM     82  C   UNL A   1      31.766  25.416  23.607  1.00  0.00     0.229 C 
ATOM     83  O   UNL A   1      31.797  24.986  22.447  1.00  0.00    -0.274 OA
BRANCH  82  84
ATOM     84  C   UNL A   1      31.822  26.920  23.862  1.00  0.00     0.157 C 
BRANCH  84  85
ATOM     85  C   UNL A   1      30.500  27.597  23.630  1.00  0.00     0.061 A 
ATOM     86  C   UNL A   1      29.261  26.988  23.625  1.00  0.00     0.091 A 
ATOM     87  N   UNL A   1      30.455  28.971  23.361  1.00  0.00    -0.240 NA
ATOM     88  S   UNL A   1      28.025  28.108  23.319  1.00  0.00    -0.121 S 
ATOM     89  C   UNL A   1      29.208  29.338  23.129  1.00  0.00     0.133 A 
BRANCH  89  90
ATOM     90  C   UNL A   1      28.758  30.646  22.745  1.00  0.00     0.063 A 
ATOM     91  C   UNL A   1      28.817  31.784  23.531  1.00  0.00     0.023 A 
ATOM     92  S   UNL A   1      28.222  31.010  21.163  1.00  0.00    -0.141 S 
ATOM     93  C   UNL A   1      28.544  32.971  22.798  1.00  0.00     0.012 A 
ATOM     94  C   UNL A   1      28.225  32.695  21.486  1.00  0.00     0.065 A 
ENDBRANCH  89  90
ENDBRANCH  84  85
ENDBRANCH  82  84
ENDBRANCH  79  82
ENDBRANCH  75  77
ENDBRANCH  74  75
ENDBRANCH  73  74
ENDBRANCH   1  73
TORSDOF 18
ENDMDL
MODEL 3
REMARK VINA RESULT:     -10.9      1.666      3.566
REMARK SMILES O=C(OCCOCCOC(=O)[C@H]1CCCN1C(=O)Cc1csc(-c2cccs2)n1)c1ccc(-c2c3nc(c(-c4c(F)c(F)c(F)c(F)c4F)c4ccc([nH]4)c(-c4c(F)c(F)c(F)c(F)c4F)c4nc(c(-c5c(F)c(F)c(F)c(F)c5F)c5ccc2[nH]5)C=C4)C=C3)cc1
REMARK SMILES IDX 7 1 6 2 5 3 4 4 3 5 2 6 1 7 30 8 31 9 92 10 32 11 91 12
REMARK SMILES IDX 33 13 34 14 35 15 85 16 36 17 90 18 84 19 86 20 37 21 89 22
REMARK SMILES IDX 83 23 82 24 38 26 70 27 50 28 69 29 51 30 54 31 68 32 87 33
REMARK SMILES IDX 52 34 53 35 67 37 88 38 55 39 39 40 40 41 48 42 41 43 42 44
REMARK SMILES IDX 46 45 49 46 43 47 44 48 47 49 45 50 71 51 72 52 80 53 73 54
REMARK SMILES IDX 74 55 78 56 81 57 75 58 76 59 79 60 77 61 56 62 57 63 65 64
REMARK SMILES IDX 58 65 59 66 63 67 66 68 60 69 61 70 64 71 62 72 8 73 9 74
REMARK SMILES IDX 10 75 11 76 12 77 13 78 16 79 14 80 15 81 17 82 18 83 19 84
REMARK SMILES IDX 20 85 21 86 29 87 22 88 23 89 24 90 25 91 28 92 26 93 27 94
REMARK H PARENT 86 25 54 36
REMARK Flexibility Score: inf
ROOT
ATOM      1  C   UNL A   1      33.223  27.451  26.489  1.00  0.00     0.202 C 
ENDROOT
BRANCH   1   2
ATOM      2  O   UNL A   1      32.341  28.433  25.935  1.00  0.00    -0.374 OA
BRANCH   2   3
ATOM      3  C   UNL A   1      31.693  29.288  26.881  1.00  0.00     0.202 C 
BRANCH   3   4
ATOM      4  C   UNL A   1      31.966  30.803  26.810  1.00  0.00     0.261 C 
BRANCH   4   5
ATOM      5  O   UNL A   1      33.378  31.091  26.784  1.00  0.00    -0.460 OA
BRANCH   5   6
ATOM      6  C   UNL A   1      34.106  31.852  27.627  1.00  0.00     0.338 C 
ATOM      7  O   UNL A   1      33.763  33.018  27.837  1.00  0.00    -0.246 OA
BRANCH   6   8
ATOM      8  C   UNL A   1      35.358  31.365  28.263  1.00  0.00     0.060 A 
ATOM      9  C   UNL A   1      35.530  30.073  28.750  1.00  0.00     0.016 A 
ATOM     10  C   UNL A   1      36.447  32.248  28.339  1.00  0.00     0.016 A 
ATOM     11  C   UNL A   1      36.704  29.650  29.319  1.00  0.00     0.010 A 
ATOM     12  C   UNL A   1      37.645  31.844  28.926  1.00  0.00     0.010 A 
ATOM     13  C   UNL A   1      37.751  30.545  29.429  1.00  0.00    -0.014 A 
BRANCH  13  14
ATOM     14  C   UNL A   1      38.855  30.110  30.275  1.00  0.00     0.031 A 
ATOM     15  C   UNL A   1      39.862  29.202  29.658  1.00  0.00     0.074 A 
ATOM     16  C   UNL A   1      39.022  30.696  31.468  1.00  0.00     0.049 A 
ATOM     17  N   UNL A   1      40.869  28.591  30.209  1.00  0.00    -0.248 NA
ATOM     18  C   UNL A   1      39.726  28.965  28.208  1.00  0.00     0.031 C 
ATOM     19  C   UNL A   1      38.176  31.765  32.006  1.00  0.00     0.029 A 
ATOM     20  N   UNL A   1      39.968  30.494  32.428  1.00  0.00    -0.354 N 
ATOM     21  C   UNL A   1      41.452  27.854  29.190  1.00  0.00     0.074 A 
ATOM     22  C   UNL A   1      40.717  28.119  27.977  1.00  0.00     0.031 C 
ATOM     23  C   UNL A   1      38.631  32.108  33.221  1.00  0.00     0.029 A 
ATOM     24  C   UNL A   1      39.736  31.222  33.565  1.00  0.00     0.049 A 
ATOM     25  H   UNL A   1      40.737  29.889  32.315  1.00  0.00     0.167 HD
ATOM     26  C   UNL A   1      42.493  26.999  29.298  1.00  0.00     0.037 A 
ATOM     27  C   UNL A   1      40.318  31.107  34.771  1.00  0.00     0.037 A 
ATOM     28  C   UNL A   1      43.161  26.773  30.549  1.00  0.00     0.049 A 
ATOM     29  C   UNL A   1      41.397  30.068  34.907  1.00  0.00     0.074 A 
ATOM     30  C   UNL A   1      44.159  25.873  30.856  1.00  0.00     0.029 A 
ATOM     31  N   UNL A   1      42.871  27.475  31.717  1.00  0.00    -0.354 N 
ATOM     32  N   UNL A   1      41.884  29.263  33.988  1.00  0.00    -0.248 NA
ATOM     33  C   UNL A   1      41.995  29.901  36.233  1.00  0.00     0.031 C 
ATOM     34  C   UNL A   1      44.437  25.997  32.223  1.00  0.00     0.029 A 
ATOM     35  C   UNL A   1      43.658  27.019  32.754  1.00  0.00     0.049 A 
ATOM     36  H   UNL A   1      42.203  28.195  31.790  1.00  0.00     0.167 HD
ATOM     37  C   UNL A   1      42.856  28.503  34.615  1.00  0.00     0.074 A 
ATOM     38  C   UNL A   1      42.892  28.951  35.997  1.00  0.00     0.031 C 
ATOM     39  C   UNL A   1      43.650  27.527  34.106  1.00  0.00     0.037 A 
BRANCH  26  40
ATOM     40  C   UNL A   1      42.829  26.190  28.081  1.00  0.00     0.064 A 
ATOM     41  C   UNL A   1      43.770  26.614  27.130  1.00  0.00     0.173 A 
ATOM     42  C   UNL A   1      42.112  25.013  27.810  1.00  0.00     0.173 A 
ATOM     43  F   UNL A   1      44.453  27.754  27.318  1.00  0.00    -0.203 F 
ATOM     44  C   UNL A   1      43.946  25.918  25.935  1.00  0.00     0.198 A 
ATOM     45  C   UNL A   1      42.313  24.304  26.629  1.00  0.00     0.198 A 
ATOM     46  F   UNL A   1      41.189  24.570  28.675  1.00  0.00    -0.203 F 
ATOM     47  F   UNL A   1      44.788  26.390  25.004  1.00  0.00    -0.200 F 
ATOM     48  C   UNL A   1      43.218  24.765  25.686  1.00  0.00     0.200 A 
ATOM     49  F   UNL A   1      41.605  23.191  26.390  1.00  0.00    -0.200 F 
ATOM     50  F   UNL A   1      43.371  24.110  24.525  1.00  0.00    -0.200 F 
ENDBRANCH  26  40
BRANCH  27  51
ATOM     51  C   UNL A   1      39.822  31.923  35.906  1.00  0.00     0.064 A 
ATOM     52  C   UNL A   1      40.425  33.137  36.252  1.00  0.00     0.173 A 
ATOM     53  C   UNL A   1      38.680  31.535  36.630  1.00  0.00     0.173 A 
ATOM     54  F   UNL A   1      41.523  33.548  35.602  1.00  0.00    -0.203 F 
ATOM     55  C   UNL A   1      39.908  33.932  37.275  1.00  0.00     0.198 A 
ATOM     56  C   UNL A   1      38.148  32.343  37.633  1.00  0.00     0.198 A 
ATOM     57  F   UNL A   1      38.058  30.384  36.337  1.00  0.00    -0.203 F 
ATOM     58  F   UNL A   1      40.517  35.081  37.601  1.00  0.00    -0.200 F 
ATOM     59  C   UNL A   1      38.765  33.540  37.957  1.00  0.00     0.200 A 
ATOM     60  F   UNL A   1      37.031  31.968  38.270  1.00  0.00    -0.200 F 
ATOM     61  F   UNL A   1      38.257  34.316  38.925  1.00  0.00    -0.200 F 
ENDBRANCH  27  51
BRANCH  39  62
ATOM     62  C   UNL A   1      44.653  26.926  35.037  1.00  0.00     0.064 A 
ATOM     63  C   UNL A   1      45.924  27.489  35.209  1.00  0.00     0.173 A 
ATOM     64  C   UNL A   1      44.290  25.834  35.840  1.00  0.00     0.173 A 
ATOM     65  F   UNL A   1      46.313  28.525  34.451  1.00  0.00    -0.203 F 
ATOM     66  C   UNL A   1      46.803  26.974  36.155  1.00  0.00     0.198 A 
ATOM     67  C   UNL A   1      45.160  25.341  36.803  1.00  0.00     0.198 A 
ATOM     68  F   UNL A   1      43.078  25.273  35.710  1.00  0.00    -0.203 F 
ATOM     69  F   UNL A   1      48.024  27.508  36.292  1.00  0.00    -0.200 F 
ATOM     70  C   UNL A   1      46.416  25.909  36.958  1.00  0.00     0.200 A 
ATOM     71  F   UNL A   1      44.780  24.325  37.589  1.00  0.00    -0.200 F 
ATOM     72  F   UNL A   1      47.255  25.431  37.887  1.00  0.00    -0.200 F 
ENDBRANCH  39  62
ENDBRANCH  13  14
ENDBRANCH   6   8
ENDBRANCH   5   6
ENDBRANCH   4   5
ENDBRANCH   3   4
ENDBRANCH   2   3
ENDBRANCH   1   2
BRANCH   1  73
ATOM     73  C   UNL A   1      32.945  26.047  25.958  1.00  0.00     0.261 C 
BRANCH  73  74
ATOM     74  O   UNL A   1      31.978  25.395  26.799  1.00  0.00    -0.462 OA
BRANCH  74  75
ATOM     75  C   UNL A   1      32.031  24.039  26.825  1.00  0.00     0.328 C 
ATOM     76  O   UNL A   1      31.413  23.338  27.626  1.00  0.00    -0.250 OA
BRANCH  75  77
ATOM     77  C   UNL A   1      33.060  23.485  25.818  1.00  0.00     0.195 C 
ATOM     78  C   UNL A   1      34.069  22.589  26.553  1.00  0.00     0.039 C 
ATOM     79  N   UNL A   1      32.534  22.582  24.774  1.00  0.00    -0.329 N 
ATOM     80  C   UNL A   1      33.403  21.220  26.508  1.00  0.00     0.024 C 
ATOM     81  C   UNL A   1      32.825  21.188  25.104  1.00  0.00     0.120 C 
BRANCH  79  82
ATOM     82  C   UNL A   1      31.968  22.869  23.549  1.00  0.00     0.229 C 
ATOM     83  O   UNL A   1      32.516  22.467  22.516  1.00  0.00    -0.274 OA
BRANCH  82  84
ATOM     84  C   UNL A   1      30.652  23.639  23.461  1.00  0.00     0.157 C 
BRANCH  84  85
ATOM     85  C   UNL A   1      30.853  25.091  23.131  1.00  0.00     0.061 A 
ATOM     86  C   UNL A   1      31.990  25.656  22.588  1.00  0.00     0.091 A 
ATOM     87  N   UNL A   1      29.836  26.017  23.401  1.00  0.00    -0.240 NA
ATOM     88  S   UNL A   1      31.807  27.329  22.376  1.00  0.00    -0.121 S 
ATOM     89  C   UNL A   1      30.249  27.233  23.092  1.00  0.00     0.133 A 
BRANCH  89  90
ATOM     90  C   UNL A   1      29.528  28.458  23.291  1.00  0.00     0.063 A 
ATOM     91  C   UNL A   1      30.095  29.702  23.515  1.00  0.00     0.023 A 
ATOM     92  S   UNL A   1      27.832  28.572  23.114  1.00  0.00    -0.141 S 
ATOM     93  C   UNL A   1      29.151  30.760  23.413  1.00  0.00     0.012 A 
ATOM     94  C   UNL A   1      27.880  30.285  23.175  1.00  0.00     0.065 A 
ENDBRANCH  89  90
ENDBRANCH  84  85
ENDBRANCH  82  84
ENDBRANCH  79  82
ENDBRANCH  75  77
ENDBRANCH  74  75
ENDBRANCH  73  74
ENDBRANCH   1  73
TORSDOF 18
ENDMDL
