MODEL 1
REMARK VINA RESULT:     -11.9      0.000      0.000
REMARK SMILES Cc1cc(Cl)cc2c1O[C@H](C(F)(F)F)C(C(=O)OCCOCCOC(=O)c1ccc(-c3c4nc(c(-c5c(F)c(F)c(F)c(F)c5F)c5ccc([nH]5)c(-c5c(F)c(F)c(F)c(F)c5F)c5nc(c(-c6c(F)c(F)c(F)c(F)c6F)c6ccc3[nH]6)C=C5)C=C4)cc1)=C2
REMARK SMILES IDX 22 1 21 2 20 3 19 4 18 5 16 6 17 7 15 8 1 9 2 10 3 11 8 12
REMARK SMILES IDX 4 13 7 14 9 15 5 16 6 17 90 18 10 19 11 20 12 21 13 22 14 23
REMARK SMILES IDX 23 24 24 25 25 26 26 27 27 28 28 29 89 30 29 31 88 32 30 33
REMARK SMILES IDX 31 34 32 35 82 36 33 37 87 38 81 39 83 40 34 41 86 42 80 43
REMARK SMILES IDX 79 44 35 46 67 47 47 48 66 49 48 50 51 51 65 52 84 53 49 54
REMARK SMILES IDX 50 55 64 57 85 58 52 59 36 60 37 61 45 62 38 63 39 64 43 65
REMARK SMILES IDX 46 66 40 67 41 68 44 69 42 70 68 71 69 72 77 73 70 74 71 75
REMARK SMILES IDX 75 76 78 77 72 78 73 79 76 80 74 81 53 82 54 83 62 84 55 85
REMARK SMILES IDX 56 86 60 87 63 88 57 89 58 90 61 91 59 92
REMARK H PARENT 83 45 51 56
REMARK Flexibility Score: inf
ROOT
ATOM      1  C   UNL A   1      31.785  30.819  26.421  1.00  0.00     0.202 C 
ENDROOT
BRANCH   1   2
ATOM      2  O   UNL A   1      32.930  30.148  25.894  1.00  0.00    -0.374 OA
BRANCH   2   3
ATOM      3  C   UNL A   1      33.472  29.064  26.644  1.00  0.00     0.202 C 
BRANCH   3   4
ATOM      4  C   UNL A   1      33.950  27.848  25.846  1.00  0.00     0.261 C 
BRANCH   4   5
ATOM      5  O   UNL A   1      33.665  27.988  24.445  1.00  0.00    -0.460 OA
BRANCH   5   6
ATOM      6  C   UNL A   1      33.026  26.929  23.893  1.00  0.00     0.338 C 
ATOM      7  O   UNL A   1      33.473  25.805  23.736  1.00  0.00    -0.246 OA
BRANCH   6   8
ATOM      8  C   UNL A   1      31.626  27.287  23.595  1.00  0.00     0.087 C 
ATOM      9  C   UNL A   1      26.543  27.974  23.681  1.00  0.00     0.048 C 
ATOM     10  C   UNL A   1      27.717  28.654  23.033  1.00  0.00    -0.007 A 
ATOM     11  C   UNL A   1      27.521  29.877  22.371  1.00  0.00     0.027 A 
ATOM     12  C   UNL A   1      29.021  28.145  23.157  1.00  0.00     0.131 A 
ATOM     13  C   UNL A   1      28.601  30.559  21.816  1.00  0.00     0.042 A 
ATOM     14  C   UNL A   1      30.105  28.855  22.626  1.00  0.00     0.019 A 
ATOM     15  O   UNL A   1      29.164  26.950  23.805  1.00  0.00    -0.475 OA
ATOM     16  Cl  UNL A   1      28.346  32.054  21.003  1.00  0.00    -0.084 Cl
ATOM     17  C   UNL A   1      29.892  30.053  21.937  1.00  0.00     0.032 A 
ATOM     18  C   UNL A   1      31.459  28.387  22.853  1.00  0.00     0.027 C 
ATOM     19  C   UNL A   1      30.493  26.459  24.132  1.00  0.00     0.316 C 
BRANCH  19  20
ATOM     20  C   UNL A   1      30.566  26.264  25.654  1.00  0.00     0.430 C 
ATOM     21  F   UNL A   1      30.772  27.445  26.288  1.00  0.00    -0.167 F 
ATOM     22  F   UNL A   1      29.415  25.756  26.155  1.00  0.00    -0.167 F 
ATOM     23  F   UNL A   1      31.568  25.431  26.012  1.00  0.00    -0.167 F 
ENDBRANCH  19  20
ENDBRANCH   6   8
ENDBRANCH   5   6
ENDBRANCH   4   5
ENDBRANCH   3   4
ENDBRANCH   2   3
ENDBRANCH   1   2
BRANCH   1  24
ATOM     24  C   UNL A   1      31.935  32.315  26.730  1.00  0.00     0.261 C 
BRANCH  24  25
ATOM     25  O   UNL A   1      32.677  32.548  27.943  1.00  0.00    -0.460 OA
BRANCH  25  26
ATOM     26  C   UNL A   1      33.713  33.410  27.821  1.00  0.00     0.338 C 
ATOM     27  O   UNL A   1      33.665  34.601  27.545  1.00  0.00    -0.246 OA
BRANCH  26  28
ATOM     28  C   UNL A   1      34.957  32.757  28.260  1.00  0.00     0.060 A 
ATOM     29  C   UNL A   1      34.863  31.463  28.788  1.00  0.00     0.016 A 
ATOM     30  C   UNL A   1      36.185  33.423  28.225  1.00  0.00     0.016 A 
ATOM     31  C   UNL A   1      35.994  30.841  29.310  1.00  0.00     0.010 A 
ATOM     32  C   UNL A   1      37.317  32.800  28.760  1.00  0.00     0.010 A 
ATOM     33  C   UNL A   1      37.222  31.517  29.328  1.00  0.00    -0.014 A 
BRANCH  33  34
ATOM     34  C   UNL A   1      38.368  30.910  30.048  1.00  0.00     0.031 A 
ATOM     35  C   UNL A   1      38.604  31.264  31.489  1.00  0.00     0.074 A 
ATOM     36  C   UNL A   1      39.147  30.001  29.437  1.00  0.00     0.049 A 
ATOM     37  N   UNL A   1      39.500  30.797  32.319  1.00  0.00    -0.248 NA
ATOM     38  C   UNL A   1      37.708  32.274  32.074  1.00  0.00     0.031 C 
ATOM     39  C   UNL A   1      38.995  29.557  28.053  1.00  0.00     0.029 A 
ATOM     40  N   UNL A   1      40.216  29.277  29.908  1.00  0.00    -0.354 N 
ATOM     41  C   UNL A   1      39.268  31.442  33.527  1.00  0.00     0.074 A 
ATOM     42  C   UNL A   1      38.177  32.369  33.311  1.00  0.00     0.031 C 
ATOM     43  C   UNL A   1      39.926  28.625  27.789  1.00  0.00     0.029 A 
ATOM     44  C   UNL A   1      40.755  28.424  28.978  1.00  0.00     0.049 A 
ATOM     45  H   UNL A   1      40.562  29.364  30.824  1.00  0.00     0.167 HD
ATOM     46  C   UNL A   1      39.895  31.261  34.713  1.00  0.00     0.037 A 
ATOM     47  C   UNL A   1      41.797  27.575  29.076  1.00  0.00     0.037 A 
ATOM     48  C   UNL A   1      40.979  30.341  34.923  1.00  0.00     0.049 A 
ATOM     49  C   UNL A   1      42.531  27.452  30.385  1.00  0.00     0.074 A 
ATOM     50  C   UNL A   1      41.670  30.078  36.093  1.00  0.00     0.029 A 
ATOM     51  N   UNL A   1      41.535  29.536  33.941  1.00  0.00    -0.354 N 
ATOM     52  N   UNL A   1      42.280  28.039  31.531  1.00  0.00    -0.248 NA
ATOM     53  C   UNL A   1      43.691  26.548  30.420  1.00  0.00     0.031 C 
ATOM     54  C   UNL A   1      42.676  29.153  35.808  1.00  0.00     0.029 A 
ATOM     55  C   UNL A   1      42.578  28.797  34.472  1.00  0.00     0.049 A 
ATOM     56  H   UNL A   1      41.232  29.496  33.005  1.00  0.00     0.167 HD
ATOM     57  C   UNL A   1      43.226  27.556  32.425  1.00  0.00     0.074 A 
ATOM     58  C   UNL A   1      44.057  26.623  31.693  1.00  0.00     0.031 C 
ATOM     59  C   UNL A   1      43.387  27.858  33.736  1.00  0.00     0.037 A 
BRANCH  46  60
ATOM     60  C   UNL A   1      39.426  32.073  35.883  1.00  0.00     0.064 A 
ATOM     61  C   UNL A   1      38.436  31.593  36.755  1.00  0.00     0.173 A 
ATOM     62  C   UNL A   1      40.024  33.306  36.182  1.00  0.00     0.173 A 
ATOM     63  F   UNL A   1      37.828  30.424  36.507  1.00  0.00    -0.203 F 
ATOM     64  C   UNL A   1      38.054  32.326  37.875  1.00  0.00     0.198 A 
ATOM     65  C   UNL A   1      39.658  34.023  37.318  1.00  0.00     0.198 A 
ATOM     66  F   UNL A   1      40.980  33.806  35.384  1.00  0.00    -0.203 F 
ATOM     67  F   UNL A   1      37.086  31.862  38.678  1.00  0.00    -0.200 F 
ATOM     68  C   UNL A   1      38.671  33.534  38.161  1.00  0.00     0.200 A 
ATOM     69  F   UNL A   1      40.265  35.184  37.600  1.00  0.00    -0.200 F 
ATOM     70  F   UNL A   1      38.315  34.229  39.250  1.00  0.00    -0.200 F 
ENDBRANCH  46  60
BRANCH  47  71
ATOM     71  C   UNL A   1      42.190  26.754  27.901  1.00  0.00     0.064 A 
ATOM     72  C   UNL A   1      41.640  25.481  27.695  1.00  0.00     0.173 A 
ATOM     73  C   UNL A   1      43.107  27.230  26.952  1.00  0.00     0.173 A 
ATOM     74  F   UNL A   1      40.776  24.974  28.586  1.00  0.00    -0.203 F 
ATOM     75  C   UNL A   1      41.996  24.714  26.587  1.00  0.00     0.198 A 
ATOM     76  C   UNL A   1      43.443  26.473  25.832  1.00  0.00     0.198 A 
ATOM     77  F   UNL A   1      43.663  28.441  27.105  1.00  0.00    -0.203 F 
ATOM     78  F   UNL A   1      41.478  23.488  26.431  1.00  0.00    -0.200 F 
ATOM     79  C   UNL A   1      42.891  25.214  25.653  1.00  0.00     0.200 A 
ATOM     80  F   UNL A   1      44.299  26.965  24.926  1.00  0.00    -0.200 F 
ATOM     81  F   UNL A   1      43.223  24.480  24.582  1.00  0.00    -0.200 F 
ENDBRANCH  47  71
BRANCH  59  82
ATOM     82  C   UNL A   1      44.482  27.167  34.492  1.00  0.00     0.064 A 
ATOM     83  C   UNL A   1      44.287  25.907  35.074  1.00  0.00     0.173 A 
ATOM     84  C   UNL A   1      45.775  27.715  34.525  1.00  0.00     0.173 A 
ATOM     85  F   UNL A   1      43.069  25.347  35.077  1.00  0.00    -0.203 F 
ATOM     86  C   UNL A   1      45.347  25.219  35.659  1.00  0.00     0.198 A 
ATOM     87  C   UNL A   1      46.837  27.012  35.088  1.00  0.00     0.198 A 
ATOM     88  F   UNL A   1      46.015  28.914  33.972  1.00  0.00    -0.203 F 
ATOM     89  F   UNL A   1      45.135  24.021  36.221  1.00  0.00    -0.200 F 
ATOM     90  C   UNL A   1      46.622  25.765  35.653  1.00  0.00     0.200 A 
ATOM     91  F   UNL A   1      48.071  27.534  35.064  1.00  0.00    -0.200 F 
ATOM     92  F   UNL A   1      47.646  25.087  36.189  1.00  0.00    -0.200 F 
ENDBRANCH  59  82
ENDBRANCH  33  34
ENDBRANCH  26  28
ENDBRANCH  25  26
ENDBRANCH  24  25
ENDBRANCH   1  24
TORSDOF 15
ENDMDL
MODEL 2
REMARK VINA RESULT:     -11.7      6.314     11.974
REMARK SMILES Cc1cc(Cl)cc2c1O[C@H](C(F)(F)F)C(C(=O)OCCOCCOC(=O)c1ccc(-c3c4nc(c(-c5c(F)c(F)c(F)c(F)c5F)c5ccc([nH]5)c(-c5c(F)c(F)c(F)c(F)c5F)c5nc(c(-c6c(F)c(F)c(F)c(F)c6F)c6ccc3[nH]6)C=C5)C=C4)cc1)=C2
REMARK SMILES IDX 22 1 21 2 20 3 19 4 18 5 16 6 17 7 15 8 1 9 2 10 3 11 8 12
REMARK SMILES IDX 4 13 7 14 9 15 5 16 6 17 90 18 10 19 11 20 12 21 13 22 14 23
REMARK SMILES IDX 23 24 24 25 25 26 26 27 27 28 28 29 89 30 29 31 88 32 30 33
REMARK SMILES IDX 31 34 32 35 82 36 33 37 87 38 81 39 83 40 34 41 86 42 80 43
REMARK SMILES IDX 79 44 35 46 67 47 47 48 66 49 48 50 51 51 65 52 84 53 49 54
REMARK SMILES IDX 50 55 64 57 85 58 52 59 36 60 37 61 45 62 38 63 39 64 43 65
REMARK SMILES IDX 46 66 40 67 41 68 44 69 42 70 68 71 69 72 77 73 70 74 71 75
REMARK SMILES IDX 75 76 78 77 72 78 73 79 76 80 74 81 53 82 54 83 62 84 55 85
REMARK SMILES IDX 56 86 60 87 63 88 57 89 58 90 61 91 59 92
REMARK H PARENT 83 45 51 56
REMARK Flexibility Score: inf
ROOT
ATOM      1  C   UNL A   1      44.432  18.952  24.816  1.00  0.00     0.202 C 
ENDROOT
BRANCH   1   2
ATOM      2  O   UNL A   1      45.693  19.320  25.377  1.00  0.00    -0.374 OA
BRANCH   2   3
ATOM      3  C   UNL A   1      46.286  20.540  24.941  1.00  0.00     0.202 C 
BRANCH   3   4
ATOM      4  C   UNL A   1      45.662  21.835  25.468  1.00  0.00     0.261 C 
BRANCH   4   5
ATOM      5  O   UNL A   1      46.651  22.859  25.662  1.00  0.00    -0.460 OA
BRANCH   5   6
ATOM      6  C   UNL A   1      46.631  23.843  24.731  1.00  0.00     0.338 C 
ATOM      7  O   UNL A   1      46.797  23.716  23.529  1.00  0.00    -0.246 OA
BRANCH   6   8
ATOM      8  C   UNL A   1      46.258  25.123  25.361  1.00  0.00     0.087 C 
ATOM      9  C   UNL A   1      46.139  29.904  27.217  1.00  0.00     0.048 C 
ATOM     10  C   UNL A   1      45.127  28.909  26.723  1.00  0.00    -0.007 A 
ATOM     11  C   UNL A   1      43.795  29.317  26.546  1.00  0.00     0.027 A 
ATOM     12  C   UNL A   1      45.500  27.609  26.342  1.00  0.00     0.131 A 
ATOM     13  C   UNL A   1      42.850  28.434  26.031  1.00  0.00     0.042 A 
ATOM     14  C   UNL A   1      44.551  26.739  25.793  1.00  0.00     0.019 A 
ATOM     15  O   UNL A   1      46.806  27.254  26.537  1.00  0.00    -0.475 OA
ATOM     16  Cl  UNL A   1      41.220  28.945  25.824  1.00  0.00    -0.084 Cl
ATOM     17  C   UNL A   1      43.219  27.145  25.657  1.00  0.00     0.032 A 
ATOM     18  C   UNL A   1      44.959  25.439  25.296  1.00  0.00     0.027 C 
ATOM     19  C   UNL A   1      47.301  25.998  25.997  1.00  0.00     0.316 C 
BRANCH  19  20
ATOM     20  C   UNL A   1      48.470  26.314  25.052  1.00  0.00     0.430 C 
ATOM     21  F   UNL A   1      48.038  26.464  23.776  1.00  0.00    -0.167 F 
ATOM     22  F   UNL A   1      49.089  27.471  25.385  1.00  0.00    -0.167 F 
ATOM     23  F   UNL A   1      49.404  25.338  25.053  1.00  0.00    -0.167 F 
ENDBRANCH  19  20
ENDBRANCH   6   8
ENDBRANCH   5   6
ENDBRANCH   4   5
ENDBRANCH   3   4
ENDBRANCH   2   3
ENDBRANCH   1   2
BRANCH   1  24
ATOM     24  C   UNL A   1      43.230  18.910  25.770  1.00  0.00     0.261 C 
BRANCH  24  25
ATOM     25  O   UNL A   1      42.066  19.545  25.207  1.00  0.00    -0.460 OA
BRANCH  25  26
ATOM     26  C   UNL A   1      41.193  20.042  26.114  1.00  0.00     0.338 C 
ATOM     27  O   UNL A   1      40.177  19.510  26.540  1.00  0.00    -0.246 OA
BRANCH  26  28
ATOM     28  C   UNL A   1      41.732  21.283  26.695  1.00  0.00     0.060 A 
ATOM     29  C   UNL A   1      41.785  21.380  28.091  1.00  0.00     0.016 A 
ATOM     30  C   UNL A   1      42.111  22.361  25.892  1.00  0.00     0.016 A 
ATOM     31  C   UNL A   1      42.191  22.568  28.690  1.00  0.00     0.010 A 
ATOM     32  C   UNL A   1      42.508  23.558  26.497  1.00  0.00     0.010 A 
ATOM     33  C   UNL A   1      42.525  23.675  27.898  1.00  0.00    -0.014 A 
BRANCH  33  34
ATOM     34  C   UNL A   1      42.780  24.980  28.556  1.00  0.00     0.031 A 
ATOM     35  C   UNL A   1      44.177  25.328  28.986  1.00  0.00     0.074 A 
ATOM     36  C   UNL A   1      41.784  25.871  28.705  1.00  0.00     0.049 A 
ATOM     37  N   UNL A   1      44.629  26.437  29.512  1.00  0.00    -0.248 NA
ATOM     38  C   UNL A   1      45.203  24.291  28.793  1.00  0.00     0.031 C 
ATOM     39  C   UNL A   1      40.397  25.657  28.299  1.00  0.00     0.029 A 
ATOM     40  N   UNL A   1      41.790  27.141  29.228  1.00  0.00    -0.354 N 
ATOM     41  C   UNL A   1      45.991  26.238  29.698  1.00  0.00     0.074 A 
ATOM     42  C   UNL A   1      46.286  24.887  29.273  1.00  0.00     0.031 C 
ATOM     43  C   UNL A   1      39.686  26.763  28.573  1.00  0.00     0.029 A 
ATOM     44  C   UNL A   1      40.563  27.755  29.195  1.00  0.00     0.049 A 
ATOM     45  H   UNL A   1      42.598  27.569  29.592  1.00  0.00     0.167 HD
ATOM     46  C   UNL A   1      46.914  27.113  30.162  1.00  0.00     0.037 A 
ATOM     47  C   UNL A   1      40.191  28.979  29.618  1.00  0.00     0.037 A 
ATOM     48  C   UNL A   1      46.617  28.455  30.584  1.00  0.00     0.049 A 
ATOM     49  C   UNL A   1      41.222  29.905  30.207  1.00  0.00     0.074 A 
ATOM     50  C   UNL A   1      47.489  29.421  31.057  1.00  0.00     0.029 A 
ATOM     51  N   UNL A   1      45.351  29.021  30.591  1.00  0.00    -0.354 N 
ATOM     52  N   UNL A   1      42.514  29.722  30.343  1.00  0.00    -0.248 NA
ATOM     53  C   UNL A   1      40.750  31.209  30.697  1.00  0.00     0.031 C 
ATOM     54  C   UNL A   1      46.744  30.552  31.397  1.00  0.00     0.029 A 
ATOM     55  C   UNL A   1      45.415  30.312  31.086  1.00  0.00     0.049 A 
ATOM     56  H   UNL A   1      44.530  28.570  30.289  1.00  0.00     0.167 HD
ATOM     57  C   UNL A   1      43.010  30.891  30.905  1.00  0.00     0.074 A 
ATOM     58  C   UNL A   1      41.883  31.782  31.081  1.00  0.00     0.031 C 
ATOM     59  C   UNL A   1      44.287  31.196  31.240  1.00  0.00     0.037 A 
BRANCH  46  60
ATOM     60  C   UNL A   1      48.339  26.653  30.237  1.00  0.00     0.064 A 
ATOM     61  C   UNL A   1      49.294  27.078  29.302  1.00  0.00     0.173 A 
ATOM     62  C   UNL A   1      48.772  25.842  31.297  1.00  0.00     0.173 A 
ATOM     63  F   UNL A   1      48.928  27.847  28.265  1.00  0.00    -0.203 F 
ATOM     64  C   UNL A   1      50.628  26.697  29.418  1.00  0.00     0.198 A 
ATOM     65  C   UNL A   1      50.111  25.485  31.425  1.00  0.00     0.198 A 
ATOM     66  F   UNL A   1      47.898  25.414  32.222  1.00  0.00    -0.203 F 
ATOM     67  F   UNL A   1      51.518  27.092  28.497  1.00  0.00    -0.200 F 
ATOM     68  C   UNL A   1      51.037  25.909  30.484  1.00  0.00     0.200 A 
ATOM     69  F   UNL A   1      50.507  24.735  32.463  1.00  0.00    -0.200 F 
ATOM     70  F   UNL A   1      52.325  25.559  30.604  1.00  0.00    -0.200 F 
ENDBRANCH  46  60
BRANCH  47  71
ATOM     71  C   UNL A   1      38.775  29.408  29.473  1.00  0.00     0.064 A 
ATOM     72  C   UNL A   1      37.935  29.511  30.591  1.00  0.00     0.173 A 
ATOM     73  C   UNL A   1      38.238  29.740  28.221  1.00  0.00     0.173 A 
ATOM     74  F   UNL A   1      38.396  29.182  31.806  1.00  0.00    -0.203 F 
ATOM     75  C   UNL A   1      36.611  29.925  30.460  1.00  0.00     0.198 A 
ATOM     76  C   UNL A   1      36.922  30.179  28.094  1.00  0.00     0.198 A 
ATOM     77  F   UNL A   1      39.000  29.657  27.120  1.00  0.00    -0.203 F 
ATOM     78  F   UNL A   1      35.821  29.986  31.541  1.00  0.00    -0.200 F 
ATOM     79  C   UNL A   1      36.108  30.267  29.213  1.00  0.00     0.200 A 
ATOM     80  F   UNL A   1      36.444  30.520  26.889  1.00  0.00    -0.200 F 
ATOM     81  F   UNL A   1      34.838  30.677  29.091  1.00  0.00    -0.200 F 
ENDBRANCH  47  71
BRANCH  59  82
ATOM     82  C   UNL A   1      44.563  32.555  31.811  1.00  0.00     0.064 A 
ATOM     83  C   UNL A   1      44.572  32.779  33.194  1.00  0.00     0.173 A 
ATOM     84  C   UNL A   1      44.946  33.612  30.969  1.00  0.00     0.173 A 
ATOM     85  F   UNL A   1      44.204  31.804  34.038  1.00  0.00    -0.203 F 
ATOM     86  C   UNL A   1      44.957  34.013  33.715  1.00  0.00     0.198 A 
ATOM     87  C   UNL A   1      45.355  34.835  31.495  1.00  0.00     0.198 A 
ATOM     88  F   UNL A   1      44.964  33.444  29.638  1.00  0.00    -0.203 F 
ATOM     89  F   UNL A   1      44.947  34.209  35.041  1.00  0.00    -0.200 F 
ATOM     90  C   UNL A   1      45.362  35.033  32.866  1.00  0.00     0.200 A 
ATOM     91  F   UNL A   1      45.763  35.812  30.674  1.00  0.00    -0.200 F 
ATOM     92  F   UNL A   1      45.762  36.207  33.372  1.00  0.00    -0.200 F 
ENDBRANCH  59  82
ENDBRANCH  33  34
ENDBRANCH  26  28
ENDBRANCH  25  26
ENDBRANCH  24  25
ENDBRANCH   1  24
TORSDOF 15
ENDMDL
MODEL 3
REMARK VINA RESULT:     -11.6      4.456      9.748
REMARK SMILES Cc1cc(Cl)cc2c1O[C@H](C(F)(F)F)C(C(=O)OCCOCCOC(=O)c1ccc(-c3c4nc(c(-c5c(F)c(F)c(F)c(F)c5F)c5ccc([nH]5)c(-c5c(F)c(F)c(F)c(F)c5F)c5nc(c(-c6c(F)c(F)c(F)c(F)c6F)c6ccc3[nH]6)C=C5)C=C4)cc1)=C2
REMARK SMILES IDX 22 1 21 2 20 3 19 4 18 5 16 6 17 7 15 8 1 9 2 10 3 11 8 12
REMARK SMILES IDX 4 13 7 14 9 15 5 16 6 17 90 18 10 19 11 20 12 21 13 22 14 23
REMARK SMILES IDX 23 24 24 25 25 26 26 27 27 28 28 29 89 30 29 31 88 32 30 33
REMARK SMILES IDX 31 34 32 35 82 36 33 37 87 38 81 39 83 40 34 41 86 42 80 43
REMARK SMILES IDX 79 44 35 46 67 47 47 48 66 49 48 50 51 51 65 52 84 53 49 54
REMARK SMILES IDX 50 55 64 57 85 58 52 59 36 60 37 61 45 62 38 63 39 64 43 65
REMARK SMILES IDX 46 66 40 67 41 68 44 69 42 70 68 71 69 72 77 73 70 74 71 75
REMARK SMILES IDX 75 76 78 77 72 78 73 79 76 80 74 81 53 82 54 83 62 84 55 85
REMARK SMILES IDX 56 86 60 87 63 88 57 89 58 90 61 91 59 92
REMARK H PARENT 83 45 51 56
REMARK Flexibility Score: inf
ROOT
ATOM      1  C   UNL A   1      35.706  21.275  24.708  1.00  0.00     0.202 C 
ENDROOT
BRANCH   1   2
ATOM      2  O   UNL A   1      34.497  20.576  25.011  1.00  0.00    -0.374 OA
BRANCH   2   3
ATOM      3  C   UNL A   1      33.287  21.055  24.431  1.00  0.00     0.202 C 
BRANCH   3   4
ATOM      4  C   UNL A   1      32.094  21.228  25.376  1.00  0.00     0.261 C 
BRANCH   4   5
ATOM      5  O   UNL A   1      31.380  22.446  25.109  1.00  0.00    -0.460 OA
BRANCH   5   6
ATOM      6  C   UNL A   1      31.142  23.209  26.202  1.00  0.00     0.338 C 
ATOM      7  O   UNL A   1      30.947  22.815  27.341  1.00  0.00    -0.246 OA
BRANCH   6   8
ATOM      8  C   UNL A   1      31.266  24.637  25.855  1.00  0.00     0.087 C 
ATOM      9  C   UNL A   1      32.936  29.329  24.626  1.00  0.00     0.048 C 
ATOM     10  C   UNL A   1      31.665  28.548  24.439  1.00  0.00    -0.007 A 
ATOM     11  C   UNL A   1      30.653  29.073  23.618  1.00  0.00     0.027 A 
ATOM     12  C   UNL A   1      31.504  27.265  24.987  1.00  0.00     0.131 A 
ATOM     13  C   UNL A   1      29.492  28.343  23.377  1.00  0.00     0.042 A 
ATOM     14  C   UNL A   1      30.349  26.524  24.711  1.00  0.00     0.019 A 
ATOM     15  O   UNL A   1      32.512  26.797  25.782  1.00  0.00    -0.475 OA
ATOM     16  Cl  UNL A   1      28.258  29.000  22.374  1.00  0.00    -0.084 Cl
ATOM     17  C   UNL A   1      29.332  27.073  23.922  1.00  0.00     0.032 A 
ATOM     18  C   UNL A   1      30.233  25.157  25.182  1.00  0.00     0.027 C 
ATOM     19  C   UNL A   1      32.498  25.412  26.228  1.00  0.00     0.316 C 
BRANCH  19  20
ATOM     20  C   UNL A   1      33.793  24.744  25.740  1.00  0.00     0.430 C 
ATOM     21  F   UNL A   1      33.666  24.308  24.463  1.00  0.00    -0.167 F 
ATOM     22  F   UNL A   1      34.839  25.603  25.751  1.00  0.00    -0.167 F 
ATOM     23  F   UNL A   1      34.132  23.680  26.501  1.00  0.00    -0.167 F 
ENDBRANCH  19  20
ENDBRANCH   6   8
ENDBRANCH   5   6
ENDBRANCH   4   5
ENDBRANCH   3   4
ENDBRANCH   2   3
ENDBRANCH   1   2
BRANCH   1  24
ATOM     24  C   UNL A   1      37.024  20.565  25.044  1.00  0.00     0.261 C 
BRANCH  24  25
ATOM     25  O   UNL A   1      38.144  21.473  25.047  1.00  0.00    -0.460 OA
BRANCH  25  26
ATOM     26  C   UNL A   1      39.119  21.171  25.937  1.00  0.00     0.338 C 
ATOM     27  O   UNL A   1      39.645  20.083  26.127  1.00  0.00    -0.246 OA
BRANCH  26  28
ATOM     28  C   UNL A   1      39.629  22.407  26.554  1.00  0.00     0.060 A 
ATOM     29  C   UNL A   1      39.083  23.623  26.124  1.00  0.00     0.016 A 
ATOM     30  C   UNL A   1      40.672  22.384  27.483  1.00  0.00     0.016 A 
ATOM     31  C   UNL A   1      39.600  24.824  26.602  1.00  0.00     0.010 A 
ATOM     32  C   UNL A   1      41.196  23.592  27.953  1.00  0.00     0.010 A 
ATOM     33  C   UNL A   1      40.680  24.818  27.495  1.00  0.00    -0.014 A 
BRANCH  33  34
ATOM     34  C   UNL A   1      41.328  26.104  27.850  1.00  0.00     0.031 A 
ATOM     35  C   UNL A   1      42.731  26.375  27.384  1.00  0.00     0.074 A 
ATOM     36  C   UNL A   1      40.644  27.044  28.524  1.00  0.00     0.049 A 
ATOM     37  N   UNL A   1      43.454  27.456  27.523  1.00  0.00    -0.248 NA
ATOM     38  C   UNL A   1      43.407  25.286  26.660  1.00  0.00     0.031 C 
ATOM     39  C   UNL A   1      39.270  26.906  29.000  1.00  0.00     0.029 A 
ATOM     40  N   UNL A   1      41.010  28.309  28.914  1.00  0.00    -0.354 N 
ATOM     41  C   UNL A   1      44.662  27.185  26.893  1.00  0.00     0.074 A 
ATOM     42  C   UNL A   1      44.594  25.822  26.411  1.00  0.00     0.031 C 
ATOM     43  C   UNL A   1      38.901  28.046  29.606  1.00  0.00     0.029 A 
ATOM     44  C   UNL A   1      40.021  28.988  29.580  1.00  0.00     0.049 A 
ATOM     45  H   UNL A   1      41.898  28.693  28.733  1.00  0.00     0.167 HD
ATOM     46  C   UNL A   1      45.722  28.008  26.715  1.00  0.00     0.037 A 
ATOM     47  C   UNL A   1      40.018  30.227  30.109  1.00  0.00     0.037 A 
ATOM     48  C   UNL A   1      45.787  29.361  27.196  1.00  0.00     0.049 A 
ATOM     49  C   UNL A   1      41.241  31.094  29.969  1.00  0.00     0.074 A 
ATOM     50  C   UNL A   1      46.814  30.277  27.053  1.00  0.00     0.029 A 
ATOM     51  N   UNL A   1      44.786  29.992  27.919  1.00  0.00    -0.354 N 
ATOM     52  N   UNL A   1      42.364  30.842  29.338  1.00  0.00    -0.248 NA
ATOM     53  C   UNL A   1      41.200  32.419  30.608  1.00  0.00     0.031 C 
ATOM     54  C   UNL A   1      46.457  31.443  27.732  1.00  0.00     0.029 A 
ATOM     55  C   UNL A   1      45.183  31.275  28.252  1.00  0.00     0.049 A 
ATOM     56  H   UNL A   1      43.921  29.587  28.159  1.00  0.00     0.167 HD
ATOM     57  C   UNL A   1      43.147  31.981  29.479  1.00  0.00     0.074 A 
ATOM     58  C   UNL A   1      42.372  32.930  30.251  1.00  0.00     0.031 C 
ATOM     59  C   UNL A   1      44.394  32.217  29.007  1.00  0.00     0.037 A 
BRANCH  46  60
ATOM     60  C   UNL A   1      46.905  27.472  25.965  1.00  0.00     0.064 A 
ATOM     61  C   UNL A   1      47.023  27.634  24.576  1.00  0.00     0.173 A 
ATOM     62  C   UNL A   1      47.966  26.861  26.649  1.00  0.00     0.173 A 
ATOM     63  F   UNL A   1      46.030  28.203  23.876  1.00  0.00    -0.203 F 
ATOM     64  C   UNL A   1      48.155  27.190  23.899  1.00  0.00     0.198 A 
ATOM     65  C   UNL A   1      49.109  26.444  25.971  1.00  0.00     0.198 A 
ATOM     66  F   UNL A   1      47.906  26.690  27.978  1.00  0.00    -0.203 F 
ATOM     67  F   UNL A   1      48.234  27.329  22.567  1.00  0.00    -0.200 F 
ATOM     68  C   UNL A   1      49.200  26.605  24.597  1.00  0.00     0.200 A 
ATOM     69  F   UNL A   1      50.124  25.891  26.650  1.00  0.00    -0.200 F 
ATOM     70  F   UNL A   1      50.298  26.196  23.945  1.00  0.00    -0.200 F 
ENDBRANCH  46  60
BRANCH  47  71
ATOM     71  C   UNL A   1      38.801  30.731  30.798  1.00  0.00     0.064 A 
ATOM     72  C   UNL A   1      38.660  30.615  32.187  1.00  0.00     0.173 A 
ATOM     73  C   UNL A   1      37.764  31.352  30.086  1.00  0.00     0.173 A 
ATOM     74  F   UNL A   1      39.614  30.009  32.909  1.00  0.00    -0.203 F 
ATOM     75  C   UNL A   1      37.526  31.099  32.838  1.00  0.00     0.198 A 
ATOM     76  C   UNL A   1      36.643  31.857  30.740  1.00  0.00     0.198 A 
ATOM     77  F   UNL A   1      37.850  31.485  28.754  1.00  0.00    -0.203 F 
ATOM     78  F   UNL A   1      37.403  30.948  34.164  1.00  0.00    -0.200 F 
ATOM     79  C   UNL A   1      36.523  31.726  32.115  1.00  0.00     0.200 A 
ATOM     80  F   UNL A   1      35.682  32.473  30.039  1.00  0.00    -0.200 F 
ATOM     81  F   UNL A   1      35.438  32.200  32.743  1.00  0.00    -0.200 F 
ENDBRANCH  47  71
BRANCH  59  82
ATOM     82  C   UNL A   1      45.012  33.557  29.277  1.00  0.00     0.064 A 
ATOM     83  C   UNL A   1      45.868  33.760  30.368  1.00  0.00     0.173 A 
ATOM     84  C   UNL A   1      44.845  34.610  28.364  1.00  0.00     0.173 A 
ATOM     85  F   UNL A   1      46.051  32.788  31.273  1.00  0.00    -0.203 F 
ATOM     86  C   UNL A   1      46.537  34.971  30.534  1.00  0.00     0.198 A 
ATOM     87  C   UNL A   1      45.536  35.809  28.520  1.00  0.00     0.198 A 
ATOM     88  F   UNL A   1      44.044  34.461  27.298  1.00  0.00    -0.203 F 
ATOM     89  F   UNL A   1      47.341  35.149  31.592  1.00  0.00    -0.200 F 
ATOM     90  C   UNL A   1      46.382  35.987  29.603  1.00  0.00     0.200 A 
ATOM     91  F   UNL A   1      45.398  36.783  27.609  1.00  0.00    -0.200 F 
ATOM     92  F   UNL A   1      47.051  37.139  29.749  1.00  0.00    -0.200 F 
ENDBRANCH  59  82
ENDBRANCH  33  34
ENDBRANCH  26  28
ENDBRANCH  25  26
ENDBRANCH  24  25
ENDBRANCH   1  24
TORSDOF 15
ENDMDL
