MODEL 1
REMARK VINA RESULT:     -13.0      0.000      0.000
REMARK SMILES O=C(Cc1c(C(=O)c2cc3c(cn2)CCCC3)[nH]c2cc(Cl)ccc12)OCCOCCOC(=O)c1ccc(-c2c3nc(c(-c4c(F)c(F)c(F)c(F)c4F)c4ccc([nH]4)c(-c4c(F)c(F)c(F)c(F)c4F)c4nc(c(-c5c(F)c(F)c(F)c(F)c5F)c5ccc2[nH]5)C=C4)C=C3)cc1
REMARK SMILES IDX 28 1 27 2 26 3 2 4 1 5 3 6 4 7 5 8 25 9 18 10 19 11 24 12
REMARK SMILES IDX 20 14 23 15 21 16 22 17 6 18 7 19 8 20 9 21 13 22 10 23
REMARK SMILES IDX 12 24 11 25 17 26 14 27 16 28 15 29 29 30 30 31 31 32 32 33
REMARK SMILES IDX 33 34 34 35 35 36 36 37 97 38 37 39 96 40 38 41 39 42 40 43
REMARK SMILES IDX 90 44 41 45 95 46 89 47 91 48 42 49 94 50 88 51 87 52 43 54
REMARK SMILES IDX 75 55 55 56 74 57 56 58 59 59 73 60 92 61 57 62 58 63 72 65
REMARK SMILES IDX 93 66 60 67 44 68 45 69 53 70 46 71 47 72 51 73 54 74 48 75
REMARK SMILES IDX 49 76 52 77 50 78 76 79 77 80 85 81 78 82 79 83 83 84 86 85
REMARK SMILES IDX 80 86 81 87 84 88 82 89 61 90 62 91 70 92 63 93 64 94 68 95
REMARK SMILES IDX 71 96 65 97 66 98 69 99 67 100
REMARK H PARENT 18 13 91 53 59 64
REMARK Flexibility Score: inf
ROOT
ATOM      1  C   UNL A   1      31.365  27.883  26.309  1.00  0.00     0.202 C 
ENDROOT
BRANCH   1   2
ATOM      2  C   UNL A   1      31.425  26.367  26.509  1.00  0.00     0.261 C 
BRANCH   2   3
ATOM      3  O   UNL A   1      30.385  25.601  25.895  1.00  0.00    -0.463 OA
BRANCH   3   4
ATOM      4  C   UNL A   1      30.538  24.662  24.930  1.00  0.00     0.310 C 
ATOM      5  O   UNL A   1      31.015  23.567  25.245  1.00  0.00    -0.252 OA
BRANCH   4   6
ATOM      6  C   UNL A   1      30.355  25.003  23.465  1.00  0.00     0.161 C 
BRANCH   6   7
ATOM      7  C   UNL A   1      30.630  26.393  22.973  1.00  0.00     0.000 A 
ATOM      8  C   UNL A   1      31.813  26.897  22.439  1.00  0.00     0.093 A 
ATOM      9  C   UNL A   1      29.692  27.477  23.033  1.00  0.00     0.004 A 
ATOM     10  N   UNL A   1      31.576  28.212  22.106  1.00  0.00    -0.351 N 
ATOM     11  C   UNL A   1      30.327  28.607  22.523  1.00  0.00     0.048 A 
ATOM     12  C   UNL A   1      28.366  27.603  23.499  1.00  0.00     0.012 A 
ATOM     13  H   UNL A   1      32.215  28.794  21.633  1.00  0.00     0.167 HD
ATOM     14  C   UNL A   1      29.718  29.868  22.488  1.00  0.00     0.047 A 
ATOM     15  C   UNL A   1      27.741  28.856  23.479  1.00  0.00     0.021 A 
ATOM     16  C   UNL A   1      28.417  29.969  22.991  1.00  0.00     0.043 A 
ATOM     17  Cl  UNL A   1      27.642  31.508  23.012  1.00  0.00    -0.084 Cl
BRANCH   8  18
ATOM     18  C   UNL A   1      33.066  26.190  22.243  1.00  0.00     0.227 C 
ATOM     19  O   UNL A   1      33.651  26.115  21.168  1.00  0.00    -0.285 OA
BRANCH  18  20
ATOM     20  C   UNL A   1      33.632  25.416  23.351  1.00  0.00     0.113 A 
ATOM     21  C   UNL A   1      33.775  24.060  23.131  1.00  0.00     0.036 A 
ATOM     22  N   UNL A   1      34.048  26.085  24.453  1.00  0.00    -0.252 NA
ATOM     23  C   UNL A   1      34.438  23.318  24.096  1.00  0.00    -0.041 A 
ATOM     24  C   UNL A   1      34.712  25.341  25.363  1.00  0.00     0.115 A 
ATOM     25  C   UNL A   1      34.924  23.967  25.241  1.00  0.00    -0.026 A 
ATOM     26  C   UNL A   1      34.587  21.839  23.877  1.00  0.00     0.036 C 
ATOM     27  C   UNL A   1      35.739  23.229  26.267  1.00  0.00     0.037 C 
ATOM     28  C   UNL A   1      35.668  21.225  24.756  1.00  0.00     0.005 C 
ATOM     29  C   UNL A   1      35.529  21.716  26.193  1.00  0.00     0.005 C 
ENDBRANCH  18  20
ENDBRANCH   8  18
ENDBRANCH   6   7
ENDBRANCH   4   6
ENDBRANCH   3   4
ENDBRANCH   2   3
ENDBRANCH   1   2
BRANCH   1  30
ATOM     30  O   UNL A   1      32.477  28.573  25.766  1.00  0.00    -0.374 OA
BRANCH  30  31
ATOM     31  C   UNL A   1      32.353  29.931  25.348  1.00  0.00     0.202 C 
BRANCH  31  32
ATOM     32  C   UNL A   1      31.856  31.016  26.304  1.00  0.00     0.261 C 
BRANCH  32  33
ATOM     33  O   UNL A   1      32.591  31.091  27.528  1.00  0.00    -0.460 OA
BRANCH  33  34
ATOM     34  C   UNL A   1      33.417  32.157  27.623  1.00  0.00     0.338 C 
ATOM     35  O   UNL A   1      33.124  33.340  27.536  1.00  0.00    -0.246 OA
BRANCH  34  36
ATOM     36  C   UNL A   1      34.753  31.693  28.022  1.00  0.00     0.060 A 
ATOM     37  C   UNL A   1      35.787  32.610  28.213  1.00  0.00     0.016 A 
ATOM     38  C   UNL A   1      34.938  30.329  28.282  1.00  0.00     0.016 A 
ATOM     39  C   UNL A   1      37.004  32.159  28.715  1.00  0.00     0.010 A 
ATOM     40  C   UNL A   1      36.153  29.882  28.794  1.00  0.00     0.010 A 
ATOM     41  C   UNL A   1      37.179  30.802  29.044  1.00  0.00    -0.014 A 
BRANCH  41  42
ATOM     42  C   UNL A   1      38.386  30.403  29.802  1.00  0.00     0.031 A 
ATOM     43  C   UNL A   1      38.608  30.848  31.208  1.00  0.00     0.074 A 
ATOM     44  C   UNL A   1      39.266  29.591  29.188  1.00  0.00     0.049 A 
ATOM     45  N   UNL A   1      39.518  30.448  32.058  1.00  0.00    -0.248 NA
ATOM     46  C   UNL A   1      37.705  31.884  31.729  1.00  0.00     0.031 C 
ATOM     47  C   UNL A   1      39.160  29.147  27.796  1.00  0.00     0.029 A 
ATOM     48  N   UNL A   1      40.394  28.969  29.653  1.00  0.00    -0.354 N 
ATOM     49  C   UNL A   1      39.280  31.157  33.225  1.00  0.00     0.074 A 
ATOM     50  C   UNL A   1      38.184  32.064  32.954  1.00  0.00     0.031 C 
ATOM     51  C   UNL A   1      40.145  28.274  27.539  1.00  0.00     0.029 A 
ATOM     52  C   UNL A   1      40.965  28.121  28.736  1.00  0.00     0.049 A 
ATOM     53  H   UNL A   1      40.761  29.117  30.555  1.00  0.00     0.167 HD
ATOM     54  C   UNL A   1      39.909  31.033  34.419  1.00  0.00     0.037 A 
ATOM     55  C   UNL A   1      42.019  27.292  28.856  1.00  0.00     0.037 A 
ATOM     56  C   UNL A   1      41.009  30.135  34.659  1.00  0.00     0.049 A 
ATOM     57  C   UNL A   1      42.722  27.202  30.181  1.00  0.00     0.074 A 
ATOM     58  C   UNL A   1      41.691  29.903  35.842  1.00  0.00     0.029 A 
ATOM     59  N   UNL A   1      41.601  29.330  33.694  1.00  0.00    -0.354 N 
ATOM     60  N   UNL A   1      42.431  27.801  31.310  1.00  0.00    -0.248 NA
ATOM     61  C   UNL A   1      43.894  26.321  30.252  1.00  0.00     0.031 C 
ATOM     62  C   UNL A   1      42.733  29.010  35.577  1.00  0.00     0.029 A 
ATOM     63  C   UNL A   1      42.664  28.633  34.245  1.00  0.00     0.049 A 
ATOM     64  H   UNL A   1      41.307  29.264  32.757  1.00  0.00     0.167 HD
ATOM     65  C   UNL A   1      43.373  27.363  32.230  1.00  0.00     0.074 A 
ATOM     66  C   UNL A   1      44.232  26.427  31.531  1.00  0.00     0.031 C 
ATOM     67  C   UNL A   1      43.515  27.710  33.532  1.00  0.00     0.037 A 
BRANCH  54  68
ATOM     68  C   UNL A   1      39.418  31.881  35.557  1.00  0.00     0.064 A 
ATOM     69  C   UNL A   1      38.426  31.422  36.437  1.00  0.00     0.173 A 
ATOM     70  C   UNL A   1      39.980  33.144  35.804  1.00  0.00     0.173 A 
ATOM     71  F   UNL A   1      37.850  30.227  36.243  1.00  0.00    -0.203 F 
ATOM     72  C   UNL A   1      37.996  32.207  37.504  1.00  0.00     0.198 A 
ATOM     73  C   UNL A   1      39.570  33.911  36.892  1.00  0.00     0.198 A 
ATOM     74  F   UNL A   1      40.936  33.629  34.998  1.00  0.00    -0.203 F 
ATOM     75  F   UNL A   1      37.008  31.771  38.299  1.00  0.00    -0.200 F 
ATOM     76  C   UNL A   1      38.573  33.446  37.735  1.00  0.00     0.200 A 
ATOM     77  F   UNL A   1      40.138  35.103  37.122  1.00  0.00    -0.200 F 
ATOM     78  F   UNL A   1      38.160  34.197  38.767  1.00  0.00    -0.200 F 
ENDBRANCH  54  68
BRANCH  55  79
ATOM     79  C   UNL A   1      42.421  26.453  27.698  1.00  0.00     0.064 A 
ATOM     80  C   UNL A   1      43.364  26.912  26.769  1.00  0.00     0.173 A 
ATOM     81  C   UNL A   1      41.916  25.155  27.530  1.00  0.00     0.173 A 
ATOM     82  F   UNL A   1      43.866  28.150  26.879  1.00  0.00    -0.203 F 
ATOM     83  C   UNL A   1      43.784  26.105  25.713  1.00  0.00     0.198 A 
ATOM     84  C   UNL A   1      42.359  24.339  26.490  1.00  0.00     0.198 A 
ATOM     85  F   UNL A   1      41.018  24.666  28.397  1.00  0.00    -0.203 F 
ATOM     86  F   UNL A   1      44.668  26.577  24.823  1.00  0.00    -0.200 F 
ATOM     87  C   UNL A   1      43.290  24.817  25.581  1.00  0.00     0.200 A 
ATOM     88  F   UNL A   1      41.892  23.088  26.379  1.00  0.00    -0.200 F 
ATOM     89  F   UNL A   1      43.709  24.035  24.576  1.00  0.00    -0.200 F 
ENDBRANCH  55  79
BRANCH  67  90
ATOM     90  C   UNL A   1      44.646  27.086  34.299  1.00  0.00     0.064 A 
ATOM     91  C   UNL A   1      44.501  25.837  34.922  1.00  0.00     0.173 A 
ATOM     92  C   UNL A   1      45.910  27.693  34.328  1.00  0.00     0.173 A 
ATOM     93  F   UNL A   1      43.309  25.222  34.934  1.00  0.00    -0.203 F 
ATOM     94  C   UNL A   1      45.581  25.221  35.547  1.00  0.00     0.198 A 
ATOM     95  C   UNL A   1      46.995  27.060  34.927  1.00  0.00     0.198 A 
ATOM     96  F   UNL A   1      46.102  28.884  33.741  1.00  0.00    -0.203 F 
ATOM     97  F   UNL A   1      45.415  24.040  36.158  1.00  0.00    -0.200 F 
ATOM     98  C   UNL A   1      46.830  25.826  35.538  1.00  0.00     0.200 A 
ATOM     99  F   UNL A   1      48.204  27.637  34.899  1.00  0.00    -0.200 F 
ATOM    100  F   UNL A   1      47.874  25.218  36.116  1.00  0.00    -0.200 F 
ENDBRANCH  67  90
ENDBRANCH  41  42
ENDBRANCH  34  36
ENDBRANCH  33  34
ENDBRANCH  32  33
ENDBRANCH  31  32
ENDBRANCH  30  31
ENDBRANCH   1  30
TORSDOF 17
ENDMDL
MODEL 2
REMARK VINA RESULT:     -12.9      1.761      4.143
REMARK SMILES O=C(Cc1c(C(=O)c2cc3c(cn2)CCCC3)[nH]c2cc(Cl)ccc12)OCCOCCOC(=O)c1ccc(-c2c3nc(c(-c4c(F)c(F)c(F)c(F)c4F)c4ccc([nH]4)c(-c4c(F)c(F)c(F)c(F)c4F)c4nc(c(-c5c(F)c(F)c(F)c(F)c5F)c5ccc2[nH]5)C=C4)C=C3)cc1
REMARK SMILES IDX 28 1 27 2 26 3 2 4 1 5 3 6 4 7 5 8 25 9 18 10 19 11 24 12
REMARK SMILES IDX 20 14 23 15 21 16 22 17 6 18 7 19 8 20 9 21 13 22 10 23
REMARK SMILES IDX 12 24 11 25 17 26 14 27 16 28 15 29 29 30 30 31 31 32 32 33
REMARK SMILES IDX 33 34 34 35 35 36 36 37 97 38 37 39 96 40 38 41 39 42 40 43
REMARK SMILES IDX 90 44 41 45 95 46 89 47 91 48 42 49 94 50 88 51 87 52 43 54
REMARK SMILES IDX 75 55 55 56 74 57 56 58 59 59 73 60 92 61 57 62 58 63 72 65
REMARK SMILES IDX 93 66 60 67 44 68 45 69 53 70 46 71 47 72 51 73 54 74 48 75
REMARK SMILES IDX 49 76 52 77 50 78 76 79 77 80 85 81 78 82 79 83 83 84 86 85
REMARK SMILES IDX 80 86 81 87 84 88 82 89 61 90 62 91 70 92 63 93 64 94 68 95
REMARK SMILES IDX 71 96 65 97 66 98 69 99 67 100
REMARK H PARENT 18 13 91 53 59 64
REMARK Flexibility Score: inf
ROOT
ATOM      1  C   UNL A   1      33.181  29.490  25.515  1.00  0.00     0.202 C 
ENDROOT
BRANCH   1   2
ATOM      2  C   UNL A   1      33.743  28.068  25.549  1.00  0.00     0.261 C 
BRANCH   2   3
ATOM      3  O   UNL A   1      33.112  27.154  26.451  1.00  0.00    -0.463 OA
BRANCH   3   4
ATOM      4  C   UNL A   1      32.754  25.875  26.184  1.00  0.00     0.310 C 
ATOM      5  O   UNL A   1      31.749  25.418  26.736  1.00  0.00    -0.252 OA
BRANCH   4   6
ATOM      6  C   UNL A   1      33.673  24.945  25.418  1.00  0.00     0.161 C 
BRANCH   6   7
ATOM      7  C   UNL A   1      33.151  24.159  24.251  1.00  0.00     0.000 A 
ATOM      8  C   UNL A   1      32.634  24.643  23.053  1.00  0.00     0.093 A 
ATOM      9  C   UNL A   1      33.048  22.729  24.215  1.00  0.00     0.004 A 
ATOM     10  N   UNL A   1      32.312  23.547  22.282  1.00  0.00    -0.351 N 
ATOM     11  C   UNL A   1      32.483  22.382  22.990  1.00  0.00     0.048 A 
ATOM     12  C   UNL A   1      33.364  21.699  25.127  1.00  0.00     0.012 A 
ATOM     13  H   UNL A   1      31.999  23.592  21.349  1.00  0.00     0.167 HD
ATOM     14  C   UNL A   1      32.180  21.059  22.642  1.00  0.00     0.047 A 
ATOM     15  C   UNL A   1      33.065  20.370  24.800  1.00  0.00     0.021 A 
ATOM     16  C   UNL A   1      32.471  20.064  23.580  1.00  0.00     0.043 A 
ATOM     17  Cl  UNL A   1      32.077  18.426  23.217  1.00  0.00    -0.084 Cl
BRANCH   8  18
ATOM     18  C   UNL A   1      32.470  26.030  22.656  1.00  0.00     0.227 C 
ATOM     19  O   UNL A   1      33.366  26.717  22.176  1.00  0.00    -0.285 OA
BRANCH  18  20
ATOM     20  C   UNL A   1      31.203  26.711  22.939  1.00  0.00     0.113 A 
ATOM     21  C   UNL A   1      31.073  27.986  22.425  1.00  0.00     0.036 A 
ATOM     22  N   UNL A   1      30.237  26.020  23.592  1.00  0.00    -0.252 NA
ATOM     23  C   UNL A   1      29.840  28.606  22.546  1.00  0.00    -0.041 A 
ATOM     24  C   UNL A   1      29.040  26.639  23.672  1.00  0.00     0.115 A 
ATOM     25  C   UNL A   1      28.792  27.921  23.180  1.00  0.00    -0.026 A 
ATOM     26  C   UNL A   1      29.689  30.000  22.007  1.00  0.00     0.036 C 
ATOM     27  C   UNL A   1      27.407  28.506  23.246  1.00  0.00     0.037 C 
ATOM     28  C   UNL A   1      28.232  30.396  21.813  1.00  0.00     0.005 C 
ATOM     29  C   UNL A   1      27.409  30.022  23.042  1.00  0.00     0.005 C 
ENDBRANCH  18  20
ENDBRANCH   8  18
ENDBRANCH   6   7
ENDBRANCH   4   6
ENDBRANCH   3   4
ENDBRANCH   2   3
ENDBRANCH   1   2
BRANCH   1  30
ATOM     30  O   UNL A   1      32.024  29.816  26.266  1.00  0.00    -0.374 OA
BRANCH  30  31
ATOM     31  C   UNL A   1      31.374  31.073  26.085  1.00  0.00     0.202 C 
BRANCH  31  32
ATOM     32  C   UNL A   1      31.805  32.312  26.869  1.00  0.00     0.261 C 
BRANCH  32  33
ATOM     33  O   UNL A   1      32.872  32.073  27.789  1.00  0.00    -0.460 OA
BRANCH  33  34
ATOM     34  C   UNL A   1      33.844  33.014  27.781  1.00  0.00     0.338 C 
ATOM     35  O   UNL A   1      33.720  34.215  27.595  1.00  0.00    -0.246 OA
BRANCH  34  36
ATOM     36  C   UNL A   1      35.110  32.397  28.200  1.00  0.00     0.060 A 
ATOM     37  C   UNL A   1      36.277  33.159  28.259  1.00  0.00     0.016 A 
ATOM     38  C   UNL A   1      35.098  31.059  28.613  1.00  0.00     0.016 A 
ATOM     39  C   UNL A   1      37.431  32.586  28.781  1.00  0.00     0.010 A 
ATOM     40  C   UNL A   1      36.253  30.490  29.146  1.00  0.00     0.010 A 
ATOM     41  C   UNL A   1      37.414  31.263  29.263  1.00  0.00    -0.014 A 
BRANCH  41  42
ATOM     42  C   UNL A   1      38.577  30.770  30.034  1.00  0.00     0.031 A 
ATOM     43  C   UNL A   1      38.792  31.160  31.458  1.00  0.00     0.074 A 
ATOM     44  C   UNL A   1      39.422  29.926  29.414  1.00  0.00     0.049 A 
ATOM     45  N   UNL A   1      39.657  30.682  32.315  1.00  0.00    -0.248 NA
ATOM     46  C   UNL A   1      37.940  32.232  31.990  1.00  0.00     0.031 C 
ATOM     47  C   UNL A   1      39.322  29.530  28.007  1.00  0.00     0.029 A 
ATOM     48  N   UNL A   1      40.500  29.224  29.885  1.00  0.00    -0.354 N 
ATOM     49  C   UNL A   1      39.434  31.369  33.497  1.00  0.00     0.074 A 
ATOM     50  C   UNL A   1      38.401  32.347  33.230  1.00  0.00     0.031 C 
ATOM     51  C   UNL A   1      40.259  28.607  27.745  1.00  0.00     0.029 A 
ATOM     52  C   UNL A   1      41.040  28.370  28.955  1.00  0.00     0.049 A 
ATOM     53  H   UNL A   1      40.853  29.322  30.798  1.00  0.00     0.167 HD
ATOM     54  C   UNL A   1      40.027  31.172  34.700  1.00  0.00     0.037 A 
ATOM     55  C   UNL A   1      42.040  27.476  29.072  1.00  0.00     0.037 A 
ATOM     56  C   UNL A   1      41.066  30.203  34.936  1.00  0.00     0.049 A 
ATOM     57  C   UNL A   1      42.705  27.305  30.408  1.00  0.00     0.074 A 
ATOM     58  C   UNL A   1      41.704  29.897  36.125  1.00  0.00     0.029 A 
ATOM     59  N   UNL A   1      41.631  29.393  33.960  1.00  0.00    -0.354 N 
ATOM     60  N   UNL A   1      42.425  27.888  31.548  1.00  0.00    -0.248 NA
ATOM     61  C   UNL A   1      43.821  26.354  30.477  1.00  0.00     0.031 C 
ATOM     62  C   UNL A   1      42.697  28.950  35.856  1.00  0.00     0.029 A 
ATOM     63  C   UNL A   1      42.638  28.617  34.512  1.00  0.00     0.049 A 
ATOM     64  H   UNL A   1      41.356  29.372  33.015  1.00  0.00     0.167 HD
ATOM     65  C   UNL A   1      43.316  27.367  32.474  1.00  0.00     0.074 A 
ATOM     66  C   UNL A   1      44.135  26.402  31.766  1.00  0.00     0.031 C 
ATOM     67  C   UNL A   1      43.449  27.666  33.790  1.00  0.00     0.037 A 
BRANCH  54  68
ATOM     68  C   UNL A   1      39.560  32.015  35.852  1.00  0.00     0.064 A 
ATOM     69  C   UNL A   1      38.499  31.607  36.675  1.00  0.00     0.173 A 
ATOM     70  C   UNL A   1      40.213  33.216  36.172  1.00  0.00     0.173 A 
ATOM     71  F   UNL A   1      37.836  30.471  36.411  1.00  0.00    -0.203 F 
ATOM     72  C   UNL A   1      38.091  32.384  37.756  1.00  0.00     0.198 A 
ATOM     73  C   UNL A   1      39.823  33.973  37.274  1.00  0.00     0.198 A 
ATOM     74  F   UNL A   1      41.237  33.650  35.423  1.00  0.00    -0.203 F 
ATOM     75  F   UNL A   1      37.040  32.001  38.496  1.00  0.00    -0.200 F 
ATOM     76  C   UNL A   1      38.757  33.561  38.060  1.00  0.00     0.200 A 
ATOM     77  F   UNL A   1      40.476  35.104  37.574  1.00  0.00    -0.200 F 
ATOM     78  F   UNL A   1      38.366  34.304  39.105  1.00  0.00    -0.200 F 
ENDBRANCH  54  68
BRANCH  55  79
ATOM     79  C   UNL A   1      42.419  26.649  27.898  1.00  0.00     0.064 A 
ATOM     80  C   UNL A   1      41.785  25.426  27.643  1.00  0.00     0.173 A 
ATOM     81  C   UNL A   1      43.381  27.090  26.976  1.00  0.00     0.173 A 
ATOM     82  F   UNL A   1      40.870  24.954  28.501  1.00  0.00    -0.203 F 
ATOM     83  C   UNL A   1      42.101  24.674  26.513  1.00  0.00     0.198 A 
ATOM     84  C   UNL A   1      43.675  26.352  25.831  1.00  0.00     0.198 A 
ATOM     85  F   UNL A   1      44.011  28.259  27.170  1.00  0.00    -0.203 F 
ATOM     86  F   UNL A   1      41.498  23.495  26.306  1.00  0.00    -0.200 F 
ATOM     87  C   UNL A   1      43.037  25.142  25.604  1.00  0.00     0.200 A 
ATOM     88  F   UNL A   1      44.565  26.818  24.946  1.00  0.00    -0.200 F 
ATOM     89  F   UNL A   1      43.325  24.427  24.507  1.00  0.00    -0.200 F 
ENDBRANCH  55  79
BRANCH  67  90
ATOM     90  C   UNL A   1      44.522  26.953  34.561  1.00  0.00     0.064 A 
ATOM     91  C   UNL A   1      45.782  27.534  34.763  1.00  0.00     0.173 A 
ATOM     92  C   UNL A   1      44.256  25.725  35.184  1.00  0.00     0.173 A 
ATOM     93  F   UNL A   1      46.090  28.701  34.177  1.00  0.00    -0.203 F 
ATOM     94  C   UNL A   1      46.738  26.910  35.560  1.00  0.00     0.198 A 
ATOM     95  C   UNL A   1      45.203  25.119  36.006  1.00  0.00     0.198 A 
ATOM     96  F   UNL A   1      43.064  25.130  35.028  1.00  0.00    -0.203 F 
ATOM     97  F   UNL A   1      47.945  27.471  35.719  1.00  0.00    -0.200 F 
ATOM     98  C   UNL A   1      46.443  25.710  36.191  1.00  0.00     0.200 A 
ATOM     99  F   UNL A   1      44.908  23.970  36.630  1.00  0.00    -0.200 F 
ATOM    100  F   UNL A   1      47.354  25.126  36.980  1.00  0.00    -0.200 F 
ENDBRANCH  67  90
ENDBRANCH  41  42
ENDBRANCH  34  36
ENDBRANCH  33  34
ENDBRANCH  32  33
ENDBRANCH  31  32
ENDBRANCH  30  31
ENDBRANCH   1  30
TORSDOF 17
ENDMDL
MODEL 3
REMARK VINA RESULT:     -12.6      1.769      8.095
REMARK SMILES O=C(Cc1c(C(=O)c2cc3c(cn2)CCCC3)[nH]c2cc(Cl)ccc12)OCCOCCOC(=O)c1ccc(-c2c3nc(c(-c4c(F)c(F)c(F)c(F)c4F)c4ccc([nH]4)c(-c4c(F)c(F)c(F)c(F)c4F)c4nc(c(-c5c(F)c(F)c(F)c(F)c5F)c5ccc2[nH]5)C=C4)C=C3)cc1
REMARK SMILES IDX 28 1 27 2 26 3 2 4 1 5 3 6 4 7 5 8 25 9 18 10 19 11 24 12
REMARK SMILES IDX 20 14 23 15 21 16 22 17 6 18 7 19 8 20 9 21 13 22 10 23
REMARK SMILES IDX 12 24 11 25 17 26 14 27 16 28 15 29 29 30 30 31 31 32 32 33
REMARK SMILES IDX 33 34 34 35 35 36 36 37 97 38 37 39 96 40 38 41 39 42 40 43
REMARK SMILES IDX 90 44 41 45 95 46 89 47 91 48 42 49 94 50 88 51 87 52 43 54
REMARK SMILES IDX 75 55 55 56 74 57 56 58 59 59 73 60 92 61 57 62 58 63 72 65
REMARK SMILES IDX 93 66 60 67 44 68 45 69 53 70 46 71 47 72 51 73 54 74 48 75
REMARK SMILES IDX 49 76 52 77 50 78 76 79 77 80 85 81 78 82 79 83 83 84 86 85
REMARK SMILES IDX 80 86 81 87 84 88 82 89 61 90 62 91 70 92 63 93 64 94 68 95
REMARK SMILES IDX 71 96 65 97 66 98 69 99 67 100
REMARK H PARENT 18 13 91 53 59 64
REMARK Flexibility Score: inf
ROOT
ATOM      1  C   UNL A   1      33.008  30.071  25.721  1.00  0.00     0.202 C 
ENDROOT
BRANCH   1   2
ATOM      2  C   UNL A   1      33.158  28.582  25.401  1.00  0.00     0.261 C 
BRANCH   2   3
ATOM      3  O   UNL A   1      32.627  27.667  26.363  1.00  0.00    -0.463 OA
BRANCH   3   4
ATOM      4  C   UNL A   1      32.418  26.339  26.183  1.00  0.00     0.310 C 
ATOM      5  O   UNL A   1      31.477  25.806  26.781  1.00  0.00    -0.252 OA
BRANCH   4   6
ATOM      6  C   UNL A   1      33.431  25.474  25.463  1.00  0.00     0.161 C 
BRANCH   6   7
ATOM      7  C   UNL A   1      32.992  24.552  24.364  1.00  0.00     0.000 A 
ATOM      8  C   UNL A   1      32.499  24.888  23.106  1.00  0.00     0.093 A 
ATOM      9  C   UNL A   1      32.956  23.121  24.469  1.00  0.00     0.004 A 
ATOM     10  N   UNL A   1      32.258  23.706  22.440  1.00  0.00    -0.351 N 
ATOM     11  C   UNL A   1      32.456  22.627  23.267  1.00  0.00     0.048 A 
ATOM     12  C   UNL A   1      33.285  22.204  25.490  1.00  0.00     0.012 A 
ATOM     13  H   UNL A   1      31.981  23.642  21.497  1.00  0.00     0.167 HD
ATOM     14  C   UNL A   1      32.228  21.263  23.044  1.00  0.00     0.047 A 
ATOM     15  C   UNL A   1      33.059  20.836  25.290  1.00  0.00     0.021 A 
ATOM     16  C   UNL A   1      32.528  20.381  24.088  1.00  0.00     0.043 A 
ATOM     17  Cl  UNL A   1      32.224  18.698  23.879  1.00  0.00    -0.084 Cl
BRANCH   8  18
ATOM     18  C   UNL A   1      32.287  26.219  22.566  1.00  0.00     0.227 C 
ATOM     19  O   UNL A   1      33.135  26.851  21.945  1.00  0.00    -0.285 OA
BRANCH  18  20
ATOM     20  C   UNL A   1      31.035  26.920  22.862  1.00  0.00     0.113 A 
ATOM     21  C   UNL A   1      30.933  28.208  22.376  1.00  0.00     0.036 A 
ATOM     22  N   UNL A   1      30.053  26.236  23.498  1.00  0.00    -0.252 NA
ATOM     23  C   UNL A   1      29.713  28.852  22.509  1.00  0.00    -0.041 A 
ATOM     24  C   UNL A   1      28.869  26.878  23.590  1.00  0.00     0.115 A 
ATOM     25  C   UNL A   1      28.649  28.176  23.126  1.00  0.00    -0.026 A 
ATOM     26  C   UNL A   1      29.592  30.260  22.000  1.00  0.00     0.036 C 
ATOM     27  C   UNL A   1      27.277  28.789  23.203  1.00  0.00     0.037 C 
ATOM     28  C   UNL A   1      28.144  30.692  21.813  1.00  0.00     0.005 C 
ATOM     29  C   UNL A   1      27.312  30.308  23.032  1.00  0.00     0.005 C 
ENDBRANCH  18  20
ENDBRANCH   8  18
ENDBRANCH   6   7
ENDBRANCH   4   6
ENDBRANCH   3   4
ENDBRANCH   2   3
ENDBRANCH   1   2
BRANCH   1  30
ATOM     30  O   UNL A   1      32.151  30.491  26.769  1.00  0.00    -0.374 OA
BRANCH  30  31
ATOM     31  C   UNL A   1      31.432  31.717  26.668  1.00  0.00     0.202 C 
BRANCH  31  32
ATOM     32  C   UNL A   1      32.122  33.065  26.876  1.00  0.00     0.261 C 
BRANCH  32  33
ATOM     33  O   UNL A   1      33.031  33.086  27.980  1.00  0.00    -0.460 OA
BRANCH  33  34
ATOM     34  C   UNL A   1      34.212  33.693  27.725  1.00  0.00     0.338 C 
ATOM     35  O   UNL A   1      34.394  34.826  27.304  1.00  0.00    -0.246 OA
BRANCH  34  36
ATOM     36  C   UNL A   1      35.305  32.831  28.193  1.00  0.00     0.060 A 
ATOM     37  C   UNL A   1      36.589  33.350  28.354  1.00  0.00     0.016 A 
ATOM     38  C   UNL A   1      35.008  31.508  28.547  1.00  0.00     0.016 A 
ATOM     39  C   UNL A   1      37.575  32.547  28.920  1.00  0.00     0.010 A 
ATOM     40  C   UNL A   1      35.994  30.710  29.124  1.00  0.00     0.010 A 
ATOM     41  C   UNL A   1      37.272  31.239  29.343  1.00  0.00    -0.014 A 
BRANCH  41  42
ATOM     42  C   UNL A   1      38.264  30.507  30.160  1.00  0.00     0.031 A 
ATOM     43  C   UNL A   1      39.162  29.477  29.561  1.00  0.00     0.074 A 
ATOM     44  C   UNL A   1      38.355  30.827  31.464  1.00  0.00     0.049 A 
ATOM     45  N   UNL A   1      40.193  28.877  30.100  1.00  0.00    -0.248 NA
ATOM     46  C   UNL A   1      38.864  29.051  28.187  1.00  0.00     0.031 C 
ATOM     47  C   UNL A   1      37.482  31.783  32.150  1.00  0.00     0.029 A 
ATOM     48  N   UNL A   1      39.233  30.419  32.433  1.00  0.00    -0.354 N 
ATOM     49  C   UNL A   1      40.687  28.028  29.123  1.00  0.00     0.074 A 
ATOM     50  C   UNL A   1      39.803  28.136  27.982  1.00  0.00     0.031 C 
ATOM     51  C   UNL A   1      37.908  31.936  33.412  1.00  0.00     0.029 A 
ATOM     52  C   UNL A   1      39.062  31.070  33.630  1.00  0.00     0.049 A 
ATOM     53  H   UNL A   1      39.917  29.727  32.287  1.00  0.00     0.167 HD
ATOM     54  C   UNL A   1      41.797  27.253  29.176  1.00  0.00     0.037 A 
ATOM     55  C   UNL A   1      39.773  30.995  34.770  1.00  0.00     0.037 A 
ATOM     56  C   UNL A   1      42.651  27.149  30.332  1.00  0.00     0.049 A 
ATOM     57  C   UNL A   1      40.978  30.098  34.814  1.00  0.00     0.074 A 
ATOM     58  C   UNL A   1      43.821  26.424  30.476  1.00  0.00     0.029 A 
ATOM     59  N   UNL A   1      42.419  27.778  31.548  1.00  0.00    -0.354 N 
ATOM     60  N   UNL A   1      41.499  29.372  33.855  1.00  0.00    -0.248 NA
ATOM     61  C   UNL A   1      41.696  30.012  36.092  1.00  0.00     0.031 C 
ATOM     62  C   UNL A   1      44.260  26.562  31.796  1.00  0.00     0.029 A 
ATOM     63  C   UNL A   1      43.402  27.424  32.459  1.00  0.00     0.049 A 
ATOM     64  H   UNL A   1      41.669  28.386  31.735  1.00  0.00     0.167 HD
ATOM     65  C   UNL A   1      42.612  28.752  34.406  1.00  0.00     0.074 A 
ATOM     66  C   UNL A   1      42.704  29.207  35.779  1.00  0.00     0.031 C 
ATOM     67  C   UNL A   1      43.474  27.881  33.827  1.00  0.00     0.037 A 
BRANCH  54  68
ATOM     68  C   UNL A   1      42.155  26.463  27.950  1.00  0.00     0.064 A 
ATOM     69  C   UNL A   1      43.093  26.939  27.021  1.00  0.00     0.173 A 
ATOM     70  C   UNL A   1      41.596  25.194  27.726  1.00  0.00     0.173 A 
ATOM     71  F   UNL A   1      43.651  28.148  27.182  1.00  0.00    -0.203 F 
ATOM     72  C   UNL A   1      43.436  26.188  25.900  1.00  0.00     0.198 A 
ATOM     73  C   UNL A   1      41.968  24.432  26.622  1.00  0.00     0.198 A 
ATOM     74  F   UNL A   1      40.700  24.689  28.586  1.00  0.00    -0.203 F 
ATOM     75  F   UNL A   1      44.293  26.686  24.998  1.00  0.00    -0.200 F 
ATOM     76  C   UNL A   1      42.880  24.933  25.705  1.00  0.00     0.200 A 
ATOM     77  F   UNL A   1      41.440  23.214  26.442  1.00  0.00    -0.200 F 
ATOM     78  F   UNL A   1      43.217  24.209  24.628  1.00  0.00    -0.200 F 
ENDBRANCH  54  68
BRANCH  55  79
ATOM     79  C   UNL A   1      39.383  31.837  35.930  1.00  0.00     0.064 A 
ATOM     80  C   UNL A   1      39.970  33.092  36.139  1.00  0.00     0.173 A 
ATOM     81  C   UNL A   1      38.376  31.431  36.818  1.00  0.00     0.173 A 
ATOM     82  F   UNL A   1      40.946  33.519  35.325  1.00  0.00    -0.203 F 
ATOM     83  C   UNL A   1      39.566  33.908  37.195  1.00  0.00     0.198 A 
ATOM     84  C   UNL A   1      37.954  32.259  37.857  1.00  0.00     0.198 A 
ATOM     85  F   UNL A   1      37.778  30.241  36.657  1.00  0.00    -0.203 F 
ATOM     86  F   UNL A   1      40.161  35.093  37.388  1.00  0.00    -0.200 F 
ATOM     87  C   UNL A   1      38.552  33.495  38.045  1.00  0.00     0.200 A 
ATOM     88  F   UNL A   1      36.960  31.865  38.664  1.00  0.00    -0.200 F 
ATOM     89  F   UNL A   1      38.152  34.289  39.049  1.00  0.00    -0.200 F 
ENDBRANCH  55  79
BRANCH  67  90
ATOM     90  C   UNL A   1      44.595  27.347  34.671  1.00  0.00     0.064 A 
ATOM     91  C   UNL A   1      45.802  28.049  34.806  1.00  0.00     0.173 A 
ATOM     92  C   UNL A   1      44.426  26.178  35.427  1.00  0.00     0.173 A 
ATOM     93  F   UNL A   1      46.019  29.165  34.094  1.00  0.00    -0.203 F 
ATOM     94  C   UNL A   1      46.800  27.597  35.666  1.00  0.00     0.198 A 
ATOM     95  C   UNL A   1      45.412  25.746  36.309  1.00  0.00     0.198 A 
ATOM     96  F   UNL A   1      43.287  25.474  35.339  1.00  0.00    -0.203 F 
ATOM     97  F   UNL A   1      47.955  28.268  35.761  1.00  0.00    -0.200 F 
ATOM     98  C   UNL A   1      46.598  26.454  36.427  1.00  0.00     0.200 A 
ATOM     99  F   UNL A   1      45.207  24.653  37.058  1.00  0.00    -0.200 F 
ATOM    100  F   UNL A   1      47.548  26.037  37.274  1.00  0.00    -0.200 F 
ENDBRANCH  67  90
ENDBRANCH  41  42
ENDBRANCH  34  36
ENDBRANCH  33  34
ENDBRANCH  32  33
ENDBRANCH  31  32
ENDBRANCH  30  31
ENDBRANCH   1  30
TORSDOF 17
ENDMDL
