MODEL 1
REMARK VINA RESULT:     -12.0      0.000      0.000
REMARK SMILES [NH3+][C@H]1C=C[C@H](C(=O)N2CC[NH+](CC(=O)OCCOCCOC(=O)c3ccc(-c4c5nc(c(-c6c(F)c(F)c(F)c(F)c6F)c6ccc([nH]6)c(-c6c(F)c(F)c(F)c(F)c6F)c6nc(c(-c7c(F)c(F)c(F)c(F)c7F)c7ccc4[nH]7)C=C6)C=C5)cc3)CC2)C1
REMARK SMILES IDX 17 1 16 2 15 3 13 4 14 5 12 6 11 7 6 8 7 9 8 10 9 11 88 12
REMARK SMILES IDX 10 13 87 14 5 16 2 17 3 18 89 19 4 20 1 21 18 25 19 26 20 27
REMARK SMILES IDX 21 28 22 29 23 30 24 31 25 32 86 33 26 34 85 35 27 36 28 37
REMARK SMILES IDX 29 38 79 39 30 40 84 41 78 42 80 43 31 44 83 45 77 46 76 47
REMARK SMILES IDX 32 49 64 50 44 51 63 52 45 53 48 54 62 55 81 56 46 57 47 58
REMARK SMILES IDX 61 60 82 61 49 62 33 63 34 64 42 65 35 66 36 67 40 68 43 69
REMARK SMILES IDX 37 70 38 71 41 72 39 73 65 74 66 75 74 76 67 77 68 78 72 79
REMARK SMILES IDX 75 80 69 81 70 82 73 83 71 84 50 85 51 86 59 87 52 88 53 89
REMARK SMILES IDX 57 90 60 91 54 92 55 93 58 94 56 95
REMARK H PARENT 11 15 1 22 1 23 1 24 80 48 48 59
REMARK Flexibility Score: inf
ROOT
ATOM      1  C   UNL A   1      32.820  28.874  23.634  1.00  0.00     0.202 C 
ENDROOT
BRANCH   1   2
ATOM      2  C   UNL A   1      33.452  27.488  23.518  1.00  0.00     0.261 C 
BRANCH   2   3
ATOM      3  O   UNL A   1      33.753  27.131  22.150  1.00  0.00    -0.459 OA
BRANCH   3   4
ATOM      4  C   UNL A   1      33.293  25.915  21.740  1.00  0.00     0.361 C 
ATOM      5  O   UNL A   1      33.144  25.590  20.566  1.00  0.00    -0.245 OA
BRANCH   4   6
ATOM      6  C   UNL A   1      32.854  25.029  22.899  1.00  0.00     0.386 C 
BRANCH   6   7
ATOM      7  N   UNL A   1      33.317  23.653  22.858  1.00  0.00    -0.323 N 
ATOM      8  C   UNL A   1      33.294  19.838  24.823  1.00  0.00     0.230 C 
ATOM      9  O   UNL A   1      33.480  19.888  26.043  1.00  0.00    -0.274 OA
ATOM     10  N   UNL A   1      33.340  21.004  24.052  1.00  0.00    -0.331 N 
ATOM     11  C   UNL A   1      34.059  22.119  24.664  1.00  0.00     0.181 C 
ATOM     12  C   UNL A   1      32.234  21.401  23.173  1.00  0.00     0.181 C 
ATOM     13  C   UNL A   1      34.433  23.231  23.680  1.00  0.00     0.284 C 
ATOM     14  C   UNL A   1      32.522  22.606  22.251  1.00  0.00     0.284 C 
ATOM     15  H   UNL A   1      33.787  23.974  22.012  1.00  0.00     0.348 HD
BRANCH   8  16
ATOM     16  C   UNL A   1      33.208  18.491  24.079  1.00  0.00     0.107 C 
ATOM     17  C   UNL A   1      32.981  16.477  25.465  1.00  0.00     0.205 C 
ATOM     18  C   UNL A   1      34.371  16.622  24.969  1.00  0.00     0.033 C 
ATOM     19  C   UNL A   1      32.196  17.463  24.586  1.00  0.00     0.087 C 
ATOM     20  C   UNL A   1      34.503  17.724  24.221  1.00  0.00    -0.012 C 
BRANCH  17  21
ATOM     21  N   UNL A   1      32.456  15.135  25.344  1.00  0.00    -0.352 N 
ATOM     22  H   UNL A   1      32.063  15.006  24.411  1.00  0.00     0.345 HD
ATOM     23  H   UNL A   1      31.727  14.990  26.041  1.00  0.00     0.345 HD
ATOM     24  H   UNL A   1      33.208  14.461  25.492  1.00  0.00     0.345 HD
ENDBRANCH  17  21
ENDBRANCH   8  16
ENDBRANCH   6   7
ENDBRANCH   4   6
ENDBRANCH   3   4
ENDBRANCH   2   3
ENDBRANCH   1   2
BRANCH   1  25
ATOM     25  O   UNL A   1      32.585  29.319  24.969  1.00  0.00    -0.374 OA
BRANCH  25  26
ATOM     26  C   UNL A   1      31.391  30.073  25.171  1.00  0.00     0.202 C 
BRANCH  26  27
ATOM     27  C   UNL A   1      31.504  31.164  26.247  1.00  0.00     0.261 C 
BRANCH  27  28
ATOM     28  O   UNL A   1      32.585  30.884  27.157  1.00  0.00    -0.460 OA
BRANCH  28  29
ATOM     29  C   UNL A   1      33.356  31.949  27.502  1.00  0.00     0.338 C 
ATOM     30  O   UNL A   1      33.009  33.111  27.543  1.00  0.00    -0.246 OA
BRANCH  29  31
ATOM     31  C   UNL A   1      34.713  31.503  27.935  1.00  0.00     0.060 A 
ATOM     32  C   UNL A   1      34.910  30.138  28.174  1.00  0.00     0.016 A 
ATOM     33  C   UNL A   1      35.781  32.383  28.124  1.00  0.00     0.016 A 
ATOM     34  C   UNL A   1      36.126  29.675  28.687  1.00  0.00     0.010 A 
ATOM     35  C   UNL A   1      37.005  31.917  28.618  1.00  0.00     0.010 A 
ATOM     36  C   UNL A   1      37.162  30.571  28.961  1.00  0.00    -0.014 A 
BRANCH  36  37
ATOM     37  C   UNL A   1      38.372  30.120  29.686  1.00  0.00     0.031 A 
ATOM     38  C   UNL A   1      38.595  30.539  31.114  1.00  0.00     0.074 A 
ATOM     39  C   UNL A   1      39.299  29.381  29.056  1.00  0.00     0.049 A 
ATOM     40  N   UNL A   1      39.520  30.160  31.961  1.00  0.00    -0.248 NA
ATOM     41  C   UNL A   1      37.669  31.547  31.646  1.00  0.00     0.031 C 
ATOM     42  C   UNL A   1      39.255  29.006  27.645  1.00  0.00     0.029 A 
ATOM     43  N   UNL A   1      40.457  28.816  29.525  1.00  0.00    -0.354 N 
ATOM     44  C   UNL A   1      39.309  30.908  33.115  1.00  0.00     0.074 A 
ATOM     45  C   UNL A   1      38.181  31.776  32.848  1.00  0.00     0.031 C 
ATOM     46  C   UNL A   1      40.332  28.255  27.365  1.00  0.00     0.029 A 
ATOM     47  C   UNL A   1      41.122  28.078  28.583  1.00  0.00     0.049 A 
ATOM     48  H   UNL A   1      40.777  28.930  30.449  1.00  0.00     0.167 HD
ATOM     49  C   UNL A   1      39.993  30.864  34.285  1.00  0.00     0.037 A 
ATOM     50  C   UNL A   1      42.220  27.307  28.701  1.00  0.00     0.037 A 
ATOM     51  C   UNL A   1      41.081  29.951  34.542  1.00  0.00     0.049 A 
ATOM     52  C   UNL A   1      42.852  27.123  30.052  1.00  0.00     0.074 A 
ATOM     53  C   UNL A   1      41.738  29.701  35.735  1.00  0.00     0.029 A 
ATOM     54  N   UNL A   1      41.678  29.142  33.585  1.00  0.00    -0.354 N 
ATOM     55  N   UNL A   1      42.562  27.710  31.188  1.00  0.00    -0.248 NA
ATOM     56  C   UNL A   1      43.934  26.134  30.148  1.00  0.00     0.031 C 
ATOM     57  C   UNL A   1      42.763  28.778  35.489  1.00  0.00     0.029 A 
ATOM     58  C   UNL A   1      42.703  28.404  34.157  1.00  0.00     0.049 A 
ATOM     59  H   UNL A   1      41.412  29.099  32.637  1.00  0.00     0.167 HD
ATOM     60  C   UNL A   1      43.408  27.151  32.136  1.00  0.00     0.074 A 
ATOM     61  C   UNL A   1      44.209  26.160  31.445  1.00  0.00     0.031 C 
ATOM     62  C   UNL A   1      43.508  27.433  33.460  1.00  0.00     0.037 A 
BRANCH  49  63
ATOM     63  C   UNL A   1      39.599  31.815  35.385  1.00  0.00     0.064 A 
ATOM     64  C   UNL A   1      40.150  33.101  35.496  1.00  0.00     0.173 A 
ATOM     65  C   UNL A   1      38.600  31.460  36.308  1.00  0.00     0.173 A 
ATOM     66  F   UNL A   1      41.104  33.504  34.642  1.00  0.00    -0.203 F 
ATOM     67  C   UNL A   1      39.751  33.974  36.507  1.00  0.00     0.198 A 
ATOM     68  C   UNL A   1      38.173  32.350  37.292  1.00  0.00     0.198 A 
ATOM     69  F   UNL A   1      38.021  30.251  36.247  1.00  0.00    -0.203 F 
ATOM     70  F   UNL A   1      40.339  35.173  36.625  1.00  0.00    -0.200 F 
ATOM     71  C   UNL A   1      38.757  33.602  37.398  1.00  0.00     0.200 A 
ATOM     72  F   UNL A   1      37.194  31.996  38.135  1.00  0.00    -0.200 F 
ATOM     73  F   UNL A   1      38.364  34.449  38.360  1.00  0.00    -0.200 F 
ENDBRANCH  49  63
BRANCH  50  74
ATOM     74  C   UNL A   1      42.695  26.561  27.511  1.00  0.00     0.064 A 
ATOM     75  C   UNL A   1      43.702  27.090  26.692  1.00  0.00     0.173 A 
ATOM     76  C   UNL A   1      42.219  25.276  27.220  1.00  0.00     0.173 A 
ATOM     77  F   UNL A   1      44.181  28.320  26.931  1.00  0.00    -0.203 F 
ATOM     78  C   UNL A   1      44.215  26.361  25.622  1.00  0.00     0.198 A 
ATOM     79  C   UNL A   1      42.748  24.539  26.163  1.00  0.00     0.198 A 
ATOM     80  F   UNL A   1      41.269  24.722  27.987  1.00  0.00    -0.203 F 
ATOM     81  F   UNL A   1      45.167  26.895  24.846  1.00  0.00    -0.200 F 
ATOM     82  C   UNL A   1      43.744  25.083  25.365  1.00  0.00     0.200 A 
ATOM     83  F   UNL A   1      42.309  23.295  25.930  1.00  0.00    -0.200 F 
ATOM     84  F   UNL A   1      44.257  24.371  24.352  1.00  0.00    -0.200 F 
ENDBRANCH  50  74
BRANCH  62  85
ATOM     85  C   UNL A   1      44.516  26.653  34.255  1.00  0.00     0.064 A 
ATOM     86  C   UNL A   1      44.181  25.449  34.893  1.00  0.00     0.173 A 
ATOM     87  C   UNL A   1      45.843  27.100  34.355  1.00  0.00     0.173 A 
ATOM     88  F   UNL A   1      42.925  24.982  34.837  1.00  0.00    -0.203 F 
ATOM     89  C   UNL A   1      45.128  24.738  35.627  1.00  0.00     0.198 A 
ATOM     90  C   UNL A   1      46.794  26.371  35.065  1.00  0.00     0.198 A 
ATOM     91  F   UNL A   1      46.220  28.240  33.759  1.00  0.00    -0.203 F 
ATOM     92  F   UNL A   1      44.772  23.619  36.271  1.00  0.00    -0.200 F 
ATOM     93  C   UNL A   1      46.435  25.196  35.708  1.00  0.00     0.200 A 
ATOM     94  F   UNL A   1      48.060  26.809  35.130  1.00  0.00    -0.200 F 
ATOM     95  F   UNL A   1      47.345  24.510  36.412  1.00  0.00    -0.200 F 
ENDBRANCH  62  85
ENDBRANCH  36  37
ENDBRANCH  29  31
ENDBRANCH  28  29
ENDBRANCH  27  28
ENDBRANCH  26  27
ENDBRANCH  25  26
ENDBRANCH   1  25
TORSDOF 17
ENDMDL
MODEL 2
REMARK VINA RESULT:     -11.7      4.480     10.598
REMARK SMILES [NH3+][C@H]1C=C[C@H](C(=O)N2CC[NH+](CC(=O)OCCOCCOC(=O)c3ccc(-c4c5nc(c(-c6c(F)c(F)c(F)c(F)c6F)c6ccc([nH]6)c(-c6c(F)c(F)c(F)c(F)c6F)c6nc(c(-c7c(F)c(F)c(F)c(F)c7F)c7ccc4[nH]7)C=C6)C=C5)cc3)CC2)C1
REMARK SMILES IDX 17 1 16 2 15 3 13 4 14 5 12 6 11 7 6 8 7 9 8 10 9 11 88 12
REMARK SMILES IDX 10 13 87 14 5 16 2 17 3 18 89 19 4 20 1 21 18 25 19 26 20 27
REMARK SMILES IDX 21 28 22 29 23 30 24 31 25 32 86 33 26 34 85 35 27 36 28 37
REMARK SMILES IDX 29 38 79 39 30 40 84 41 78 42 80 43 31 44 83 45 77 46 76 47
REMARK SMILES IDX 32 49 64 50 44 51 63 52 45 53 48 54 62 55 81 56 46 57 47 58
REMARK SMILES IDX 61 60 82 61 49 62 33 63 34 64 42 65 35 66 36 67 40 68 43 69
REMARK SMILES IDX 37 70 38 71 41 72 39 73 65 74 66 75 74 76 67 77 68 78 72 79
REMARK SMILES IDX 75 80 69 81 70 82 73 83 71 84 50 85 51 86 59 87 52 88 53 89
REMARK SMILES IDX 57 90 60 91 54 92 55 93 58 94 56 95
REMARK H PARENT 11 15 1 22 1 23 1 24 80 48 48 59
REMARK Flexibility Score: inf
ROOT
ATOM      1  C   UNL A   1      34.755  21.076  25.384  1.00  0.00     0.202 C 
ENDROOT
BRANCH   1   2
ATOM      2  C   UNL A   1      33.605  21.573  26.256  1.00  0.00     0.261 C 
BRANCH   2   3
ATOM      3  O   UNL A   1      32.311  21.315  25.665  1.00  0.00    -0.459 OA
BRANCH   3   4
ATOM      4  C   UNL A   1      31.395  22.317  25.780  1.00  0.00     0.361 C 
ATOM      5  O   UNL A   1      30.230  22.156  26.127  1.00  0.00    -0.245 OA
BRANCH   4   6
ATOM      6  C   UNL A   1      31.931  23.662  25.303  1.00  0.00     0.386 C 
BRANCH   6   7
ATOM      7  N   UNL A   1      30.933  24.632  24.886  1.00  0.00    -0.323 N 
ATOM      8  C   UNL A   1      30.218  28.663  23.598  1.00  0.00     0.230 C 
ATOM      9  O   UNL A   1      30.812  29.524  24.253  1.00  0.00    -0.274 OA
ATOM     10  N   UNL A   1      30.314  27.313  23.952  1.00  0.00    -0.331 N 
ATOM     11  C   UNL A   1      30.725  27.065  25.331  1.00  0.00     0.181 C 
ATOM     12  C   UNL A   1      30.740  26.284  22.995  1.00  0.00     0.181 C 
ATOM     13  C   UNL A   1      30.455  25.637  25.813  1.00  0.00     0.284 C 
ATOM     14  C   UNL A   1      30.608  24.827  23.488  1.00  0.00     0.284 C 
ATOM     15  H   UNL A   1      30.295  23.857  25.065  1.00  0.00     0.348 HD
BRANCH   8  16
ATOM     16  C   UNL A   1      29.199  29.045  22.507  1.00  0.00     0.107 C 
ATOM     17  C   UNL A   1      28.756  31.441  22.203  1.00  0.00     0.205 C 
ATOM     18  C   UNL A   1      27.654  30.793  22.955  1.00  0.00     0.033 C 
ATOM     19  C   UNL A   1      29.526  30.247  21.620  1.00  0.00     0.087 C 
ATOM     20  C   UNL A   1      27.895  29.489  23.132  1.00  0.00    -0.012 C 
BRANCH  17  21
ATOM     21  N   UNL A   1      28.302  32.333  21.158  1.00  0.00    -0.352 N 
ATOM     22  H   UNL A   1      27.759  33.092  21.571  1.00  0.00     0.345 HD
ATOM     23  H   UNL A   1      27.719  31.817  20.500  1.00  0.00     0.345 HD
ATOM     24  H   UNL A   1      29.109  32.719  20.667  1.00  0.00     0.345 HD
ENDBRANCH  17  21
ENDBRANCH   8  16
ENDBRANCH   6   7
ENDBRANCH   4   6
ENDBRANCH   3   4
ENDBRANCH   2   3
ENDBRANCH   1   2
BRANCH   1  25
ATOM     25  O   UNL A   1      35.049  21.892  24.251  1.00  0.00    -0.374 OA
BRANCH  25  26
ATOM     26  C   UNL A   1      36.425  22.213  24.057  1.00  0.00     0.202 C 
BRANCH  26  27
ATOM     27  C   UNL A   1      37.405  21.169  24.615  1.00  0.00     0.261 C 
BRANCH  27  28
ATOM     28  O   UNL A   1      37.847  21.529  25.937  1.00  0.00    -0.460 OA
BRANCH  28  29
ATOM     29  C   UNL A   1      39.188  21.459  26.150  1.00  0.00     0.338 C 
ATOM     30  O   UNL A   1      39.922  20.541  25.849  1.00  0.00    -0.246 OA
BRANCH  29  31
ATOM     31  C   UNL A   1      39.699  22.734  26.735  1.00  0.00     0.060 A 
ATOM     32  C   UNL A   1      39.125  23.934  26.299  1.00  0.00     0.016 A 
ATOM     33  C   UNL A   1      40.726  22.781  27.681  1.00  0.00     0.016 A 
ATOM     34  C   UNL A   1      39.636  25.163  26.728  1.00  0.00     0.010 A 
ATOM     35  C   UNL A   1      41.224  24.011  28.127  1.00  0.00     0.010 A 
ATOM     36  C   UNL A   1      40.724  25.207  27.604  1.00  0.00    -0.014 A 
BRANCH  36  37
ATOM     37  C   UNL A   1      41.393  26.493  27.905  1.00  0.00     0.031 A 
ATOM     38  C   UNL A   1      42.762  26.777  27.349  1.00  0.00     0.074 A 
ATOM     39  C   UNL A   1      40.804  27.385  28.717  1.00  0.00     0.049 A 
ATOM     40  N   UNL A   1      43.468  27.880  27.392  1.00  0.00    -0.248 NA
ATOM     41  C   UNL A   1      43.438  25.657  26.684  1.00  0.00     0.031 C 
ATOM     42  C   UNL A   1      39.534  27.180  29.408  1.00  0.00     0.029 A 
ATOM     43  N   UNL A   1      41.202  28.642  29.095  1.00  0.00    -0.354 N 
ATOM     44  C   UNL A   1      44.685  27.576  26.791  1.00  0.00     0.074 A 
ATOM     45  C   UNL A   1      44.626  26.179  26.412  1.00  0.00     0.031 C 
ATOM     46  C   UNL A   1      39.245  28.284  30.116  1.00  0.00     0.029 A 
ATOM     47  C   UNL A   1      40.298  29.277  29.904  1.00  0.00     0.049 A 
ATOM     48  H   UNL A   1      42.053  29.047  28.812  1.00  0.00     0.167 HD
ATOM     49  C   UNL A   1      45.746  28.394  26.574  1.00  0.00     0.037 A 
ATOM     50  C   UNL A   1      40.296  30.537  30.382  1.00  0.00     0.037 A 
ATOM     51  C   UNL A   1      45.758  29.796  26.915  1.00  0.00     0.049 A 
ATOM     52  C   UNL A   1      41.388  31.484  29.972  1.00  0.00     0.074 A 
ATOM     53  C   UNL A   1      46.705  30.756  26.596  1.00  0.00     0.029 A 
ATOM     54  N   UNL A   1      44.778  30.438  27.659  1.00  0.00    -0.354 N 
ATOM     55  N   UNL A   1      42.470  31.245  29.272  1.00  0.00    -0.248 NA
ATOM     56  C   UNL A   1      41.235  32.887  30.380  1.00  0.00     0.031 C 
ATOM     57  C   UNL A   1      46.321  31.966  27.189  1.00  0.00     0.029 A 
ATOM     58  C   UNL A   1      45.104  31.776  27.822  1.00  0.00     0.049 A 
ATOM     59  H   UNL A   1      43.970  30.006  28.019  1.00  0.00     0.167 HD
ATOM     60  C   UNL A   1      43.118  32.466  29.138  1.00  0.00     0.074 A 
ATOM     61  C   UNL A   1      42.294  33.449  29.811  1.00  0.00     0.031 C 
ATOM     62  C   UNL A   1      44.288  32.745  28.509  1.00  0.00     0.037 A 
BRANCH  49  63
ATOM     63  C   UNL A   1      46.982  27.813  25.938  1.00  0.00     0.064 A 
ATOM     64  C   UNL A   1      47.158  27.766  24.546  1.00  0.00     0.173 A 
ATOM     65  C   UNL A   1      48.044  27.355  26.738  1.00  0.00     0.173 A 
ATOM     66  F   UNL A   1      46.184  28.193  23.727  1.00  0.00    -0.203 F 
ATOM     67  C   UNL A   1      48.322  27.247  23.982  1.00  0.00     0.198 A 
ATOM     68  C   UNL A   1      49.224  26.876  26.171  1.00  0.00     0.198 A 
ATOM     69  F   UNL A   1      47.947  27.387  28.076  1.00  0.00    -0.203 F 
ATOM     70  F   UNL A   1      48.435  27.159  22.649  1.00  0.00    -0.200 F 
ATOM     71  C   UNL A   1      49.357  26.812  24.793  1.00  0.00     0.200 A 
ATOM     72  F   UNL A   1      50.232  26.479  26.959  1.00  0.00    -0.200 F 
ATOM     73  F   UNL A   1      50.481  26.327  24.248  1.00  0.00    -0.200 F 
ENDBRANCH  49  63
BRANCH  50  74
ATOM     74  C   UNL A   1      39.142  30.984  31.198  1.00  0.00     0.064 A 
ATOM     75  C   UNL A   1      37.982  31.478  30.583  1.00  0.00     0.173 A 
ATOM     76  C   UNL A   1      39.139  30.846  32.592  1.00  0.00     0.173 A 
ATOM     77  F   UNL A   1      37.946  31.632  29.251  1.00  0.00    -0.203 F 
ATOM     78  C   UNL A   1      36.861  31.820  31.334  1.00  0.00     0.198 A 
ATOM     79  C   UNL A   1      38.009  31.168  33.340  1.00  0.00     0.198 A 
ATOM     80  F   UNL A   1      40.219  30.361  33.221  1.00  0.00    -0.203 F 
ATOM     81  F   UNL A   1      35.771  32.303  30.724  1.00  0.00    -0.200 F 
ATOM     82  C   UNL A   1      36.872  31.656  32.711  1.00  0.00     0.200 A 
ATOM     83  F   UNL A   1      38.013  30.987  34.667  1.00  0.00    -0.200 F 
ATOM     84  F   UNL A   1      35.784  31.959  33.431  1.00  0.00    -0.200 F 
ENDBRANCH  50  74
BRANCH  62  85
ATOM     85  C   UNL A   1      44.747  34.176  28.512  1.00  0.00     0.064 A 
ATOM     86  C   UNL A   1      44.307  35.094  27.546  1.00  0.00     0.173 A 
ATOM     87  C   UNL A   1      45.614  34.643  29.513  1.00  0.00     0.173 A 
ATOM     88  F   UNL A   1      43.487  34.698  26.562  1.00  0.00    -0.203 F 
ATOM     89  C   UNL A   1      44.743  36.417  27.563  1.00  0.00     0.198 A 
ATOM     90  C   UNL A   1      46.023  35.973  29.544  1.00  0.00     0.198 A 
ATOM     91  F   UNL A   1      46.059  33.810  30.466  1.00  0.00    -0.203 F 
ATOM     92  F   UNL A   1      44.352  37.262  26.601  1.00  0.00    -0.200 F 
ATOM     93  C   UNL A   1      45.596  36.857  28.565  1.00  0.00     0.200 A 
ATOM     94  F   UNL A   1      46.836  36.400  30.521  1.00  0.00    -0.200 F 
ATOM     95  F   UNL A   1      46.012  38.131  28.581  1.00  0.00    -0.200 F 
ENDBRANCH  62  85
ENDBRANCH  36  37
ENDBRANCH  29  31
ENDBRANCH  28  29
ENDBRANCH  27  28
ENDBRANCH  26  27
ENDBRANCH  25  26
ENDBRANCH   1  25
TORSDOF 17
ENDMDL
MODEL 3
REMARK VINA RESULT:     -11.7      4.403     10.551
REMARK SMILES [NH3+][C@H]1C=C[C@H](C(=O)N2CC[NH+](CC(=O)OCCOCCOC(=O)c3ccc(-c4c5nc(c(-c6c(F)c(F)c(F)c(F)c6F)c6ccc([nH]6)c(-c6c(F)c(F)c(F)c(F)c6F)c6nc(c(-c7c(F)c(F)c(F)c(F)c7F)c7ccc4[nH]7)C=C6)C=C5)cc3)CC2)C1
REMARK SMILES IDX 17 1 16 2 15 3 13 4 14 5 12 6 11 7 6 8 7 9 8 10 9 11 88 12
REMARK SMILES IDX 10 13 87 14 5 16 2 17 3 18 89 19 4 20 1 21 18 25 19 26 20 27
REMARK SMILES IDX 21 28 22 29 23 30 24 31 25 32 86 33 26 34 85 35 27 36 28 37
REMARK SMILES IDX 29 38 79 39 30 40 84 41 78 42 80 43 31 44 83 45 77 46 76 47
REMARK SMILES IDX 32 49 64 50 44 51 63 52 45 53 48 54 62 55 81 56 46 57 47 58
REMARK SMILES IDX 61 60 82 61 49 62 33 63 34 64 42 65 35 66 36 67 40 68 43 69
REMARK SMILES IDX 37 70 38 71 41 72 39 73 65 74 66 75 74 76 67 77 68 78 72 79
REMARK SMILES IDX 75 80 69 81 70 82 73 83 71 84 50 85 51 86 59 87 52 88 53 89
REMARK SMILES IDX 57 90 60 91 54 92 55 93 58 94 56 95
REMARK H PARENT 11 15 1 22 1 23 1 24 80 48 48 59
REMARK Flexibility Score: inf
ROOT
ATOM      1  C   UNL A   1      34.704  20.816  25.215  1.00  0.00     0.202 C 
ENDROOT
BRANCH   1   2
ATOM      2  C   UNL A   1      33.437  21.085  26.025  1.00  0.00     0.261 C 
BRANCH   2   3
ATOM      3  O   UNL A   1      32.272  21.262  25.187  1.00  0.00    -0.459 OA
BRANCH   3   4
ATOM      4  C   UNL A   1      31.412  22.249  25.567  1.00  0.00     0.361 C 
ATOM      5  O   UNL A   1      30.296  22.053  26.035  1.00  0.00    -0.245 OA
BRANCH   4   6
ATOM      6  C   UNL A   1      31.929  23.642  25.228  1.00  0.00     0.386 C 
BRANCH   6   7
ATOM      7  N   UNL A   1      30.925  24.612  24.826  1.00  0.00    -0.323 N 
ATOM      8  C   UNL A   1      30.182  28.660  23.612  1.00  0.00     0.230 C 
ATOM      9  O   UNL A   1      30.768  29.513  24.286  1.00  0.00    -0.274 OA
ATOM     10  N   UNL A   1      30.288  27.305  23.941  1.00  0.00    -0.331 N 
ATOM     11  C   UNL A   1      30.696  27.034  25.317  1.00  0.00     0.181 C 
ATOM     12  C   UNL A   1      30.726  26.298  22.966  1.00  0.00     0.181 C 
ATOM     13  C   UNL A   1      30.436  25.595  25.770  1.00  0.00     0.284 C 
ATOM     14  C   UNL A   1      30.603  24.831  23.431  1.00  0.00     0.284 C 
ATOM     15  H   UNL A   1      30.292  23.828  24.988  1.00  0.00     0.348 HD
BRANCH   8  16
ATOM     16  C   UNL A   1      29.164  29.056  22.525  1.00  0.00     0.107 C 
ATOM     17  C   UNL A   1      28.724  31.455  22.247  1.00  0.00     0.205 C 
ATOM     18  C   UNL A   1      27.621  30.800  22.991  1.00  0.00     0.033 C 
ATOM     19  C   UNL A   1      29.493  30.267  21.651  1.00  0.00     0.087 C 
ATOM     20  C   UNL A   1      27.861  29.493  23.155  1.00  0.00    -0.012 C 
BRANCH  17  21
ATOM     21  N   UNL A   1      28.271  32.359  21.212  1.00  0.00    -0.352 N 
ATOM     22  H   UNL A   1      27.433  31.979  20.772  1.00  0.00     0.345 HD
ATOM     23  H   UNL A   1      29.003  32.467  20.510  1.00  0.00     0.345 HD
ATOM     24  H   UNL A   1      28.058  33.268  21.623  1.00  0.00     0.345 HD
ENDBRANCH  17  21
ENDBRANCH   8  16
ENDBRANCH   6   7
ENDBRANCH   4   6
ENDBRANCH   3   4
ENDBRANCH   2   3
ENDBRANCH   1   2
BRANCH   1  25
ATOM     25  O   UNL A   1      34.992  21.784  24.207  1.00  0.00    -0.374 OA
BRANCH  25  26
ATOM     26  C   UNL A   1      36.353  22.201  24.118  1.00  0.00     0.202 C 
BRANCH  26  27
ATOM     27  C   UNL A   1      37.366  21.177  24.653  1.00  0.00     0.261 C 
BRANCH  27  28
ATOM     28  O   UNL A   1      37.809  21.529  25.977  1.00  0.00    -0.460 OA
BRANCH  28  29
ATOM     29  C   UNL A   1      39.150  21.456  26.189  1.00  0.00     0.338 C 
ATOM     30  O   UNL A   1      39.886  20.548  25.864  1.00  0.00    -0.246 OA
BRANCH  29  31
ATOM     31  C   UNL A   1      39.657  22.715  26.810  1.00  0.00     0.060 A 
ATOM     32  C   UNL A   1      39.030  23.918  26.464  1.00  0.00     0.016 A 
ATOM     33  C   UNL A   1      40.731  22.746  27.703  1.00  0.00     0.016 A 
ATOM     34  C   UNL A   1      39.530  25.139  26.927  1.00  0.00     0.010 A 
ATOM     35  C   UNL A   1      41.220  23.967  28.183  1.00  0.00     0.010 A 
ATOM     36  C   UNL A   1      40.661  25.172  27.747  1.00  0.00    -0.014 A 
BRANCH  36  37
ATOM     37  C   UNL A   1      41.312  26.461  28.075  1.00  0.00     0.031 A 
ATOM     38  C   UNL A   1      42.689  26.764  27.553  1.00  0.00     0.074 A 
ATOM     39  C   UNL A   1      40.697  27.338  28.885  1.00  0.00     0.049 A 
ATOM     40  N   UNL A   1      43.384  27.873  27.623  1.00  0.00    -0.248 NA
ATOM     41  C   UNL A   1      43.391  25.657  26.891  1.00  0.00     0.031 C 
ATOM     42  C   UNL A   1      39.415  27.114  29.545  1.00  0.00     0.029 A 
ATOM     43  N   UNL A   1      41.075  28.594  29.285  1.00  0.00    -0.354 N 
ATOM     44  C   UNL A   1      44.617  27.587  27.046  1.00  0.00     0.074 A 
ATOM     45  C   UNL A   1      44.579  26.194  26.651  1.00  0.00     0.031 C 
ATOM     46  C   UNL A   1      39.100  28.208  30.258  1.00  0.00     0.029 A 
ATOM     47  C   UNL A   1      40.147  29.213  30.080  1.00  0.00     0.049 A 
ATOM     48  H   UNL A   1      41.928  29.011  29.025  1.00  0.00     0.167 HD
ATOM     49  C   UNL A   1      45.674  28.417  26.860  1.00  0.00     0.037 A 
ATOM     50  C   UNL A   1      40.123  30.467  30.572  1.00  0.00     0.037 A 
ATOM     51  C   UNL A   1      45.666  29.815  27.216  1.00  0.00     0.049 A 
ATOM     52  C   UNL A   1      41.215  31.428  30.196  1.00  0.00     0.074 A 
ATOM     53  C   UNL A   1      46.610  30.787  26.929  1.00  0.00     0.029 A 
ATOM     54  N   UNL A   1      44.664  30.440  27.946  1.00  0.00    -0.354 N 
ATOM     55  N   UNL A   1      42.314  31.208  29.517  1.00  0.00    -0.248 NA
ATOM     56  C   UNL A   1      41.040  32.826  30.616  1.00  0.00     0.031 C 
ATOM     57  C   UNL A   1      46.202  31.987  27.527  1.00  0.00     0.029 A 
ATOM     58  C   UNL A   1      44.973  31.778  28.131  1.00  0.00     0.049 A 
ATOM     59  H   UNL A   1      43.852  29.996  28.284  1.00  0.00     0.167 HD
ATOM     60  C   UNL A   1      42.953  32.436  29.410  1.00  0.00     0.074 A 
ATOM     61  C   UNL A   1      42.105  33.404  30.077  1.00  0.00     0.031 C 
ATOM     62  C   UNL A   1      44.133  32.733  28.811  1.00  0.00     0.037 A 
BRANCH  49  63
ATOM     63  C   UNL A   1      46.930  27.855  26.246  1.00  0.00     0.064 A 
ATOM     64  C   UNL A   1      47.995  27.374  27.024  1.00  0.00     0.173 A 
ATOM     65  C   UNL A   1      47.045  27.732  24.850  1.00  0.00     0.173 A 
ATOM     66  F   UNL A   1      47.944  27.457  28.363  1.00  0.00    -0.203 F 
ATOM     67  C   UNL A   1      49.136  26.835  26.434  1.00  0.00     0.198 A 
ATOM     68  C   UNL A   1      48.169  27.154  24.264  1.00  0.00     0.198 A 
ATOM     69  F   UNL A   1      46.056  28.157  24.049  1.00  0.00    -0.203 F 
ATOM     70  F   UNL A   1      50.162  26.440  27.201  1.00  0.00    -0.200 F 
ATOM     71  C   UNL A   1      49.219  26.716  25.055  1.00  0.00     0.200 A 
ATOM     72  F   UNL A   1      48.235  27.018  22.933  1.00  0.00    -0.200 F 
ATOM     73  F   UNL A   1      50.312  26.184  24.490  1.00  0.00    -0.200 F 
ENDBRANCH  49  63
BRANCH  50  74
ATOM     74  C   UNL A   1      38.947  30.895  31.367  1.00  0.00     0.064 A 
ATOM     75  C   UNL A   1      38.970  30.828  32.767  1.00  0.00     0.173 A 
ATOM     76  C   UNL A   1      37.820  31.458  30.754  1.00  0.00     0.173 A 
ATOM     77  F   UNL A   1      40.026  30.289  33.394  1.00  0.00    -0.203 F 
ATOM     78  C   UNL A   1      37.905  31.306  33.526  1.00  0.00     0.198 A 
ATOM     79  C   UNL A   1      36.766  31.957  31.515  1.00  0.00     0.198 A 
ATOM     80  F   UNL A   1      37.763  31.560  29.418  1.00  0.00    -0.203 F 
ATOM     81  F   UNL A   1      37.945  31.217  34.862  1.00  0.00    -0.200 F 
ATOM     82  C   UNL A   1      36.808  31.879  32.900  1.00  0.00     0.200 A 
ATOM     83  F   UNL A   1      35.718  32.530  30.910  1.00  0.00    -0.200 F 
ATOM     84  F   UNL A   1      35.796  32.364  33.631  1.00  0.00    -0.200 F 
ENDBRANCH  50  74
BRANCH  62  85
ATOM     85  C   UNL A   1      44.579  34.168  28.839  1.00  0.00     0.064 A 
ATOM     86  C   UNL A   1      45.400  34.665  29.861  1.00  0.00     0.173 A 
ATOM     87  C   UNL A   1      44.203  35.049  27.812  1.00  0.00     0.173 A 
ATOM     88  F   UNL A   1      45.779  33.868  30.871  1.00  0.00    -0.203 F 
ATOM     89  C   UNL A   1      45.804  35.999  29.872  1.00  0.00     0.198 A 
ATOM     90  C   UNL A   1      44.634  36.373  27.811  1.00  0.00     0.198 A 
ATOM     91  F   UNL A   1      43.425  34.624  26.806  1.00  0.00    -0.203 F 
ATOM     92  F   UNL A   1      46.546  36.464  30.886  1.00  0.00    -0.200 F 
ATOM     93  C   UNL A   1      45.426  36.850  28.845  1.00  0.00     0.200 A 
ATOM     94  F   UNL A   1      44.278  37.191  26.809  1.00  0.00    -0.200 F 
ATOM     95  F   UNL A   1      45.817  38.131  28.855  1.00  0.00    -0.200 F 
ENDBRANCH  62  85
ENDBRANCH  36  37
ENDBRANCH  29  31
ENDBRANCH  28  29
ENDBRANCH  27  28
ENDBRANCH  26  27
ENDBRANCH  25  26
ENDBRANCH   1  25
TORSDOF 17
ENDMDL
