MODEL 1
REMARK VINA RESULT:     -11.6      0.000      0.000
REMARK SMILES O=C(C[C@@H](C(=O)OCCOCCOC(=O)c1ccc(-c2c3nc(c(-c4c(F)c(F)c(F)c(F)c4F)c4ccc([nH]4)c(-c4c(F)c(F)c(F)c(F)c4F)c4nc(c(-c5c(F)c(F)c(F)c(F)c5F)c5ccc2[nH]5)C=C4)C=C3)cc1)c1ccccc1)Nc1cc(C(F)(F)F)ccc1-n1cncn1
REMARK SMILES IDX 9 1 8 2 7 3 5 4 6 5 4 6 3 7 2 8 1 9 85 10 86 12 87 13 95 14
REMARK SMILES IDX 88 15 94 16 93 17 96 18 97 19 100 20 98 21 99 22 89 23 90 24
REMARK SMILES IDX 91 25 92 26 79 27 80 28 84 29 81 30 83 31 82 32 10 33 11 34
REMARK SMILES IDX 12 35 13 36 14 37 15 38 16 39 17 40 78 41 18 42 77 43 19 44
REMARK SMILES IDX 20 45 21 46 71 47 22 48 76 49 70 50 72 51 23 52 75 53 69 54
REMARK SMILES IDX 68 55 24 57 56 58 36 59 55 60 37 61 40 62 54 63 73 64 38 65
REMARK SMILES IDX 39 66 53 68 74 69 41 70 25 71 26 72 34 73 27 74 28 75 32 76
REMARK SMILES IDX 35 77 29 78 30 79 33 80 31 81 57 82 58 83 66 84 59 85 60 86
REMARK SMILES IDX 64 87 67 88 61 89 62 90 65 91 63 92 42 93 43 94 51 95 44 96
REMARK SMILES IDX 45 97 49 98 52 99 46 100 47 101 50 102 48 103
REMARK H PARENT 85 11 72 56 40 67
REMARK Flexibility Score: inf
ROOT
ATOM      1  C   UNL A   1      36.976  22.464  25.365  1.00  0.00     0.202 C 
ENDROOT
BRANCH   1   2
ATOM      2  C   UNL A   1      36.720  23.072  23.980  1.00  0.00     0.261 C 
BRANCH   2   3
ATOM      3  O   UNL A   1      35.429  22.626  23.494  1.00  0.00    -0.463 OA
BRANCH   3   4
ATOM      4  C   UNL A   1      34.444  23.563  23.483  1.00  0.00     0.314 C 
ATOM      5  O   UNL A   1      34.462  24.536  22.740  1.00  0.00    -0.252 OA
BRANCH   4   6
ATOM      6  C   UNL A   1      33.294  23.265  24.467  1.00  0.00     0.138 C 
BRANCH   6   7
ATOM      7  C   UNL A   1      33.436  23.642  25.950  1.00  0.00     0.120 C 
BRANCH   7   8
ATOM      8  C   UNL A   1      32.903  25.010  26.266  1.00  0.00     0.225 C 
ATOM      9  O   UNL A   1      31.860  25.186  26.881  1.00  0.00    -0.275 OA
ATOM     10  N   UNL A   1      33.701  26.004  25.735  1.00  0.00    -0.324 N 
ATOM     11  H   UNL A   1      34.567  25.760  25.336  1.00  0.00     0.170 HD
BRANCH  10  12
ATOM     12  C   UNL A   1      33.318  27.349  25.745  1.00  0.00     0.067 A 
ATOM     13  C   UNL A   1      33.964  28.097  26.722  1.00  0.00     0.041 A 
ATOM     14  C   UNL A   1      32.499  27.973  24.804  1.00  0.00     0.090 A 
ATOM     15  C   UNL A   1      33.916  29.483  26.740  1.00  0.00     0.058 A 
ATOM     16  C   UNL A   1      32.393  29.372  24.830  1.00  0.00     0.031 A 
ATOM     17  C   UNL A   1      33.103  30.121  25.793  1.00  0.00     0.015 A 
BRANCH  14  18
ATOM     18  N   UNL A   1      31.746  27.211  23.879  1.00  0.00    -0.219 N 
ATOM     19  C   UNL A   1      30.527  26.598  24.076  1.00  0.00     0.226 A 
ATOM     20  N   UNL A   1      32.145  26.987  22.605  1.00  0.00    -0.155 NA
ATOM     21  N   UNL A   1      30.233  25.819  23.063  1.00  0.00    -0.223 NA
ATOM     22  C   UNL A   1      31.280  26.043  22.219  1.00  0.00     0.246 A 
ENDBRANCH  14  18
BRANCH  15  23
ATOM     23  C   UNL A   1      34.782  30.151  27.785  1.00  0.00     0.416 C 
ATOM     24  F   UNL A   1      35.738  30.954  27.235  1.00  0.00    -0.166 F 
ATOM     25  F   UNL A   1      34.099  30.927  28.664  1.00  0.00    -0.166 F 
ATOM     26  F   UNL A   1      35.491  29.248  28.522  1.00  0.00    -0.166 F 
ENDBRANCH  15  23
ENDBRANCH  10  12
ENDBRANCH   7   8
ENDBRANCH   6   7
BRANCH   6  27
ATOM     27  C   UNL A   1      32.996  21.768  24.465  1.00  0.00    -0.033 A 
ATOM     28  C   UNL A   1      32.494  21.127  23.319  1.00  0.00     0.004 A 
ATOM     29  C   UNL A   1      33.300  21.000  25.596  1.00  0.00     0.004 A 
ATOM     30  C   UNL A   1      32.280  19.752  23.313  1.00  0.00     0.000 A 
ATOM     31  C   UNL A   1      33.087  19.625  25.585  1.00  0.00     0.000 A 
ATOM     32  C   UNL A   1      32.574  19.001  24.447  1.00  0.00     0.000 A 
ENDBRANCH   6  27
ENDBRANCH   4   6
ENDBRANCH   3   4
ENDBRANCH   2   3
ENDBRANCH   1   2
BRANCH   1  33
ATOM     33  O   UNL A   1      36.818  21.045  25.430  1.00  0.00    -0.374 OA
BRANCH  33  34
ATOM     34  C   UNL A   1      37.807  20.245  24.793  1.00  0.00     0.202 C 
BRANCH  34  35
ATOM     35  C   UNL A   1      38.937  19.716  25.685  1.00  0.00     0.261 C 
BRANCH  35  36
ATOM     36  O   UNL A   1      40.081  20.588  25.737  1.00  0.00    -0.460 OA
BRANCH  36  37
ATOM     37  C   UNL A   1      40.718  20.598  26.936  1.00  0.00     0.338 C 
ATOM     38  O   UNL A   1      41.170  19.626  27.532  1.00  0.00    -0.246 OA
BRANCH  37  39
ATOM     39  C   UNL A   1      40.935  21.979  27.410  1.00  0.00     0.060 A 
ATOM     40  C   UNL A   1      40.223  23.008  26.781  1.00  0.00     0.016 A 
ATOM     41  C   UNL A   1      41.884  22.286  28.388  1.00  0.00     0.016 A 
ATOM     42  C   UNL A   1      40.483  24.346  27.098  1.00  0.00     0.010 A 
ATOM     43  C   UNL A   1      42.134  23.630  28.711  1.00  0.00     0.010 A 
ATOM     44  C   UNL A   1      41.461  24.676  28.045  1.00  0.00    -0.014 A 
BRANCH  44  45
ATOM     45  C   UNL A   1      41.935  26.091  28.178  1.00  0.00     0.031 A 
ATOM     46  C   UNL A   1      43.273  26.438  27.611  1.00  0.00     0.074 A 
ATOM     47  C   UNL A   1      41.207  27.070  28.752  1.00  0.00     0.049 A 
ATOM     48  N   UNL A   1      43.918  27.571  27.666  1.00  0.00    -0.248 NA
ATOM     49  C   UNL A   1      43.986  25.365  26.900  1.00  0.00     0.031 C 
ATOM     50  C   UNL A   1      39.892  26.861  29.307  1.00  0.00     0.029 A 
ATOM     51  N   UNL A   1      41.434  28.404  28.990  1.00  0.00    -0.354 N 
ATOM     52  C   UNL A   1      45.110  27.349  27.001  1.00  0.00     0.074 A 
ATOM     53  C   UNL A   1      45.132  25.957  26.608  1.00  0.00     0.031 C 
ATOM     54  C   UNL A   1      39.416  27.985  29.854  1.00  0.00     0.029 A 
ATOM     55  C   UNL A   1      40.418  29.025  29.692  1.00  0.00     0.049 A 
ATOM     56  H   UNL A   1      42.244  28.874  28.687  1.00  0.00     0.167 HD
ATOM     57  C   UNL A   1      46.084  28.242  26.718  1.00  0.00     0.037 A 
ATOM     58  C   UNL A   1      40.305  30.279  30.171  1.00  0.00     0.037 A 
ATOM     59  C   UNL A   1      46.046  29.625  27.108  1.00  0.00     0.049 A 
ATOM     60  C   UNL A   1      41.428  31.233  29.894  1.00  0.00     0.074 A 
ATOM     61  C   UNL A   1      46.983  30.611  26.864  1.00  0.00     0.029 A 
ATOM     62  N   UNL A   1      45.016  30.221  27.826  1.00  0.00    -0.354 N 
ATOM     63  N   UNL A   1      42.552  31.007  29.261  1.00  0.00    -0.248 NA
ATOM     64  C   UNL A   1      41.276  32.609  30.382  1.00  0.00     0.031 C 
ATOM     65  C   UNL A   1      46.543  31.793  27.467  1.00  0.00     0.029 A 
ATOM     66  C   UNL A   1      45.301  31.561  28.036  1.00  0.00     0.049 A 
ATOM     67  H   UNL A   1      44.205  29.759  28.138  1.00  0.00     0.167 HD
ATOM     68  C   UNL A   1      43.229  32.215  29.244  1.00  0.00     0.074 A 
ATOM     69  C   UNL A   1      42.381  33.175  29.922  1.00  0.00     0.031 C 
ATOM     70  C   UNL A   1      44.441  32.500  28.712  1.00  0.00     0.037 A 
BRANCH  57  71
ATOM     71  C   UNL A   1      47.266  27.733  25.955  1.00  0.00     0.064 A 
ATOM     72  C   UNL A   1      47.293  27.741  24.551  1.00  0.00     0.173 A 
ATOM     73  C   UNL A   1      48.387  27.235  26.633  1.00  0.00     0.173 A 
ATOM     74  F   UNL A   1      46.231  28.177  23.857  1.00  0.00    -0.203 F 
ATOM     75  C   UNL A   1      48.392  27.250  23.856  1.00  0.00     0.198 A 
ATOM     76  C   UNL A   1      49.498  26.777  25.934  1.00  0.00     0.198 A 
ATOM     77  F   UNL A   1      48.403  27.194  27.974  1.00  0.00    -0.203 F 
ATOM     78  F   UNL A   1      48.374  27.214  22.516  1.00  0.00    -0.200 F 
ATOM     79  C   UNL A   1      49.498  26.778  24.547  1.00  0.00     0.200 A 
ATOM     80  F   UNL A   1      50.568  26.327  26.603  1.00  0.00    -0.200 F 
ATOM     81  F   UNL A   1      50.561  26.315  23.876  1.00  0.00    -0.200 F 
ENDBRANCH  57  71
BRANCH  58  82
ATOM     82  C   UNL A   1      39.112  30.697  30.964  1.00  0.00     0.064 A 
ATOM     83  C   UNL A   1      39.046  30.507  32.352  1.00  0.00     0.173 A 
ATOM     84  C   UNL A   1      37.995  31.276  30.339  1.00  0.00     0.173 A 
ATOM     85  F   UNL A   1      40.072  29.939  33.000  1.00  0.00    -0.203 F 
ATOM     86  C   UNL A   1      37.903  30.854  33.078  1.00  0.00     0.198 A 
ATOM     87  C   UNL A   1      36.869  31.653  31.069  1.00  0.00     0.198 A 
ATOM     88  F   UNL A   1      38.001  31.485  29.014  1.00  0.00    -0.203 F 
ATOM     89  F   UNL A   1      37.848  30.608  34.393  1.00  0.00    -0.200 F 
ATOM     90  C   UNL A   1      36.819  31.433  32.436  1.00  0.00     0.200 A 
ATOM     91  F   UNL A   1      35.829  32.225  30.445  1.00  0.00    -0.200 F 
ATOM     92  F   UNL A   1      35.724  31.766  33.133  1.00  0.00    -0.200 F 
ENDBRANCH  58  82
BRANCH  70  93
ATOM     93  C   UNL A   1      44.887  33.928  28.791  1.00  0.00     0.064 A 
ATOM     94  C   UNL A   1      45.680  34.401  29.845  1.00  0.00     0.173 A 
ATOM     95  C   UNL A   1      44.508  34.834  27.789  1.00  0.00     0.173 A 
ATOM     96  F   UNL A   1      46.048  33.576  30.837  1.00  0.00    -0.203 F 
ATOM     97  C   UNL A   1      46.047  35.741  29.914  1.00  0.00     0.198 A 
ATOM     98  C   UNL A   1      44.908  36.165  27.842  1.00  0.00     0.198 A 
ATOM     99  F   UNL A   1      43.751  34.428  26.758  1.00  0.00    -0.203 F 
ATOM    100  F   UNL A   1      46.748  36.188  30.965  1.00  0.00    -0.200 F 
ATOM    101  C   UNL A   1      45.666  36.620  28.910  1.00  0.00     0.200 A 
ATOM    102  F   UNL A   1      44.550  37.008  26.865  1.00  0.00    -0.200 F 
ATOM    103  F   UNL A   1      46.020  37.910  28.978  1.00  0.00    -0.200 F 
ENDBRANCH  70  93
ENDBRANCH  44  45
ENDBRANCH  37  39
ENDBRANCH  36  37
ENDBRANCH  35  36
ENDBRANCH  34  35
ENDBRANCH  33  34
ENDBRANCH   1  33
TORSDOF 20
ENDMDL
MODEL 2
REMARK VINA RESULT:     -11.5      1.100      2.343
REMARK SMILES O=C(C[C@@H](C(=O)OCCOCCOC(=O)c1ccc(-c2c3nc(c(-c4c(F)c(F)c(F)c(F)c4F)c4ccc([nH]4)c(-c4c(F)c(F)c(F)c(F)c4F)c4nc(c(-c5c(F)c(F)c(F)c(F)c5F)c5ccc2[nH]5)C=C4)C=C3)cc1)c1ccccc1)Nc1cc(C(F)(F)F)ccc1-n1cncn1
REMARK SMILES IDX 9 1 8 2 7 3 5 4 6 5 4 6 3 7 2 8 1 9 85 10 86 12 87 13 95 14
REMARK SMILES IDX 88 15 94 16 93 17 96 18 97 19 100 20 98 21 99 22 89 23 90 24
REMARK SMILES IDX 91 25 92 26 79 27 80 28 84 29 81 30 83 31 82 32 10 33 11 34
REMARK SMILES IDX 12 35 13 36 14 37 15 38 16 39 17 40 78 41 18 42 77 43 19 44
REMARK SMILES IDX 20 45 21 46 71 47 22 48 76 49 70 50 72 51 23 52 75 53 69 54
REMARK SMILES IDX 68 55 24 57 56 58 36 59 55 60 37 61 40 62 54 63 73 64 38 65
REMARK SMILES IDX 39 66 53 68 74 69 41 70 25 71 26 72 34 73 27 74 28 75 32 76
REMARK SMILES IDX 35 77 29 78 30 79 33 80 31 81 57 82 58 83 66 84 59 85 60 86
REMARK SMILES IDX 64 87 67 88 61 89 62 90 65 91 63 92 42 93 43 94 51 95 44 96
REMARK SMILES IDX 45 97 49 98 52 99 46 100 47 101 50 102 48 103
REMARK H PARENT 85 11 72 56 40 67
REMARK Flexibility Score: inf
ROOT
ATOM      1  C   UNL A   1      36.540  22.190  24.947  1.00  0.00     0.202 C 
ENDROOT
BRANCH   1   2
ATOM      2  C   UNL A   1      35.724  22.809  26.090  1.00  0.00     0.261 C 
BRANCH   2   3
ATOM      3  O   UNL A   1      34.967  21.768  26.755  1.00  0.00    -0.463 OA
BRANCH   3   4
ATOM      4  C   UNL A   1      33.650  22.033  26.961  1.00  0.00     0.314 C 
ATOM      5  O   UNL A   1      33.156  22.110  28.080  1.00  0.00    -0.252 OA
BRANCH   4   6
ATOM      6  C   UNL A   1      32.851  22.257  25.661  1.00  0.00     0.138 C 
BRANCH   6   7
ATOM      7  C   UNL A   1      31.446  22.878  25.722  1.00  0.00     0.120 C 
BRANCH   7   8
ATOM      8  C   UNL A   1      31.439  24.353  25.435  1.00  0.00     0.225 C 
ATOM      9  O   UNL A   1      30.406  24.985  25.254  1.00  0.00    -0.275 OA
ATOM     10  N   UNL A   1      32.719  24.864  25.352  1.00  0.00    -0.324 N 
ATOM     11  H   UNL A   1      33.478  24.292  25.604  1.00  0.00     0.170 HD
BRANCH  10  12
ATOM     12  C   UNL A   1      32.971  26.170  24.922  1.00  0.00     0.067 A 
ATOM     13  C   UNL A   1      32.892  27.110  25.943  1.00  0.00     0.041 A 
ATOM     14  C   UNL A   1      33.412  26.541  23.652  1.00  0.00     0.090 A 
ATOM     15  C   UNL A   1      33.348  28.410  25.783  1.00  0.00     0.058 A 
ATOM     16  C   UNL A   1      33.833  27.865  23.449  1.00  0.00     0.031 A 
ATOM     17  C   UNL A   1      33.802  28.792  24.512  1.00  0.00     0.015 A 
BRANCH  14  18
ATOM     18  N   UNL A   1      33.386  25.621  22.577  1.00  0.00    -0.219 N 
ATOM     19  C   UNL A   1      32.926  25.827  21.294  1.00  0.00     0.226 A 
ATOM     20  N   UNL A   1      33.850  24.353  22.676  1.00  0.00    -0.155 NA
ATOM     21  N   UNL A   1      32.876  24.694  20.635  1.00  0.00    -0.223 NA
ATOM     22  C   UNL A   1      33.392  23.816  21.540  1.00  0.00     0.246 A 
ENDBRANCH  14  18
BRANCH  15  23
ATOM     23  C   UNL A   1      33.317  29.269  27.028  1.00  0.00     0.416 C 
ATOM     24  F   UNL A   1      34.272  28.908  27.934  1.00  0.00    -0.166 F 
ATOM     25  F   UNL A   1      33.499  30.593  26.799  1.00  0.00    -0.166 F 
ATOM     26  F   UNL A   1      32.144  29.142  27.714  1.00  0.00    -0.166 F 
ENDBRANCH  15  23
ENDBRANCH  10  12
ENDBRANCH   7   8
ENDBRANCH   6   7
BRANCH   6  27
ATOM     27  C   UNL A   1      32.665  20.925  24.940  1.00  0.00    -0.033 A 
ATOM     28  C   UNL A   1      32.402  20.875  23.560  1.00  0.00     0.004 A 
ATOM     29  C   UNL A   1      32.838  19.728  25.644  1.00  0.00     0.004 A 
ATOM     30  C   UNL A   1      32.292  19.653  22.904  1.00  0.00     0.000 A 
ATOM     31  C   UNL A   1      32.728  18.506  24.984  1.00  0.00     0.000 A 
ATOM     32  C   UNL A   1      32.452  18.468  23.617  1.00  0.00     0.000 A 
ENDBRANCH   6  27
ENDBRANCH   4   6
ENDBRANCH   3   4
ENDBRANCH   2   3
ENDBRANCH   1   2
BRANCH   1  33
ATOM     33  O   UNL A   1      36.162  20.856  24.602  1.00  0.00    -0.374 OA
BRANCH  33  34
ATOM     34  C   UNL A   1      37.062  19.809  24.945  1.00  0.00     0.202 C 
BRANCH  34  35
ATOM     35  C   UNL A   1      38.546  20.187  25.037  1.00  0.00     0.261 C 
BRANCH  35  36
ATOM     36  O   UNL A   1      39.006  20.380  26.387  1.00  0.00    -0.460 OA
BRANCH  36  37
ATOM     37  C   UNL A   1      40.337  20.628  26.491  1.00  0.00     0.338 C 
ATOM     38  O   UNL A   1      41.247  19.912  26.090  1.00  0.00    -0.246 OA
BRANCH  37  39
ATOM     39  C   UNL A   1      40.585  21.973  27.048  1.00  0.00     0.060 A 
ATOM     40  C   UNL A   1      39.883  23.051  26.495  1.00  0.00     0.016 A 
ATOM     41  C   UNL A   1      41.552  22.202  28.028  1.00  0.00     0.016 A 
ATOM     42  C   UNL A   1      40.171  24.362  26.892  1.00  0.00     0.010 A 
ATOM     43  C   UNL A   1      41.831  23.518  28.432  1.00  0.00     0.010 A 
ATOM     44  C   UNL A   1      41.168  24.615  27.843  1.00  0.00    -0.014 A 
BRANCH  44  45
ATOM     45  C   UNL A   1      41.668  26.010  28.057  1.00  0.00     0.031 A 
ATOM     46  C   UNL A   1      43.045  26.342  27.579  1.00  0.00     0.074 A 
ATOM     47  C   UNL A   1      40.934  26.986  28.628  1.00  0.00     0.049 A 
ATOM     48  N   UNL A   1      43.713  27.455  27.715  1.00  0.00    -0.248 NA
ATOM     49  C   UNL A   1      43.769  25.278  26.867  1.00  0.00     0.031 C 
ATOM     50  C   UNL A   1      39.585  26.792  29.101  1.00  0.00     0.029 A 
ATOM     51  N   UNL A   1      41.180  28.304  28.931  1.00  0.00    -0.354 N 
ATOM     52  C   UNL A   1      44.935  27.226  27.108  1.00  0.00     0.074 A 
ATOM     53  C   UNL A   1      44.944  25.850  26.662  1.00  0.00     0.031 C 
ATOM     54  C   UNL A   1      39.107  27.907  29.665  1.00  0.00     0.029 A 
ATOM     55  C   UNL A   1      40.142  28.924  29.600  1.00  0.00     0.049 A 
ATOM     56  H   UNL A   1      42.017  28.763  28.692  1.00  0.00     0.167 HD
ATOM     57  C   UNL A   1      45.945  28.103  26.915  1.00  0.00     0.037 A 
ATOM     58  C   UNL A   1      40.033  30.163  30.121  1.00  0.00     0.037 A 
ATOM     59  C   UNL A   1      45.919  29.471  27.356  1.00  0.00     0.049 A 
ATOM     60  C   UNL A   1      41.194  31.096  29.944  1.00  0.00     0.074 A 
ATOM     61  C   UNL A   1      46.893  30.440  27.203  1.00  0.00     0.029 A 
ATOM     62  N   UNL A   1      44.866  30.066  28.039  1.00  0.00    -0.354 N 
ATOM     63  N   UNL A   1      42.346  30.864  29.366  1.00  0.00    -0.248 NA
ATOM     64  C   UNL A   1      41.048  32.455  30.478  1.00  0.00     0.031 C 
ATOM     65  C   UNL A   1      46.449  31.608  27.828  1.00  0.00     0.029 A 
ATOM     66  C   UNL A   1      45.172  31.390  28.318  1.00  0.00     0.049 A 
ATOM     67  H   UNL A   1      44.027  29.615  28.288  1.00  0.00     0.167 HD
ATOM     68  C   UNL A   1      43.052  32.052  29.434  1.00  0.00     0.074 A 
ATOM     69  C   UNL A   1      42.191  33.009  30.102  1.00  0.00     0.031 C 
ATOM     70  C   UNL A   1      44.299  32.324  28.981  1.00  0.00     0.037 A 
BRANCH  57  71
ATOM     71  C   UNL A   1      47.155  27.591  26.199  1.00  0.00     0.064 A 
ATOM     72  C   UNL A   1      48.244  27.044  26.897  1.00  0.00     0.173 A 
ATOM     73  C   UNL A   1      47.227  27.642  24.800  1.00  0.00     0.173 A 
ATOM     74  F   UNL A   1      48.236  27.004  28.238  1.00  0.00    -0.203 F 
ATOM     75  C   UNL A   1      49.369  26.587  26.220  1.00  0.00     0.198 A 
ATOM     76  C   UNL A   1      48.339  27.151  24.125  1.00  0.00     0.198 A 
ATOM     77  F   UNL A   1      46.217  28.167  24.090  1.00  0.00    -0.203 F 
ATOM     78  F   UNL A   1      50.421  26.121  26.908  1.00  0.00    -0.200 F 
ATOM     79  C   UNL A   1      49.412  26.630  24.834  1.00  0.00     0.200 A 
ATOM     80  F   UNL A   1      48.377  27.189  22.786  1.00  0.00    -0.200 F 
ATOM     81  F   UNL A   1      50.491  26.179  24.182  1.00  0.00    -0.200 F 
ENDBRANCH  57  71
BRANCH  58  82
ATOM     82  C   UNL A   1      38.809  30.582  30.863  1.00  0.00     0.064 A 
ATOM     83  C   UNL A   1      37.683  31.094  30.200  1.00  0.00     0.173 A 
ATOM     84  C   UNL A   1      38.749  30.501  32.264  1.00  0.00     0.173 A 
ATOM     85  F   UNL A   1      37.689  31.215  28.865  1.00  0.00    -0.203 F 
ATOM     86  C   UNL A   1      36.562  31.533  30.908  1.00  0.00     0.198 A 
ATOM     87  C   UNL A   1      37.617  30.907  32.967  1.00  0.00     0.198 A 
ATOM     88  F   UNL A   1      39.793  30.018  32.953  1.00  0.00    -0.203 F 
ATOM     89  F   UNL A   1      35.525  32.070  30.251  1.00  0.00    -0.200 F 
ATOM     90  C   UNL A   1      36.527  31.433  32.291  1.00  0.00     0.200 A 
ATOM     91  F   UNL A   1      37.584  30.795  34.303  1.00  0.00    -0.200 F 
ATOM     92  F   UNL A   1      35.451  31.853  32.969  1.00  0.00    -0.200 F 
ENDBRANCH  58  82
BRANCH  70  93
ATOM     93  C   UNL A   1      44.775  33.736  29.141  1.00  0.00     0.064 A 
ATOM     94  C   UNL A   1      44.555  34.710  28.157  1.00  0.00     0.173 A 
ATOM     95  C   UNL A   1      45.463  34.114  30.303  1.00  0.00     0.173 A 
ATOM     96  F   UNL A   1      43.921  34.389  27.019  1.00  0.00    -0.203 F 
ATOM     97  C   UNL A   1      45.041  36.003  28.314  1.00  0.00     0.198 A 
ATOM     98  C   UNL A   1      45.915  35.418  30.474  1.00  0.00     0.198 A 
ATOM     99  F   UNL A   1      45.695  33.218  31.275  1.00  0.00    -0.203 F 
ATOM    100  F   UNL A   1      44.880  36.901  27.332  1.00  0.00    -0.200 F 
ATOM    101  C   UNL A   1      45.715  36.358  29.474  1.00  0.00     0.200 A 
ATOM    102  F   UNL A   1      46.554  35.761  31.600  1.00  0.00    -0.200 F 
ATOM    103  F   UNL A   1      46.183  37.604  29.624  1.00  0.00    -0.200 F 
ENDBRANCH  70  93
ENDBRANCH  44  45
ENDBRANCH  37  39
ENDBRANCH  36  37
ENDBRANCH  35  36
ENDBRANCH  34  35
ENDBRANCH  33  34
ENDBRANCH   1  33
TORSDOF 20
ENDMDL
MODEL 3
REMARK VINA RESULT:     -11.4      1.897      7.232
REMARK SMILES O=C(C[C@@H](C(=O)OCCOCCOC(=O)c1ccc(-c2c3nc(c(-c4c(F)c(F)c(F)c(F)c4F)c4ccc([nH]4)c(-c4c(F)c(F)c(F)c(F)c4F)c4nc(c(-c5c(F)c(F)c(F)c(F)c5F)c5ccc2[nH]5)C=C4)C=C3)cc1)c1ccccc1)Nc1cc(C(F)(F)F)ccc1-n1cncn1
REMARK SMILES IDX 9 1 8 2 7 3 5 4 6 5 4 6 3 7 2 8 1 9 85 10 86 12 87 13 95 14
REMARK SMILES IDX 88 15 94 16 93 17 96 18 97 19 100 20 98 21 99 22 89 23 90 24
REMARK SMILES IDX 91 25 92 26 79 27 80 28 84 29 81 30 83 31 82 32 10 33 11 34
REMARK SMILES IDX 12 35 13 36 14 37 15 38 16 39 17 40 78 41 18 42 77 43 19 44
REMARK SMILES IDX 20 45 21 46 71 47 22 48 76 49 70 50 72 51 23 52 75 53 69 54
REMARK SMILES IDX 68 55 24 57 56 58 36 59 55 60 37 61 40 62 54 63 73 64 38 65
REMARK SMILES IDX 39 66 53 68 74 69 41 70 25 71 26 72 34 73 27 74 28 75 32 76
REMARK SMILES IDX 35 77 29 78 30 79 33 80 31 81 57 82 58 83 66 84 59 85 60 86
REMARK SMILES IDX 64 87 67 88 61 89 62 90 65 91 63 92 42 93 43 94 51 95 44 96
REMARK SMILES IDX 45 97 49 98 52 99 46 100 47 101 50 102 48 103
REMARK H PARENT 85 11 72 56 40 67
REMARK Flexibility Score: inf
ROOT
ATOM      1  C   UNL A   1      36.822  21.592  24.679  1.00  0.00     0.202 C 
ENDROOT
BRANCH   1   2
ATOM      2  C   UNL A   1      36.092  22.389  25.769  1.00  0.00     0.261 C 
BRANCH   2   3
ATOM      3  O   UNL A   1      35.188  21.507  26.479  1.00  0.00    -0.463 OA
BRANCH   3   4
ATOM      4  C   UNL A   1      33.955  22.013  26.748  1.00  0.00     0.314 C 
ATOM      5  O   UNL A   1      33.625  22.402  27.862  1.00  0.00    -0.252 OA
BRANCH   4   6
ATOM      6  C   UNL A   1      33.030  22.082  25.515  1.00  0.00     0.138 C 
BRANCH   6   7
ATOM      7  C   UNL A   1      31.628  22.699  25.641  1.00  0.00     0.120 C 
BRANCH   7   8
ATOM      8  C   UNL A   1      31.579  24.143  25.230  1.00  0.00     0.225 C 
ATOM      9  O   UNL A   1      30.588  24.652  24.723  1.00  0.00    -0.275 OA
ATOM     10  N   UNL A   1      32.786  24.778  25.447  1.00  0.00    -0.324 N 
ATOM     11  H   UNL A   1      33.491  24.305  25.945  1.00  0.00     0.170 HD
BRANCH  10  12
ATOM     12  C   UNL A   1      33.039  26.073  24.984  1.00  0.00     0.067 A 
ATOM     13  C   UNL A   1      32.956  27.039  25.979  1.00  0.00     0.041 A 
ATOM     14  C   UNL A   1      33.485  26.410  23.706  1.00  0.00     0.090 A 
ATOM     15  C   UNL A   1      33.411  28.335  25.786  1.00  0.00     0.058 A 
ATOM     16  C   UNL A   1      33.906  27.728  23.469  1.00  0.00     0.031 A 
ATOM     17  C   UNL A   1      33.870  28.683  24.508  1.00  0.00     0.015 A 
BRANCH  14  18
ATOM     18  N   UNL A   1      33.463  25.462  22.656  1.00  0.00    -0.219 N 
ATOM     19  C   UNL A   1      32.903  25.594  21.403  1.00  0.00     0.226 A 
ATOM     20  N   UNL A   1      34.036  24.239  22.749  1.00  0.00    -0.155 NA
ATOM     21  N   UNL A   1      32.903  24.444  20.773  1.00  0.00    -0.223 NA
ATOM     22  C   UNL A   1      33.549  23.635  21.660  1.00  0.00     0.246 A 
ENDBRANCH  14  18
BRANCH  15  23
ATOM     23  C   UNL A   1      33.375  29.226  27.008  1.00  0.00     0.416 C 
ATOM     24  F   UNL A   1      32.123  29.328  27.542  1.00  0.00    -0.166 F 
ATOM     25  F   UNL A   1      34.182  28.820  28.020  1.00  0.00    -0.166 F 
ATOM     26  F   UNL A   1      33.719  30.514  26.718  1.00  0.00    -0.166 F 
ENDBRANCH  15  23
ENDBRANCH  10  12
ENDBRANCH   7   8
ENDBRANCH   6   7
BRANCH   6  27
ATOM     27  C   UNL A   1      32.797  20.674  24.974  1.00  0.00    -0.033 A 
ATOM     28  C   UNL A   1      32.542  20.452  23.610  1.00  0.00     0.004 A 
ATOM     29  C   UNL A   1      32.916  19.574  25.832  1.00  0.00     0.004 A 
ATOM     30  C   UNL A   1      32.388  19.158  23.119  1.00  0.00     0.000 A 
ATOM     31  C   UNL A   1      32.762  18.282  25.338  1.00  0.00     0.000 A 
ATOM     32  C   UNL A   1      32.495  18.073  23.985  1.00  0.00     0.000 A 
ENDBRANCH   6  27
ENDBRANCH   4   6
ENDBRANCH   3   4
ENDBRANCH   2   3
ENDBRANCH   1   2
BRANCH   1  33
ATOM     33  O   UNL A   1      36.920  20.190  24.932  1.00  0.00    -0.374 OA
BRANCH  33  34
ATOM     34  C   UNL A   1      38.224  19.633  25.050  1.00  0.00     0.202 C 
BRANCH  34  35
ATOM     35  C   UNL A   1      39.283  20.511  25.730  1.00  0.00     0.261 C 
BRANCH  35  36
ATOM     36  O   UNL A   1      40.080  19.802  26.697  1.00  0.00    -0.460 OA
BRANCH  36  37
ATOM     37  C   UNL A   1      41.360  19.576  26.303  1.00  0.00     0.338 C 
ATOM     38  O   UNL A   1      41.787  18.570  25.749  1.00  0.00    -0.246 OA
BRANCH  37  39
ATOM     39  C   UNL A   1      42.197  20.776  26.506  1.00  0.00     0.060 A 
ATOM     40  C   UNL A   1      42.356  21.250  27.813  1.00  0.00     0.016 A 
ATOM     41  C   UNL A   1      42.742  21.487  25.435  1.00  0.00     0.016 A 
ATOM     42  C   UNL A   1      43.029  22.454  28.052  1.00  0.00     0.010 A 
ATOM     43  C   UNL A   1      43.426  22.689  25.680  1.00  0.00     0.010 A 
ATOM     44  C   UNL A   1      43.547  23.204  26.988  1.00  0.00    -0.014 A 
BRANCH  44  45
ATOM     45  C   UNL A   1      44.009  24.611  27.212  1.00  0.00     0.031 A 
ATOM     46  C   UNL A   1      42.996  25.621  27.646  1.00  0.00     0.074 A 
ATOM     47  C   UNL A   1      45.290  25.006  27.073  1.00  0.00     0.049 A 
ATOM     48  N   UNL A   1      43.145  26.904  27.833  1.00  0.00    -0.248 NA
ATOM     49  C   UNL A   1      41.633  25.123  27.888  1.00  0.00     0.031 C 
ATOM     50  C   UNL A   1      46.359  24.117  26.688  1.00  0.00     0.029 A 
ATOM     51  N   UNL A   1      45.930  26.215  27.211  1.00  0.00    -0.354 N 
ATOM     52  C   UNL A   1      41.899  27.367  28.213  1.00  0.00     0.074 A 
ATOM     53  C   UNL A   1      40.987  26.245  28.166  1.00  0.00     0.031 C 
ATOM     54  C   UNL A   1      47.518  24.776  26.579  1.00  0.00     0.029 A 
ATOM     55  C   UNL A   1      47.273  26.174  26.888  1.00  0.00     0.049 A 
ATOM     56  H   UNL A   1      45.474  27.033  27.513  1.00  0.00     0.167 HD
ATOM     57  C   UNL A   1      41.558  28.617  28.597  1.00  0.00     0.037 A 
ATOM     58  C   UNL A   1      48.204  27.146  26.828  1.00  0.00     0.037 A 
ATOM     59  C   UNL A   1      42.475  29.723  28.647  1.00  0.00     0.049 A 
ATOM     60  C   UNL A   1      47.782  28.536  27.201  1.00  0.00     0.074 A 
ATOM     61  C   UNL A   1      42.225  31.028  29.028  1.00  0.00     0.029 A 
ATOM     62  N   UNL A   1      43.820  29.656  28.304  1.00  0.00    -0.354 N 
ATOM     63  N   UNL A   1      46.596  28.960  27.560  1.00  0.00    -0.248 NA
ATOM     64  C   UNL A   1      48.814  29.580  27.173  1.00  0.00     0.031 C 
ATOM     65  C   UNL A   1      43.406  31.760  28.877  1.00  0.00     0.029 A 
ATOM     66  C   UNL A   1      44.409  30.901  28.461  1.00  0.00     0.049 A 
ATOM     67  H   UNL A   1      44.284  28.844  27.995  1.00  0.00     0.167 HD
ATOM     68  C   UNL A   1      46.740  30.309  27.832  1.00  0.00     0.074 A 
ATOM     69  C   UNL A   1      48.136  30.631  27.608  1.00  0.00     0.031 C 
ATOM     70  C   UNL A   1      45.801  31.198  28.235  1.00  0.00     0.037 A 
BRANCH  57  71
ATOM     71  C   UNL A   1      40.129  28.838  28.985  1.00  0.00     0.064 A 
ATOM     72  C   UNL A   1      39.154  29.175  28.032  1.00  0.00     0.173 A 
ATOM     73  C   UNL A   1      39.728  28.706  30.321  1.00  0.00     0.173 A 
ATOM     74  F   UNL A   1      39.495  29.345  26.746  1.00  0.00    -0.203 F 
ATOM     75  C   UNL A   1      37.833  29.393  28.409  1.00  0.00     0.198 A 
ATOM     76  C   UNL A   1      38.399  28.891  30.689  1.00  0.00     0.198 A 
ATOM     77  F   UNL A   1      40.626  28.398  31.270  1.00  0.00    -0.203 F 
ATOM     78  F   UNL A   1      36.930  29.770  27.494  1.00  0.00    -0.200 F 
ATOM     79  C   UNL A   1      37.454  29.240  29.735  1.00  0.00     0.200 A 
ATOM     80  F   UNL A   1      38.034  28.737  31.968  1.00  0.00    -0.200 F 
ATOM     81  F   UNL A   1      36.180  29.439  30.095  1.00  0.00    -0.200 F 
ENDBRANCH  57  71
BRANCH  58  82
ATOM     82  C   UNL A   1      49.598  26.852  26.385  1.00  0.00     0.064 A 
ATOM     83  C   UNL A   1      50.602  26.496  27.298  1.00  0.00     0.173 A 
ATOM     84  C   UNL A   1      49.962  26.948  25.032  1.00  0.00     0.173 A 
ATOM     85  F   UNL A   1      50.319  26.409  28.605  1.00  0.00    -0.203 F 
ATOM     86  C   UNL A   1      51.916  26.274  26.880  1.00  0.00     0.198 A 
ATOM     87  C   UNL A   1      51.267  26.693  24.612  1.00  0.00     0.198 A 
ATOM     88  F   UNL A   1      49.046  27.283  24.112  1.00  0.00    -0.203 F 
ATOM     89  F   UNL A   1      52.865  25.990  27.783  1.00  0.00    -0.200 F 
ATOM     90  C   UNL A   1      52.246  26.366  25.537  1.00  0.00     0.200 A 
ATOM     91  F   UNL A   1      51.576  26.771  23.309  1.00  0.00    -0.200 F 
ATOM     92  F   UNL A   1      53.506  26.152  25.136  1.00  0.00    -0.200 F 
ENDBRANCH  58  82
BRANCH  70  93
ATOM     93  C   UNL A   1      46.276  32.590  28.517  1.00  0.00     0.064 A 
ATOM     94  C   UNL A   1      46.280  33.588  27.532  1.00  0.00     0.173 A 
ATOM     95  C   UNL A   1      46.735  32.925  29.800  1.00  0.00     0.173 A 
ATOM     96  F   UNL A   1      45.871  33.308  26.285  1.00  0.00    -0.203 F 
ATOM     97  C   UNL A   1      46.762  34.862  27.812  1.00  0.00     0.198 A 
ATOM     98  C   UNL A   1      47.181  34.211  30.086  1.00  0.00     0.198 A 
ATOM     99  F   UNL A   1      46.747  32.005  30.777  1.00  0.00    -0.203 F 
ATOM    100  F   UNL A   1      46.822  35.782  26.839  1.00  0.00    -0.200 F 
ATOM    101  C   UNL A   1      47.207  35.174  29.089  1.00  0.00     0.200 A 
ATOM    102  F   UNL A   1      47.597  34.513  31.323  1.00  0.00    -0.200 F 
ATOM    103  F   UNL A   1      47.671  36.401  29.356  1.00  0.00    -0.200 F 
ENDBRANCH  70  93
ENDBRANCH  44  45
ENDBRANCH  37  39
ENDBRANCH  36  37
ENDBRANCH  35  36
ENDBRANCH  34  35
ENDBRANCH  33  34
ENDBRANCH   1  33
TORSDOF 20
ENDMDL
