MODEL 1
REMARK VINA RESULT:     -11.7      0.000      0.000
REMARK SMILES C[C@@H](C(=O)OCCOCCOC(=O)c1ccc(-c2c3nc(c(-c4c(F)c(F)c(F)c(F)c4F)c4ccc([nH]4)c(-c4c(F)c(F)c(F)c(F)c4F)c4nc(c(-c5c(F)c(F)c(F)c(F)c5F)c5ccc2[nH]5)C=C4)C=C3)cc1)c1ccc(C[C@H]2CCC[C@H]2O)cc1
REMARK SMILES IDX 7 1 6 2 5 3 3 4 4 5 2 6 1 7 77 8 78 9 89 10 79 11 88 12
REMARK SMILES IDX 80 13 81 14 82 15 83 16 86 17 84 18 85 19 87 20 8 22 9 23
REMARK SMILES IDX 10 24 11 25 12 26 13 27 14 28 15 29 76 30 16 31 75 32 17 33
REMARK SMILES IDX 18 34 19 35 69 36 20 37 74 38 68 39 70 40 21 41 73 42 67 43
REMARK SMILES IDX 66 44 22 46 54 47 34 48 53 49 35 50 38 51 52 52 71 53 36 54
REMARK SMILES IDX 37 55 51 57 72 58 39 59 23 60 24 61 32 62 25 63 26 64 30 65
REMARK SMILES IDX 33 66 27 67 28 68 31 69 29 70 55 71 56 72 64 73 57 74 58 75
REMARK SMILES IDX 62 76 65 77 59 78 60 79 63 80 61 81 40 82 41 83 49 84 42 85
REMARK SMILES IDX 43 86 47 87 50 88 44 89 45 90 48 91 46 92
REMARK H PARENT 87 21 70 45 38 56
REMARK Flexibility Score: inf
ROOT
ATOM      1  C   UNL A   1      33.581  26.956  25.886  1.00  0.00     0.202 C 
ENDROOT
BRANCH   1   2
ATOM      2  C   UNL A   1      33.694  25.443  25.686  1.00  0.00     0.261 C 
BRANCH   2   3
ATOM      3  O   UNL A   1      32.399  24.875  25.454  1.00  0.00    -0.463 OA
BRANCH   3   4
ATOM      4  C   UNL A   1      32.360  23.901  24.506  1.00  0.00     0.313 C 
ATOM      5  O   UNL A   1      32.617  22.721  24.722  1.00  0.00    -0.252 OA
BRANCH   4   6
ATOM      6  C   UNL A   1      31.854  24.428  23.161  1.00  0.00     0.126 C 
ATOM      7  C   UNL A   1      32.992  24.497  22.134  1.00  0.00     0.025 C 
BRANCH   6   8
ATOM      8  C   UNL A   1      31.003  25.697  23.282  1.00  0.00    -0.034 A 
ATOM      9  C   UNL A   1      29.749  25.648  23.914  1.00  0.00     0.005 A 
ATOM     10  C   UNL A   1      31.364  26.907  22.665  1.00  0.00     0.005 A 
ATOM     11  C   UNL A   1      28.867  26.731  23.867  1.00  0.00     0.004 A 
ATOM     12  C   UNL A   1      30.467  27.981  22.595  1.00  0.00     0.004 A 
ATOM     13  C   UNL A   1      29.182  27.874  23.132  1.00  0.00    -0.048 A 
BRANCH  13  14
ATOM     14  C   UNL A   1      28.126  28.917  22.852  1.00  0.00     0.041 C 
BRANCH  14  15
ATOM     15  C   UNL A   1      28.625  30.333  22.487  1.00  0.00     0.022 C 
ATOM     16  C   UNL A   1      28.212  30.861  21.101  1.00  0.00     0.007 C 
ATOM     17  C   UNL A   1      28.321  31.493  23.452  1.00  0.00     0.117 C 
ATOM     18  C   UNL A   1      28.098  32.382  21.235  1.00  0.00     0.003 C 
ATOM     19  C   UNL A   1      28.649  32.725  22.614  1.00  0.00     0.032 C 
BRANCH  17  20
ATOM     20  O   UNL A   1      26.972  31.589  23.871  1.00  0.00    -0.393 OA
ATOM     21  H   UNL A   1      26.941  31.756  24.825  1.00  0.00     0.210 HD
ENDBRANCH  17  20
ENDBRANCH  14  15
ENDBRANCH  13  14
ENDBRANCH   6   8
ENDBRANCH   4   6
ENDBRANCH   3   4
ENDBRANCH   2   3
ENDBRANCH   1   2
BRANCH   1  22
ATOM     22  O   UNL A   1      32.445  27.412  26.622  1.00  0.00    -0.374 OA
BRANCH  22  23
ATOM     23  C   UNL A   1      31.695  28.504  26.086  1.00  0.00     0.202 C 
BRANCH  23  24
ATOM     24  C   UNL A   1      31.876  29.865  26.773  1.00  0.00     0.261 C 
BRANCH  24  25
ATOM     25  O   UNL A   1      33.052  30.566  26.321  1.00  0.00    -0.460 OA
BRANCH  25  26
ATOM     26  C   UNL A   1      33.505  31.517  27.170  1.00  0.00     0.338 C 
ATOM     27  O   UNL A   1      32.889  32.480  27.608  1.00  0.00    -0.246 OA
BRANCH  26  28
ATOM     28  C   UNL A   1      34.848  31.170  27.666  1.00  0.00     0.060 A 
ATOM     29  C   UNL A   1      35.110  29.820  27.933  1.00  0.00     0.016 A 
ATOM     30  C   UNL A   1      35.793  32.150  27.977  1.00  0.00     0.016 A 
ATOM     31  C   UNL A   1      36.301  29.448  28.555  1.00  0.00     0.010 A 
ATOM     32  C   UNL A   1      36.984  31.776  28.611  1.00  0.00     0.010 A 
ATOM     33  C   UNL A   1      37.226  30.428  28.935  1.00  0.00    -0.014 A 
BRANCH  33  34
ATOM     34  C   UNL A   1      38.369  30.051  29.803  1.00  0.00     0.031 A 
ATOM     35  C   UNL A   1      39.391  29.078  29.284  1.00  0.00     0.074 A 
ATOM     36  C   UNL A   1      38.519  30.599  31.022  1.00  0.00     0.049 A 
ATOM     37  N   UNL A   1      40.459  28.600  29.872  1.00  0.00    -0.248 NA
ATOM     38  C   UNL A   1      39.183  28.578  27.916  1.00  0.00     0.031 C 
ATOM     39  C   UNL A   1      37.621  31.582  31.621  1.00  0.00     0.029 A 
ATOM     40  N   UNL A   1      39.487  30.400  31.975  1.00  0.00    -0.354 N 
ATOM     41  C   UNL A   1      41.048  27.746  28.948  1.00  0.00     0.074 A 
ATOM     42  C   UNL A   1      40.205  27.747  27.772  1.00  0.00     0.031 C 
ATOM     43  C   UNL A   1      38.073  31.894  32.848  1.00  0.00     0.029 A 
ATOM     44  C   UNL A   1      39.276  31.112  33.129  1.00  0.00     0.049 A 
ATOM     45  H   UNL A   1      40.259  29.802  31.843  1.00  0.00     0.167 HD
ATOM     46  C   UNL A   1      42.196  27.036  29.065  1.00  0.00     0.037 A 
ATOM     47  C   UNL A   1      39.965  31.116  34.286  1.00  0.00     0.037 A 
ATOM     48  C   UNL A   1      43.034  27.032  30.234  1.00  0.00     0.049 A 
ATOM     49  C   UNL A   1      41.201  30.263  34.418  1.00  0.00     0.074 A 
ATOM     50  C   UNL A   1      44.221  26.351  30.445  1.00  0.00     0.029 A 
ATOM     51  N   UNL A   1      42.770  27.743  31.396  1.00  0.00    -0.354 N 
ATOM     52  N   UNL A   1      41.762  29.475  33.532  1.00  0.00    -0.248 NA
ATOM     53  C   UNL A   1      41.901  30.303  35.710  1.00  0.00     0.031 C 
ATOM     54  C   UNL A   1      44.652  26.615  31.749  1.00  0.00     0.029 A 
ATOM     55  C   UNL A   1      43.760  27.498  32.335  1.00  0.00     0.049 A 
ATOM     56  H   UNL A   1      41.995  28.333  31.532  1.00  0.00     0.167 HD
ATOM     57  C   UNL A   1      42.889  28.948  34.148  1.00  0.00     0.074 A 
ATOM     58  C   UNL A   1      42.941  29.515  35.479  1.00  0.00     0.031 C 
ATOM     59  C   UNL A   1      43.801  28.074  33.654  1.00  0.00     0.037 A 
BRANCH  46  60
ATOM     60  C   UNL A   1      42.600  26.181  27.901  1.00  0.00     0.064 A 
ATOM     61  C   UNL A   1      42.117  24.873  27.746  1.00  0.00     0.173 A 
ATOM     62  C   UNL A   1      43.454  26.687  26.909  1.00  0.00     0.173 A 
ATOM     63  F   UNL A   1      41.309  24.339  28.675  1.00  0.00    -0.203 F 
ATOM     64  C   UNL A   1      42.493  24.095  26.654  1.00  0.00     0.198 A 
ATOM     65  C   UNL A   1      43.806  25.916  25.805  1.00  0.00     0.198 A 
ATOM     66  F   UNL A   1      43.940  27.934  27.007  1.00  0.00    -0.203 F 
ATOM     67  F   UNL A   1      42.053  22.833  26.550  1.00  0.00    -0.200 F 
ATOM     68  C   UNL A   1      43.332  24.619  25.682  1.00  0.00     0.200 A 
ATOM     69  F   UNL A   1      44.608  26.428  24.861  1.00  0.00    -0.200 F 
ATOM     70  F   UNL A   1      43.687  23.872  24.628  1.00  0.00    -0.200 F 
ENDBRANCH  46  60
BRANCH  47  71
ATOM     71  C   UNL A   1      39.495  31.947  35.424  1.00  0.00     0.064 A 
ATOM     72  C   UNL A   1      38.591  31.442  36.369  1.00  0.00     0.173 A 
ATOM     73  C   UNL A   1      39.929  33.273  35.579  1.00  0.00     0.173 A 
ATOM     74  F   UNL A   1      38.127  30.190  36.247  1.00  0.00    -0.203 F 
ATOM     75  C   UNL A   1      38.126  32.236  37.416  1.00  0.00     0.198 A 
ATOM     76  C   UNL A   1      39.485  34.057  36.641  1.00  0.00     0.198 A 
ATOM     77  F   UNL A   1      40.790  33.804  34.699  1.00  0.00    -0.203 F 
ATOM     78  F   UNL A   1      37.228  31.743  38.279  1.00  0.00    -0.200 F 
ATOM     79  C   UNL A   1      38.578  33.540  37.555  1.00  0.00     0.200 A 
ATOM     80  F   UNL A   1      39.930  35.313  36.776  1.00  0.00    -0.200 F 
ATOM     81  F   UNL A   1      38.132  34.302  38.562  1.00  0.00    -0.200 F 
ENDBRANCH  47  71
BRANCH  59  82
ATOM     82  C   UNL A   1      44.949  27.698  34.544  1.00  0.00     0.064 A 
ATOM     83  C   UNL A   1      46.115  28.473  34.608  1.00  0.00     0.173 A 
ATOM     84  C   UNL A   1      44.862  26.571  35.377  1.00  0.00     0.173 A 
ATOM     85  F   UNL A   1      46.253  29.552  33.823  1.00  0.00    -0.203 F 
ATOM     86  C   UNL A   1      47.162  28.122  35.457  1.00  0.00     0.198 A 
ATOM     87  C   UNL A   1      45.899  26.238  36.244  1.00  0.00     0.198 A 
ATOM     88  F   UNL A   1      43.765  25.800  35.359  1.00  0.00    -0.203 F 
ATOM     89  F   UNL A   1      48.284  28.854  35.471  1.00  0.00    -0.200 F 
ATOM     90  C   UNL A   1      47.051  27.010  36.278  1.00  0.00     0.200 A 
ATOM     91  F   UNL A   1      45.784  25.171  37.046  1.00  0.00    -0.200 F 
ATOM     92  F   UNL A   1      48.056  26.679  37.100  1.00  0.00    -0.200 F 
ENDBRANCH  59  82
ENDBRANCH  33  34
ENDBRANCH  26  28
ENDBRANCH  25  26
ENDBRANCH  24  25
ENDBRANCH  23  24
ENDBRANCH  22  23
ENDBRANCH   1  22
TORSDOF 18
ENDMDL
MODEL 2
REMARK VINA RESULT:     -11.5      4.160      9.155
REMARK SMILES C[C@@H](C(=O)OCCOCCOC(=O)c1ccc(-c2c3nc(c(-c4c(F)c(F)c(F)c(F)c4F)c4ccc([nH]4)c(-c4c(F)c(F)c(F)c(F)c4F)c4nc(c(-c5c(F)c(F)c(F)c(F)c5F)c5ccc2[nH]5)C=C4)C=C3)cc1)c1ccc(C[C@H]2CCC[C@H]2O)cc1
REMARK SMILES IDX 7 1 6 2 5 3 3 4 4 5 2 6 1 7 77 8 78 9 89 10 79 11 88 12
REMARK SMILES IDX 80 13 81 14 82 15 83 16 86 17 84 18 85 19 87 20 8 22 9 23
REMARK SMILES IDX 10 24 11 25 12 26 13 27 14 28 15 29 76 30 16 31 75 32 17 33
REMARK SMILES IDX 18 34 19 35 69 36 20 37 74 38 68 39 70 40 21 41 73 42 67 43
REMARK SMILES IDX 66 44 22 46 54 47 34 48 53 49 35 50 38 51 52 52 71 53 36 54
REMARK SMILES IDX 37 55 51 57 72 58 39 59 23 60 24 61 32 62 25 63 26 64 30 65
REMARK SMILES IDX 33 66 27 67 28 68 31 69 29 70 55 71 56 72 64 73 57 74 58 75
REMARK SMILES IDX 62 76 65 77 59 78 60 79 63 80 61 81 40 82 41 83 49 84 42 85
REMARK SMILES IDX 43 86 47 87 50 88 44 89 45 90 48 91 46 92
REMARK H PARENT 87 21 70 45 38 56
REMARK Flexibility Score: inf
ROOT
ATOM      1  C   UNL A   1      33.402  20.945  25.537  1.00  0.00     0.202 C 
ENDROOT
BRANCH   1   2
ATOM      2  C   UNL A   1      32.774  21.556  24.283  1.00  0.00     0.261 C 
BRANCH   2   3
ATOM      3  O   UNL A   1      31.914  22.645  24.639  1.00  0.00    -0.463 OA
BRANCH   3   4
ATOM      4  C   UNL A   1      32.399  23.881  24.345  1.00  0.00     0.313 C 
ATOM      5  O   UNL A   1      33.244  24.464  25.015  1.00  0.00    -0.252 OA
BRANCH   4   6
ATOM      6  C   UNL A   1      31.844  24.416  23.023  1.00  0.00     0.126 C 
ATOM      7  C   UNL A   1      32.940  24.471  21.949  1.00  0.00     0.025 C 
BRANCH   6   8
ATOM      8  C   UNL A   1      31.016  25.696  23.179  1.00  0.00    -0.034 A 
ATOM      9  C   UNL A   1      29.815  25.674  23.908  1.00  0.00     0.005 A 
ATOM     10  C   UNL A   1      31.337  26.887  22.507  1.00  0.00     0.005 A 
ATOM     11  C   UNL A   1      28.942  26.764  23.905  1.00  0.00     0.004 A 
ATOM     12  C   UNL A   1      30.446  27.968  22.481  1.00  0.00     0.004 A 
ATOM     13  C   UNL A   1      29.206  27.887  23.120  1.00  0.00    -0.048 A 
BRANCH  13  14
ATOM     14  C   UNL A   1      28.140  28.933  22.898  1.00  0.00     0.041 C 
BRANCH  14  15
ATOM     15  C   UNL A   1      28.621  30.339  22.475  1.00  0.00     0.022 C 
ATOM     16  C   UNL A   1      28.171  30.819  21.082  1.00  0.00     0.007 C 
ATOM     17  C   UNL A   1      28.333  31.529  23.407  1.00  0.00     0.117 C 
ATOM     18  C   UNL A   1      28.051  32.343  21.169  1.00  0.00     0.003 C 
ATOM     19  C   UNL A   1      28.633  32.734  22.522  1.00  0.00     0.032 C 
BRANCH  17  20
ATOM     20  O   UNL A   1      26.994  31.631  23.856  1.00  0.00    -0.393 OA
ATOM     21  H   UNL A   1      26.683  32.542  23.738  1.00  0.00     0.210 HD
ENDBRANCH  17  20
ENDBRANCH  14  15
ENDBRANCH  13  14
ENDBRANCH   6   8
ENDBRANCH   4   6
ENDBRANCH   3   4
ENDBRANCH   2   3
ENDBRANCH   1   2
BRANCH   1  22
ATOM     22  O   UNL A   1      34.808  21.140  25.699  1.00  0.00    -0.374 OA
BRANCH  22  23
ATOM     23  C   UNL A   1      35.691  20.283  24.972  1.00  0.00     0.202 C 
BRANCH  23  24
ATOM     24  C   UNL A   1      37.120  20.799  24.751  1.00  0.00     0.261 C 
BRANCH  24  25
ATOM     25  O   UNL A   1      37.617  21.564  25.866  1.00  0.00    -0.460 OA
BRANCH  25  26
ATOM     26  C   UNL A   1      38.944  21.430  26.098  1.00  0.00     0.338 C 
ATOM     27  O   UNL A   1      39.670  20.506  25.756  1.00  0.00    -0.246 OA
BRANCH  26  28
ATOM     28  C   UNL A   1      39.489  22.656  26.706  1.00  0.00     0.060 A 
ATOM     29  C   UNL A   1      38.988  23.882  26.249  1.00  0.00     0.016 A 
ATOM     30  C   UNL A   1      40.548  22.617  27.616  1.00  0.00     0.016 A 
ATOM     31  C   UNL A   1      39.574  25.076  26.666  1.00  0.00     0.010 A 
ATOM     32  C   UNL A   1      41.142  23.817  28.024  1.00  0.00     0.010 A 
ATOM     33  C   UNL A   1      40.681  25.049  27.523  1.00  0.00    -0.014 A 
BRANCH  33  34
ATOM     34  C   UNL A   1      41.442  26.300  27.766  1.00  0.00     0.031 A 
ATOM     35  C   UNL A   1      40.786  27.418  28.528  1.00  0.00     0.074 A 
ATOM     36  C   UNL A   1      42.716  26.424  27.353  1.00  0.00     0.049 A 
ATOM     37  N   UNL A   1      41.256  28.598  28.845  1.00  0.00    -0.248 NA
ATOM     38  C   UNL A   1      39.413  27.171  29.000  1.00  0.00     0.031 C 
ATOM     39  C   UNL A   1      43.475  25.398  26.643  1.00  0.00     0.029 A 
ATOM     40  N   UNL A   1      43.593  27.472  27.473  1.00  0.00    -0.354 N 
ATOM     41  C   UNL A   1      40.242  29.231  29.550  1.00  0.00     0.074 A 
ATOM     42  C   UNL A   1      39.118  28.320  29.590  1.00  0.00     0.031 C 
ATOM     43  C   UNL A   1      44.704  25.874  26.378  1.00  0.00     0.029 A 
ATOM     44  C   UNL A   1      44.807  27.244  26.877  1.00  0.00     0.049 A 
ATOM     45  H   UNL A   1      43.372  28.310  27.943  1.00  0.00     0.167 HD
ATOM     46  C   UNL A   1      40.250  30.459  30.124  1.00  0.00     0.037 A 
ATOM     47  C   UNL A   1      45.872  28.057  26.733  1.00  0.00     0.037 A 
ATOM     48  C   UNL A   1      41.364  31.368  30.085  1.00  0.00     0.049 A 
ATOM     49  C   UNL A   1      45.832  29.444  27.320  1.00  0.00     0.074 A 
ATOM     50  C   UNL A   1      41.471  32.630  30.643  1.00  0.00     0.029 A 
ATOM     51  N   UNL A   1      42.567  31.112  29.443  1.00  0.00    -0.354 N 
ATOM     52  N   UNL A   1      44.876  30.027  28.003  1.00  0.00    -0.248 NA
ATOM     53  C   UNL A   1      47.021  30.285  27.119  1.00  0.00     0.031 C 
ATOM     54  C   UNL A   1      42.722  33.155  30.303  1.00  0.00     0.029 A 
ATOM     55  C   UNL A   1      43.413  32.202  29.572  1.00  0.00     0.049 A 
ATOM     56  H   UNL A   1      42.786  30.280  28.966  1.00  0.00     0.167 HD
ATOM     57  C   UNL A   1      45.356  31.288  28.333  1.00  0.00     0.074 A 
ATOM     58  C   UNL A   1      46.694  31.381  27.787  1.00  0.00     0.031 C 
ATOM     59  C   UNL A   1      44.744  32.279  29.028  1.00  0.00     0.037 A 
BRANCH  46  60
ATOM     60  C   UNL A   1      39.001  30.900  30.828  1.00  0.00     0.064 A 
ATOM     61  C   UNL A   1      37.951  31.527  30.139  1.00  0.00     0.173 A 
ATOM     62  C   UNL A   1      38.836  30.664  32.201  1.00  0.00     0.173 A 
ATOM     63  F   UNL A   1      38.067  31.788  28.828  1.00  0.00    -0.203 F 
ATOM     64  C   UNL A   1      36.793  31.921  30.804  1.00  0.00     0.198 A 
ATOM     65  C   UNL A   1      37.666  31.035  32.857  1.00  0.00     0.198 A 
ATOM     66  F   UNL A   1      39.808  30.064  32.905  1.00  0.00    -0.203 F 
ATOM     67  F   UNL A   1      35.821  32.557  30.133  1.00  0.00    -0.200 F 
ATOM     68  C   UNL A   1      36.649  31.670  32.160  1.00  0.00     0.200 A 
ATOM     69  F   UNL A   1      37.524  30.782  34.165  1.00  0.00    -0.200 F 
ATOM     70  F   UNL A   1      35.532  32.044  32.797  1.00  0.00    -0.200 F 
ENDBRANCH  46  60
BRANCH  47  71
ATOM     71  C   UNL A   1      47.068  27.584  25.988  1.00  0.00     0.064 A 
ATOM     72  C   UNL A   1      48.164  27.020  26.655  1.00  0.00     0.173 A 
ATOM     73  C   UNL A   1      47.144  27.705  24.592  1.00  0.00     0.173 A 
ATOM     74  F   UNL A   1      48.148  26.910  27.991  1.00  0.00    -0.203 F 
ATOM     75  C   UNL A   1      49.297  26.609  25.956  1.00  0.00     0.198 A 
ATOM     76  C   UNL A   1      48.266  27.269  23.892  1.00  0.00     0.198 A 
ATOM     77  F   UNL A   1      46.124  28.242  23.908  1.00  0.00    -0.203 F 
ATOM     78  F   UNL A   1      50.349  26.115  26.623  1.00  0.00    -0.200 F 
ATOM     79  C   UNL A   1      49.345  26.728  24.575  1.00  0.00     0.200 A 
ATOM     80  F   UNL A   1      48.305  27.377  22.557  1.00  0.00    -0.200 F 
ATOM     81  F   UNL A   1      50.434  26.332  23.904  1.00  0.00    -0.200 F 
ENDBRANCH  47  71
BRANCH  59  82
ATOM     82  C   UNL A   1      45.523  33.539  29.264  1.00  0.00     0.064 A 
ATOM     83  C   UNL A   1      45.445  34.628  28.384  1.00  0.00     0.173 A 
ATOM     84  C   UNL A   1      46.324  33.675  30.409  1.00  0.00     0.173 A 
ATOM     85  F   UNL A   1      44.704  34.544  27.269  1.00  0.00    -0.203 F 
ATOM     86  C   UNL A   1      46.157  35.799  28.630  1.00  0.00     0.198 A 
ATOM     87  C   UNL A   1      47.014  34.857  30.665  1.00  0.00     0.198 A 
ATOM     88  F   UNL A   1      46.428  32.665  31.285  1.00  0.00    -0.203 F 
ATOM     89  F   UNL A   1      46.100  36.812  27.755  1.00  0.00    -0.200 F 
ATOM     90  C   UNL A   1      46.934  35.915  29.773  1.00  0.00     0.200 A 
ATOM     91  F   UNL A   1      47.754  34.971  31.776  1.00  0.00    -0.200 F 
ATOM     92  F   UNL A   1      47.613  37.046  30.012  1.00  0.00    -0.200 F 
ENDBRANCH  59  82
ENDBRANCH  33  34
ENDBRANCH  26  28
ENDBRANCH  25  26
ENDBRANCH  24  25
ENDBRANCH  23  24
ENDBRANCH  22  23
ENDBRANCH   1  22
TORSDOF 18
ENDMDL
MODEL 3
REMARK VINA RESULT:     -11.5      3.995     10.121
REMARK SMILES C[C@@H](C(=O)OCCOCCOC(=O)c1ccc(-c2c3nc(c(-c4c(F)c(F)c(F)c(F)c4F)c4ccc([nH]4)c(-c4c(F)c(F)c(F)c(F)c4F)c4nc(c(-c5c(F)c(F)c(F)c(F)c5F)c5ccc2[nH]5)C=C4)C=C3)cc1)c1ccc(C[C@H]2CCC[C@H]2O)cc1
REMARK SMILES IDX 7 1 6 2 5 3 3 4 4 5 2 6 1 7 77 8 78 9 89 10 79 11 88 12
REMARK SMILES IDX 80 13 81 14 82 15 83 16 86 17 84 18 85 19 87 20 8 22 9 23
REMARK SMILES IDX 10 24 11 25 12 26 13 27 14 28 15 29 76 30 16 31 75 32 17 33
REMARK SMILES IDX 18 34 19 35 69 36 20 37 74 38 68 39 70 40 21 41 73 42 67 43
REMARK SMILES IDX 66 44 22 46 54 47 34 48 53 49 35 50 38 51 52 52 71 53 36 54
REMARK SMILES IDX 37 55 51 57 72 58 39 59 23 60 24 61 32 62 25 63 26 64 30 65
REMARK SMILES IDX 33 66 27 67 28 68 31 69 29 70 55 71 56 72 64 73 57 74 58 75
REMARK SMILES IDX 62 76 65 77 59 78 60 79 63 80 61 81 40 82 41 83 49 84 42 85
REMARK SMILES IDX 43 86 47 87 50 88 44 89 45 90 48 91 46 92
REMARK H PARENT 87 21 70 45 38 56
REMARK Flexibility Score: inf
ROOT
ATOM      1  C   UNL A   1      32.892  35.718  30.250  1.00  0.00     0.202 C 
ENDROOT
BRANCH   1   2
ATOM      2  C   UNL A   1      33.121  35.646  31.761  1.00  0.00     0.261 C 
BRANCH   2   3
ATOM      3  O   UNL A   1      34.516  35.478  32.044  1.00  0.00    -0.463 OA
BRANCH   3   4
ATOM      4  C   UNL A   1      34.845  34.298  32.633  1.00  0.00     0.313 C 
ATOM      5  O   UNL A   1      34.567  34.008  33.792  1.00  0.00    -0.252 OA
BRANCH   4   6
ATOM      6  C   UNL A   1      35.509  33.331  31.651  1.00  0.00     0.126 C 
ATOM      7  C   UNL A   1      35.489  31.895  32.193  1.00  0.00     0.025 C 
BRANCH   6   8
ATOM      8  C   UNL A   1      36.869  33.818  31.137  1.00  0.00    -0.034 A 
ATOM      9  C   UNL A   1      37.230  33.614  29.795  1.00  0.00     0.005 A 
ATOM     10  C   UNL A   1      37.847  34.355  31.991  1.00  0.00     0.005 A 
ATOM     11  C   UNL A   1      38.528  33.865  29.344  1.00  0.00     0.004 A 
ATOM     12  C   UNL A   1      39.156  34.578  31.544  1.00  0.00     0.004 A 
ATOM     13  C   UNL A   1      39.526  34.265  30.234  1.00  0.00    -0.048 A 
BRANCH  13  14
ATOM     14  C   UNL A   1      40.975  34.263  29.808  1.00  0.00     0.041 C 
BRANCH  14  15
ATOM     15  C   UNL A   1      41.885  33.184  30.436  1.00  0.00     0.022 C 
ATOM     16  C   UNL A   1      41.958  31.839  29.689  1.00  0.00     0.007 C 
ATOM     17  C   UNL A   1      43.351  33.541  30.738  1.00  0.00     0.117 C 
ATOM     18  C   UNL A   1      43.356  31.275  29.953  1.00  0.00     0.003 C 
ATOM     19  C   UNL A   1      43.983  32.179  31.008  1.00  0.00     0.032 C 
BRANCH  17  20
ATOM     20  O   UNL A   1      44.054  34.152  29.671  1.00  0.00    -0.393 OA
ATOM     21  H   UNL A   1      44.037  33.568  28.898  1.00  0.00     0.210 HD
ENDBRANCH  17  20
ENDBRANCH  14  15
ENDBRANCH  13  14
ENDBRANCH   6   8
ENDBRANCH   4   6
ENDBRANCH   3   4
ENDBRANCH   2   3
ENDBRANCH   1   2
BRANCH   1  22
ATOM     22  O   UNL A   1      34.063  35.819  29.438  1.00  0.00    -0.374 OA
BRANCH  22  23
ATOM     23  C   UNL A   1      34.120  35.035  28.245  1.00  0.00     0.202 C 
BRANCH  23  24
ATOM     24  C   UNL A   1      33.803  33.540  28.390  1.00  0.00     0.261 C 
BRANCH  24  25
ATOM     25  O   UNL A   1      34.695  32.703  27.627  1.00  0.00    -0.460 OA
BRANCH  25  26
ATOM     26  C   UNL A   1      34.413  31.380  27.679  1.00  0.00     0.338 C 
ATOM     27  O   UNL A   1      33.374  30.826  27.345  1.00  0.00    -0.246 OA
BRANCH  26  28
ATOM     28  C   UNL A   1      35.611  30.611  28.054  1.00  0.00     0.060 A 
ATOM     29  C   UNL A   1      35.564  29.882  29.250  1.00  0.00     0.016 A 
ATOM     30  C   UNL A   1      36.796  30.691  27.319  1.00  0.00     0.016 A 
ATOM     31  C   UNL A   1      36.715  29.267  29.740  1.00  0.00     0.010 A 
ATOM     32  C   UNL A   1      37.954  30.082  27.818  1.00  0.00     0.010 A 
ATOM     33  C   UNL A   1      37.926  29.398  29.049  1.00  0.00    -0.014 A 
BRANCH  33  34
ATOM     34  C   UNL A   1      39.184  28.949  29.695  1.00  0.00     0.031 A 
ATOM     35  C   UNL A   1      39.641  29.629  30.956  1.00  0.00     0.074 A 
ATOM     36  C   UNL A   1      39.889  27.921  29.192  1.00  0.00     0.049 A 
ATOM     37  N   UNL A   1      40.709  29.410  31.681  1.00  0.00    -0.248 NA
ATOM     38  C   UNL A   1      38.774  30.701  31.472  1.00  0.00     0.031 C 
ATOM     39  C   UNL A   1      39.530  27.155  28.002  1.00  0.00     0.029 A 
ATOM     40  N   UNL A   1      41.059  27.347  29.624  1.00  0.00    -0.354 N 
ATOM     41  C   UNL A   1      40.642  30.312  32.734  1.00  0.00     0.074 A 
ATOM     42  C   UNL A   1      39.446  31.104  32.541  1.00  0.00     0.031 C 
ATOM     43  C   UNL A   1      40.469  26.216  27.790  1.00  0.00     0.029 A 
ATOM     44  C   UNL A   1      41.506  26.334  28.813  1.00  0.00     0.049 A 
ATOM     45  H   UNL A   1      41.533  27.635  30.438  1.00  0.00     0.167 HD
ATOM     46  C   UNL A   1      41.495  30.459  33.777  1.00  0.00     0.037 A 
ATOM     47  C   UNL A   1      42.634  25.600  28.880  1.00  0.00     0.037 A 
ATOM     48  C   UNL A   1      42.686  29.676  33.970  1.00  0.00     0.049 A 
ATOM     49  C   UNL A   1      43.603  25.830  30.011  1.00  0.00     0.074 A 
ATOM     50  C   UNL A   1      43.609  29.745  35.000  1.00  0.00     0.029 A 
ATOM     51  N   UNL A   1      43.122  28.679  33.109  1.00  0.00    -0.354 N 
ATOM     52  N   UNL A   1      43.522  26.671  31.014  1.00  0.00    -0.248 NA
ATOM     53  C   UNL A   1      44.820  25.005  30.021  1.00  0.00     0.031 C 
ATOM     54  C   UNL A   1      44.626  28.820  34.739  1.00  0.00     0.029 A 
ATOM     55  C   UNL A   1      44.313  28.142  33.572  1.00  0.00     0.049 A 
ATOM     56  H   UNL A   1      42.654  28.396  32.291  1.00  0.00     0.167 HD
ATOM     57  C   UNL A   1      44.658  26.460  31.784  1.00  0.00     0.074 A 
ATOM     58  C   UNL A   1      45.408  25.402  31.140  1.00  0.00     0.031 C 
ATOM     59  C   UNL A   1      45.045  27.085  32.923  1.00  0.00     0.037 A 
BRANCH  46  60
ATOM     60  C   UNL A   1      41.181  31.529  34.780  1.00  0.00     0.064 A 
ATOM     61  C   UNL A   1      40.242  31.324  35.803  1.00  0.00     0.173 A 
ATOM     62  C   UNL A   1      41.849  32.762  34.739  1.00  0.00     0.173 A 
ATOM     63  F   UNL A   1      39.567  30.167  35.876  1.00  0.00    -0.203 F 
ATOM     64  C   UNL A   1      39.968  32.323  36.734  1.00  0.00     0.198 A 
ATOM     65  C   UNL A   1      41.592  33.748  35.687  1.00  0.00     0.198 A 
ATOM     66  F   UNL A   1      42.758  33.006  33.784  1.00  0.00    -0.203 F 
ATOM     67  F   UNL A   1      39.037  32.120  37.677  1.00  0.00    -0.200 F 
ATOM     68  C   UNL A   1      40.647  33.531  36.679  1.00  0.00     0.200 A 
ATOM     69  F   UNL A   1      42.256  34.911  35.639  1.00  0.00    -0.200 F 
ATOM     70  F   UNL A   1      40.387  34.489  37.579  1.00  0.00    -0.200 F 
ENDBRANCH  46  60
BRANCH  47  71
ATOM     71  C   UNL A   1      42.918  24.584  27.834  1.00  0.00     0.064 A 
ATOM     72  C   UNL A   1      42.539  23.245  28.001  1.00  0.00     0.173 A 
ATOM     73  C   UNL A   1      43.592  24.931  26.654  1.00  0.00     0.173 A 
ATOM     74  F   UNL A   1      41.918  22.861  29.125  1.00  0.00    -0.203 F 
ATOM     75  C   UNL A   1      42.837  22.287  27.033  1.00  0.00     0.198 A 
ATOM     76  C   UNL A   1      43.866  23.978  25.675  1.00  0.00     0.198 A 
ATOM     77  F   UNL A   1      43.980  26.197  26.449  1.00  0.00    -0.203 F 
ATOM     78  F   UNL A   1      42.504  21.006  27.237  1.00  0.00    -0.200 F 
ATOM     79  C   UNL A   1      43.494  22.656  25.868  1.00  0.00     0.200 A 
ATOM     80  F   UNL A   1      44.493  24.340  24.547  1.00  0.00    -0.200 F 
ATOM     81  F   UNL A   1      43.779  21.736  24.937  1.00  0.00    -0.200 F 
ENDBRANCH  47  71
BRANCH  59  82
ATOM     82  C   UNL A   1      46.321  26.624  33.565  1.00  0.00     0.064 A 
ATOM     83  C   UNL A   1      47.551  27.228  33.273  1.00  0.00     0.173 A 
ATOM     84  C   UNL A   1      46.304  25.593  34.518  1.00  0.00     0.173 A 
ATOM     85  F   UNL A   1      47.623  28.209  32.360  1.00  0.00    -0.203 F 
ATOM     86  C   UNL A   1      48.723  26.803  33.894  1.00  0.00     0.198 A 
ATOM     87  C   UNL A   1      47.473  25.189  35.156  1.00  0.00     0.198 A 
ATOM     88  F   UNL A   1      45.152  24.987  34.837  1.00  0.00    -0.203 F 
ATOM     89  F   UNL A   1      49.894  27.367  33.569  1.00  0.00    -0.200 F 
ATOM     90  C   UNL A   1      48.681  25.790  34.840  1.00  0.00     0.200 A 
ATOM     91  F   UNL A   1      47.428  24.218  36.079  1.00  0.00    -0.200 F 
ATOM     92  F   UNL A   1      49.809  25.387  35.443  1.00  0.00    -0.200 F 
ENDBRANCH  59  82
ENDBRANCH  33  34
ENDBRANCH  26  28
ENDBRANCH  25  26
ENDBRANCH  24  25
ENDBRANCH  23  24
ENDBRANCH  22  23
ENDBRANCH   1  22
TORSDOF 18
ENDMDL
