MODEL 1
REMARK VINA RESULT:     -13.3      0.000      0.000
REMARK SMILES Cc1ccc(-c2cc([C@@H](C)C(=O)OCCOCCOC(=O)c3ccc(-c4c5nc(c(-c6c(F)c(F)c(F)c(F)c6F)c6ccc([nH]6)c(-c6c(F)c(F)c(F)c(F)c6F)c6nc(c(-c7c(F)c(F)c(F)c(F)c7F)c7ccc4[nH]7)C=C6)C=C5)cc3)ccc2C[C@H]2CCCC2=O)cc1
REMARK SMILES IDX 15 1 14 2 13 3 11 4 12 5 9 6 10 7 8 8 6 9 7 10 87 11 86 12
REMARK SMILES IDX 85 13 5 14 1 15 2 16 3 17 96 18 4 19 95 20 88 21 89 22 90 23
REMARK SMILES IDX 93 24 91 25 92 26 94 27 16 28 17 29 18 30 19 31 20 32 21 33
REMARK SMILES IDX 22 34 23 35 84 36 24 37 83 38 25 39 26 40 27 41 77 42 28 43
REMARK SMILES IDX 82 44 76 45 78 46 29 47 81 48 75 49 74 50 30 52 62 53 42 54
REMARK SMILES IDX 61 55 43 56 46 57 60 58 79 59 44 60 45 61 59 63 80 64 47 65
REMARK SMILES IDX 31 66 32 67 40 68 33 69 34 70 38 71 41 72 35 73 36 74 39 75
REMARK SMILES IDX 37 76 63 77 64 78 72 79 65 80 66 81 70 82 73 83 67 84 68 85
REMARK SMILES IDX 71 86 69 87 48 88 49 89 57 90 50 91 51 92 55 93 58 94 52 95
REMARK SMILES IDX 53 96 56 97 54 98
REMARK H PARENT 78 51 46 62
REMARK Flexibility Score: inf
ROOT
ATOM      1  C   UNL A   1      35.525  23.328  26.032  1.00  0.00     0.202 C 
ENDROOT
BRANCH   1   2
ATOM      2  C   UNL A   1      34.149  23.346  26.622  1.00  0.00     0.261 C 
BRANCH   2   3
ATOM      3  O   UNL A   1      33.123  23.790  25.723  1.00  0.00    -0.463 OA
BRANCH   3   4
ATOM      4  C   UNL A   1      31.849  23.962  26.200  1.00  0.00     0.313 C 
ATOM      5  O   UNL A   1      31.533  24.038  27.366  1.00  0.00    -0.252 OA
BRANCH   4   6
ATOM      6  C   UNL A   1      30.887  24.072  25.012  1.00  0.00     0.126 C 
ATOM      7  C   UNL A   1      31.385  23.255  23.823  1.00  0.00     0.025 C 
BRANCH   6   8
ATOM      8  C   UNL A   1      30.638  25.548  24.711  1.00  0.00    -0.033 A 
ATOM      9  C   UNL A   1      31.468  27.855  24.797  1.00  0.00    -0.015 A 
ATOM     10  C   UNL A   1      31.516  26.509  25.219  1.00  0.00     0.013 A 
ATOM     11  C   UNL A   1      30.577  28.231  23.762  1.00  0.00    -0.039 A 
ATOM     12  C   UNL A   1      29.677  27.267  23.281  1.00  0.00     0.004 A 
ATOM     13  C   UNL A   1      29.675  25.963  23.781  1.00  0.00     0.005 A 
BRANCH   9  14
ATOM     14  C   UNL A   1      32.245  28.820  25.583  1.00  0.00    -0.018 A 
ATOM     15  C   UNL A   1      34.274  31.634  28.150  1.00  0.00     0.044 C 
ATOM     16  C   UNL A   1      33.586  30.647  27.256  1.00  0.00    -0.051 A 
ATOM     17  C   UNL A   1      32.259  30.875  26.885  1.00  0.00     0.004 A 
ATOM     18  C   UNL A   1      34.240  29.500  26.791  1.00  0.00     0.004 A 
ATOM     19  C   UNL A   1      31.596  29.966  26.066  1.00  0.00     0.009 A 
ATOM     20  C   UNL A   1      33.574  28.591  25.961  1.00  0.00     0.009 A 
ENDBRANCH   9  14
BRANCH  11  21
ATOM     21  C   UNL A   1      30.449  29.652  23.240  1.00  0.00     0.047 C 
BRANCH  21  22
ATOM     22  C   UNL A   1      29.100  30.384  23.294  1.00  0.00     0.060 C 
ATOM     23  C   UNL A   1      29.072  31.756  23.968  1.00  0.00     0.012 C 
ATOM     24  C   UNL A   1      28.466  30.649  21.946  1.00  0.00     0.136 C 
ATOM     25  C   UNL A   1      28.902  32.769  22.851  1.00  0.00     0.009 C 
ATOM     26  C   UNL A   1      28.099  32.093  21.757  1.00  0.00     0.076 C 
ATOM     27  O   UNL A   1      28.221  29.775  21.124  1.00  0.00    -0.299 OA
ENDBRANCH  21  22
ENDBRANCH  11  21
ENDBRANCH   6   8
ENDBRANCH   4   6
ENDBRANCH   3   4
ENDBRANCH   2   3
ENDBRANCH   1   2
BRANCH   1  28
ATOM     28  O   UNL A   1      35.788  22.014  25.577  1.00  0.00    -0.374 OA
BRANCH  28  29
ATOM     29  C   UNL A   1      37.161  21.671  25.487  1.00  0.00     0.202 C 
BRANCH  29  30
ATOM     30  C   UNL A   1      38.121  22.846  25.742  1.00  0.00     0.261 C 
BRANCH  30  31
ATOM     31  O   UNL A   1      39.102  22.493  26.740  1.00  0.00    -0.460 OA
BRANCH  31  32
ATOM     32  C   UNL A   1      40.258  23.215  26.731  1.00  0.00     0.338 C 
ATOM     33  O   UNL A   1      41.385  22.747  26.809  1.00  0.00    -0.246 OA
BRANCH  32  34
ATOM     34  C   UNL A   1      39.942  24.665  26.907  1.00  0.00     0.060 A 
ATOM     35  C   UNL A   1      40.528  25.639  26.076  1.00  0.00     0.016 A 
ATOM     36  C   UNL A   1      39.351  25.051  28.105  1.00  0.00     0.016 A 
ATOM     37  C   UNL A   1      40.653  26.969  26.519  1.00  0.00     0.010 A 
ATOM     38  C   UNL A   1      39.618  26.309  28.594  1.00  0.00     0.010 A 
ATOM     39  C   UNL A   1      40.277  27.284  27.823  1.00  0.00    -0.014 A 
BRANCH  39  40
ATOM     40  C   UNL A   1      40.604  28.506  28.576  1.00  0.00     0.031 A 
ATOM     41  C   UNL A   1      39.555  29.548  28.704  1.00  0.00     0.074 A 
ATOM     42  C   UNL A   1      41.654  28.548  29.436  1.00  0.00     0.049 A 
ATOM     43  N   UNL A   1      39.735  30.685  29.276  1.00  0.00    -0.248 NA
ATOM     44  C   UNL A   1      38.194  29.390  28.200  1.00  0.00     0.031 C 
ATOM     45  C   UNL A   1      41.769  29.334  30.671  1.00  0.00     0.029 A 
ATOM     46  N   UNL A   1      42.877  27.861  29.403  1.00  0.00    -0.354 N 
ATOM     47  C   UNL A   1      38.501  31.229  29.538  1.00  0.00     0.074 A 
ATOM     48  C   UNL A   1      37.574  30.410  28.794  1.00  0.00     0.031 C 
ATOM     49  C   UNL A   1      43.041  29.317  31.098  1.00  0.00     0.029 A 
ATOM     50  C   UNL A   1      43.827  28.652  30.080  1.00  0.00     0.049 A 
ATOM     51  H   UNL A   1      43.041  26.986  28.982  1.00  0.00     0.167 HD
ATOM     52  C   UNL A   1      38.416  32.238  30.453  1.00  0.00     0.037 A 
ATOM     53  C   UNL A   1      44.931  29.102  29.427  1.00  0.00     0.037 A 
ATOM     54  C   UNL A   1      39.752  32.590  30.976  1.00  0.00     0.049 A 
ATOM     55  C   UNL A   1      44.875  30.602  29.303  1.00  0.00     0.074 A 
ATOM     56  C   UNL A   1      40.425  32.386  32.171  1.00  0.00     0.029 A 
ATOM     57  N   UNL A   1      40.734  32.981  30.074  1.00  0.00    -0.354 N 
ATOM     58  N   UNL A   1      43.957  31.328  29.878  1.00  0.00    -0.248 NA
ATOM     59  C   UNL A   1      45.764  31.400  28.472  1.00  0.00     0.031 C 
ATOM     60  C   UNL A   1      41.810  32.691  31.968  1.00  0.00     0.029 A 
ATOM     61  C   UNL A   1      41.982  33.100  30.657  1.00  0.00     0.049 A 
ATOM     62  H   UNL A   1      40.559  33.154  29.120  1.00  0.00     0.167 HD
ATOM     63  C   UNL A   1      44.028  32.613  29.450  1.00  0.00     0.074 A 
ATOM     64  C   UNL A   1      45.187  32.613  28.566  1.00  0.00     0.031 C 
ATOM     65  C   UNL A   1      43.105  33.548  29.833  1.00  0.00     0.037 A 
BRANCH  52  66
ATOM     66  C   UNL A   1      37.112  32.772  31.023  1.00  0.00     0.064 A 
ATOM     67  C   UNL A   1      36.298  33.647  30.272  1.00  0.00     0.173 A 
ATOM     68  C   UNL A   1      36.603  32.474  32.306  1.00  0.00     0.173 A 
ATOM     69  F   UNL A   1      36.583  33.946  28.998  1.00  0.00    -0.203 F 
ATOM     70  C   UNL A   1      35.143  34.242  30.794  1.00  0.00     0.198 A 
ATOM     71  C   UNL A   1      35.486  33.117  32.851  1.00  0.00     0.198 A 
ATOM     72  F   UNL A   1      37.107  31.487  33.052  1.00  0.00    -0.203 F 
ATOM     73  F   UNL A   1      34.408  35.053  30.021  1.00  0.00    -0.200 F 
ATOM     74  C   UNL A   1      34.756  34.006  32.096  1.00  0.00     0.200 A 
ATOM     75  F   UNL A   1      35.113  32.846  34.112  1.00  0.00    -0.200 F 
ATOM     76  F   UNL A   1      33.668  34.599  32.605  1.00  0.00    -0.200 F 
ENDBRANCH  52  66
BRANCH  53  77
ATOM     77  C   UNL A   1      45.393  28.085  28.429  1.00  0.00     0.064 A 
ATOM     78  C   UNL A   1      46.024  26.930  28.955  1.00  0.00     0.173 A 
ATOM     79  C   UNL A   1      44.761  27.956  27.185  1.00  0.00     0.173 A 
ATOM     80  F   UNL A   1      46.628  26.986  30.153  1.00  0.00    -0.203 F 
ATOM     81  C   UNL A   1      45.866  25.680  28.358  1.00  0.00     0.198 A 
ATOM     82  C   UNL A   1      44.622  26.701  26.582  1.00  0.00     0.198 A 
ATOM     83  F   UNL A   1      44.132  29.005  26.636  1.00  0.00    -0.203 F 
ATOM     84  F   UNL A   1      46.307  24.578  28.981  1.00  0.00    -0.200 F 
ATOM     85  C   UNL A   1      45.128  25.562  27.194  1.00  0.00     0.200 A 
ATOM     86  F   UNL A   1      43.888  26.576  25.467  1.00  0.00    -0.200 F 
ATOM     87  F   UNL A   1      44.841  24.347  26.702  1.00  0.00    -0.200 F 
ENDBRANCH  53  77
BRANCH  65  88
ATOM     88  C   UNL A   1      43.175  34.980  29.383  1.00  0.00     0.064 A 
ATOM     89  C   UNL A   1      42.942  35.357  28.052  1.00  0.00     0.173 A 
ATOM     90  C   UNL A   1      43.534  36.028  30.260  1.00  0.00     0.173 A 
ATOM     91  F   UNL A   1      42.785  34.436  27.090  1.00  0.00    -0.203 F 
ATOM     92  C   UNL A   1      42.888  36.696  27.669  1.00  0.00     0.198 A 
ATOM     93  C   UNL A   1      43.544  37.359  29.860  1.00  0.00     0.198 A 
ATOM     94  F   UNL A   1      43.869  35.812  31.537  1.00  0.00    -0.203 F 
ATOM     95  F   UNL A   1      42.547  37.010  26.412  1.00  0.00    -0.200 F 
ATOM     96  C   UNL A   1      43.177  37.697  28.576  1.00  0.00     0.200 A 
ATOM     97  F   UNL A   1      43.893  38.310  30.738  1.00  0.00    -0.200 F 
ATOM     98  F   UNL A   1      43.114  38.983  28.212  1.00  0.00    -0.200 F 
ENDBRANCH  65  88
ENDBRANCH  39  40
ENDBRANCH  32  34
ENDBRANCH  31  32
ENDBRANCH  30  31
ENDBRANCH  29  30
ENDBRANCH  28  29
ENDBRANCH   1  28
TORSDOF 18
ENDMDL
MODEL 2
REMARK VINA RESULT:     -13.1      3.335     10.039
REMARK SMILES Cc1ccc(-c2cc([C@@H](C)C(=O)OCCOCCOC(=O)c3ccc(-c4c5nc(c(-c6c(F)c(F)c(F)c(F)c6F)c6ccc([nH]6)c(-c6c(F)c(F)c(F)c(F)c6F)c6nc(c(-c7c(F)c(F)c(F)c(F)c7F)c7ccc4[nH]7)C=C6)C=C5)cc3)ccc2C[C@H]2CCCC2=O)cc1
REMARK SMILES IDX 15 1 14 2 13 3 11 4 12 5 9 6 10 7 8 8 6 9 7 10 87 11 86 12
REMARK SMILES IDX 85 13 5 14 1 15 2 16 3 17 96 18 4 19 95 20 88 21 89 22 90 23
REMARK SMILES IDX 93 24 91 25 92 26 94 27 16 28 17 29 18 30 19 31 20 32 21 33
REMARK SMILES IDX 22 34 23 35 84 36 24 37 83 38 25 39 26 40 27 41 77 42 28 43
REMARK SMILES IDX 82 44 76 45 78 46 29 47 81 48 75 49 74 50 30 52 62 53 42 54
REMARK SMILES IDX 61 55 43 56 46 57 60 58 79 59 44 60 45 61 59 63 80 64 47 65
REMARK SMILES IDX 31 66 32 67 40 68 33 69 34 70 38 71 41 72 35 73 36 74 39 75
REMARK SMILES IDX 37 76 63 77 64 78 72 79 65 80 66 81 70 82 73 83 67 84 68 85
REMARK SMILES IDX 71 86 69 87 48 88 49 89 57 90 50 91 51 92 55 93 58 94 52 95
REMARK SMILES IDX 53 96 56 97 54 98
REMARK H PARENT 78 51 46 62
REMARK Flexibility Score: inf
ROOT
ATOM      1  C   UNL A   1      32.445  29.316  24.618  1.00  0.00     0.202 C 
ENDROOT
BRANCH   1   2
ATOM      2  C   UNL A   1      31.599  28.911  23.452  1.00  0.00     0.261 C 
BRANCH   2   3
ATOM      3  O   UNL A   1      30.625  27.900  23.746  1.00  0.00    -0.463 OA
BRANCH   3   4
ATOM      4  C   UNL A   1      30.777  26.650  23.203  1.00  0.00     0.313 C 
ATOM      5  O   UNL A   1      31.024  26.408  22.043  1.00  0.00    -0.252 OA
BRANCH   4   6
ATOM      6  C   UNL A   1      30.611  25.605  24.311  1.00  0.00     0.126 C 
ATOM      7  C   UNL A   1      30.172  26.256  25.619  1.00  0.00     0.025 C 
BRANCH   6   8
ATOM      8  C   UNL A   1      31.891  24.778  24.408  1.00  0.00    -0.033 A 
ATOM      9  C   UNL A   1      32.968  22.585  24.195  1.00  0.00    -0.015 A 
ATOM     10  C   UNL A   1      31.814  23.385  24.333  1.00  0.00     0.013 A 
ATOM     11  C   UNL A   1      34.231  23.204  24.027  1.00  0.00    -0.039 A 
ATOM     12  C   UNL A   1      34.302  24.602  24.136  1.00  0.00     0.004 A 
ATOM     13  C   UNL A   1      33.161  25.371  24.370  1.00  0.00     0.005 A 
BRANCH   9  14
ATOM     14  C   UNL A   1      32.798  21.142  24.397  1.00  0.00    -0.018 A 
ATOM     15  C   UNL A   1      32.561  16.847  24.742  1.00  0.00     0.044 C 
ATOM     16  C   UNL A   1      32.644  18.339  24.641  1.00  0.00    -0.051 A 
ATOM     17  C   UNL A   1      32.489  18.948  23.393  1.00  0.00     0.004 A 
ATOM     18  C   UNL A   1      32.881  19.138  25.767  1.00  0.00     0.004 A 
ATOM     19  C   UNL A   1      32.575  20.331  23.274  1.00  0.00     0.009 A 
ATOM     20  C   UNL A   1      32.959  20.529  25.647  1.00  0.00     0.009 A 
ENDBRANCH   9  14
BRANCH  11  21
ATOM     21  C   UNL A   1      35.531  22.431  23.873  1.00  0.00     0.047 C 
BRANCH  21  22
ATOM     22  C   UNL A   1      36.212  21.801  25.096  1.00  0.00     0.060 C 
ATOM     23  C   UNL A   1      36.571  20.317  25.012  1.00  0.00     0.012 C 
ATOM     24  C   UNL A   1      37.517  22.448  25.502  1.00  0.00     0.136 C 
ATOM     25  C   UNL A   1      38.081  20.257  24.884  1.00  0.00     0.009 C 
ATOM     26  C   UNL A   1      38.638  21.457  25.626  1.00  0.00     0.076 C 
ATOM     27  O   UNL A   1      37.635  23.640  25.762  1.00  0.00    -0.299 OA
ENDBRANCH  21  22
ENDBRANCH  11  21
ENDBRANCH   6   8
ENDBRANCH   4   6
ENDBRANCH   3   4
ENDBRANCH   2   3
ENDBRANCH   1   2
BRANCH   1  28
ATOM     28  O   UNL A   1      31.669  30.161  25.448  1.00  0.00    -0.374 OA
BRANCH  28  29
ATOM     29  C   UNL A   1      32.136  30.291  26.780  1.00  0.00     0.202 C 
BRANCH  29  30
ATOM     30  C   UNL A   1      33.670  30.293  26.912  1.00  0.00     0.261 C 
BRANCH  30  31
ATOM     31  O   UNL A   1      34.085  31.144  28.001  1.00  0.00    -0.460 OA
BRANCH  31  32
ATOM     32  C   UNL A   1      35.395  31.519  28.008  1.00  0.00     0.338 C 
ATOM     33  O   UNL A   1      35.820  32.607  27.646  1.00  0.00    -0.246 OA
BRANCH  32  34
ATOM     34  C   UNL A   1      36.256  30.321  28.240  1.00  0.00     0.060 A 
ATOM     35  C   UNL A   1      36.332  29.720  29.512  1.00  0.00     0.016 A 
ATOM     36  C   UNL A   1      37.228  30.037  27.288  1.00  0.00     0.016 A 
ATOM     37  C   UNL A   1      37.461  28.961  29.873  1.00  0.00     0.010 A 
ATOM     38  C   UNL A   1      38.394  29.432  27.700  1.00  0.00     0.010 A 
ATOM     39  C   UNL A   1      38.538  28.893  28.992  1.00  0.00    -0.014 A 
BRANCH  39  40
ATOM     40  C   UNL A   1      39.903  28.429  29.286  1.00  0.00     0.031 A 
ATOM     41  C   UNL A   1      40.281  27.059  28.860  1.00  0.00     0.074 A 
ATOM     42  C   UNL A   1      40.899  29.304  29.582  1.00  0.00     0.049 A 
ATOM     43  N   UNL A   1      41.417  26.513  29.116  1.00  0.00    -0.248 NA
ATOM     44  C   UNL A   1      39.404  26.181  28.093  1.00  0.00     0.031 C 
ATOM     45  C   UNL A   1      42.329  29.167  29.279  1.00  0.00     0.029 A 
ATOM     46  N   UNL A   1      40.846  30.552  30.220  1.00  0.00    -0.354 N 
ATOM     47  C   UNL A   1      41.564  25.428  28.285  1.00  0.00     0.074 A 
ATOM     48  C   UNL A   1      40.256  25.230  27.708  1.00  0.00     0.031 C 
ATOM     49  C   UNL A   1      43.023  30.095  29.957  1.00  0.00     0.029 A 
ATOM     50  C   UNL A   1      42.093  30.766  30.840  1.00  0.00     0.049 A 
ATOM     51  H   UNL A   1      40.076  31.166  30.233  1.00  0.00     0.167 HD
ATOM     52  C   UNL A   1      42.814  24.911  28.105  1.00  0.00     0.037 A 
ATOM     53  C   UNL A   1      42.166  30.932  32.188  1.00  0.00     0.037 A 
ATOM     54  C   UNL A   1      43.808  25.639  28.920  1.00  0.00     0.049 A 
ATOM     55  C   UNL A   1      42.899  29.771  32.806  1.00  0.00     0.074 A 
ATOM     56  C   UNL A   1      44.814  26.556  28.658  1.00  0.00     0.029 A 
ATOM     57  N   UNL A   1      43.620  25.698  30.296  1.00  0.00    -0.354 N 
ATOM     58  N   UNL A   1      43.483  28.843  32.100  1.00  0.00    -0.248 NA
ATOM     59  C   UNL A   1      42.967  29.498  34.234  1.00  0.00     0.031 C 
ATOM     60  C   UNL A   1      45.235  27.135  29.899  1.00  0.00     0.029 A 
ATOM     61  C   UNL A   1      44.503  26.559  30.922  1.00  0.00     0.049 A 
ATOM     62  H   UNL A   1      42.929  25.184  30.774  1.00  0.00     0.167 HD
ATOM     63  C   UNL A   1      43.897  27.827  32.898  1.00  0.00     0.074 A 
ATOM     64  C   UNL A   1      43.555  28.286  34.238  1.00  0.00     0.031 C 
ATOM     65  C   UNL A   1      44.449  26.687  32.378  1.00  0.00     0.037 A 
BRANCH  52  66
ATOM     66  C   UNL A   1      43.173  23.883  27.046  1.00  0.00     0.064 A 
ATOM     67  C   UNL A   1      42.814  22.526  27.203  1.00  0.00     0.173 A 
ATOM     68  C   UNL A   1      43.877  24.154  25.853  1.00  0.00     0.173 A 
ATOM     69  F   UNL A   1      42.052  22.119  28.226  1.00  0.00    -0.203 F 
ATOM     70  C   UNL A   1      43.211  21.528  26.305  1.00  0.00     0.198 A 
ATOM     71  C   UNL A   1      44.330  23.151  24.989  1.00  0.00     0.198 A 
ATOM     72  F   UNL A   1      44.081  25.404  25.424  1.00  0.00    -0.203 F 
ATOM     73  F   UNL A   1      42.823  20.262  26.507  1.00  0.00    -0.200 F 
ATOM     74  C   UNL A   1      44.000  21.835  25.216  1.00  0.00     0.200 A 
ATOM     75  F   UNL A   1      45.071  23.479  23.919  1.00  0.00    -0.200 F 
ATOM     76  F   UNL A   1      44.404  20.876  24.373  1.00  0.00    -0.200 F 
ENDBRANCH  52  66
BRANCH  53  77
ATOM     77  C   UNL A   1      40.958  31.664  32.686  1.00  0.00     0.064 A 
ATOM     78  C   UNL A   1      40.904  33.052  32.404  1.00  0.00     0.173 A 
ATOM     79  C   UNL A   1      39.737  31.002  32.866  1.00  0.00     0.173 A 
ATOM     80  F   UNL A   1      42.040  33.737  32.199  1.00  0.00    -0.203 F 
ATOM     81  C   UNL A   1      39.694  33.692  32.133  1.00  0.00     0.198 A 
ATOM     82  C   UNL A   1      38.525  31.655  32.611  1.00  0.00     0.198 A 
ATOM     83  F   UNL A   1      39.714  29.685  33.122  1.00  0.00    -0.203 F 
ATOM     84  F   UNL A   1      39.689  34.953  31.677  1.00  0.00    -0.200 F 
ATOM     85  C   UNL A   1      38.510  32.979  32.195  1.00  0.00     0.200 A 
ATOM     86  F   UNL A   1      37.376  30.965  32.646  1.00  0.00    -0.200 F 
ATOM     87  F   UNL A   1      37.365  33.545  31.785  1.00  0.00    -0.200 F 
ENDBRANCH  53  77
BRANCH  65  88
ATOM     88  C   UNL A   1      44.928  25.557  33.246  1.00  0.00     0.064 A 
ATOM     89  C   UNL A   1      46.264  25.130  33.246  1.00  0.00     0.173 A 
ATOM     90  C   UNL A   1      44.052  24.819  34.072  1.00  0.00     0.173 A 
ATOM     91  F   UNL A   1      47.147  25.621  32.363  1.00  0.00    -0.203 F 
ATOM     92  C   UNL A   1      46.725  24.166  34.140  1.00  0.00     0.198 A 
ATOM     93  C   UNL A   1      44.501  23.811  34.918  1.00  0.00     0.198 A 
ATOM     94  F   UNL A   1      42.734  25.052  34.112  1.00  0.00    -0.203 F 
ATOM     95  F   UNL A   1      48.031  23.875  34.183  1.00  0.00    -0.200 F 
ATOM     96  C   UNL A   1      45.845  23.515  34.984  1.00  0.00     0.200 A 
ATOM     97  F   UNL A   1      43.622  23.146  35.679  1.00  0.00    -0.200 F 
ATOM     98  F   UNL A   1      46.288  22.598  35.852  1.00  0.00    -0.200 F 
ENDBRANCH  65  88
ENDBRANCH  39  40
ENDBRANCH  32  34
ENDBRANCH  31  32
ENDBRANCH  30  31
ENDBRANCH  29  30
ENDBRANCH  28  29
ENDBRANCH   1  28
TORSDOF 18
ENDMDL
MODEL 3
REMARK VINA RESULT:     -13.0      3.035      5.792
REMARK SMILES Cc1ccc(-c2cc([C@@H](C)C(=O)OCCOCCOC(=O)c3ccc(-c4c5nc(c(-c6c(F)c(F)c(F)c(F)c6F)c6ccc([nH]6)c(-c6c(F)c(F)c(F)c(F)c6F)c6nc(c(-c7c(F)c(F)c(F)c(F)c7F)c7ccc4[nH]7)C=C6)C=C5)cc3)ccc2C[C@H]2CCCC2=O)cc1
REMARK SMILES IDX 15 1 14 2 13 3 11 4 12 5 9 6 10 7 8 8 6 9 7 10 87 11 86 12
REMARK SMILES IDX 85 13 5 14 1 15 2 16 3 17 96 18 4 19 95 20 88 21 89 22 90 23
REMARK SMILES IDX 93 24 91 25 92 26 94 27 16 28 17 29 18 30 19 31 20 32 21 33
REMARK SMILES IDX 22 34 23 35 84 36 24 37 83 38 25 39 26 40 27 41 77 42 28 43
REMARK SMILES IDX 82 44 76 45 78 46 29 47 81 48 75 49 74 50 30 52 62 53 42 54
REMARK SMILES IDX 61 55 43 56 46 57 60 58 79 59 44 60 45 61 59 63 80 64 47 65
REMARK SMILES IDX 31 66 32 67 40 68 33 69 34 70 38 71 41 72 35 73 36 74 39 75
REMARK SMILES IDX 37 76 63 77 64 78 72 79 65 80 66 81 70 82 73 83 67 84 68 85
REMARK SMILES IDX 71 86 69 87 48 88 49 89 57 90 50 91 51 92 55 93 58 94 52 95
REMARK SMILES IDX 53 96 56 97 54 98
REMARK H PARENT 78 51 46 62
REMARK Flexibility Score: inf
ROOT
ATOM      1  C   UNL A   1      41.435  19.929  26.659  1.00  0.00     0.202 C 
ENDROOT
BRANCH   1   2
ATOM      2  C   UNL A   1      40.015  20.136  26.234  1.00  0.00     0.261 C 
BRANCH   2   3
ATOM      3  O   UNL A   1      39.639  21.509  26.064  1.00  0.00    -0.463 OA
BRANCH   3   4
ATOM      4  C   UNL A   1      38.439  21.803  25.468  1.00  0.00     0.313 C 
ATOM      5  O   UNL A   1      37.786  21.049  24.782  1.00  0.00    -0.252 OA
BRANCH   4   6
ATOM      6  C   UNL A   1      38.042  23.236  25.835  1.00  0.00     0.126 C 
ATOM      7  C   UNL A   1      38.911  23.776  26.966  1.00  0.00     0.025 C 
BRANCH   6   8
ATOM      8  C   UNL A   1      36.540  23.280  26.109  1.00  0.00    -0.033 A 
ATOM      9  C   UNL A   1      34.360  24.273  25.581  1.00  0.00    -0.015 A 
ATOM     10  C   UNL A   1      35.771  24.303  25.548  1.00  0.00     0.013 A 
ATOM     11  C   UNL A   1      33.698  23.134  26.104  1.00  0.00    -0.039 A 
ATOM     12  C   UNL A   1      34.479  22.127  26.693  1.00  0.00     0.004 A 
ATOM     13  C   UNL A   1      35.871  22.221  26.738  1.00  0.00     0.005 A 
BRANCH   9  14
ATOM     14  C   UNL A   1      33.665  25.510  25.210  1.00  0.00    -0.018 A 
ATOM     15  C   UNL A   1      31.441  28.956  23.867  1.00  0.00     0.044 C 
ATOM     16  C   UNL A   1      32.209  27.764  24.351  1.00  0.00    -0.051 A 
ATOM     17  C   UNL A   1      32.961  27.021  23.438  1.00  0.00     0.004 A 
ATOM     18  C   UNL A   1      32.184  27.373  25.696  1.00  0.00     0.004 A 
ATOM     19  C   UNL A   1      33.671  25.902  23.863  1.00  0.00     0.009 A 
ATOM     20  C   UNL A   1      32.905  26.253  26.123  1.00  0.00     0.009 A 
ENDBRANCH   9  14
BRANCH  11  21
ATOM     21  C   UNL A   1      32.185  23.007  26.185  1.00  0.00     0.047 C 
BRANCH  21  22
ATOM     22  C   UNL A   1      31.390  22.409  25.015  1.00  0.00     0.060 C 
ATOM     23  C   UNL A   1      31.247  23.263  23.755  1.00  0.00     0.012 C 
ATOM     24  C   UNL A   1      31.927  21.099  24.484  1.00  0.00     0.136 C 
ATOM     25  C   UNL A   1      32.131  22.616  22.706  1.00  0.00     0.009 C 
ATOM     26  C   UNL A   1      32.151  21.128  22.999  1.00  0.00     0.076 C 
ATOM     27  O   UNL A   1      32.101  20.103  25.176  1.00  0.00    -0.299 OA
ENDBRANCH  21  22
ENDBRANCH  11  21
ENDBRANCH   6   8
ENDBRANCH   4   6
ENDBRANCH   3   4
ENDBRANCH   2   3
ENDBRANCH   1   2
BRANCH   1  28
ATOM     28  O   UNL A   1      42.170  19.497  25.529  1.00  0.00    -0.374 OA
BRANCH  28  29
ATOM     29  C   UNL A   1      43.077  18.435  25.770  1.00  0.00     0.202 C 
BRANCH  29  30
ATOM     30  C   UNL A   1      44.444  18.605  25.082  1.00  0.00     0.261 C 
BRANCH  30  31
ATOM     31  O   UNL A   1      44.463  19.803  24.278  1.00  0.00    -0.460 OA
BRANCH  31  32
ATOM     32  C   UNL A   1      45.318  20.785  24.679  1.00  0.00     0.338 C 
ATOM     33  O   UNL A   1      46.488  20.617  24.996  1.00  0.00    -0.246 OA
BRANCH  32  34
ATOM     34  C   UNL A   1      44.550  22.035  24.954  1.00  0.00     0.060 A 
ATOM     35  C   UNL A   1      44.693  23.169  24.131  1.00  0.00     0.016 A 
ATOM     36  C   UNL A   1      43.975  22.170  26.213  1.00  0.00     0.016 A 
ATOM     37  C   UNL A   1      44.403  24.452  24.631  1.00  0.00     0.010 A 
ATOM     38  C   UNL A   1      43.847  23.433  26.745  1.00  0.00     0.010 A 
ATOM     39  C   UNL A   1      44.063  24.591  25.976  1.00  0.00    -0.014 A 
BRANCH  39  40
ATOM     40  C   UNL A   1      44.027  25.835  26.763  1.00  0.00     0.031 A 
ATOM     41  C   UNL A   1      42.743  26.575  26.835  1.00  0.00     0.074 A 
ATOM     42  C   UNL A   1      44.979  26.114  27.689  1.00  0.00     0.049 A 
ATOM     43  N   UNL A   1      42.596  27.705  27.432  1.00  0.00    -0.248 NA
ATOM     44  C   UNL A   1      41.499  26.096  26.243  1.00  0.00     0.031 C 
ATOM     45  C   UNL A   1      44.819  26.869  28.938  1.00  0.00     0.029 A 
ATOM     46  N   UNL A   1      46.336  25.758  27.726  1.00  0.00    -0.354 N 
ATOM     47  C   UNL A   1      41.251  27.915  27.621  1.00  0.00     0.074 A 
ATOM     48  C   UNL A   1      40.607  26.911  26.809  1.00  0.00     0.031 C 
ATOM     49  C   UNL A   1      46.027  27.160  29.446  1.00  0.00     0.029 A 
ATOM     50  C   UNL A   1      47.014  26.743  28.473  1.00  0.00     0.049 A 
ATOM     51  H   UNL A   1      46.740  24.964  27.306  1.00  0.00     0.167 HD
ATOM     52  C   UNL A   1      40.861  28.844  28.541  1.00  0.00     0.037 A 
ATOM     53  C   UNL A   1      48.005  27.474  27.898  1.00  0.00     0.037 A 
ATOM     54  C   UNL A   1      42.031  29.505  29.152  1.00  0.00     0.049 A 
ATOM     55  C   UNL A   1      47.580  28.914  27.789  1.00  0.00     0.074 A 
ATOM     56  C   UNL A   1      42.662  29.443  30.386  1.00  0.00     0.029 A 
ATOM     57  N   UNL A   1      42.934  30.155  28.320  1.00  0.00    -0.354 N 
ATOM     58  N   UNL A   1      46.476  29.370  28.312  1.00  0.00    -0.248 NA
ATOM     59  C   UNL A   1      48.287  29.933  27.026  1.00  0.00     0.031 C 
ATOM     60  C   UNL A   1      43.935  30.091  30.276  1.00  0.00     0.029 A 
ATOM     61  C   UNL A   1      44.076  30.567  28.984  1.00  0.00     0.049 A 
ATOM     62  H   UNL A   1      42.779  30.305  27.359  1.00  0.00     0.167 HD
ATOM     63  C   UNL A   1      46.246  30.643  27.905  1.00  0.00     0.074 A 
ATOM     64  C   UNL A   1      47.418  30.959  27.098  1.00  0.00     0.031 C 
ATOM     65  C   UNL A   1      45.096  31.305  28.240  1.00  0.00     0.037 A 
BRANCH  52  66
ATOM     66  C   UNL A   1      39.433  29.017  29.032  1.00  0.00     0.064 A 
ATOM     67  C   UNL A   1      38.423  29.492  28.168  1.00  0.00     0.173 A 
ATOM     68  C   UNL A   1      38.985  28.745  30.344  1.00  0.00     0.173 A 
ATOM     69  F   UNL A   1      38.656  29.697  26.866  1.00  0.00    -0.203 F 
ATOM     70  C   UNL A   1      37.120  29.763  28.604  1.00  0.00     0.198 A 
ATOM     71  C   UNL A   1      37.704  29.076  30.796  1.00  0.00     0.198 A 
ATOM     72  F   UNL A   1      39.736  28.068  31.218  1.00  0.00    -0.203 F 
ATOM     73  F   UNL A   1      36.205  30.199  27.727  1.00  0.00    -0.200 F 
ATOM     74  C   UNL A   1      36.769  29.590  29.926  1.00  0.00     0.200 A 
ATOM     75  F   UNL A   1      37.378  28.869  32.081  1.00  0.00    -0.200 F 
ATOM     76  F   UNL A   1      35.531  29.877  30.349  1.00  0.00    -0.200 F 
ENDBRANCH  52  66
BRANCH  53  77
ATOM     77  C   UNL A   1      48.767  26.633  26.919  1.00  0.00     0.064 A 
ATOM     78  C   UNL A   1      48.492  26.860  25.548  1.00  0.00     0.173 A 
ATOM     79  C   UNL A   1      50.030  26.118  27.241  1.00  0.00     0.173 A 
ATOM     80  F   UNL A   1      47.307  27.373  25.180  1.00  0.00    -0.203 F 
ATOM     81  C   UNL A   1      49.491  26.756  24.580  1.00  0.00     0.198 A 
ATOM     82  C   UNL A   1      51.022  25.999  26.261  1.00  0.00     0.198 A 
ATOM     83  F   UNL A   1      50.361  25.892  28.520  1.00  0.00    -0.203 F 
ATOM     84  F   UNL A   1      49.256  27.167  23.326  1.00  0.00    -0.200 F 
ATOM     85  C   UNL A   1      50.767  26.367  24.947  1.00  0.00     0.200 A 
ATOM     86  F   UNL A   1      52.267  25.645  26.613  1.00  0.00    -0.200 F 
ATOM     87  F   UNL A   1      51.767  26.416  24.053  1.00  0.00    -0.200 F 
ENDBRANCH  53  77
BRANCH  65  88
ATOM     88  C   UNL A   1      44.829  32.721  27.812  1.00  0.00     0.064 A 
ATOM     89  C   UNL A   1      45.109  33.818  28.640  1.00  0.00     0.173 A 
ATOM     90  C   UNL A   1      44.227  33.032  26.572  1.00  0.00     0.173 A 
ATOM     91  F   UNL A   1      45.499  33.641  29.912  1.00  0.00    -0.203 F 
ATOM     92  C   UNL A   1      44.974  35.129  28.190  1.00  0.00     0.198 A 
ATOM     93  C   UNL A   1      44.031  34.342  26.150  1.00  0.00     0.198 A 
ATOM     94  F   UNL A   1      43.823  32.088  25.713  1.00  0.00    -0.203 F 
ATOM     95  F   UNL A   1      45.364  36.141  28.976  1.00  0.00    -0.200 F 
ATOM     96  C   UNL A   1      44.446  35.391  26.940  1.00  0.00     0.200 A 
ATOM     97  F   UNL A   1      43.455  34.574  24.962  1.00  0.00    -0.200 F 
ATOM     98  F   UNL A   1      44.326  36.650  26.503  1.00  0.00    -0.200 F 
ENDBRANCH  65  88
ENDBRANCH  39  40
ENDBRANCH  32  34
ENDBRANCH  31  32
ENDBRANCH  30  31
ENDBRANCH  29  30
ENDBRANCH  28  29
ENDBRANCH   1  28
TORSDOF 18
ENDMDL
