MODEL 1
REMARK VINA RESULT:     -11.3      0.000      0.000
REMARK SMILES CCC1C[NH+]([C@@H](Cc2c[nH]c3ccccc23)C(=O)OCCOCCOC(=O)c2ccc(-c3c4nc(c(-c5c(F)c(F)c(F)c(F)c5F)c5ccc([nH]5)c(-c5c(F)c(F)c(F)c(F)c5F)c5nc(c(-c6c(F)c(F)c(F)c(F)c6F)c6ccc3[nH]6)C=C5)C=C4)cc2)C1
REMARK SMILES IDX 22 1 21 2 20 3 19 4 17 5 18 6 6 7 5 8 3 9 4 10 91 11 2 13
REMARK SMILES IDX 1 14 7 15 8 16 9 17 16 18 10 19 11 20 15 21 12 23 14 24
REMARK SMILES IDX 13 25 23 26 24 27 25 28 26 29 27 30 28 31 29 32 90 33 30 34
REMARK SMILES IDX 89 35 31 36 32 37 33 38 83 39 34 40 88 41 82 42 84 43 35 44
REMARK SMILES IDX 87 45 81 46 80 47 36 49 68 50 48 51 67 52 49 53 52 54 66 55
REMARK SMILES IDX 85 56 50 57 51 58 65 60 86 61 53 62 37 63 38 64 46 65 39 66
REMARK SMILES IDX 40 67 44 68 47 69 41 70 42 71 45 72 43 73 69 74 70 75 78 76
REMARK SMILES IDX 71 77 72 78 76 79 79 80 73 81 74 82 77 83 75 84 54 85 55 86
REMARK SMILES IDX 63 87 56 88 57 89 61 90 64 91 58 92 59 93 62 94 60 95
REMARK H PARENT 5 12 10 22 84 48 52 59
REMARK Flexibility Score: inf
ROOT
ATOM      1  O   UNL A   1      32.122  30.574  26.888  1.00  0.00    -0.374 OA
ENDROOT
BRANCH   1   2
ATOM      2  C   UNL A   1      31.778  29.371  26.195  1.00  0.00     0.202 C 
BRANCH   2   3
ATOM      3  C   UNL A   1      31.846  28.104  27.042  1.00  0.00     0.261 C 
BRANCH   3   4
ATOM      4  O   UNL A   1      32.417  27.026  26.270  1.00  0.00    -0.459 OA
BRANCH   4   5
ATOM      5  C   UNL A   1      31.503  26.137  25.799  1.00  0.00     0.365 C 
ATOM      6  O   UNL A   1      30.405  25.963  26.326  1.00  0.00    -0.245 OA
BRANCH   5   7
ATOM      7  C   UNL A   1      31.953  25.325  24.574  1.00  0.00     0.299 C 
BRANCH   7   8
ATOM      8  N   UNL A   1      32.276  23.895  24.902  1.00  0.00    -0.322 N 
ATOM      9  C   UNL A   1      34.242  23.420  24.245  1.00  0.00     0.099 C 
ATOM     10  C   UNL A   1      32.803  23.061  23.802  1.00  0.00     0.272 C 
ATOM     11  C   UNL A   1      33.579  23.739  25.603  1.00  0.00     0.272 C 
ATOM     12  H   UNL A   1      31.385  23.648  25.332  1.00  0.00     0.348 HD
BRANCH   9  13
ATOM     13  C   UNL A   1      35.345  22.383  24.098  1.00  0.00     0.012 C 
ATOM     14  C   UNL A   1      36.566  23.018  23.440  1.00  0.00     0.004 C 
ENDBRANCH   9  13
ENDBRANCH   7   8
BRANCH   7  15
ATOM     15  C   UNL A   1      31.218  25.892  23.312  1.00  0.00     0.115 C 
BRANCH  15  16
ATOM     16  C   UNL A   1      31.135  27.377  23.093  1.00  0.00    -0.016 A 
ATOM     17  C   UNL A   1      32.216  28.184  22.762  1.00  0.00     0.087 A 
ATOM     18  C   UNL A   1      29.986  28.226  23.059  1.00  0.00     0.003 A 
ATOM     19  N   UNL A   1      31.729  29.368  22.281  1.00  0.00    -0.361 N 
ATOM     20  C   UNL A   1      30.359  29.352  22.325  1.00  0.00     0.046 A 
ATOM     21  C   UNL A   1      28.633  28.079  23.415  1.00  0.00     0.010 A 
ATOM     22  H   UNL A   1      32.279  30.117  21.954  1.00  0.00     0.166 HD
ATOM     23  C   UNL A   1      29.429  30.214  21.746  1.00  0.00     0.026 A 
ATOM     24  C   UNL A   1      27.682  28.911  22.827  1.00  0.00     0.001 A 
ATOM     25  C   UNL A   1      28.085  29.914  21.952  1.00  0.00     0.002 A 
ENDBRANCH  15  16
ENDBRANCH   7  15
ENDBRANCH   5   7
ENDBRANCH   4   5
ENDBRANCH   3   4
ENDBRANCH   2   3
ENDBRANCH   1   2
BRANCH   1  26
ATOM     26  C   UNL A   1      31.420  31.756  26.512  1.00  0.00     0.202 C 
BRANCH  26  27
ATOM     27  C   UNL A   1      31.901  33.058  27.163  1.00  0.00     0.261 C 
BRANCH  27  28
ATOM     28  O   UNL A   1      33.290  33.362  26.954  1.00  0.00    -0.460 OA
BRANCH  28  29
ATOM     29  C   UNL A   1      33.937  33.815  28.051  1.00  0.00     0.338 C 
ATOM     30  O   UNL A   1      33.630  34.774  28.753  1.00  0.00    -0.246 OA
BRANCH  29  31
ATOM     31  C   UNL A   1      35.094  32.962  28.378  1.00  0.00     0.060 A 
ATOM     32  C   UNL A   1      34.850  31.660  28.835  1.00  0.00     0.016 A 
ATOM     33  C   UNL A   1      36.391  33.480  28.391  1.00  0.00     0.016 A 
ATOM     34  C   UNL A   1      35.893  30.890  29.357  1.00  0.00     0.010 A 
ATOM     35  C   UNL A   1      37.433  32.709  28.919  1.00  0.00     0.010 A 
ATOM     36  C   UNL A   1      37.185  31.424  29.442  1.00  0.00    -0.014 A 
BRANCH  36  37
ATOM     37  C   UNL A   1      38.253  30.710  30.190  1.00  0.00     0.031 A 
ATOM     38  C   UNL A   1      38.571  31.132  31.597  1.00  0.00     0.074 A 
ATOM     39  C   UNL A   1      38.957  29.711  29.629  1.00  0.00     0.049 A 
ATOM     40  N   UNL A   1      39.496  30.682  32.408  1.00  0.00    -0.248 NA
ATOM     41  C   UNL A   1      37.717  32.180  32.179  1.00  0.00     0.031 C 
ATOM     42  C   UNL A   1      38.698  29.125  28.321  1.00  0.00     0.029 A 
ATOM     43  N   UNL A   1      40.070  29.041  30.075  1.00  0.00    -0.354 N 
ATOM     44  C   UNL A   1      39.308  31.357  33.606  1.00  0.00     0.074 A 
ATOM     45  C   UNL A   1      38.228  32.298  33.397  1.00  0.00     0.031 C 
ATOM     46  C   UNL A   1      39.699  28.290  28.001  1.00  0.00     0.029 A 
ATOM     47  C   UNL A   1      40.634  28.231  29.120  1.00  0.00     0.049 A 
ATOM     48  H   UNL A   1      40.427  29.132  30.988  1.00  0.00     0.167 HD
ATOM     49  C   UNL A   1      39.953  31.180  34.783  1.00  0.00     0.037 A 
ATOM     50  C   UNL A   1      41.775  27.516  29.142  1.00  0.00     0.037 A 
ATOM     51  C   UNL A   1      41.041  30.258  34.987  1.00  0.00     0.049 A 
ATOM     52  C   UNL A   1      42.561  27.429  30.418  1.00  0.00     0.074 A 
ATOM     53  C   UNL A   1      41.739  29.988  36.151  1.00  0.00     0.029 A 
ATOM     54  N   UNL A   1      41.600  29.467  33.994  1.00  0.00    -0.354 N 
ATOM     55  N   UNL A   1      42.335  28.018  31.566  1.00  0.00    -0.248 NA
ATOM     56  C   UNL A   1      43.728  26.537  30.419  1.00  0.00     0.031 C 
ATOM     57  C   UNL A   1      42.753  29.071  35.851  1.00  0.00     0.029 A 
ATOM     58  C   UNL A   1      42.657  28.735  34.511  1.00  0.00     0.049 A 
ATOM     59  H   UNL A   1      41.292  29.431  33.059  1.00  0.00     0.167 HD
ATOM     60  C   UNL A   1      43.296  27.531  32.440  1.00  0.00     0.074 A 
ATOM     61  C   UNL A   1      44.115  26.604  31.685  1.00  0.00     0.031 C 
ATOM     62  C   UNL A   1      43.469  27.815  33.754  1.00  0.00     0.037 A 
BRANCH  49  63
ATOM     63  C   UNL A   1      39.490  32.002  35.949  1.00  0.00     0.064 A 
ATOM     64  C   UNL A   1      40.082  33.238  36.251  1.00  0.00     0.173 A 
ATOM     65  C   UNL A   1      38.427  31.568  36.753  1.00  0.00     0.173 A 
ATOM     66  F   UNL A   1      41.109  33.691  35.516  1.00  0.00    -0.203 F 
ATOM     67  C   UNL A   1      39.644  33.997  37.332  1.00  0.00     0.198 A 
ATOM     68  C   UNL A   1      37.975  32.341  37.819  1.00  0.00     0.198 A 
ATOM     69  F   UNL A   1      37.825  30.396  36.504  1.00  0.00    -0.203 F 
ATOM     70  F   UNL A   1      40.253  35.154  37.628  1.00  0.00    -0.200 F 
ATOM     71  C   UNL A   1      38.588  33.551  38.112  1.00  0.00     0.200 A 
ATOM     72  F   UNL A   1      36.947  31.914  38.566  1.00  0.00    -0.200 F 
ATOM     73  F   UNL A   1      38.164  34.285  39.151  1.00  0.00    -0.200 F 
ENDBRANCH  49  63
BRANCH  50  74
ATOM     74  C   UNL A   1      42.211  26.797  27.920  1.00  0.00     0.064 A 
ATOM     75  C   UNL A   1      41.778  25.493  27.652  1.00  0.00     0.173 A 
ATOM     76  C   UNL A   1      43.063  27.409  26.990  1.00  0.00     0.173 A 
ATOM     77  F   UNL A   1      40.976  24.862  28.523  1.00  0.00    -0.203 F 
ATOM     78  C   UNL A   1      42.195  24.818  26.507  1.00  0.00     0.198 A 
ATOM     79  C   UNL A   1      43.465  26.742  25.835  1.00  0.00     0.198 A 
ATOM     80  F   UNL A   1      43.502  28.660  27.202  1.00  0.00    -0.203 F 
ATOM     81  F   UNL A   1      41.796  23.558  26.291  1.00  0.00    -0.200 F 
ATOM     82  C   UNL A   1      43.036  25.445  25.597  1.00  0.00     0.200 A 
ATOM     83  F   UNL A   1      44.272  27.353  24.956  1.00  0.00    -0.200 F 
ATOM     84  F   UNL A   1      43.437  24.796  24.495  1.00  0.00    -0.200 F 
ENDBRANCH  50  74
BRANCH  62  85
ATOM     85  C   UNL A   1      44.567  27.089  34.474  1.00  0.00     0.064 A 
ATOM     86  C   UNL A   1      45.851  27.638  34.601  1.00  0.00     0.173 A 
ATOM     87  C   UNL A   1      44.321  25.843  35.070  1.00  0.00     0.173 A 
ATOM     88  F   UNL A   1      46.140  28.818  34.032  1.00  0.00    -0.203 F 
ATOM     89  C   UNL A   1      46.856  26.955  35.279  1.00  0.00     0.198 A 
ATOM     90  C   UNL A   1      45.321  25.176  35.772  1.00  0.00     0.198 A 
ATOM     91  F   UNL A   1      43.109  25.277  34.982  1.00  0.00    -0.203 F 
ATOM     92  F   UNL A   1      48.089  27.476  35.349  1.00  0.00    -0.200 F 
ATOM     93  C   UNL A   1      46.589  25.728  35.870  1.00  0.00     0.200 A 
ATOM     94  F   UNL A   1      45.059  23.996  36.351  1.00  0.00    -0.200 F 
ATOM     95  F   UNL A   1      47.557  25.075  36.527  1.00  0.00    -0.200 F 
ENDBRANCH  62  85
ENDBRANCH  36  37
ENDBRANCH  29  31
ENDBRANCH  28  29
ENDBRANCH  27  28
ENDBRANCH  26  27
ENDBRANCH   1  26
TORSDOF 18
ENDMDL
MODEL 2
REMARK VINA RESULT:     -11.2      0.702      3.204
REMARK SMILES CCC1C[NH+]([C@@H](Cc2c[nH]c3ccccc23)C(=O)OCCOCCOC(=O)c2ccc(-c3c4nc(c(-c5c(F)c(F)c(F)c(F)c5F)c5ccc([nH]5)c(-c5c(F)c(F)c(F)c(F)c5F)c5nc(c(-c6c(F)c(F)c(F)c(F)c6F)c6ccc3[nH]6)C=C5)C=C4)cc2)C1
REMARK SMILES IDX 22 1 21 2 20 3 19 4 17 5 18 6 6 7 5 8 3 9 4 10 91 11 2 13
REMARK SMILES IDX 1 14 7 15 8 16 9 17 16 18 10 19 11 20 15 21 12 23 14 24
REMARK SMILES IDX 13 25 23 26 24 27 25 28 26 29 27 30 28 31 29 32 90 33 30 34
REMARK SMILES IDX 89 35 31 36 32 37 33 38 83 39 34 40 88 41 82 42 84 43 35 44
REMARK SMILES IDX 87 45 81 46 80 47 36 49 68 50 48 51 67 52 49 53 52 54 66 55
REMARK SMILES IDX 85 56 50 57 51 58 65 60 86 61 53 62 37 63 38 64 46 65 39 66
REMARK SMILES IDX 40 67 44 68 47 69 41 70 42 71 45 72 43 73 69 74 70 75 78 76
REMARK SMILES IDX 71 77 72 78 76 79 79 80 73 81 74 82 77 83 75 84 54 85 55 86
REMARK SMILES IDX 63 87 56 88 57 89 61 90 64 91 58 92 59 93 62 94 60 95
REMARK H PARENT 5 12 10 22 84 48 52 59
REMARK Flexibility Score: inf
ROOT
ATOM      1  O   UNL A   1      31.857  30.672  27.039  1.00  0.00    -0.374 OA
ENDROOT
BRANCH   1   2
ATOM      2  C   UNL A   1      33.081  30.095  26.577  1.00  0.00     0.202 C 
BRANCH   2   3
ATOM      3  C   UNL A   1      33.408  28.729  27.172  1.00  0.00     0.261 C 
BRANCH   3   4
ATOM      4  O   UNL A   1      32.912  27.684  26.308  1.00  0.00    -0.459 OA
BRANCH   4   5
ATOM      5  C   UNL A   1      31.607  27.367  26.513  1.00  0.00     0.365 C 
ATOM      6  O   UNL A   1      31.068  27.432  27.617  1.00  0.00    -0.245 OA
BRANCH   5   7
ATOM      7  C   UNL A   1      30.850  26.877  25.269  1.00  0.00     0.299 C 
BRANCH   7   8
ATOM      8  N   UNL A   1      31.234  27.615  24.018  1.00  0.00    -0.322 N 
ATOM      9  C   UNL A   1      29.572  28.715  23.278  1.00  0.00     0.099 C 
ATOM     10  C   UNL A   1      30.349  27.448  22.847  1.00  0.00     0.272 C 
ATOM     11  C   UNL A   1      30.862  29.056  24.055  1.00  0.00     0.272 C 
ATOM     12  H   UNL A   1      32.201  27.296  23.962  1.00  0.00     0.348 HD
BRANCH   9  13
ATOM     13  C   UNL A   1      28.995  29.632  22.210  1.00  0.00     0.012 C 
ATOM     14  C   UNL A   1      27.651  30.184  22.674  1.00  0.00     0.004 C 
ENDBRANCH   9  13
ENDBRANCH   7   8
BRANCH   7  15
ATOM     15  C   UNL A   1      30.552  25.349  25.446  1.00  0.00     0.115 C 
BRANCH  15  16
ATOM     16  C   UNL A   1      31.270  24.339  24.596  1.00  0.00    -0.016 A 
ATOM     17  C   UNL A   1      30.709  23.687  23.507  1.00  0.00     0.087 A 
ATOM     18  C   UNL A   1      32.639  23.931  24.636  1.00  0.00     0.003 A 
ATOM     19  N   UNL A   1      31.725  23.148  22.766  1.00  0.00    -0.361 N 
ATOM     20  C   UNL A   1      32.925  23.411  23.374  1.00  0.00     0.046 A 
ATOM     21  C   UNL A   1      33.702  24.108  25.541  1.00  0.00     0.010 A 
ATOM     22  H   UNL A   1      31.611  22.646  21.926  1.00  0.00     0.166 HD
ATOM     23  C   UNL A   1      34.227  23.271  22.895  1.00  0.00     0.026 A 
ATOM     24  C   UNL A   1      35.013  24.001  25.079  1.00  0.00     0.001 A 
ATOM     25  C   UNL A   1      35.254  23.655  23.754  1.00  0.00     0.002 A 
ENDBRANCH  15  16
ENDBRANCH   7  15
ENDBRANCH   5   7
ENDBRANCH   4   5
ENDBRANCH   3   4
ENDBRANCH   2   3
ENDBRANCH   1   2
BRANCH   1  26
ATOM     26  C   UNL A   1      31.500  31.941  26.499  1.00  0.00     0.202 C 
BRANCH  26  27
ATOM     27  C   UNL A   1      31.961  33.165  27.300  1.00  0.00     0.261 C 
BRANCH  27  28
ATOM     28  O   UNL A   1      33.295  33.613  27.006  1.00  0.00    -0.460 OA
BRANCH  28  29
ATOM     29  C   UNL A   1      33.985  34.062  28.079  1.00  0.00     0.338 C 
ATOM     30  O   UNL A   1      33.742  35.055  28.757  1.00  0.00    -0.246 OA
BRANCH  29  31
ATOM     31  C   UNL A   1      35.101  33.158  28.411  1.00  0.00     0.060 A 
ATOM     32  C   UNL A   1      34.800  31.912  28.977  1.00  0.00     0.016 A 
ATOM     33  C   UNL A   1      36.427  33.586  28.318  1.00  0.00     0.016 A 
ATOM     34  C   UNL A   1      35.818  31.113  29.502  1.00  0.00     0.010 A 
ATOM     35  C   UNL A   1      37.445  32.786  28.851  1.00  0.00     0.010 A 
ATOM     36  C   UNL A   1      37.145  31.562  29.481  1.00  0.00    -0.014 A 
BRANCH  36  37
ATOM     37  C   UNL A   1      38.205  30.833  30.226  1.00  0.00     0.031 A 
ATOM     38  C   UNL A   1      38.526  31.245  31.636  1.00  0.00     0.074 A 
ATOM     39  C   UNL A   1      38.899  29.830  29.660  1.00  0.00     0.049 A 
ATOM     40  N   UNL A   1      39.446  30.781  32.445  1.00  0.00    -0.248 NA
ATOM     41  C   UNL A   1      37.683  32.298  32.223  1.00  0.00     0.031 C 
ATOM     42  C   UNL A   1      38.634  29.253  28.349  1.00  0.00     0.029 A 
ATOM     43  N   UNL A   1      40.004  29.146  30.104  1.00  0.00    -0.354 N 
ATOM     44  C   UNL A   1      39.264  31.451  33.646  1.00  0.00     0.074 A 
ATOM     45  C   UNL A   1      38.194  32.404  33.441  1.00  0.00     0.031 C 
ATOM     46  C   UNL A   1      39.628  28.410  28.025  1.00  0.00     0.029 A 
ATOM     47  C   UNL A   1      40.561  28.335  29.144  1.00  0.00     0.049 A 
ATOM     48  H   UNL A   1      40.362  29.228  31.017  1.00  0.00     0.167 HD
ATOM     49  C   UNL A   1      39.906  31.261  34.823  1.00  0.00     0.037 A 
ATOM     50  C   UNL A   1      41.694  27.608  29.164  1.00  0.00     0.037 A 
ATOM     51  C   UNL A   1      40.984  30.327  35.022  1.00  0.00     0.049 A 
ATOM     52  C   UNL A   1      42.478  27.506  30.440  1.00  0.00     0.074 A 
ATOM     53  C   UNL A   1      41.679  30.044  36.185  1.00  0.00     0.029 A 
ATOM     54  N   UNL A   1      41.536  29.536  34.025  1.00  0.00    -0.354 N 
ATOM     55  N   UNL A   1      42.258  28.091  31.591  1.00  0.00    -0.248 NA
ATOM     56  C   UNL A   1      43.636  26.602  30.436  1.00  0.00     0.031 C 
ATOM     57  C   UNL A   1      42.684  29.118  35.881  1.00  0.00     0.029 A 
ATOM     58  C   UNL A   1      42.585  28.789  34.539  1.00  0.00     0.049 A 
ATOM     59  H   UNL A   1      41.229  29.508  33.091  1.00  0.00     0.167 HD
ATOM     60  C   UNL A   1      43.213  27.590  32.463  1.00  0.00     0.074 A 
ATOM     61  C   UNL A   1      44.023  26.658  31.704  1.00  0.00     0.031 C 
ATOM     62  C   UNL A   1      43.388  27.865  33.778  1.00  0.00     0.037 A 
BRANCH  49  63
ATOM     63  C   UNL A   1      39.451  32.082  35.992  1.00  0.00     0.064 A 
ATOM     64  C   UNL A   1      38.424  31.638  36.839  1.00  0.00     0.173 A 
ATOM     65  C   UNL A   1      40.064  33.308  36.288  1.00  0.00     0.173 A 
ATOM     66  F   UNL A   1      37.800  30.476  36.592  1.00  0.00    -0.203 F 
ATOM     67  C   UNL A   1      38.009  32.405  37.925  1.00  0.00     0.198 A 
ATOM     68  C   UNL A   1      39.663  34.060  37.389  1.00  0.00     0.198 A 
ATOM     69  F   UNL A   1      41.052  33.774  35.511  1.00  0.00    -0.203 F 
ATOM     70  F   UNL A   1      36.997  31.981  38.695  1.00  0.00    -0.200 F 
ATOM     71  C   UNL A   1      38.632  33.612  38.202  1.00  0.00     0.200 A 
ATOM     72  F   UNL A   1      40.273  35.222  37.662  1.00  0.00    -0.200 F 
ATOM     73  F   UNL A   1      38.235  34.348  39.250  1.00  0.00    -0.200 F 
ENDBRANCH  49  63
BRANCH  50  74
ATOM     74  C   UNL A   1      42.123  26.891  27.938  1.00  0.00     0.064 A 
ATOM     75  C   UNL A   1      41.706  25.579  27.681  1.00  0.00     0.173 A 
ATOM     76  C   UNL A   1      42.953  27.512  26.994  1.00  0.00     0.173 A 
ATOM     77  F   UNL A   1      40.926  24.940  28.565  1.00  0.00    -0.203 F 
ATOM     78  C   UNL A   1      42.117  24.907  26.532  1.00  0.00     0.198 A 
ATOM     79  C   UNL A   1      43.349  26.847  25.836  1.00  0.00     0.198 A 
ATOM     80  F   UNL A   1      43.376  28.770  27.195  1.00  0.00    -0.203 F 
ATOM     81  F   UNL A   1      41.733  23.640  26.326  1.00  0.00    -0.200 F 
ATOM     82  C   UNL A   1      42.935  25.542  25.608  1.00  0.00     0.200 A 
ATOM     83  F   UNL A   1      44.134  27.466  24.944  1.00  0.00    -0.200 F 
ATOM     84  F   UNL A   1      43.330  24.895  24.504  1.00  0.00    -0.200 F 
ENDBRANCH  50  74
BRANCH  62  85
ATOM     85  C   UNL A   1      44.478  27.124  34.495  1.00  0.00     0.064 A 
ATOM     86  C   UNL A   1      45.762  27.668  34.644  1.00  0.00     0.173 A 
ATOM     87  C   UNL A   1      44.224  25.868  35.067  1.00  0.00     0.173 A 
ATOM     88  F   UNL A   1      46.058  28.857  34.099  1.00  0.00    -0.203 F 
ATOM     89  C   UNL A   1      46.759  26.970  35.319  1.00  0.00     0.198 A 
ATOM     90  C   UNL A   1      45.216  25.186  35.765  1.00  0.00     0.198 A 
ATOM     91  F   UNL A   1      43.012  25.306  34.956  1.00  0.00    -0.203 F 
ATOM     92  F   UNL A   1      47.992  27.488  35.409  1.00  0.00    -0.200 F 
ATOM     93  C   UNL A   1      46.484  25.734  35.885  1.00  0.00     0.200 A 
ATOM     94  F   UNL A   1      44.946  23.997  36.321  1.00  0.00    -0.200 F 
ATOM     95  F   UNL A   1      47.445  25.067  36.539  1.00  0.00    -0.200 F 
ENDBRANCH  62  85
ENDBRANCH  36  37
ENDBRANCH  29  31
ENDBRANCH  28  29
ENDBRANCH  27  28
ENDBRANCH  26  27
ENDBRANCH   1  26
TORSDOF 18
ENDMDL
MODEL 3
REMARK VINA RESULT:     -11.1      5.287      8.843
REMARK SMILES CCC1C[NH+]([C@@H](Cc2c[nH]c3ccccc23)C(=O)OCCOCCOC(=O)c2ccc(-c3c4nc(c(-c5c(F)c(F)c(F)c(F)c5F)c5ccc([nH]5)c(-c5c(F)c(F)c(F)c(F)c5F)c5nc(c(-c6c(F)c(F)c(F)c(F)c6F)c6ccc3[nH]6)C=C5)C=C4)cc2)C1
REMARK SMILES IDX 22 1 21 2 20 3 19 4 17 5 18 6 6 7 5 8 3 9 4 10 91 11 2 13
REMARK SMILES IDX 1 14 7 15 8 16 9 17 16 18 10 19 11 20 15 21 12 23 14 24
REMARK SMILES IDX 13 25 23 26 24 27 25 28 26 29 27 30 28 31 29 32 90 33 30 34
REMARK SMILES IDX 89 35 31 36 32 37 33 38 83 39 34 40 88 41 82 42 84 43 35 44
REMARK SMILES IDX 87 45 81 46 80 47 36 49 68 50 48 51 67 52 49 53 52 54 66 55
REMARK SMILES IDX 85 56 50 57 51 58 65 60 86 61 53 62 37 63 38 64 46 65 39 66
REMARK SMILES IDX 40 67 44 68 47 69 41 70 42 71 45 72 43 73 69 74 70 75 78 76
REMARK SMILES IDX 71 77 72 78 76 79 79 80 73 81 74 82 77 83 75 84 54 85 55 86
REMARK SMILES IDX 63 87 56 88 57 89 61 90 64 91 58 92 59 93 62 94 60 95
REMARK H PARENT 5 12 10 22 84 48 52 59
REMARK Flexibility Score: inf
ROOT
ATOM      1  O   UNL A   1      38.545  22.241  25.557  1.00  0.00    -0.374 OA
ENDROOT
BRANCH   1   2
ATOM      2  C   UNL A   1      37.642  23.197  26.117  1.00  0.00     0.202 C 
BRANCH   2   3
ATOM      3  C   UNL A   1      36.796  23.952  25.096  1.00  0.00     0.261 C 
BRANCH   3   4
ATOM      4  O   UNL A   1      35.494  23.340  24.988  1.00  0.00    -0.459 OA
BRANCH   4   5
ATOM      5  C   UNL A   1      35.208  22.860  23.748  1.00  0.00     0.365 C 
ATOM      6  O   UNL A   1      35.991  22.940  22.803  1.00  0.00    -0.245 OA
BRANCH   5   7
ATOM      7  C   UNL A   1      33.810  22.241  23.594  1.00  0.00     0.299 C 
BRANCH   7   8
ATOM      8  N   UNL A   1      33.399  21.413  24.777  1.00  0.00    -0.322 N 
ATOM      9  C   UNL A   1      33.255  19.365  24.222  1.00  0.00     0.099 C 
ATOM     10  C   UNL A   1      32.259  20.493  24.584  1.00  0.00     0.272 C 
ATOM     11  C   UNL A   1      34.276  20.230  24.992  1.00  0.00     0.272 C 
ATOM     12  H   UNL A   1      33.319  22.171  25.455  1.00  0.00     0.348 HD
BRANCH   9  13
ATOM     13  C   UNL A   1      32.932  17.933  24.620  1.00  0.00     0.012 C 
ATOM     14  C   UNL A   1      33.387  16.977  23.522  1.00  0.00     0.004 C 
ENDBRANCH   9  13
ENDBRANCH   7   8
BRANCH   7  15
ATOM     15  C   UNL A   1      32.934  23.217  22.736  1.00  0.00     0.115 C 
BRANCH  15  16
ATOM     16  C   UNL A   1      32.023  24.203  23.413  1.00  0.00    -0.016 A 
ATOM     17  C   UNL A   1      30.647  24.055  23.522  1.00  0.00     0.087 A 
ATOM     18  C   UNL A   1      32.352  25.380  24.153  1.00  0.00     0.003 A 
ATOM     19  N   UNL A   1      30.205  24.912  24.493  1.00  0.00    -0.361 N 
ATOM     20  C   UNL A   1      31.262  25.630  24.987  1.00  0.00     0.046 A 
ATOM     21  C   UNL A   1      33.517  26.148  24.330  1.00  0.00     0.010 A 
ATOM     22  H   UNL A   1      29.270  24.999  24.790  1.00  0.00     0.166 HD
ATOM     23  C   UNL A   1      31.351  26.440  26.118  1.00  0.00     0.026 A 
ATOM     24  C   UNL A   1      33.640  26.944  25.468  1.00  0.00     0.001 A 
ATOM     25  C   UNL A   1      32.590  27.023  26.375  1.00  0.00     0.002 A 
ENDBRANCH  15  16
ENDBRANCH   7  15
ENDBRANCH   5   7
ENDBRANCH   4   5
ENDBRANCH   3   4
ENDBRANCH   2   3
ENDBRANCH   1   2
BRANCH   1  26
ATOM     26  C   UNL A   1      38.041  20.923  25.353  1.00  0.00     0.202 C 
BRANCH  26  27
ATOM     27  C   UNL A   1      39.079  19.795  25.378  1.00  0.00     0.261 C 
BRANCH  27  28
ATOM     28  O   UNL A   1      40.013  19.858  26.470  1.00  0.00    -0.460 OA
BRANCH  28  29
ATOM     29  C   UNL A   1      41.301  19.637  26.120  1.00  0.00     0.338 C 
ATOM     30  O   UNL A   1      41.765  18.635  25.585  1.00  0.00    -0.246 OA
BRANCH  29  31
ATOM     31  C   UNL A   1      42.141  20.812  26.415  1.00  0.00     0.060 A 
ATOM     32  C   UNL A   1      42.273  21.216  27.750  1.00  0.00     0.016 A 
ATOM     33  C   UNL A   1      42.663  21.600  25.386  1.00  0.00     0.016 A 
ATOM     34  C   UNL A   1      42.878  22.436  28.059  1.00  0.00     0.010 A 
ATOM     35  C   UNL A   1      43.263  22.826  25.699  1.00  0.00     0.010 A 
ATOM     36  C   UNL A   1      43.340  23.271  27.034  1.00  0.00    -0.014 A 
BRANCH  36  37
ATOM     37  C   UNL A   1      43.783  24.659  27.327  1.00  0.00     0.031 A 
ATOM     38  C   UNL A   1      42.754  25.701  27.668  1.00  0.00     0.074 A 
ATOM     39  C   UNL A   1      45.080  25.011  27.271  1.00  0.00     0.049 A 
ATOM     40  N   UNL A   1      42.916  26.979  27.905  1.00  0.00    -0.248 NA
ATOM     41  C   UNL A   1      41.362  25.238  27.785  1.00  0.00     0.031 C 
ATOM     42  C   UNL A   1      46.195  24.098  27.057  1.00  0.00     0.029 A 
ATOM     43  N   UNL A   1      45.675  26.246  27.345  1.00  0.00    -0.354 N 
ATOM     44  C   UNL A   1      41.660  27.462  28.242  1.00  0.00     0.074 A 
ATOM     45  C   UNL A   1      40.732  26.358  28.110  1.00  0.00     0.031 C 
ATOM     46  C   UNL A   1      47.320  24.806  26.871  1.00  0.00     0.029 A 
ATOM     47  C   UNL A   1      47.011  26.224  27.026  1.00  0.00     0.049 A 
ATOM     48  H   UNL A   1      45.194  27.065  27.601  1.00  0.00     0.167 HD
ATOM     49  C   UNL A   1      41.318  28.704  28.660  1.00  0.00     0.037 A 
ATOM     50  C   UNL A   1      47.892  27.231  26.878  1.00  0.00     0.037 A 
ATOM     51  C   UNL A   1      42.237  29.808  28.772  1.00  0.00     0.049 A 
ATOM     52  C   UNL A   1      47.469  28.631  27.217  1.00  0.00     0.074 A 
ATOM     53  C   UNL A   1      41.990  31.096  29.213  1.00  0.00     0.029 A 
ATOM     54  N   UNL A   1      43.578  29.756  28.422  1.00  0.00    -0.354 N 
ATOM     55  N   UNL A   1      46.295  29.066  27.601  1.00  0.00    -0.248 NA
ATOM     56  C   UNL A   1      48.506  29.670  27.156  1.00  0.00     0.031 C 
ATOM     57  C   UNL A   1      43.170  31.837  29.083  1.00  0.00     0.029 A 
ATOM     58  C   UNL A   1      44.163  30.999  28.606  1.00  0.00     0.049 A 
ATOM     59  H   UNL A   1      44.046  28.955  28.093  1.00  0.00     0.167 HD
ATOM     60  C   UNL A   1      46.460  30.415  27.877  1.00  0.00     0.074 A 
ATOM     61  C   UNL A   1      47.848  30.730  27.607  1.00  0.00     0.031 C 
ATOM     62  C   UNL A   1      45.545  31.305  28.333  1.00  0.00     0.037 A 
BRANCH  49  63
ATOM     63  C   UNL A   1      39.884  28.931  29.033  1.00  0.00     0.064 A 
ATOM     64  C   UNL A   1      38.923  29.267  28.067  1.00  0.00     0.173 A 
ATOM     65  C   UNL A   1      39.457  28.783  30.361  1.00  0.00     0.173 A 
ATOM     66  F   UNL A   1      39.283  29.430  26.785  1.00  0.00    -0.203 F 
ATOM     67  C   UNL A   1      37.593  29.473  28.422  1.00  0.00     0.198 A 
ATOM     68  C   UNL A   1      38.121  28.965  30.708  1.00  0.00     0.198 A 
ATOM     69  F   UNL A   1      40.336  28.459  31.320  1.00  0.00    -0.203 F 
ATOM     70  F   UNL A   1      36.700  29.835  27.489  1.00  0.00    -0.200 F 
ATOM     71  C   UNL A   1      37.191  29.317  29.739  1.00  0.00     0.200 A 
ATOM     72  F   UNL A   1      37.733  28.804  31.980  1.00  0.00    -0.200 F 
ATOM     73  F   UNL A   1      35.910  29.511  30.079  1.00  0.00    -0.200 F 
ENDBRANCH  49  63
BRANCH  50  74
ATOM     74  C   UNL A   1      49.273  26.934  26.422  1.00  0.00     0.064 A 
ATOM     75  C   UNL A   1      49.613  26.975  25.065  1.00  0.00     0.173 A 
ATOM     76  C   UNL A   1      50.281  26.614  27.342  1.00  0.00     0.173 A 
ATOM     77  F   UNL A   1      48.677  27.261  24.149  1.00  0.00    -0.203 F 
ATOM     78  C   UNL A   1      50.909  26.689  24.641  1.00  0.00     0.198 A 
ATOM     79  C   UNL A   1      51.581  26.346  26.920  1.00  0.00     0.198 A 
ATOM     80  F   UNL A   1      50.003  26.565  28.654  1.00  0.00    -0.203 F 
ATOM     81  F   UNL A   1      51.202  26.701  23.334  1.00  0.00    -0.200 F 
ATOM     82  C   UNL A   1      51.894  26.379  25.569  1.00  0.00     0.200 A 
ATOM     83  F   UNL A   1      52.530  26.053  27.820  1.00  0.00    -0.200 F 
ATOM     84  F   UNL A   1      53.140  26.104  25.161  1.00  0.00    -0.200 F 
ENDBRANCH  50  74
BRANCH  62  85
ATOM     85  C   UNL A   1      46.021  32.703  28.602  1.00  0.00     0.064 A 
ATOM     86  C   UNL A   1      46.564  33.069  29.842  1.00  0.00     0.173 A 
ATOM     87  C   UNL A   1      45.961  33.678  27.595  1.00  0.00     0.173 A 
ATOM     88  F   UNL A   1      46.625  32.176  30.841  1.00  0.00    -0.203 F 
ATOM     89  C   UNL A   1      47.008  34.368  30.072  1.00  0.00     0.198 A 
ATOM     90  C   UNL A   1      46.432  34.969  27.820  1.00  0.00     0.198 A 
ATOM     91  F   UNL A   1      45.454  33.378  26.390  1.00  0.00    -0.203 F 
ATOM     92  F   UNL A   1      47.481  34.708  31.279  1.00  0.00    -0.200 F 
ATOM     93  C   UNL A   1      46.949  35.314  29.059  1.00  0.00     0.200 A 
ATOM     94  F   UNL A   1      46.384  35.879  26.838  1.00  0.00    -0.200 F 
ATOM     95  F   UNL A   1      47.382  36.563  29.282  1.00  0.00    -0.200 F 
ENDBRANCH  62  85
ENDBRANCH  36  37
ENDBRANCH  29  31
ENDBRANCH  28  29
ENDBRANCH  27  28
ENDBRANCH  26  27
ENDBRANCH   1  26
TORSDOF 18
ENDMDL
