MODEL 1
REMARK VINA RESULT:     -11.1      0.000      0.000
REMARK SMILES COc1ccc(-c2sc(C(=O)OCCOCCOC(=O)c3ccc(-c4c5nc(c(-c6c(F)c(F)c(F)c(F)c6F)c6ccc([nH]6)c(-c6c(F)c(F)c(F)c(F)c6F)c6nc(c(-c7c(F)c(F)c(F)c(F)c7F)c7ccc4[nH]7)C=C6)C=C5)cc3)cc2C)c(OC)c1
REMARK SMILES IDX 15 1 14 2 13 3 12 4 10 5 11 6 9 7 7 8 8 9 85 10 84 11 86 12
REMARK SMILES IDX 6 13 3 14 4 15 90 16 5 17 87 18 2 19 1 20 88 21 89 22 16 23
REMARK SMILES IDX 17 24 18 25 19 26 20 27 21 28 22 29 83 30 23 31 82 32 24 33
REMARK SMILES IDX 25 34 26 35 76 36 27 37 81 38 75 39 77 40 28 41 80 42 74 43
REMARK SMILES IDX 73 44 29 46 61 47 41 48 60 49 42 50 45 51 59 52 78 53 43 54
REMARK SMILES IDX 44 55 58 57 79 58 46 59 30 60 31 61 39 62 32 63 33 64 37 65
REMARK SMILES IDX 40 66 34 67 35 68 38 69 36 70 62 71 63 72 71 73 64 74 65 75
REMARK SMILES IDX 69 76 72 77 66 78 67 79 70 80 68 81 47 82 48 83 56 84 49 85
REMARK SMILES IDX 50 86 54 87 57 88 51 89 52 90 55 91 53 92
REMARK H PARENT 77 45 45 56
REMARK Flexibility Score: inf
ROOT
ATOM      1  O   UNL A   1      42.205  21.053  27.131  1.00  0.00    -0.374 OA
ENDROOT
BRANCH   1   2
ATOM      2  C   UNL A   1      40.827  20.681  27.111  1.00  0.00     0.202 C 
BRANCH   2   3
ATOM      3  C   UNL A   1      40.061  21.053  25.837  1.00  0.00     0.261 C 
BRANCH   3   4
ATOM      4  O   UNL A   1      38.809  21.685  26.151  1.00  0.00    -0.459 OA
BRANCH   4   5
ATOM      5  C   UNL A   1      37.735  21.212  25.454  1.00  0.00     0.348 C 
ATOM      6  O   UNL A   1      37.691  20.112  24.914  1.00  0.00    -0.245 OA
BRANCH   5   7
ATOM      7  C   UNL A   1      36.599  22.109  25.547  1.00  0.00     0.113 A 
ATOM      8  C   UNL A   1      34.921  23.927  25.325  1.00  0.00     0.042 A 
ATOM      9  S   UNL A   1      36.590  23.703  24.944  1.00  0.00    -0.128 S 
ATOM     10  C   UNL A   1      34.415  22.838  26.026  1.00  0.00    -0.031 A 
ATOM     11  C   UNL A   1      35.389  21.795  26.129  1.00  0.00     0.031 A 
ATOM     12  C   UNL A   1      33.031  22.689  26.569  1.00  0.00     0.046 C 
BRANCH   8  13
ATOM     13  C   UNL A   1      34.223  25.137  24.844  1.00  0.00     0.034 A 
ATOM     14  C   UNL A   1      33.092  27.589  24.020  1.00  0.00     0.122 A 
ATOM     15  C   UNL A   1      33.476  27.404  25.344  1.00  0.00     0.047 A 
ATOM     16  C   UNL A   1      33.277  26.555  23.098  1.00  0.00     0.093 A 
ATOM     17  C   UNL A   1      34.027  26.192  25.754  1.00  0.00     0.017 A 
ATOM     18  C   UNL A   1      33.844  25.330  23.497  1.00  0.00     0.131 A 
BRANCH  14  19
ATOM     19  O   UNL A   1      32.599  28.832  23.735  1.00  0.00    -0.497 OA
ATOM     20  C   UNL A   1      31.206  28.905  23.454  1.00  0.00     0.278 C 
ENDBRANCH  14  19
BRANCH  18  21
ATOM     21  O   UNL A   1      34.048  24.276  22.637  1.00  0.00    -0.496 OA
ATOM     22  C   UNL A   1      32.911  23.503  22.269  1.00  0.00     0.278 C 
ENDBRANCH  18  21
ENDBRANCH   8  13
ENDBRANCH   5   7
ENDBRANCH   4   5
ENDBRANCH   3   4
ENDBRANCH   2   3
ENDBRANCH   1   2
BRANCH   1  23
ATOM     23  C   UNL A   1      43.009  20.590  26.042  1.00  0.00     0.202 C 
BRANCH  23  24
ATOM     24  C   UNL A   1      43.841  21.660  25.326  1.00  0.00     0.261 C 
BRANCH  24  25
ATOM     25  O   UNL A   1      43.029  22.784  24.943  1.00  0.00    -0.460 OA
BRANCH  25  26
ATOM     26  C   UNL A   1      43.656  23.983  24.983  1.00  0.00     0.338 C 
ATOM     27  O   UNL A   1      44.569  24.367  24.270  1.00  0.00    -0.246 OA
BRANCH  26  28
ATOM     28  C   UNL A   1      42.962  24.881  25.927  1.00  0.00     0.060 A 
ATOM     29  C   UNL A   1      43.501  26.162  26.107  1.00  0.00     0.016 A 
ATOM     30  C   UNL A   1      41.847  24.471  26.663  1.00  0.00     0.016 A 
ATOM     31  C   UNL A   1      42.963  27.017  27.066  1.00  0.00     0.010 A 
ATOM     32  C   UNL A   1      41.312  25.330  27.630  1.00  0.00     0.010 A 
ATOM     33  C   UNL A   1      41.891  26.592  27.861  1.00  0.00    -0.014 A 
BRANCH  33  34
ATOM     34  C   UNL A   1      41.475  27.416  29.021  1.00  0.00     0.031 A 
ATOM     35  C   UNL A   1      42.256  27.322  30.303  1.00  0.00     0.074 A 
ATOM     36  C   UNL A   1      40.439  28.267  28.924  1.00  0.00     0.049 A 
ATOM     37  N   UNL A   1      42.071  27.947  31.437  1.00  0.00    -0.248 NA
ATOM     38  C   UNL A   1      43.400  26.396  30.304  1.00  0.00     0.031 C 
ATOM     39  C   UNL A   1      39.625  28.470  27.728  1.00  0.00     0.029 A 
ATOM     40  N   UNL A   1      39.895  29.118  29.853  1.00  0.00    -0.354 N 
ATOM     41  C   UNL A   1      43.071  27.491  32.286  1.00  0.00     0.074 A 
ATOM     42  C   UNL A   1      43.840  26.512  31.548  1.00  0.00     0.031 C 
ATOM     43  C   UNL A   1      38.677  29.384  27.999  1.00  0.00     0.029 A 
ATOM     44  C   UNL A   1      38.803  29.809  29.392  1.00  0.00     0.049 A 
ATOM     45  H   UNL A   1      40.254  29.222  30.764  1.00  0.00     0.167 HD
ATOM     46  C   UNL A   1      43.331  27.862  33.563  1.00  0.00     0.037 A 
ATOM     47  C   UNL A   1      37.990  30.675  30.029  1.00  0.00     0.037 A 
ATOM     48  C   UNL A   1      42.567  28.836  34.296  1.00  0.00     0.049 A 
ATOM     49  C   UNL A   1      38.264  31.025  31.468  1.00  0.00     0.074 A 
ATOM     50  C   UNL A   1      42.766  29.298  35.586  1.00  0.00     0.029 A 
ATOM     51  N   UNL A   1      41.448  29.493  33.806  1.00  0.00    -0.354 N 
ATOM     52  N   UNL A   1      39.232  30.616  32.252  1.00  0.00    -0.248 NA
ATOM     53  C   UNL A   1      37.333  31.967  32.108  1.00  0.00     0.031 C 
ATOM     54  C   UNL A   1      41.741  30.199  35.892  1.00  0.00     0.029 A 
ATOM     55  C   UNL A   1      40.931  30.337  34.776  1.00  0.00     0.049 A 
ATOM     56  H   UNL A   1      41.077  29.378  32.902  1.00  0.00     0.167 HD
ATOM     57  C   UNL A   1      39.042  31.265  33.464  1.00  0.00     0.074 A 
ATOM     58  C   UNL A   1      37.875  32.109  33.309  1.00  0.00     0.031 C 
ATOM     59  C   UNL A   1      39.771  31.173  34.605  1.00  0.00     0.037 A 
BRANCH  46  60
ATOM     60  C   UNL A   1      44.480  27.192  34.256  1.00  0.00     0.064 A 
ATOM     61  C   UNL A   1      45.773  27.738  34.236  1.00  0.00     0.173 A 
ATOM     62  C   UNL A   1      44.281  26.005  34.976  1.00  0.00     0.173 A 
ATOM     63  F   UNL A   1      46.019  28.864  33.551  1.00  0.00    -0.203 F 
ATOM     64  C   UNL A   1      46.828  27.106  34.889  1.00  0.00     0.198 A 
ATOM     65  C   UNL A   1      45.332  25.390  35.651  1.00  0.00     0.198 A 
ATOM     66  F   UNL A   1      43.064  25.443  35.030  1.00  0.00    -0.203 F 
ATOM     67  F   UNL A   1      48.063  27.621  34.820  1.00  0.00    -0.200 F 
ATOM     68  C   UNL A   1      46.605  25.936  35.601  1.00  0.00     0.200 A 
ATOM     69  F   UNL A   1      45.112  24.266  36.347  1.00  0.00    -0.200 F 
ATOM     70  F   UNL A   1      47.620  25.331  36.234  1.00  0.00    -0.200 F 
ENDBRANCH  46  60
BRANCH  47  71
ATOM     71  C   UNL A   1      36.834  31.268  29.309  1.00  0.00     0.064 A 
ATOM     72  C   UNL A   1      35.716  30.494  28.973  1.00  0.00     0.173 A 
ATOM     73  C   UNL A   1      36.832  32.618  28.929  1.00  0.00     0.173 A 
ATOM     74  F   UNL A   1      35.683  29.191  29.291  1.00  0.00    -0.203 F 
ATOM     75  C   UNL A   1      34.645  31.043  28.271  1.00  0.00     0.198 A 
ATOM     76  C   UNL A   1      35.750  33.173  28.250  1.00  0.00     0.198 A 
ATOM     77  F   UNL A   1      37.881  33.401  29.224  1.00  0.00    -0.203 F 
ATOM     78  F   UNL A   1      33.608  30.269  27.923  1.00  0.00    -0.200 F 
ATOM     79  C   UNL A   1      34.660  32.384  27.915  1.00  0.00     0.200 A 
ATOM     80  F   UNL A   1      35.764  34.471  27.917  1.00  0.00    -0.200 F 
ATOM     81  F   UNL A   1      33.629  32.912  27.242  1.00  0.00    -0.200 F 
ENDBRANCH  47  71
BRANCH  59  82
ATOM     82  C   UNL A   1      39.347  32.027  35.765  1.00  0.00     0.064 A 
ATOM     83  C   UNL A   1      38.384  31.591  36.687  1.00  0.00     0.173 A 
ATOM     84  C   UNL A   1      39.937  33.283  35.976  1.00  0.00     0.173 A 
ATOM     85  F   UNL A   1      37.780  30.404  36.522  1.00  0.00    -0.203 F 
ATOM     86  C   UNL A   1      38.009  32.392  37.763  1.00  0.00     0.198 A 
ATOM     87  C   UNL A   1      39.581  34.068  37.069  1.00  0.00     0.198 A 
ATOM     88  F   UNL A   1      40.868  33.743  35.127  1.00  0.00    -0.203 F 
ATOM     89  F   UNL A   1      37.053  31.975  38.604  1.00  0.00    -0.200 F 
ATOM     90  C   UNL A   1      38.612  33.626  37.956  1.00  0.00     0.200 A 
ATOM     91  F   UNL A   1      40.174  35.254  37.261  1.00  0.00    -0.200 F 
ATOM     92  F   UNL A   1      38.254  34.393  38.995  1.00  0.00    -0.200 F 
ENDBRANCH  59  82
ENDBRANCH  33  34
ENDBRANCH  26  28
ENDBRANCH  25  26
ENDBRANCH  24  25
ENDBRANCH  23  24
ENDBRANCH   1  23
TORSDOF 17
ENDMDL
MODEL 2
REMARK VINA RESULT:     -11.0      2.990      8.913
REMARK SMILES COc1ccc(-c2sc(C(=O)OCCOCCOC(=O)c3ccc(-c4c5nc(c(-c6c(F)c(F)c(F)c(F)c6F)c6ccc([nH]6)c(-c6c(F)c(F)c(F)c(F)c6F)c6nc(c(-c7c(F)c(F)c(F)c(F)c7F)c7ccc4[nH]7)C=C6)C=C5)cc3)cc2C)c(OC)c1
REMARK SMILES IDX 15 1 14 2 13 3 12 4 10 5 11 6 9 7 7 8 8 9 85 10 84 11 86 12
REMARK SMILES IDX 6 13 3 14 4 15 90 16 5 17 87 18 2 19 1 20 88 21 89 22 16 23
REMARK SMILES IDX 17 24 18 25 19 26 20 27 21 28 22 29 83 30 23 31 82 32 24 33
REMARK SMILES IDX 25 34 26 35 76 36 27 37 81 38 75 39 77 40 28 41 80 42 74 43
REMARK SMILES IDX 73 44 29 46 61 47 41 48 60 49 42 50 45 51 59 52 78 53 43 54
REMARK SMILES IDX 44 55 58 57 79 58 46 59 30 60 31 61 39 62 32 63 33 64 37 65
REMARK SMILES IDX 40 66 34 67 35 68 38 69 36 70 62 71 63 72 71 73 64 74 65 75
REMARK SMILES IDX 69 76 72 77 66 78 67 79 70 80 68 81 47 82 48 83 56 84 49 85
REMARK SMILES IDX 50 86 54 87 57 88 51 89 52 90 55 91 53 92
REMARK H PARENT 77 45 45 56
REMARK Flexibility Score: inf
ROOT
ATOM      1  O   UNL A   1      32.053  29.403  24.562  1.00  0.00    -0.374 OA
ENDROOT
BRANCH   1   2
ATOM      2  C   UNL A   1      31.362  28.327  23.928  1.00  0.00     0.202 C 
BRANCH   2   3
ATOM      3  C   UNL A   1      31.856  27.960  22.524  1.00  0.00     0.261 C 
BRANCH   3   4
ATOM      4  O   UNL A   1      31.502  26.609  22.187  1.00  0.00    -0.459 OA
BRANCH   4   5
ATOM      5  C   UNL A   1      32.559  25.766  22.000  1.00  0.00     0.348 C 
ATOM      6  O   UNL A   1      33.585  26.067  21.400  1.00  0.00    -0.245 OA
BRANCH   5   7
ATOM      7  C   UNL A   1      32.383  24.517  22.716  1.00  0.00     0.113 A 
ATOM      8  C   UNL A   1      32.524  22.227  23.666  1.00  0.00     0.042 A 
ATOM      9  S   UNL A   1      33.133  23.052  22.276  1.00  0.00    -0.128 S 
ATOM     10  C   UNL A   1      31.649  23.032  24.385  1.00  0.00    -0.031 A 
ATOM     11  C   UNL A   1      31.593  24.351  23.833  1.00  0.00     0.031 A 
ATOM     12  C   UNL A   1      30.887  22.651  25.612  1.00  0.00     0.046 C 
BRANCH   8  13
ATOM     13  C   UNL A   1      33.010  20.865  23.972  1.00  0.00     0.034 A 
ATOM     14  C   UNL A   1      33.929  18.216  24.298  1.00  0.00     0.122 A 
ATOM     15  C   UNL A   1      32.748  18.468  23.608  1.00  0.00     0.047 A 
ATOM     16  C   UNL A   1      34.662  19.283  24.822  1.00  0.00     0.093 A 
ATOM     17  C   UNL A   1      32.289  19.774  23.453  1.00  0.00     0.017 A 
ATOM     18  C   UNL A   1      34.216  20.609  24.662  1.00  0.00     0.131 A 
BRANCH  14  19
ATOM     19  O   UNL A   1      34.291  16.899  24.351  1.00  0.00    -0.497 OA
ATOM     20  C   UNL A   1      33.353  16.014  24.950  1.00  0.00     0.278 C 
ENDBRANCH  14  19
BRANCH  18  21
ATOM     21  O   UNL A   1      34.893  21.699  25.157  1.00  0.00    -0.496 OA
ATOM     22  C   UNL A   1      36.143  21.459  25.791  1.00  0.00     0.278 C 
ENDBRANCH  18  21
ENDBRANCH   8  13
ENDBRANCH   5   7
ENDBRANCH   4   5
ENDBRANCH   3   4
ENDBRANCH   2   3
ENDBRANCH   1   2
BRANCH   1  23
ATOM     23  C   UNL A   1      31.251  30.336  25.293  1.00  0.00     0.202 C 
BRANCH  23  24
ATOM     24  C   UNL A   1      31.824  30.797  26.637  1.00  0.00     0.261 C 
BRANCH  24  25
ATOM     25  O   UNL A   1      33.262  30.853  26.601  1.00  0.00    -0.460 OA
BRANCH  25  26
ATOM     26  C   UNL A   1      33.818  31.779  27.417  1.00  0.00     0.338 C 
ATOM     27  O   UNL A   1      33.298  32.792  27.854  1.00  0.00    -0.246 OA
BRANCH  26  28
ATOM     28  C   UNL A   1      35.142  31.312  27.876  1.00  0.00     0.060 A 
ATOM     29  C   UNL A   1      35.261  29.959  28.218  1.00  0.00     0.016 A 
ATOM     30  C   UNL A   1      36.227  32.179  28.026  1.00  0.00     0.016 A 
ATOM     31  C   UNL A   1      36.448  29.479  28.765  1.00  0.00     0.010 A 
ATOM     32  C   UNL A   1      37.417  31.696  28.582  1.00  0.00     0.010 A 
ATOM     33  C   UNL A   1      37.520  30.353  28.987  1.00  0.00    -0.014 A 
BRANCH  33  34
ATOM     34  C   UNL A   1      38.689  29.886  29.771  1.00  0.00     0.031 A 
ATOM     35  C   UNL A   1      38.880  30.395  31.174  1.00  0.00     0.074 A 
ATOM     36  C   UNL A   1      39.548  28.989  29.257  1.00  0.00     0.049 A 
ATOM     37  N   UNL A   1      39.826  30.122  32.036  1.00  0.00    -0.248 NA
ATOM     38  C   UNL A   1      37.867  31.341  31.669  1.00  0.00     0.031 C 
ATOM     39  C   UNL A   1      39.452  28.399  27.924  1.00  0.00     0.029 A 
ATOM     40  N   UNL A   1      40.674  28.421  29.799  1.00  0.00    -0.354 N 
ATOM     41  C   UNL A   1      39.524  30.862  33.172  1.00  0.00     0.074 A 
ATOM     42  C   UNL A   1      38.327  31.620  32.879  1.00  0.00     0.031 C 
ATOM     43  C   UNL A   1      40.484  27.555  27.748  1.00  0.00     0.029 A 
ATOM     44  C   UNL A   1      41.323  27.567  28.944  1.00  0.00     0.049 A 
ATOM     45  H   UNL A   1      40.986  28.609  30.714  1.00  0.00     0.167 HD
ATOM     46  C   UNL A   1      40.180  30.897  34.357  1.00  0.00     0.037 A 
ATOM     47  C   UNL A   1      42.474  26.885  29.107  1.00  0.00     0.037 A 
ATOM     48  C   UNL A   1      41.371  30.142  34.648  1.00  0.00     0.049 A 
ATOM     49  C   UNL A   1      43.219  26.988  30.412  1.00  0.00     0.074 A 
ATOM     50  C   UNL A   1      42.095  30.092  35.827  1.00  0.00     0.029 A 
ATOM     51  N   UNL A   1      42.018  29.310  33.746  1.00  0.00    -0.354 N 
ATOM     52  N   UNL A   1      42.908  27.662  31.493  1.00  0.00    -0.248 NA
ATOM     53  C   UNL A   1      44.473  26.228  30.520  1.00  0.00     0.031 C 
ATOM     54  C   UNL A   1      43.206  29.267  35.623  1.00  0.00     0.029 A 
ATOM     55  C   UNL A   1      43.147  28.763  34.333  1.00  0.00     0.049 A 
ATOM     56  H   UNL A   1      41.718  29.134  32.825  1.00  0.00     0.167 HD
ATOM     57  C   UNL A   1      43.910  27.389  32.415  1.00  0.00     0.074 A 
ATOM     58  C   UNL A   1      44.832  26.475  31.772  1.00  0.00     0.031 C 
ATOM     59  C   UNL A   1      44.053  27.852  33.681  1.00  0.00     0.037 A 
BRANCH  46  60
ATOM     60  C   UNL A   1      39.635  31.802  35.421  1.00  0.00     0.064 A 
ATOM     61  C   UNL A   1      38.652  31.370  36.324  1.00  0.00     0.173 A 
ATOM     62  C   UNL A   1      40.125  33.109  35.561  1.00  0.00     0.173 A 
ATOM     63  F   UNL A   1      38.141  30.134  36.225  1.00  0.00    -0.203 F 
ATOM     64  C   UNL A   1      38.160  32.222  37.310  1.00  0.00     0.198 A 
ATOM     65  C   UNL A   1      39.650  33.950  36.564  1.00  0.00     0.198 A 
ATOM     66  F   UNL A   1      41.068  33.571  34.726  1.00  0.00    -0.203 F 
ATOM     67  F   UNL A   1      37.189  31.803  38.132  1.00  0.00    -0.200 F 
ATOM     68  C   UNL A   1      38.664  33.509  37.433  1.00  0.00     0.200 A 
ATOM     69  F   UNL A   1      40.146  35.188  36.689  1.00  0.00    -0.200 F 
ATOM     70  F   UNL A   1      38.194  34.326  38.385  1.00  0.00    -0.200 F 
ENDBRANCH  46  60
BRANCH  47  71
ATOM     71  C   UNL A   1      42.997  26.044  27.999  1.00  0.00     0.064 A 
ATOM     72  C   UNL A   1      43.840  26.582  27.018  1.00  0.00     0.173 A 
ATOM     73  C   UNL A   1      42.650  24.690  27.890  1.00  0.00     0.173 A 
ATOM     74  F   UNL A   1      44.177  27.880  27.062  1.00  0.00    -0.203 F 
ATOM     75  C   UNL A   1      44.305  25.802  25.961  1.00  0.00     0.198 A 
ATOM     76  C   UNL A   1      43.137  23.903  26.849  1.00  0.00     0.198 A 
ATOM     77  F   UNL A   1      41.843  24.128  28.803  1.00  0.00    -0.203 F 
ATOM     78  F   UNL A   1      45.073  26.352  25.012  1.00  0.00    -0.200 F 
ATOM     79  C   UNL A   1      43.958  24.460  25.881  1.00  0.00     0.200 A 
ATOM     80  F   UNL A   1      42.807  22.606  26.782  1.00  0.00    -0.200 F 
ATOM     81  F   UNL A   1      44.407  23.710  24.867  1.00  0.00    -0.200 F 
ENDBRANCH  47  71
BRANCH  59  82
ATOM     82  C   UNL A   1      45.232  27.355  34.468  1.00  0.00     0.064 A 
ATOM     83  C   UNL A   1      45.165  26.180  35.231  1.00  0.00     0.173 A 
ATOM     84  C   UNL A   1      46.453  28.046  34.432  1.00  0.00     0.173 A 
ATOM     85  F   UNL A   1      44.017  25.490  35.310  1.00  0.00    -0.203 F 
ATOM     86  C   UNL A   1      46.271  25.728  35.947  1.00  0.00     0.198 A 
ATOM     87  C   UNL A   1      47.564  27.576  35.126  1.00  0.00     0.198 A 
ATOM     88  F   UNL A   1      46.571  29.172  33.712  1.00  0.00    -0.203 F 
ATOM     89  F   UNL A   1      46.171  24.629  36.707  1.00  0.00    -0.200 F 
ATOM     90  C   UNL A   1      47.470  26.423  35.889  1.00  0.00     0.200 A 
ATOM     91  F   UNL A   1      48.725  28.241  35.057  1.00  0.00    -0.200 F 
ATOM     92  F   UNL A   1      48.535  25.984  36.575  1.00  0.00    -0.200 F 
ENDBRANCH  59  82
ENDBRANCH  33  34
ENDBRANCH  26  28
ENDBRANCH  25  26
ENDBRANCH  24  25
ENDBRANCH  23  24
ENDBRANCH   1  23
TORSDOF 17
ENDMDL
MODEL 3
REMARK VINA RESULT:     -10.9      2.580      8.855
REMARK SMILES COc1ccc(-c2sc(C(=O)OCCOCCOC(=O)c3ccc(-c4c5nc(c(-c6c(F)c(F)c(F)c(F)c6F)c6ccc([nH]6)c(-c6c(F)c(F)c(F)c(F)c6F)c6nc(c(-c7c(F)c(F)c(F)c(F)c7F)c7ccc4[nH]7)C=C6)C=C5)cc3)cc2C)c(OC)c1
REMARK SMILES IDX 15 1 14 2 13 3 12 4 10 5 11 6 9 7 7 8 8 9 85 10 84 11 86 12
REMARK SMILES IDX 6 13 3 14 4 15 90 16 5 17 87 18 2 19 1 20 88 21 89 22 16 23
REMARK SMILES IDX 17 24 18 25 19 26 20 27 21 28 22 29 83 30 23 31 82 32 24 33
REMARK SMILES IDX 25 34 26 35 76 36 27 37 81 38 75 39 77 40 28 41 80 42 74 43
REMARK SMILES IDX 73 44 29 46 61 47 41 48 60 49 42 50 45 51 59 52 78 53 43 54
REMARK SMILES IDX 44 55 58 57 79 58 46 59 30 60 31 61 39 62 32 63 33 64 37 65
REMARK SMILES IDX 40 66 34 67 35 68 38 69 36 70 62 71 63 72 71 73 64 74 65 75
REMARK SMILES IDX 69 76 72 77 66 78 67 79 70 80 68 81 47 82 48 83 56 84 49 85
REMARK SMILES IDX 50 86 54 87 57 88 51 89 52 90 55 91 53 92
REMARK H PARENT 77 45 45 56
REMARK Flexibility Score: inf
ROOT
ATOM      1  O   UNL A   1      30.963  29.774  24.537  1.00  0.00    -0.374 OA
ENDROOT
BRANCH   1   2
ATOM      2  C   UNL A   1      29.883  29.738  23.604  1.00  0.00     0.202 C 
BRANCH   2   3
ATOM      3  C   UNL A   1      29.586  28.365  22.989  1.00  0.00     0.261 C 
BRANCH   3   4
ATOM      4  O   UNL A   1      30.300  27.325  23.678  1.00  0.00    -0.459 OA
BRANCH   4   5
ATOM      5  C   UNL A   1      31.037  26.504  22.874  1.00  0.00     0.348 C 
ATOM      6  O   UNL A   1      31.126  26.625  21.657  1.00  0.00    -0.245 OA
BRANCH   5   7
ATOM      7  C   UNL A   1      31.814  25.554  23.647  1.00  0.00     0.113 A 
ATOM      8  C   UNL A   1      33.529  24.030  24.599  1.00  0.00     0.042 A 
ATOM      9  S   UNL A   1      33.231  24.795  23.080  1.00  0.00    -0.128 S 
ATOM     10  C   UNL A   1      32.481  24.250  25.487  1.00  0.00    -0.031 A 
ATOM     11  C   UNL A   1      31.512  25.142  24.927  1.00  0.00     0.031 A 
ATOM     12  C   UNL A   1      32.355  23.707  26.873  1.00  0.00     0.046 C 
BRANCH   8  13
ATOM     13  C   UNL A   1      34.808  23.323  24.817  1.00  0.00     0.034 A 
ATOM     14  C   UNL A   1      37.256  22.080  25.472  1.00  0.00     0.122 A 
ATOM     15  C   UNL A   1      37.115  23.458  25.597  1.00  0.00     0.047 A 
ATOM     16  C   UNL A   1      36.176  21.314  25.028  1.00  0.00     0.093 A 
ATOM     17  C   UNL A   1      35.909  24.074  25.266  1.00  0.00     0.017 A 
ATOM     18  C   UNL A   1      34.949  21.922  24.702  1.00  0.00     0.131 A 
BRANCH  14  19
ATOM     19  O   UNL A   1      38.473  21.591  25.861  1.00  0.00    -0.497 OA
ATOM     20  C   UNL A   1      39.346  22.517  26.496  1.00  0.00     0.278 C 
ENDBRANCH  14  19
BRANCH  18  21
ATOM     21  O   UNL A   1      33.852  21.221  24.257  1.00  0.00    -0.496 OA
ATOM     22  C   UNL A   1      33.255  20.299  25.162  1.00  0.00     0.278 C 
ENDBRANCH  18  21
ENDBRANCH   8  13
ENDBRANCH   5   7
ENDBRANCH   4   5
ENDBRANCH   3   4
ENDBRANCH   2   3
ENDBRANCH   1   2
BRANCH   1  23
ATOM     23  C   UNL A   1      31.042  30.927  25.379  1.00  0.00     0.202 C 
BRANCH  23  24
ATOM     24  C   UNL A   1      31.715  30.713  26.740  1.00  0.00     0.261 C 
BRANCH  24  25
ATOM     25  O   UNL A   1      33.147  30.809  26.635  1.00  0.00    -0.460 OA
BRANCH  25  26
ATOM     26  C   UNL A   1      33.715  31.755  27.419  1.00  0.00     0.338 C 
ATOM     27  O   UNL A   1      33.202  32.781  27.835  1.00  0.00    -0.246 OA
BRANCH  26  28
ATOM     28  C   UNL A   1      35.043  31.298  27.875  1.00  0.00     0.060 A 
ATOM     29  C   UNL A   1      35.201  29.926  28.116  1.00  0.00     0.016 A 
ATOM     30  C   UNL A   1      36.094  32.185  28.118  1.00  0.00     0.016 A 
ATOM     31  C   UNL A   1      36.391  29.445  28.655  1.00  0.00     0.010 A 
ATOM     32  C   UNL A   1      37.287  31.700  28.666  1.00  0.00     0.010 A 
ATOM     33  C   UNL A   1      37.427  30.333  28.971  1.00  0.00    -0.014 A 
BRANCH  33  34
ATOM     34  C   UNL A   1      38.592  29.845  29.746  1.00  0.00     0.031 A 
ATOM     35  C   UNL A   1      38.799  30.347  31.149  1.00  0.00     0.074 A 
ATOM     36  C   UNL A   1      39.434  28.938  29.224  1.00  0.00     0.049 A 
ATOM     37  N   UNL A   1      39.746  30.057  32.005  1.00  0.00    -0.248 NA
ATOM     38  C   UNL A   1      37.804  31.306  31.653  1.00  0.00     0.031 C 
ATOM     39  C   UNL A   1      39.322  28.353  27.889  1.00  0.00     0.029 A 
ATOM     40  N   UNL A   1      40.555  28.350  29.758  1.00  0.00    -0.354 N 
ATOM     41  C   UNL A   1      39.462  30.796  33.145  1.00  0.00     0.074 A 
ATOM     42  C   UNL A   1      38.275  31.574  32.862  1.00  0.00     0.031 C 
ATOM     43  C   UNL A   1      40.340  27.494  27.704  1.00  0.00     0.029 A 
ATOM     44  C   UNL A   1      41.186  27.489  28.896  1.00  0.00     0.049 A 
ATOM     45  H   UNL A   1      40.875  28.530  30.671  1.00  0.00     0.167 HD
ATOM     46  C   UNL A   1      40.125  30.818  34.326  1.00  0.00     0.037 A 
ATOM     47  C   UNL A   1      42.327  26.788  29.050  1.00  0.00     0.037 A 
ATOM     48  C   UNL A   1      41.306  30.043  34.608  1.00  0.00     0.049 A 
ATOM     49  C   UNL A   1      43.081  26.876  30.351  1.00  0.00     0.074 A 
ATOM     50  C   UNL A   1      42.036  29.978  35.782  1.00  0.00     0.029 A 
ATOM     51  N   UNL A   1      41.935  29.204  33.700  1.00  0.00    -0.354 N 
ATOM     52  N   UNL A   1      42.786  27.550  31.436  1.00  0.00    -0.248 NA
ATOM     53  C   UNL A   1      44.323  26.096  30.450  1.00  0.00     0.031 C 
ATOM     54  C   UNL A   1      43.133  29.136  35.569  1.00  0.00     0.029 A 
ATOM     55  C   UNL A   1      43.059  28.637  34.279  1.00  0.00     0.049 A 
ATOM     56  H   UNL A   1      41.627  29.036  32.780  1.00  0.00     0.167 HD
ATOM     57  C   UNL A   1      43.789  27.259  32.351  1.00  0.00     0.074 A 
ATOM     58  C   UNL A   1      44.693  26.333  31.700  1.00  0.00     0.031 C 
ATOM     59  C   UNL A   1      43.947  27.715  33.618  1.00  0.00     0.037 A 
BRANCH  46  60
ATOM     60  C   UNL A   1      39.601  31.727  35.397  1.00  0.00     0.064 A 
ATOM     61  C   UNL A   1      38.617  31.306  36.305  1.00  0.00     0.173 A 
ATOM     62  C   UNL A   1      40.110  33.027  35.537  1.00  0.00     0.173 A 
ATOM     63  F   UNL A   1      38.088  30.078  36.205  1.00  0.00    -0.203 F 
ATOM     64  C   UNL A   1      38.144  32.163  37.296  1.00  0.00     0.198 A 
ATOM     65  C   UNL A   1      39.654  33.871  36.546  1.00  0.00     0.198 A 
ATOM     66  F   UNL A   1      41.054  33.477  34.697  1.00  0.00    -0.203 F 
ATOM     67  F   UNL A   1      37.172  31.756  38.124  1.00  0.00    -0.200 F 
ATOM     68  C   UNL A   1      38.668  33.442  37.420  1.00  0.00     0.200 A 
ATOM     69  F   UNL A   1      40.169  35.102  36.671  1.00  0.00    -0.200 F 
ATOM     70  F   UNL A   1      38.215  34.263  38.378  1.00  0.00    -0.200 F 
ENDBRANCH  46  60
BRANCH  47  71
ATOM     71  C   UNL A   1      42.831  25.944  27.936  1.00  0.00     0.064 A 
ATOM     72  C   UNL A   1      42.476  24.592  27.836  1.00  0.00     0.173 A 
ATOM     73  C   UNL A   1      43.690  26.467  26.960  1.00  0.00     0.173 A 
ATOM     74  F   UNL A   1      41.679  24.037  28.761  1.00  0.00    -0.203 F 
ATOM     75  C   UNL A   1      42.973  23.792  26.809  1.00  0.00     0.198 A 
ATOM     76  C   UNL A   1      44.165  25.675  25.918  1.00  0.00     0.198 A 
ATOM     77  F   UNL A   1      44.062  27.755  27.014  1.00  0.00    -0.203 F 
ATOM     78  F   UNL A   1      42.655  22.492  26.761  1.00  0.00    -0.200 F 
ATOM     79  C   UNL A   1      43.813  24.336  25.847  1.00  0.00     0.200 A 
ATOM     80  F   UNL A   1      44.968  26.207  24.986  1.00  0.00    -0.200 F 
ATOM     81  F   UNL A   1      44.289  23.567  24.859  1.00  0.00    -0.200 F 
ENDBRANCH  47  71
BRANCH  59  82
ATOM     82  C   UNL A   1      45.122  27.198  34.397  1.00  0.00     0.064 A 
ATOM     83  C   UNL A   1      46.346  27.884  34.425  1.00  0.00     0.173 A 
ATOM     84  C   UNL A   1      45.012  26.020  35.151  1.00  0.00     0.173 A 
ATOM     85  F   UNL A   1      46.507  29.007  33.709  1.00  0.00    -0.203 F 
ATOM     86  C   UNL A   1      47.423  27.394  35.160  1.00  0.00     0.198 A 
ATOM     87  C   UNL A   1      46.082  25.550  35.908  1.00  0.00     0.198 A 
ATOM     88  F   UNL A   1      43.861  25.330  35.164  1.00  0.00    -0.203 F 
ATOM     89  F   UNL A   1      48.597  28.040  35.134  1.00  0.00    -0.200 F 
ATOM     90  C   UNL A   1      47.288  26.232  35.905  1.00  0.00     0.200 A 
ATOM     91  F   UNL A   1      45.945  24.434  36.637  1.00  0.00    -0.200 F 
ATOM     92  F   UNL A   1      48.325  25.766  36.616  1.00  0.00    -0.200 F 
ENDBRANCH  59  82
ENDBRANCH  33  34
ENDBRANCH  26  28
ENDBRANCH  25  26
ENDBRANCH  24  25
ENDBRANCH  23  24
ENDBRANCH   1  23
TORSDOF 17
ENDMDL
