MODEL 1
REMARK VINA RESULT:     -10.3      0.000      0.000
REMARK SMILES O=C(CSc1nnnn1C1CC1)N[C@H](CO)C(=O)OCCOCCOC(=O)c1ccc(-c2c3nc(c(-c4c(F)c(F)c(F)c(F)c4F)c4ccc([nH]4)c(-c4c(F)c(F)c(F)c(F)c4F)c4nc(c(-c5c(F)c(F)c(F)c(F)c5F)c5ccc2[nH]5)C=C4)C=C3)cc1
REMARK SMILES IDX 20 1 19 2 17 3 18 4 14 5 13 6 1 7 2 8 3 10 4 11 5 12 6 13
REMARK SMILES IDX 9 14 7 15 8 16 10 17 11 18 12 19 15 20 16 21 21 23 22 24
REMARK SMILES IDX 23 25 24 26 25 27 26 28 27 29 28 30 29 31 90 32 30 33 89 34
REMARK SMILES IDX 31 35 32 36 33 37 83 38 34 39 88 40 82 41 84 42 35 43 87 44
REMARK SMILES IDX 81 45 80 46 36 48 68 49 48 50 67 51 49 52 52 53 66 54 85 55
REMARK SMILES IDX 50 56 51 57 65 59 86 60 53 61 37 62 38 63 46 64 39 65 40 66
REMARK SMILES IDX 44 67 47 68 41 69 42 70 45 71 43 72 69 73 70 74 78 75 71 76
REMARK SMILES IDX 72 77 76 78 79 79 73 80 74 81 77 82 75 83 54 84 55 85 63 86
REMARK SMILES IDX 56 87 57 88 61 89 64 90 58 91 59 92 62 93 60 94
REMARK H PARENT 13 9 16 22 84 47 52 58
REMARK Flexibility Score: inf
ROOT
ATOM      1  C   UNL A   1      38.469  23.986  26.183  1.00  0.00     0.261 C 
ENDROOT
BRANCH   1   2
ATOM      2  O   UNL A   1      37.266  23.185  26.474  1.00  0.00    -0.462 OA
BRANCH   2   3
ATOM      3  C   UNL A   1      36.880  22.224  25.562  1.00  0.00     0.331 C 
ATOM      4  O   UNL A   1      37.640  21.351  25.156  1.00  0.00    -0.250 OA
BRANCH   3   5
ATOM      5  C   UNL A   1      35.388  22.340  25.118  1.00  0.00     0.218 C 
BRANCH   5   6
ATOM      6  N   UNL A   1      34.986  23.653  25.666  1.00  0.00    -0.340 N 
ATOM      7  O   UNL A   1      34.712  24.749  23.674  1.00  0.00    -0.274 OA
ATOM      8  C   UNL A   1      34.568  24.710  24.894  1.00  0.00     0.231 C 
ATOM      9  H   UNL A   1      35.019  23.778  26.641  1.00  0.00     0.164 HD
BRANCH   8  10
ATOM     10  C   UNL A   1      33.988  25.929  25.528  1.00  0.00     0.178 C 
BRANCH  10  11
ATOM     11  S   UNL A   1      32.189  26.114  25.627  1.00  0.00    -0.075 SA
BRANCH  11  12
ATOM     12  C   UNL A   1      31.445  24.614  26.113  1.00  0.00     0.210 A 
ATOM     13  N   UNL A   1      31.468  24.157  27.348  1.00  0.00    -0.102 NA
ATOM     14  N   UNL A   1      31.004  23.577  25.300  1.00  0.00    -0.217 N 
ATOM     15  N   UNL A   1      31.002  22.863  27.302  1.00  0.00    -0.023 NA
ATOM     16  N   UNL A   1      30.677  22.516  26.066  1.00  0.00    -0.044 NA
BRANCH  14  17
ATOM     17  C   UNL A   1      30.765  23.542  23.870  1.00  0.00     0.112 C 
ATOM     18  C   UNL A   1      31.302  24.650  22.997  1.00  0.00     0.029 C 
ATOM     19  C   UNL A   1      31.815  23.290  22.793  1.00  0.00     0.029 C 
ENDBRANCH  14  17
ENDBRANCH  11  12
ENDBRANCH  10  11
ENDBRANCH   8  10
ENDBRANCH   5   6
BRANCH   5  20
ATOM     20  C   UNL A   1      34.410  21.212  25.525  1.00  0.00     0.193 C 
BRANCH  20  21
ATOM     21  O   UNL A   1      33.545  21.577  26.608  1.00  0.00    -0.394 OA
ATOM     22  H   UNL A   1      33.558  22.540  26.722  1.00  0.00     0.210 HD
ENDBRANCH  20  21
ENDBRANCH   5  20
ENDBRANCH   3   5
ENDBRANCH   2   3
ENDBRANCH   1   2
BRANCH   1  23
ATOM     23  C   UNL A   1      39.539  23.774  27.244  1.00  0.00     0.202 C 
BRANCH  23  24
ATOM     24  O   UNL A   1      40.873  24.260  27.126  1.00  0.00    -0.374 OA
BRANCH  24  25
ATOM     25  C   UNL A   1      41.066  25.171  26.047  1.00  0.00     0.202 C 
BRANCH  25  26
ATOM     26  C   UNL A   1      41.466  26.645  26.162  1.00  0.00     0.261 C 
BRANCH  26  27
ATOM     27  O   UNL A   1      40.448  27.519  26.730  1.00  0.00    -0.460 OA
BRANCH  27  28
ATOM     28  C   UNL A   1      40.834  28.170  27.866  1.00  0.00     0.338 C 
ATOM     29  O   UNL A   1      41.112  29.357  27.929  1.00  0.00    -0.246 OA
BRANCH  28  30
ATOM     30  C   UNL A   1      40.699  27.308  29.080  1.00  0.00     0.060 A 
ATOM     31  C   UNL A   1      39.443  26.831  29.285  1.00  0.00     0.016 A 
ATOM     32  C   UNL A   1      41.264  27.924  30.206  1.00  0.00     0.016 A 
ATOM     33  C   UNL A   1      38.700  27.652  30.351  1.00  0.00     0.010 A 
ATOM     34  C   UNL A   1      40.526  28.337  31.335  1.00  0.00     0.010 A 
ATOM     35  C   UNL A   1      39.325  28.974  31.099  1.00  0.00    -0.014 A 
BRANCH  35  36
ATOM     36  C   UNL A   1      39.189  30.410  32.426  1.00  0.00     0.031 A 
ATOM     37  C   UNL A   1      37.854  30.956  31.012  1.00  0.00     0.074 A 
ATOM     38  C   UNL A   1      39.787  30.889  33.970  1.00  0.00     0.049 A 
ATOM     39  N   UNL A   1      38.126  31.493  29.806  1.00  0.00    -0.248 NA
ATOM     40  C   UNL A   1      36.280  30.345  30.268  1.00  0.00     0.031 C 
ATOM     41  C   UNL A   1      40.776  30.650  35.633  1.00  0.00     0.029 A 
ATOM     42  N   UNL A   1      39.846  32.272  34.904  1.00  0.00    -0.354 N 
ATOM     43  C   UNL A   1      36.879  32.134  29.380  1.00  0.00     0.074 A 
ATOM     44  C   UNL A   1      35.780  31.287  29.430  1.00  0.00     0.031 C 
ATOM     45  C   UNL A   1      40.479  31.394  36.912  1.00  0.00     0.029 A 
ATOM     46  C   UNL A   1      39.734  32.485  36.480  1.00  0.00     0.049 A 
ATOM     47  H   UNL A   1      39.970  33.102  34.391  1.00  0.00     0.167 HD
ATOM     48  C   UNL A   1      36.635  33.386  29.800  1.00  0.00     0.037 A 
ATOM     49  C   UNL A   1      39.157  33.482  37.300  1.00  0.00     0.037 A 
ATOM     50  C   UNL A   1      37.881  33.871  30.238  1.00  0.00     0.049 A 
ATOM     51  C   UNL A   1      38.660  34.191  36.129  1.00  0.00     0.074 A 
ATOM     52  C   UNL A   1      39.078  33.893  29.557  1.00  0.00     0.029 A 
ATOM     53  N   UNL A   1      38.149  33.645  31.548  1.00  0.00    -0.354 N 
ATOM     54  N   UNL A   1      39.476  34.778  35.281  1.00  0.00    -0.248 NA
ATOM     55  C   UNL A   1      37.442  33.559  35.630  1.00  0.00     0.031 C 
ATOM     56  C   UNL A   1      40.092  33.774  30.510  1.00  0.00     0.029 A 
ATOM     57  C   UNL A   1      39.487  33.720  31.746  1.00  0.00     0.049 A 
ATOM     58  H   UNL A   1      37.478  33.456  32.244  1.00  0.00     0.167 HD
ATOM     59  C   UNL A   1      39.086  34.279  34.040  1.00  0.00     0.074 A 
ATOM     60  C   UNL A   1      37.728  33.619  34.326  1.00  0.00     0.031 C 
ATOM     61  C   UNL A   1      40.003  33.917  33.041  1.00  0.00     0.037 A 
BRANCH  48  62
ATOM     62  C   UNL A   1      35.337  34.001  30.161  1.00  0.00     0.064 A 
ATOM     63  C   UNL A   1      34.821  34.735  29.103  1.00  0.00     0.173 A 
ATOM     64  C   UNL A   1      34.688  34.096  31.417  1.00  0.00     0.173 A 
ATOM     65  F   UNL A   1      35.339  34.576  27.876  1.00  0.00    -0.203 F 
ATOM     66  C   UNL A   1      33.801  35.637  29.296  1.00  0.00     0.198 A 
ATOM     67  C   UNL A   1      33.584  34.928  31.579  1.00  0.00     0.198 A 
ATOM     68  F   UNL A   1      35.097  33.425  32.504  1.00  0.00    -0.203 F 
ATOM     69  F   UNL A   1      33.491  36.478  28.305  1.00  0.00    -0.200 F 
ATOM     70  C   UNL A   1      33.151  35.702  30.516  1.00  0.00     0.200 A 
ATOM     71  F   UNL A   1      32.981  35.025  32.774  1.00  0.00    -0.200 F 
ATOM     72  F   UNL A   1      32.091  36.506  30.657  1.00  0.00    -0.200 F 
ENDBRANCH  48  62
BRANCH  49  73
ATOM     73  C   UNL A   1      38.356  33.303  38.662  1.00  0.00     0.064 A 
ATOM     74  C   UNL A   1      37.553  32.209  39.115  1.00  0.00     0.173 A 
ATOM     75  C   UNL A   1      38.574  34.265  39.676  1.00  0.00     0.173 A 
ATOM     76  F   UNL A   1      37.274  31.181  38.300  1.00  0.00    -0.203 F 
ATOM     77  C   UNL A   1      37.036  32.116  40.450  1.00  0.00     0.198 A 
ATOM     78  C   UNL A   1      38.132  34.136  41.014  1.00  0.00     0.198 A 
ATOM     79  F   UNL A   1      39.303  35.351  39.391  1.00  0.00    -0.203 F 
ATOM     80  F   UNL A   1      36.202  31.122  40.804  1.00  0.00    -0.200 F 
ATOM     81  C   UNL A   1      37.391  33.045  41.411  1.00  0.00     0.200 A 
ATOM     82  F   UNL A   1      38.460  35.073  41.917  1.00  0.00    -0.200 F 
ATOM     83  F   UNL A   1      37.055  32.877  42.703  1.00  0.00    -0.200 F 
ENDBRANCH  49  73
BRANCH  61  84
ATOM     84  C   UNL A   1      41.559  33.998  33.123  1.00  0.00     0.064 A 
ATOM     85  C   UNL A   1      42.569  33.038  32.792  1.00  0.00     0.173 A 
ATOM     86  C   UNL A   1      42.055  35.241  33.480  1.00  0.00     0.173 A 
ATOM     87  F   UNL A   1      42.312  31.893  32.155  1.00  0.00    -0.203 F 
ATOM     88  C   UNL A   1      43.918  33.219  33.090  1.00  0.00     0.198 A 
ATOM     89  C   UNL A   1      43.422  35.481  33.611  1.00  0.00     0.198 A 
ATOM     90  F   UNL A   1      41.202  36.263  33.627  1.00  0.00    -0.203 F 
ATOM     91  F   UNL A   1      44.767  32.177  33.066  1.00  0.00    -0.200 F 
ATOM     92  C   UNL A   1      44.353  34.468  33.446  1.00  0.00     0.200 A 
ATOM     93  F   UNL A   1      43.834  36.710  33.936  1.00  0.00    -0.200 F 
ATOM     94  F   UNL A   1      45.663  34.706  33.579  1.00  0.00    -0.200 F 
ENDBRANCH  61  84
ENDBRANCH  35  36
ENDBRANCH  28  30
ENDBRANCH  27  28
ENDBRANCH  26  27
ENDBRANCH  25  26
ENDBRANCH  24  25
ENDBRANCH  23  24
ENDBRANCH   1  23
TORSDOF 21
ENDMDL
MODEL 2
REMARK VINA RESULT:     -10.2      6.965     12.780
REMARK SMILES O=C(CSc1nnnn1C1CC1)N[C@H](CO)C(=O)OCCOCCOC(=O)c1ccc(-c2c3nc(c(-c4c(F)c(F)c(F)c(F)c4F)c4ccc([nH]4)c(-c4c(F)c(F)c(F)c(F)c4F)c4nc(c(-c5c(F)c(F)c(F)c(F)c5F)c5ccc2[nH]5)C=C4)C=C3)cc1
REMARK SMILES IDX 20 1 19 2 17 3 18 4 14 5 13 6 1 7 2 8 3 10 4 11 5 12 6 13
REMARK SMILES IDX 9 14 7 15 8 16 10 17 11 18 12 19 15 20 16 21 21 23 22 24
REMARK SMILES IDX 23 25 24 26 25 27 26 28 27 29 28 30 29 31 90 32 30 33 89 34
REMARK SMILES IDX 31 35 32 36 33 37 83 38 34 39 88 40 82 41 84 42 35 43 87 44
REMARK SMILES IDX 81 45 80 46 36 48 68 49 48 50 67 51 49 52 52 53 66 54 85 55
REMARK SMILES IDX 50 56 51 57 65 59 86 60 53 61 37 62 38 63 46 64 39 65 40 66
REMARK SMILES IDX 44 67 47 68 41 69 42 70 45 71 43 72 69 73 70 74 78 75 71 76
REMARK SMILES IDX 72 77 76 78 79 79 73 80 74 81 77 82 75 83 54 84 55 85 63 86
REMARK SMILES IDX 56 87 57 88 61 89 64 90 58 91 59 92 62 93 60 94
REMARK H PARENT 13 9 16 22 84 47 52 58
REMARK Flexibility Score: inf
ROOT
ATOM      1  C   UNL A   1      32.517  30.015  27.148  1.00  0.00     0.261 C 
ENDROOT
BRANCH   1   2
ATOM      2  O   UNL A   1      32.278  29.519  25.781  1.00  0.00    -0.462 OA
BRANCH   2   3
ATOM      3  C   UNL A   1      31.585  28.337  25.622  1.00  0.00     0.331 C 
ATOM      4  O   UNL A   1      31.082  27.731  26.563  1.00  0.00    -0.250 OA
BRANCH   3   5
ATOM      5  C   UNL A   1      31.484  27.859  24.140  1.00  0.00     0.218 C 
BRANCH   5   6
ATOM      6  N   UNL A   1      32.204  26.568  24.164  1.00  0.00    -0.340 N 
ATOM      7  O   UNL A   1      30.386  25.205  24.458  1.00  0.00    -0.274 OA
ATOM      8  C   UNL A   1      31.581  25.344  24.203  1.00  0.00     0.231 C 
ATOM      9  H   UNL A   1      33.188  26.585  24.152  1.00  0.00     0.164 HD
BRANCH   8  10
ATOM     10  C   UNL A   1      32.365  24.088  24.022  1.00  0.00     0.178 C 
BRANCH  10  11
ATOM     11  S   UNL A   1      32.435  22.877  25.366  1.00  0.00    -0.075 SA
BRANCH  11  12
ATOM     12  C   UNL A   1      33.532  21.581  24.968  1.00  0.00     0.210 A 
ATOM     13  N   UNL A   1      33.158  20.326  24.832  1.00  0.00    -0.102 NA
ATOM     14  N   UNL A   1      34.921  21.591  25.026  1.00  0.00    -0.217 N 
ATOM     15  N   UNL A   1      34.308  19.574  24.760  1.00  0.00    -0.023 NA
ATOM     16  N   UNL A   1      35.385  20.340  24.834  1.00  0.00    -0.044 NA
BRANCH  14  17
ATOM     17  C   UNL A   1      35.847  22.701  25.139  1.00  0.00     0.112 C 
ATOM     18  C   UNL A   1      37.333  22.436  25.115  1.00  0.00     0.029 C 
ATOM     19  C   UNL A   1      36.748  23.231  24.028  1.00  0.00     0.029 C 
ENDBRANCH  14  17
ENDBRANCH  11  12
ENDBRANCH  10  11
ENDBRANCH   8  10
ENDBRANCH   5   6
BRANCH   5  20
ATOM     20  C   UNL A   1      32.006  28.798  23.026  1.00  0.00     0.193 C 
BRANCH  20  21
ATOM     21  O   UNL A   1      33.372  29.190  23.212  1.00  0.00    -0.394 OA
ATOM     22  H   UNL A   1      33.928  28.746  22.553  1.00  0.00     0.210 HD
ENDBRANCH  20  21
ENDBRANCH   5  20
ENDBRANCH   3   5
ENDBRANCH   2   3
ENDBRANCH   1   2
BRANCH   1  23
ATOM     23  C   UNL A   1      33.976  30.399  27.346  1.00  0.00     0.202 C 
BRANCH  23  24
ATOM     24  O   UNL A   1      34.407  31.435  28.223  1.00  0.00    -0.374 OA
BRANCH  24  25
ATOM     25  C   UNL A   1      35.819  31.625  28.248  1.00  0.00     0.202 C 
BRANCH  25  26
ATOM     26  C   UNL A   1      36.770  31.223  29.380  1.00  0.00     0.261 C 
BRANCH  26  27
ATOM     27  O   UNL A   1      38.181  31.480  29.121  1.00  0.00    -0.460 OA
BRANCH  27  28
ATOM     28  C   UNL A   1      38.985  30.383  29.237  1.00  0.00     0.338 C 
ATOM     29  O   UNL A   1      39.773  30.189  30.150  1.00  0.00    -0.246 OA
BRANCH  28  30
ATOM     30  C   UNL A   1      38.662  29.340  28.216  1.00  0.00     0.060 A 
ATOM     31  C   UNL A   1      38.387  28.116  28.740  1.00  0.00     0.016 A 
ATOM     32  C   UNL A   1      39.619  29.317  27.192  1.00  0.00     0.016 A 
ATOM     33  C   UNL A   1      39.601  27.179  28.641  1.00  0.00     0.010 A 
ATOM     34  C   UNL A   1      40.481  28.229  26.939  1.00  0.00     0.010 A 
ATOM     35  C   UNL A   1      41.062  27.623  28.034  1.00  0.00    -0.014 A 
BRANCH  35  36
ATOM     36  C   UNL A   1      42.900  27.185  27.517  1.00  0.00     0.031 A 
ATOM     37  C   UNL A   1      41.963  25.397  27.460  1.00  0.00     0.074 A 
ATOM     38  C   UNL A   1      44.427  27.917  27.193  1.00  0.00     0.049 A 
ATOM     39  N   UNL A   1      41.608  24.636  28.513  1.00  0.00    -0.248 NA
ATOM     40  C   UNL A   1      40.607  24.561  26.531  1.00  0.00     0.031 C 
ATOM     41  C   UNL A   1      45.647  29.413  26.917  1.00  0.00     0.029 A 
ATOM     42  N   UNL A   1      46.023  27.446  27.042  1.00  0.00    -0.354 N 
ATOM     43  C   UNL A   1      41.419  23.289  27.968  1.00  0.00     0.074 A 
ATOM     44  C   UNL A   1      40.559  23.251  26.879  1.00  0.00     0.031 C 
ATOM     45  C   UNL A   1      46.929  29.328  26.128  1.00  0.00     0.029 A 
ATOM     46  C   UNL A   1      47.188  27.963  26.086  1.00  0.00     0.049 A 
ATOM     47  H   UNL A   1      46.289  26.720  27.651  1.00  0.00     0.167 HD
ATOM     48  C   UNL A   1      42.496  22.495  27.854  1.00  0.00     0.037 A 
ATOM     49  C   UNL A   1      48.263  27.334  25.416  1.00  0.00     0.037 A 
ATOM     50  C   UNL A   1      43.472  23.086  28.678  1.00  0.00     0.049 A 
ATOM     51  C   UNL A   1      47.834  26.030  25.902  1.00  0.00     0.074 A 
ATOM     52  C   UNL A   1      43.368  23.446  30.003  1.00  0.00     0.029 A 
ATOM     53  N   UNL A   1      44.263  23.996  28.058  1.00  0.00    -0.354 N 
ATOM     54  N   UNL A   1      47.904  25.713  27.176  1.00  0.00    -0.248 NA
ATOM     55  C   UNL A   1      46.725  25.527  25.097  1.00  0.00     0.031 C 
ATOM     56  C   UNL A   1      44.203  24.549  30.193  1.00  0.00     0.029 A 
ATOM     57  C   UNL A   1      44.820  24.807  28.988  1.00  0.00     0.049 A 
ATOM     58  H   UNL A   1      44.408  24.058  27.085  1.00  0.00     0.167 HD
ATOM     59  C   UNL A   1      46.623  25.254  27.477  1.00  0.00     0.074 A 
ATOM     60  C   UNL A   1      45.978  25.050  26.097  1.00  0.00     0.031 C 
ATOM     61  C   UNL A   1      45.963  25.567  28.675  1.00  0.00     0.037 A 
BRANCH  48  62
ATOM     62  C   UNL A   1      42.800  21.498  26.801  1.00  0.00     0.064 A 
ATOM     63  C   UNL A   1      42.335  20.240  27.155  1.00  0.00     0.173 A 
ATOM     64  C   UNL A   1      43.616  21.606  25.648  1.00  0.00     0.173 A 
ATOM     65  F   UNL A   1      41.465  20.121  28.170  1.00  0.00    -0.203 F 
ATOM     66  C   UNL A   1      42.764  19.113  26.496  1.00  0.00     0.198 A 
ATOM     67  C   UNL A   1      43.958  20.472  24.918  1.00  0.00     0.198 A 
ATOM     68  F   UNL A   1      44.114  22.773  25.210  1.00  0.00    -0.203 F 
ATOM     69  F   UNL A   1      42.470  17.916  27.010  1.00  0.00    -0.200 F 
ATOM     70  C   UNL A   1      43.535  19.227  25.352  1.00  0.00     0.200 A 
ATOM     71  F   UNL A   1      44.742  20.577  23.833  1.00  0.00    -0.200 F 
ATOM     72  F   UNL A   1      43.855  18.128  24.660  1.00  0.00    -0.200 F 
ENDBRANCH  48  62
BRANCH  49  73
ATOM     73  C   UNL A   1      48.823  27.622  23.956  1.00  0.00     0.064 A 
ATOM     74  C   UNL A   1      50.153  27.493  23.442  1.00  0.00     0.173 A 
ATOM     75  C   UNL A   1      47.878  27.884  22.936  1.00  0.00     0.173 A 
ATOM     76  F   UNL A   1      51.177  27.205  24.259  1.00  0.00    -0.203 F 
ATOM     77  C   UNL A   1      50.472  27.618  22.049  1.00  0.00     0.198 A 
ATOM     78  C   UNL A   1      48.178  27.929  21.554  1.00  0.00     0.198 A 
ATOM     79  F   UNL A   1      46.592  28.038  23.272  1.00  0.00    -0.203 F 
ATOM     80  F   UNL A   1      51.747  27.591  21.624  1.00  0.00    -0.200 F 
ATOM     81  C   UNL A   1      49.470  27.764  21.106  1.00  0.00     0.200 A 
ATOM     82  F   UNL A   1      47.190  28.110  20.664  1.00  0.00    -0.200 F 
ATOM     83  F   UNL A   1      49.738  27.711  19.789  1.00  0.00    -0.200 F 
ENDBRANCH  49  73
BRANCH  61  84
ATOM     84  C   UNL A   1      46.508  26.446  29.844  1.00  0.00     0.064 A 
ATOM     85  C   UNL A   1      45.916  27.540  30.552  1.00  0.00     0.173 A 
ATOM     86  C   UNL A   1      47.730  26.036  30.354  1.00  0.00     0.173 A 
ATOM     87  F   UNL A   1      44.637  27.897  30.415  1.00  0.00    -0.203 F 
ATOM     88  C   UNL A   1      46.619  28.327  31.462  1.00  0.00     0.198 A 
ATOM     89  C   UNL A   1      48.363  26.719  31.392  1.00  0.00     0.198 A 
ATOM     90  F   UNL A   1      48.281  24.907  29.891  1.00  0.00    -0.203 F 
ATOM     91  F   UNL A   1      46.136  29.522  31.847  1.00  0.00    -0.200 F 
ATOM     92  C   UNL A   1      47.826  27.878  31.928  1.00  0.00     0.200 A 
ATOM     93  F   UNL A   1      49.528  26.256  31.853  1.00  0.00    -0.200 F 
ATOM     94  F   UNL A   1      48.444  28.529  32.921  1.00  0.00    -0.200 F 
ENDBRANCH  61  84
ENDBRANCH  35  36
ENDBRANCH  28  30
ENDBRANCH  27  28
ENDBRANCH  26  27
ENDBRANCH  25  26
ENDBRANCH  24  25
ENDBRANCH  23  24
ENDBRANCH   1  23
TORSDOF 21
ENDMDL
MODEL 3
REMARK VINA RESULT:     -10.0      1.554      2.207
REMARK SMILES O=C(CSc1nnnn1C1CC1)N[C@H](CO)C(=O)OCCOCCOC(=O)c1ccc(-c2c3nc(c(-c4c(F)c(F)c(F)c(F)c4F)c4ccc([nH]4)c(-c4c(F)c(F)c(F)c(F)c4F)c4nc(c(-c5c(F)c(F)c(F)c(F)c5F)c5ccc2[nH]5)C=C4)C=C3)cc1
REMARK SMILES IDX 20 1 19 2 17 3 18 4 14 5 13 6 1 7 2 8 3 10 4 11 5 12 6 13
REMARK SMILES IDX 9 14 7 15 8 16 10 17 11 18 12 19 15 20 16 21 21 23 22 24
REMARK SMILES IDX 23 25 24 26 25 27 26 28 27 29 28 30 29 31 90 32 30 33 89 34
REMARK SMILES IDX 31 35 32 36 33 37 83 38 34 39 88 40 82 41 84 42 35 43 87 44
REMARK SMILES IDX 81 45 80 46 36 48 68 49 48 50 67 51 49 52 52 53 66 54 85 55
REMARK SMILES IDX 50 56 51 57 65 59 86 60 53 61 37 62 38 63 46 64 39 65 40 66
REMARK SMILES IDX 44 67 47 68 41 69 42 70 45 71 43 72 69 73 70 74 78 75 71 76
REMARK SMILES IDX 72 77 76 78 79 79 73 80 74 81 77 82 75 83 54 84 55 85 63 86
REMARK SMILES IDX 56 87 57 88 61 89 64 90 58 91 59 92 62 93 60 94
REMARK H PARENT 13 9 16 22 84 47 52 58
REMARK Flexibility Score: inf
ROOT
ATOM      1  C   UNL A   1      38.081  24.029  26.000  1.00  0.00     0.261 C 
ENDROOT
BRANCH   1   2
ATOM      2  O   UNL A   1      36.860  23.214  26.127  1.00  0.00    -0.462 OA
BRANCH   2   3
ATOM      3  C   UNL A   1      36.552  22.329  25.115  1.00  0.00     0.331 C 
ATOM      4  O   UNL A   1      37.408  21.709  24.491  1.00  0.00    -0.250 OA
BRANCH   3   5
ATOM      5  C   UNL A   1      35.020  22.175  24.856  1.00  0.00     0.218 C 
BRANCH   5   6
ATOM      6  N   UNL A   1      34.617  23.542  24.464  1.00  0.00    -0.340 N 
ATOM      7  O   UNL A   1      32.710  22.987  23.323  1.00  0.00    -0.274 OA
ATOM      8  C   UNL A   1      33.434  23.840  23.832  1.00  0.00     0.231 C 
ATOM      9  H   UNL A   1      35.232  24.283  24.666  1.00  0.00     0.164 HD
BRANCH   8  10
ATOM     10  C   UNL A   1      33.008  25.259  23.651  1.00  0.00     0.178 C 
BRANCH  10  11
ATOM     11  S   UNL A   1      31.544  25.630  22.652  1.00  0.00    -0.075 SA
BRANCH  11  12
ATOM     12  C   UNL A   1      30.961  27.238  22.994  1.00  0.00     0.210 A 
ATOM     13  N   UNL A   1      30.348  27.994  22.106  1.00  0.00    -0.102 NA
ATOM     14  N   UNL A   1      31.286  28.052  24.072  1.00  0.00    -0.217 N 
ATOM     15  N   UNL A   1      30.256  29.253  22.653  1.00  0.00    -0.023 NA
ATOM     16  N   UNL A   1      30.785  29.287  23.866  1.00  0.00    -0.044 NA
BRANCH  14  17
ATOM     17  C   UNL A   1      31.936  27.732  25.327  1.00  0.00     0.112 C 
ATOM     18  C   UNL A   1      31.623  28.548  26.558  1.00  0.00     0.029 C 
ATOM     19  C   UNL A   1      31.263  27.125  26.555  1.00  0.00     0.029 C 
ENDBRANCH  14  17
ENDBRANCH  11  12
ENDBRANCH  10  11
ENDBRANCH   8  10
ENDBRANCH   5   6
BRANCH   5  20
ATOM     20  C   UNL A   1      34.135  21.608  25.992  1.00  0.00     0.193 C 
BRANCH  20  21
ATOM     21  O   UNL A   1      34.846  21.419  27.222  1.00  0.00    -0.394 OA
ATOM     22  H   UNL A   1      35.662  21.943  27.208  1.00  0.00     0.210 HD
ENDBRANCH  20  21
ENDBRANCH   5  20
ENDBRANCH   3   5
ENDBRANCH   2   3
ENDBRANCH   1   2
BRANCH   1  23
ATOM     23  C   UNL A   1      39.007  23.822  27.189  1.00  0.00     0.202 C 
BRANCH  23  24
ATOM     24  O   UNL A   1      40.367  24.243  27.212  1.00  0.00    -0.374 OA
BRANCH  24  25
ATOM     25  C   UNL A   1      40.720  25.126  26.150  1.00  0.00     0.202 C 
BRANCH  25  26
ATOM     26  C   UNL A   1      41.377  26.502  26.293  1.00  0.00     0.261 C 
BRANCH  26  27
ATOM     27  O   UNL A   1      40.492  27.563  26.758  1.00  0.00    -0.460 OA
BRANCH  27  28
ATOM     28  C   UNL A   1      40.941  28.227  27.863  1.00  0.00     0.338 C 
ATOM     29  O   UNL A   1      41.313  29.390  27.875  1.00  0.00    -0.246 OA
BRANCH  28  30
ATOM     30  C   UNL A   1      40.754  27.428  29.112  1.00  0.00     0.060 A 
ATOM     31  C   UNL A   1      39.477  27.004  29.314  1.00  0.00     0.016 A 
ATOM     32  C   UNL A   1      41.318  28.075  30.220  1.00  0.00     0.016 A 
ATOM     33  C   UNL A   1      38.744  27.899  30.325  1.00  0.00     0.010 A 
ATOM     34  C   UNL A   1      40.574  28.566  31.314  1.00  0.00     0.010 A 
ATOM     35  C   UNL A   1      39.401  29.232  31.025  1.00  0.00    -0.014 A 
BRANCH  35  36
ATOM     36  C   UNL A   1      39.290  30.732  32.281  1.00  0.00     0.031 A 
ATOM     37  C   UNL A   1      37.845  31.147  30.932  1.00  0.00     0.074 A 
ATOM     38  C   UNL A   1      39.965  31.317  33.755  1.00  0.00     0.049 A 
ATOM     39  N   UNL A   1      38.017  31.628  29.685  1.00  0.00    -0.248 NA
ATOM     40  C   UNL A   1      36.254  30.437  30.327  1.00  0.00     0.031 C 
ATOM     41  C   UNL A   1      41.069  31.209  35.359  1.00  0.00     0.029 A 
ATOM     42  N   UNL A   1      40.026  32.750  34.610  1.00  0.00    -0.354 N 
ATOM     43  C   UNL A   1      36.719  32.196  29.310  1.00  0.00     0.074 A 
ATOM     44  C   UNL A   1      35.662  31.311  29.476  1.00  0.00     0.031 C 
ATOM     45  C   UNL A   1      40.823  32.009  36.613  1.00  0.00     0.029 A 
ATOM     46  C   UNL A   1      40.007  33.045  36.176  1.00  0.00     0.049 A 
ATOM     47  H   UNL A   1      40.082  33.556  34.046  1.00  0.00     0.167 HD
ATOM     48  C   UNL A   1      36.450  33.459  29.679  1.00  0.00     0.037 A 
ATOM     49  C   UNL A   1      39.442  34.063  36.979  1.00  0.00     0.037 A 
ATOM     50  C   UNL A   1      37.700  34.015  30.008  1.00  0.00     0.049 A 
ATOM     51  C   UNL A   1      38.842  34.686  35.809  1.00  0.00     0.074 A 
ATOM     52  C   UNL A   1      38.848  34.046  29.248  1.00  0.00     0.029 A 
ATOM     53  N   UNL A   1      38.061  33.872  31.307  1.00  0.00    -0.354 N 
ATOM     54  N   UNL A   1      39.576  35.258  34.879  1.00  0.00    -0.248 NA
ATOM     55  C   UNL A   1      37.622  33.982  35.426  1.00  0.00     0.031 C 
ATOM     56  C   UNL A   1      39.925  34.018  30.136  1.00  0.00     0.029 A 
ATOM     57  C   UNL A   1      39.404  34.008  31.412  1.00  0.00     0.049 A 
ATOM     58  H   UNL A   1      37.444  33.695  32.054  1.00  0.00     0.167 HD
ATOM     59  C   UNL A   1      39.128  34.677  33.695  1.00  0.00     0.074 A 
ATOM     60  C   UNL A   1      37.820  33.982  34.104  1.00  0.00     0.031 C 
ATOM     61  C   UNL A   1      39.993  34.296  32.657  1.00  0.00     0.037 A 
BRANCH  48  62
ATOM     62  C   UNL A   1      35.152  34.042  30.093  1.00  0.00     0.064 A 
ATOM     63  C   UNL A   1      34.580  34.770  29.060  1.00  0.00     0.173 A 
ATOM     64  C   UNL A   1      34.551  34.116  31.373  1.00  0.00     0.173 A 
ATOM     65  F   UNL A   1      35.054  34.629  27.812  1.00  0.00    -0.203 F 
ATOM     66  C   UNL A   1      33.548  35.647  29.296  1.00  0.00     0.198 A 
ATOM     67  C   UNL A   1      33.435  34.922  31.581  1.00  0.00     0.198 A 
ATOM     68  F   UNL A   1      35.015  33.449  32.440  1.00  0.00    -0.203 F 
ATOM     69  F   UNL A   1      33.182  36.486  28.324  1.00  0.00    -0.200 F 
ATOM     70  C   UNL A   1      32.944  35.691  30.541  1.00  0.00     0.200 A 
ATOM     71  F   UNL A   1      32.876  35.000  32.799  1.00  0.00    -0.200 F 
ATOM     72  F   UNL A   1      31.873  36.470  30.726  1.00  0.00    -0.200 F 
ENDBRANCH  48  62
BRANCH  49  73
ATOM     73  C   UNL A   1      38.739  33.928  38.399  1.00  0.00     0.064 A 
ATOM     74  C   UNL A   1      38.038  32.820  38.973  1.00  0.00     0.173 A 
ATOM     75  C   UNL A   1      38.953  34.969  39.333  1.00  0.00     0.173 A 
ATOM     76  F   UNL A   1      37.779  31.723  38.245  1.00  0.00    -0.203 F 
ATOM     77  C   UNL A   1      37.610  32.786  40.342  1.00  0.00     0.198 A 
ATOM     78  C   UNL A   1      38.603  34.904  40.702  1.00  0.00     0.198 A 
ATOM     79  F   UNL A   1      39.590  36.075  38.932  1.00  0.00    -0.203 F 
ATOM     80  F   UNL A   1      36.867  31.768  40.812  1.00  0.00    -0.200 F 
ATOM     81  C   UNL A   1      37.960  33.799  41.216  1.00  0.00     0.200 A 
ATOM     82  F   UNL A   1      38.922  35.920  41.520  1.00  0.00    -0.200 F 
ATOM     83  F   UNL A   1      37.715  33.699  42.534  1.00  0.00    -0.200 F 
ENDBRANCH  49  73
BRANCH  61  84
ATOM     84  C   UNL A   1      41.547  34.441  32.631  1.00  0.00     0.064 A 
ATOM     85  C   UNL A   1      42.404  35.463  33.154  1.00  0.00     0.173 A 
ATOM     86  C   UNL A   1      42.221  33.351  32.106  1.00  0.00     0.173 A 
ATOM     87  F   UNL A   1      41.975  36.444  33.951  1.00  0.00    -0.203 F 
ATOM     88  C   UNL A   1      43.771  35.518  32.889  1.00  0.00     0.198 A 
ATOM     89  C   UNL A   1      43.611  33.324  31.998  1.00  0.00     0.198 A 
ATOM     90  F   UNL A   1      41.524  32.261  31.763  1.00  0.00    -0.203 F 
ATOM     91  F   UNL A   1      44.464  36.648  33.115  1.00  0.00    -0.200 F 
ATOM     92  C   UNL A   1      44.385  34.414  32.361  1.00  0.00     0.200 A 
ATOM     93  F   UNL A   1      44.199  32.232  31.503  1.00  0.00    -0.200 F 
ATOM     94  F   UNL A   1      45.719  34.380  32.249  1.00  0.00    -0.200 F 
ENDBRANCH  61  84
ENDBRANCH  35  36
ENDBRANCH  28  30
ENDBRANCH  27  28
ENDBRANCH  26  27
ENDBRANCH  25  26
ENDBRANCH  24  25
ENDBRANCH  23  24
ENDBRANCH   1  23
TORSDOF 21
ENDMDL
