MODEL 1
REMARK VINA RESULT:     -10.1      0.000      0.000
REMARK SMILES CCC(CC)(NC(=O)c1ccc(C)s1)C(=O)OCCOCCOC(=O)c1ccc(-c2c3nc(c(-c4c(F)c(F)c(F)c(F)c4F)c4ccc([nH]4)c(-c4c(F)c(F)c(F)c(F)c4F)c4nc(c(-c5c(F)c(F)c(F)c(F)c5F)c5ccc2[nH]5)C=C4)C=C3)cc1
REMARK SMILES IDX 20 1 19 2 18 3 17 4 15 5 16 6 3 7 2 8 1 9 4 10 5 11 6 12
REMARK SMILES IDX 7 13 8 15 9 16 10 17 14 18 11 19 12 20 13 21 21 22 22 23
REMARK SMILES IDX 23 24 24 25 25 26 26 27 27 28 88 29 28 30 87 31 29 32 30 33
REMARK SMILES IDX 31 34 81 35 32 36 86 37 80 38 82 39 33 40 85 41 79 42 78 43
REMARK SMILES IDX 34 45 66 46 46 47 65 48 47 49 50 50 64 51 83 52 48 53 49 54
REMARK SMILES IDX 63 56 84 57 51 58 35 59 36 60 44 61 37 62 38 63 42 64 45 65
REMARK SMILES IDX 39 66 40 67 43 68 41 69 67 70 68 71 76 72 69 73 70 74 74 75
REMARK SMILES IDX 77 76 71 77 72 78 75 79 73 80 52 81 53 82 61 83 54 84 55 85
REMARK SMILES IDX 59 86 62 87 56 88 57 89 60 90 58 91
REMARK H PARENT 6 14 82 44 50 55
REMARK Flexibility Score: inf
ROOT
ATOM      1  O   UNL A   1      31.841  29.968  27.013  1.00  0.00    -0.374 OA
ENDROOT
BRANCH   1   2
ATOM      2  C   UNL A   1      32.386  28.664  27.243  1.00  0.00     0.202 C 
BRANCH   2   3
ATOM      3  C   UNL A   1      31.539  27.574  26.594  1.00  0.00     0.261 C 
BRANCH   3   4
ATOM      4  O   UNL A   1      32.322  26.371  26.519  1.00  0.00    -0.461 OA
BRANCH   4   5
ATOM      5  C   UNL A   1      31.802  25.371  25.775  1.00  0.00     0.331 C 
ATOM      6  O   UNL A   1      30.599  25.224  25.580  1.00  0.00    -0.249 OA
BRANCH   5   7
ATOM      7  C   UNL A   1      32.897  24.454  25.148  1.00  0.00     0.137 C 
BRANCH   7   8
ATOM      8  C   UNL A   1      32.552  22.991  25.588  1.00  0.00     0.037 C 
ATOM      9  C   UNL A   1      32.763  22.603  27.043  1.00  0.00     0.007 C 
ENDBRANCH   7   8
BRANCH   7  10
ATOM     10  C   UNL A   1      34.255  24.925  25.721  1.00  0.00     0.037 C 
ATOM     11  C   UNL A   1      35.482  24.219  25.166  1.00  0.00     0.007 C 
ENDBRANCH   7  10
BRANCH   7  12
ATOM     12  N   UNL A   1      32.941  24.352  23.653  1.00  0.00    -0.335 N 
ATOM     13  C   UNL A   1      33.048  25.228  22.609  1.00  0.00     0.262 C 
ATOM     14  H   UNL A   1      32.876  23.419  23.345  1.00  0.00     0.165 HD
ATOM     15  O   UNL A   1      33.293  24.731  21.508  1.00  0.00    -0.268 OA
BRANCH  13  16
ATOM     16  C   UNL A   1      32.751  26.619  22.799  1.00  0.00     0.092 A 
ATOM     17  C   UNL A   1      33.533  27.693  23.159  1.00  0.00     0.026 A 
ATOM     18  S   UNL A   1      31.142  27.101  22.486  1.00  0.00    -0.135 S 
ATOM     19  C   UNL A   1      32.755  28.854  23.421  1.00  0.00     0.016 A 
ATOM     20  C   UNL A   1      31.423  28.638  23.156  1.00  0.00     0.002 A 
ATOM     21  C   UNL A   1      30.292  29.557  23.351  1.00  0.00     0.056 C 
ENDBRANCH  13  16
ENDBRANCH   7  12
ENDBRANCH   5   7
ENDBRANCH   4   5
ENDBRANCH   3   4
ENDBRANCH   2   3
ENDBRANCH   1   2
BRANCH   1  22
ATOM     22  C   UNL A   1      32.758  31.045  27.231  1.00  0.00     0.202 C 
BRANCH  22  23
ATOM     23  C   UNL A   1      32.066  32.407  27.294  1.00  0.00     0.261 C 
BRANCH  23  24
ATOM     24  O   UNL A   1      33.027  33.475  27.219  1.00  0.00    -0.460 OA
BRANCH  24  25
ATOM     25  C   UNL A   1      33.179  34.227  28.336  1.00  0.00     0.338 C 
ATOM     26  O   UNL A   1      32.399  35.054  28.780  1.00  0.00    -0.246 OA
BRANCH  25  27
ATOM     27  C   UNL A   1      34.415  33.814  29.048  1.00  0.00     0.060 A 
ATOM     28  C   UNL A   1      35.653  34.289  28.587  1.00  0.00     0.016 A 
ATOM     29  C   UNL A   1      34.368  32.976  30.163  1.00  0.00     0.016 A 
ATOM     30  C   UNL A   1      36.844  33.926  29.233  1.00  0.00     0.010 A 
ATOM     31  C   UNL A   1      35.553  32.628  30.816  1.00  0.00     0.010 A 
ATOM     32  C   UNL A   1      36.805  33.083  30.349  1.00  0.00    -0.014 A 
BRANCH  32  33
ATOM     33  C   UNL A   1      38.028  32.517  30.981  1.00  0.00     0.031 A 
ATOM     34  C   UNL A   1      38.647  31.310  30.343  1.00  0.00     0.074 A 
ATOM     35  C   UNL A   1      38.505  32.948  32.165  1.00  0.00     0.049 A 
ATOM     36  N   UNL A   1      39.592  30.524  30.791  1.00  0.00    -0.248 NA
ATOM     37  C   UNL A   1      38.124  30.939  29.019  1.00  0.00     0.031 C 
ATOM     38  C   UNL A   1      38.066  34.136  32.883  1.00  0.00     0.029 A 
ATOM     39  N   UNL A   1      39.414  32.369  33.021  1.00  0.00    -0.354 N 
ATOM     40  C   UNL A   1      39.794  29.586  29.792  1.00  0.00     0.074 A 
ATOM     41  C   UNL A   1      38.807  29.835  28.764  1.00  0.00     0.031 C 
ATOM     42  C   UNL A   1      38.555  34.107  34.135  1.00  0.00     0.029 A 
ATOM     43  C   UNL A   1      39.412  32.934  34.276  1.00  0.00     0.049 A 
ATOM     44  H   UNL A   1      40.005  31.626  32.761  1.00  0.00     0.167 HD
ATOM     45  C   UNL A   1      40.753  28.636  29.711  1.00  0.00     0.037 A 
ATOM     46  C   UNL A   1      40.027  32.545  35.411  1.00  0.00     0.037 A 
ATOM     47  C   UNL A   1      41.728  28.383  30.733  1.00  0.00     0.049 A 
ATOM     48  C   UNL A   1      41.010  31.408  35.361  1.00  0.00     0.074 A 
ATOM     49  C   UNL A   1      42.794  27.502  30.713  1.00  0.00     0.029 A 
ATOM     50  N   UNL A   1      41.737  28.999  31.975  1.00  0.00    -0.354 N 
ATOM     51  N   UNL A   1      41.302  30.616  34.360  1.00  0.00    -0.248 NA
ATOM     52  C   UNL A   1      41.799  31.156  36.576  1.00  0.00     0.031 C 
ATOM     53  C   UNL A   1      43.421  27.550  31.964  1.00  0.00     0.029 A 
ATOM     54  C   UNL A   1      42.771  28.493  32.746  1.00  0.00     0.049 A 
ATOM     55  H   UNL A   1      41.102  29.692  32.267  1.00  0.00     0.167 HD
ATOM     56  C   UNL A   1      42.361  29.829  34.793  1.00  0.00     0.074 A 
ATOM     57  C   UNL A   1      42.635  30.212  36.162  1.00  0.00     0.031 C 
ATOM     58  C   UNL A   1      43.060  28.899  34.098  1.00  0.00     0.037 A 
BRANCH  45  59
ATOM     59  C   UNL A   1      40.778  27.826  28.451  1.00  0.00     0.064 A 
ATOM     60  C   UNL A   1      40.105  26.595  28.368  1.00  0.00     0.173 A 
ATOM     61  C   UNL A   1      41.524  28.246  27.345  1.00  0.00     0.173 A 
ATOM     62  F   UNL A   1      39.392  26.143  29.412  1.00  0.00    -0.203 F 
ATOM     63  C   UNL A   1      40.229  25.788  27.243  1.00  0.00     0.198 A 
ATOM     64  C   UNL A   1      41.619  27.450  26.207  1.00  0.00     0.198 A 
ATOM     65  F   UNL A   1      42.181  29.415  27.375  1.00  0.00    -0.203 F 
ATOM     66  F   UNL A   1      39.649  24.580  27.219  1.00  0.00    -0.200 F 
ATOM     67  C   UNL A   1      40.987  26.216  26.163  1.00  0.00     0.200 A 
ATOM     68  F   UNL A   1      42.346  27.866  25.160  1.00  0.00    -0.200 F 
ATOM     69  F   UNL A   1      41.123  25.429  25.087  1.00  0.00    -0.200 F 
ENDBRANCH  45  59
BRANCH  46  70
ATOM     70  C   UNL A   1      39.782  33.276  36.678  1.00  0.00     0.064 A 
ATOM     71  C   UNL A   1      40.585  34.361  37.053  1.00  0.00     0.173 A 
ATOM     72  C   UNL A   1      38.754  32.892  37.551  1.00  0.00     0.173 A 
ATOM     73  F   UNL A   1      41.593  34.750  36.258  1.00  0.00    -0.203 F 
ATOM     74  C   UNL A   1      40.383  35.022  38.262  1.00  0.00     0.198 A 
ATOM     75  C   UNL A   1      38.543  33.563  38.754  1.00  0.00     0.198 A 
ATOM     76  F   UNL A   1      37.959  31.858  37.237  1.00  0.00    -0.203 F 
ATOM     77  F   UNL A   1      41.188  36.035  38.612  1.00  0.00    -0.200 F 
ATOM     78  C   UNL A   1      39.362  34.623  39.112  1.00  0.00     0.200 A 
ATOM     79  F   UNL A   1      37.555  33.177  39.573  1.00  0.00    -0.200 F 
ATOM     80  F   UNL A   1      39.172  35.257  40.278  1.00  0.00    -0.200 F 
ENDBRANCH  46  70
BRANCH  58  81
ATOM     81  C   UNL A   1      44.249  28.274  34.765  1.00  0.00     0.064 A 
ATOM     82  C   UNL A   1      45.511  28.882  34.757  1.00  0.00     0.173 A 
ATOM     83  C   UNL A   1      44.095  27.084  35.495  1.00  0.00     0.173 A 
ATOM     84  F   UNL A   1      45.711  30.009  34.058  1.00  0.00    -0.203 F 
ATOM     85  C   UNL A   1      46.577  28.321  35.454  1.00  0.00     0.198 A 
ATOM     86  C   UNL A   1      45.156  26.540  36.211  1.00  0.00     0.198 A 
ATOM     87  F   UNL A   1      42.907  26.463  35.533  1.00  0.00    -0.203 F 
ATOM     88  F   UNL A   1      47.783  28.905  35.413  1.00  0.00    -0.200 F 
ATOM     89  C   UNL A   1      46.396  27.159  36.191  1.00  0.00     0.200 A 
ATOM     90  F   UNL A   1      44.976  25.425  36.932  1.00  0.00    -0.200 F 
ATOM     91  F   UNL A   1      47.420  26.633  36.878  1.00  0.00    -0.200 F 
ENDBRANCH  58  81
ENDBRANCH  32  33
ENDBRANCH  25  27
ENDBRANCH  24  25
ENDBRANCH  23  24
ENDBRANCH  22  23
ENDBRANCH   1  22
TORSDOF 18
ENDMDL
MODEL 2
REMARK VINA RESULT:     -10.1      5.407     10.645
REMARK SMILES CCC(CC)(NC(=O)c1ccc(C)s1)C(=O)OCCOCCOC(=O)c1ccc(-c2c3nc(c(-c4c(F)c(F)c(F)c(F)c4F)c4ccc([nH]4)c(-c4c(F)c(F)c(F)c(F)c4F)c4nc(c(-c5c(F)c(F)c(F)c(F)c5F)c5ccc2[nH]5)C=C4)C=C3)cc1
REMARK SMILES IDX 20 1 19 2 18 3 17 4 15 5 16 6 3 7 2 8 1 9 4 10 5 11 6 12
REMARK SMILES IDX 7 13 8 15 9 16 10 17 14 18 11 19 12 20 13 21 21 22 22 23
REMARK SMILES IDX 23 24 24 25 25 26 26 27 27 28 88 29 28 30 87 31 29 32 30 33
REMARK SMILES IDX 31 34 81 35 32 36 86 37 80 38 82 39 33 40 85 41 79 42 78 43
REMARK SMILES IDX 34 45 66 46 46 47 65 48 47 49 50 50 64 51 83 52 48 53 49 54
REMARK SMILES IDX 63 56 84 57 51 58 35 59 36 60 44 61 37 62 38 63 42 64 45 65
REMARK SMILES IDX 39 66 40 67 43 68 41 69 67 70 68 71 76 72 69 73 70 74 74 75
REMARK SMILES IDX 77 76 71 77 72 78 75 79 73 80 52 81 53 82 61 83 54 84 55 85
REMARK SMILES IDX 59 86 62 87 56 88 57 89 60 90 58 91
REMARK H PARENT 6 14 82 44 50 55
REMARK Flexibility Score: inf
ROOT
ATOM      1  O   UNL A   1      37.449  22.137  26.028  1.00  0.00    -0.374 OA
ENDROOT
BRANCH   1   2
ATOM      2  C   UNL A   1      37.515  23.443  25.445  1.00  0.00     0.202 C 
BRANCH   2   3
ATOM      3  C   UNL A   1      36.620  23.560  24.214  1.00  0.00     0.261 C 
BRANCH   3   4
ATOM      4  O   UNL A   1      35.249  23.555  24.646  1.00  0.00    -0.461 OA
BRANCH   4   5
ATOM      5  C   UNL A   1      34.337  23.938  23.727  1.00  0.00     0.331 C 
ATOM      6  O   UNL A   1      34.611  24.612  22.738  1.00  0.00    -0.249 OA
BRANCH   5   7
ATOM      7  C   UNL A   1      32.909  23.388  24.028  1.00  0.00     0.137 C 
BRANCH   7   8
ATOM      8  C   UNL A   1      32.990  21.834  23.853  1.00  0.00     0.037 C 
ATOM      9  C   UNL A   1      32.205  20.955  24.815  1.00  0.00     0.007 C 
ENDBRANCH   7   8
BRANCH   7  10
ATOM     10  C   UNL A   1      31.954  24.037  22.998  1.00  0.00     0.037 C 
ATOM     11  C   UNL A   1      30.471  23.915  23.309  1.00  0.00     0.007 C 
ENDBRANCH   7  10
BRANCH   7  12
ATOM     12  N   UNL A   1      32.389  23.540  25.426  1.00  0.00    -0.335 N 
ATOM     13  C   UNL A   1      32.013  24.580  26.228  1.00  0.00     0.262 C 
ATOM     14  H   UNL A   1      32.296  22.672  25.881  1.00  0.00     0.165 HD
ATOM     15  O   UNL A   1      31.403  24.279  27.256  1.00  0.00    -0.268 OA
BRANCH  13  16
ATOM     16  C   UNL A   1      32.440  25.917  25.927  1.00  0.00     0.092 A 
ATOM     17  C   UNL A   1      33.679  26.516  25.928  1.00  0.00     0.026 A 
ATOM     18  S   UNL A   1      31.225  27.006  25.418  1.00  0.00    -0.135 S 
ATOM     19  C   UNL A   1      33.589  27.924  25.757  1.00  0.00     0.016 A 
ATOM     20  C   UNL A   1      32.293  28.324  25.539  1.00  0.00     0.002 A 
ATOM     21  C   UNL A   1      31.772  29.690  25.375  1.00  0.00     0.056 C 
ENDBRANCH  13  16
ENDBRANCH   7  12
ENDBRANCH   5   7
ENDBRANCH   4   5
ENDBRANCH   3   4
ENDBRANCH   2   3
ENDBRANCH   1   2
BRANCH   1  22
ATOM     22  C   UNL A   1      38.257  21.152  25.376  1.00  0.00     0.202 C 
BRANCH  22  23
ATOM     23  C   UNL A   1      39.616  20.961  26.051  1.00  0.00     0.261 C 
BRANCH  23  24
ATOM     24  O   UNL A   1      40.109  19.625  25.844  1.00  0.00    -0.460 OA
BRANCH  24  25
ATOM     25  C   UNL A   1      41.443  19.446  25.997  1.00  0.00     0.338 C 
ATOM     26  O   UNL A   1      42.083  18.435  25.760  1.00  0.00    -0.246 OA
BRANCH  25  27
ATOM     27  C   UNL A   1      42.074  20.731  26.395  1.00  0.00     0.060 A 
ATOM     28  C   UNL A   1      42.176  21.041  27.760  1.00  0.00     0.016 A 
ATOM     29  C   UNL A   1      42.572  21.622  25.443  1.00  0.00     0.016 A 
ATOM     30  C   UNL A   1      42.768  22.243  28.178  1.00  0.00     0.010 A 
ATOM     31  C   UNL A   1      43.177  22.810  25.861  1.00  0.00     0.010 A 
ATOM     32  C   UNL A   1      43.265  23.143  27.230  1.00  0.00    -0.014 A 
BRANCH  32  33
ATOM     33  C   UNL A   1      43.750  24.506  27.582  1.00  0.00     0.031 A 
ATOM     34  C   UNL A   1      42.721  25.548  27.906  1.00  0.00     0.074 A 
ATOM     35  C   UNL A   1      45.042  24.872  27.479  1.00  0.00     0.049 A 
ATOM     36  N   UNL A   1      42.865  26.839  28.061  1.00  0.00    -0.248 NA
ATOM     37  C   UNL A   1      41.341  25.065  28.073  1.00  0.00     0.031 C 
ATOM     38  C   UNL A   1      46.167  23.980  27.240  1.00  0.00     0.029 A 
ATOM     39  N   UNL A   1      45.613  26.124  27.472  1.00  0.00    -0.354 N 
ATOM     40  C   UNL A   1      41.602  27.314  28.371  1.00  0.00     0.074 A 
ATOM     41  C   UNL A   1      40.688  26.196  28.281  1.00  0.00     0.031 C 
ATOM     42  C   UNL A   1      47.254  24.707  26.927  1.00  0.00     0.029 A 
ATOM     43  C   UNL A   1      46.915  26.124  27.026  1.00  0.00     0.049 A 
ATOM     44  H   UNL A   1      45.138  26.938  27.757  1.00  0.00     0.167 HD
ATOM     45  C   UNL A   1      41.242  28.560  28.754  1.00  0.00     0.037 A 
ATOM     46  C   UNL A   1      47.737  27.148  26.726  1.00  0.00     0.037 A 
ATOM     47  C   UNL A   1      42.145  29.673  28.838  1.00  0.00     0.049 A 
ATOM     48  C   UNL A   1      47.302  28.554  27.036  1.00  0.00     0.074 A 
ATOM     49  C   UNL A   1      41.901  30.954  29.295  1.00  0.00     0.029 A 
ATOM     50  N   UNL A   1      43.470  29.637  28.427  1.00  0.00    -0.354 N 
ATOM     51  N   UNL A   1      46.143  28.979  27.474  1.00  0.00    -0.248 NA
ATOM     52  C   UNL A   1      48.309  29.613  26.878  1.00  0.00     0.031 C 
ATOM     53  C   UNL A   1      43.066  31.710  29.116  1.00  0.00     0.029 A 
ATOM     54  C   UNL A   1      44.048  30.885  28.588  1.00  0.00     0.049 A 
ATOM     55  H   UNL A   1      43.930  28.843  28.073  1.00  0.00     0.167 HD
ATOM     56  C   UNL A   1      46.303  30.335  27.721  1.00  0.00     0.074 A 
ATOM     57  C   UNL A   1      47.662  30.672  27.348  1.00  0.00     0.031 C 
ATOM     58  C   UNL A   1      45.410  31.209  28.245  1.00  0.00     0.037 A 
BRANCH  45  59
ATOM     59  C   UNL A   1      39.803  28.751  29.122  1.00  0.00     0.064 A 
ATOM     60  C   UNL A   1      38.864  29.191  28.173  1.00  0.00     0.173 A 
ATOM     61  C   UNL A   1      39.369  28.554  30.438  1.00  0.00     0.173 A 
ATOM     62  F   UNL A   1      39.240  29.411  26.903  1.00  0.00    -0.203 F 
ATOM     63  C   UNL A   1      37.557  29.484  28.545  1.00  0.00     0.198 A 
ATOM     64  C   UNL A   1      38.050  28.817  30.799  1.00  0.00     0.198 A 
ATOM     65  F   UNL A   1      40.226  28.132  31.378  1.00  0.00    -0.203 F 
ATOM     66  F   UNL A   1      36.702  29.984  27.642  1.00  0.00    -0.200 F 
ATOM     67  C   UNL A   1      37.151  29.297  29.857  1.00  0.00     0.200 A 
ATOM     68  F   UNL A   1      37.655  28.630  32.066  1.00  0.00    -0.200 F 
ATOM     69  F   UNL A   1      35.897  29.599  30.219  1.00  0.00    -0.200 F 
ENDBRANCH  45  59
BRANCH  46  70
ATOM     70  C   UNL A   1      49.082  26.882  26.158  1.00  0.00     0.064 A 
ATOM     71  C   UNL A   1      50.175  26.605  26.989  1.00  0.00     0.173 A 
ATOM     72  C   UNL A   1      49.306  26.921  24.775  1.00  0.00     0.173 A 
ATOM     73  F   UNL A   1      50.011  26.578  28.320  1.00  0.00    -0.203 F 
ATOM     74  C   UNL A   1      51.447  26.396  26.460  1.00  0.00     0.198 A 
ATOM     75  C   UNL A   1      50.576  26.699  24.245  1.00  0.00     0.198 A 
ATOM     76  F   UNL A   1      48.291  27.184  23.938  1.00  0.00    -0.203 F 
ATOM     77  F   UNL A   1      52.482  26.167  27.280  1.00  0.00    -0.200 F 
ATOM     78  C   UNL A   1      51.647  26.442  25.088  1.00  0.00     0.200 A 
ATOM     79  F   UNL A   1      50.766  26.742  22.919  1.00  0.00    -0.200 F 
ATOM     80  F   UNL A   1      52.872  26.247  24.581  1.00  0.00    -0.200 F 
ENDBRANCH  46  70
BRANCH  58  81
ATOM     81  C   UNL A   1      45.878  32.605  28.529  1.00  0.00     0.064 A 
ATOM     82  C   UNL A   1      46.494  32.950  29.739  1.00  0.00     0.173 A 
ATOM     83  C   UNL A   1      45.780  33.591  27.535  1.00  0.00     0.173 A 
ATOM     84  F   UNL A   1      46.593  32.047  30.726  1.00  0.00    -0.203 F 
ATOM     85  C   UNL A   1      46.993  34.233  29.945  1.00  0.00     0.198 A 
ATOM     86  C   UNL A   1      46.304  34.865  27.734  1.00  0.00     0.198 A 
ATOM     87  F   UNL A   1      45.198  33.311  26.359  1.00  0.00    -0.203 F 
ATOM     88  F   UNL A   1      47.557  34.550  31.119  1.00  0.00    -0.200 F 
ATOM     89  C   UNL A   1      46.910  35.185  28.938  1.00  0.00     0.200 A 
ATOM     90  F   UNL A   1      46.233  35.778  26.756  1.00  0.00    -0.200 F 
ATOM     91  F   UNL A   1      47.412  36.413  29.131  1.00  0.00    -0.200 F 
ENDBRANCH  58  81
ENDBRANCH  32  33
ENDBRANCH  25  27
ENDBRANCH  24  25
ENDBRANCH  23  24
ENDBRANCH  22  23
ENDBRANCH   1  22
TORSDOF 18
ENDMDL
MODEL 3
REMARK VINA RESULT:     -10.1      1.034      2.575
REMARK SMILES CCC(CC)(NC(=O)c1ccc(C)s1)C(=O)OCCOCCOC(=O)c1ccc(-c2c3nc(c(-c4c(F)c(F)c(F)c(F)c4F)c4ccc([nH]4)c(-c4c(F)c(F)c(F)c(F)c4F)c4nc(c(-c5c(F)c(F)c(F)c(F)c5F)c5ccc2[nH]5)C=C4)C=C3)cc1
REMARK SMILES IDX 20 1 19 2 18 3 17 4 15 5 16 6 3 7 2 8 1 9 4 10 5 11 6 12
REMARK SMILES IDX 7 13 8 15 9 16 10 17 14 18 11 19 12 20 13 21 21 22 22 23
REMARK SMILES IDX 23 24 24 25 25 26 26 27 27 28 88 29 28 30 87 31 29 32 30 33
REMARK SMILES IDX 31 34 81 35 32 36 86 37 80 38 82 39 33 40 85 41 79 42 78 43
REMARK SMILES IDX 34 45 66 46 46 47 65 48 47 49 50 50 64 51 83 52 48 53 49 54
REMARK SMILES IDX 63 56 84 57 51 58 35 59 36 60 44 61 37 62 38 63 42 64 45 65
REMARK SMILES IDX 39 66 40 67 43 68 41 69 67 70 68 71 76 72 69 73 70 74 74 75
REMARK SMILES IDX 77 76 71 77 72 78 75 79 73 80 52 81 53 82 61 83 54 84 55 85
REMARK SMILES IDX 59 86 62 87 56 88 57 89 60 90 58 91
REMARK H PARENT 6 14 82 44 50 55
REMARK Flexibility Score: inf
ROOT
ATOM      1  O   UNL A   1      32.496  31.014  26.562  1.00  0.00    -0.374 OA
ENDROOT
BRANCH   1   2
ATOM      2  C   UNL A   1      31.980  29.786  27.088  1.00  0.00     0.202 C 
BRANCH   2   3
ATOM      3  C   UNL A   1      33.075  28.733  27.240  1.00  0.00     0.261 C 
BRANCH   3   4
ATOM      4  O   UNL A   1      32.757  27.620  26.387  1.00  0.00    -0.461 OA
BRANCH   4   5
ATOM      5  C   UNL A   1      32.998  27.795  25.070  1.00  0.00     0.331 C 
ATOM      6  O   UNL A   1      34.019  28.314  24.629  1.00  0.00    -0.249 OA
BRANCH   5   7
ATOM      7  C   UNL A   1      31.862  27.221  24.168  1.00  0.00     0.137 C 
BRANCH   7   8
ATOM      8  C   UNL A   1      31.418  28.387  23.222  1.00  0.00     0.037 C 
ATOM      9  C   UNL A   1      30.459  29.435  23.765  1.00  0.00     0.007 C 
ENDBRANCH   7   8
BRANCH   7  10
ATOM     10  C   UNL A   1      30.721  26.779  25.115  1.00  0.00     0.037 C 
ATOM     11  C   UNL A   1      29.616  25.954  24.473  1.00  0.00     0.007 C 
ENDBRANCH   7  10
BRANCH   7  12
ATOM     12  N   UNL A   1      32.227  26.130  23.206  1.00  0.00    -0.335 N 
ATOM     13  C   UNL A   1      32.737  24.866  23.299  1.00  0.00     0.262 C 
ATOM     14  H   UNL A   1      32.056  26.391  22.272  1.00  0.00     0.165 HD
ATOM     15  O   UNL A   1      32.672  24.180  22.277  1.00  0.00    -0.268 OA
BRANCH  13  16
ATOM     16  C   UNL A   1      33.423  24.449  24.488  1.00  0.00     0.092 A 
ATOM     17  C   UNL A   1      34.706  24.660  24.941  1.00  0.00     0.026 A 
ATOM     18  S   UNL A   1      32.505  23.555  25.620  1.00  0.00    -0.135 S 
ATOM     19  C   UNL A   1      35.000  23.875  26.089  1.00  0.00     0.016 A 
ATOM     20  C   UNL A   1      33.898  23.173  26.517  1.00  0.00     0.002 A 
ATOM     21  C   UNL A   1      33.801  22.210  27.624  1.00  0.00     0.056 C 
ENDBRANCH  13  16
ENDBRANCH   7  12
ENDBRANCH   5   7
ENDBRANCH   4   5
ENDBRANCH   3   4
ENDBRANCH   2   3
ENDBRANCH   1   2
BRANCH   1  22
ATOM     22  C   UNL A   1      31.752  32.180  26.931  1.00  0.00     0.202 C 
BRANCH  22  23
ATOM     23  C   UNL A   1      32.643  33.402  27.159  1.00  0.00     0.261 C 
BRANCH  23  24
ATOM     24  O   UNL A   1      32.146  34.205  28.244  1.00  0.00    -0.460 OA
BRANCH  24  25
ATOM     25  C   UNL A   1      32.998  35.128  28.750  1.00  0.00     0.338 C 
ATOM     26  O   UNL A   1      32.813  36.331  28.843  1.00  0.00    -0.246 OA
BRANCH  25  27
ATOM     27  C   UNL A   1      34.192  34.445  29.312  1.00  0.00     0.060 A 
ATOM     28  C   UNL A   1      34.048  33.684  30.482  1.00  0.00     0.016 A 
ATOM     29  C   UNL A   1      35.441  34.536  28.696  1.00  0.00     0.016 A 
ATOM     30  C   UNL A   1      35.149  33.020  31.044  1.00  0.00     0.010 A 
ATOM     31  C   UNL A   1      36.533  33.860  29.245  1.00  0.00     0.010 A 
ATOM     32  C   UNL A   1      36.404  33.111  30.434  1.00  0.00    -0.014 A 
BRANCH  32  33
ATOM     33  C   UNL A   1      37.648  32.580  31.057  1.00  0.00     0.031 A 
ATOM     34  C   UNL A   1      38.239  31.330  30.475  1.00  0.00     0.074 A 
ATOM     35  C   UNL A   1      38.170  33.083  32.192  1.00  0.00     0.049 A 
ATOM     36  N   UNL A   1      39.197  30.570  30.939  1.00  0.00    -0.248 NA
ATOM     37  C   UNL A   1      37.666  30.877  29.198  1.00  0.00     0.031 C 
ATOM     38  C   UNL A   1      37.761  34.317  32.847  1.00  0.00     0.029 A 
ATOM     39  N   UNL A   1      39.108  32.555  33.049  1.00  0.00    -0.354 N 
ATOM     40  C   UNL A   1      39.359  29.568  29.996  1.00  0.00     0.074 A 
ATOM     41  C   UNL A   1      38.336  29.756  28.991  1.00  0.00     0.031 C 
ATOM     42  C   UNL A   1      38.297  34.367  34.079  1.00  0.00     0.029 A 
ATOM     43  C   UNL A   1      39.154  33.200  34.265  1.00  0.00     0.049 A 
ATOM     44  H   UNL A   1      39.687  31.794  32.817  1.00  0.00     0.167 HD
ATOM     45  C   UNL A   1      40.311  28.609  29.941  1.00  0.00     0.037 A 
ATOM     46  C   UNL A   1      39.808  32.882  35.399  1.00  0.00     0.037 A 
ATOM     47  C   UNL A   1      41.323  28.416  30.942  1.00  0.00     0.049 A 
ATOM     48  C   UNL A   1      40.785  31.738  35.387  1.00  0.00     0.074 A 
ATOM     49  C   UNL A   1      42.384  27.530  30.940  1.00  0.00     0.029 A 
ATOM     50  N   UNL A   1      41.379  29.111  32.141  1.00  0.00    -0.354 N 
ATOM     51  N   UNL A   1      41.038  30.882  34.429  1.00  0.00    -0.248 NA
ATOM     52  C   UNL A   1      41.618  31.561  36.586  1.00  0.00     0.031 C 
ATOM     53  C   UNL A   1      43.056  27.655  32.162  1.00  0.00     0.029 A 
ATOM     54  C   UNL A   1      42.439  28.651  32.904  1.00  0.00     0.049 A 
ATOM     55  H   UNL A   1      40.758  29.826  32.409  1.00  0.00     0.167 HD
ATOM     56  C   UNL A   1      42.108  30.118  34.874  1.00  0.00     0.074 A 
ATOM     57  C   UNL A   1      42.434  30.587  36.204  1.00  0.00     0.031 C 
ATOM     58  C   UNL A   1      42.779  29.141  34.216  1.00  0.00     0.037 A 
BRANCH  45  59
ATOM     59  C   UNL A   1      40.287  27.719  28.737  1.00  0.00     0.064 A 
ATOM     60  C   UNL A   1      39.597  26.494  28.754  1.00  0.00     0.173 A 
ATOM     61  C   UNL A   1      41.003  28.057  27.583  1.00  0.00     0.173 A 
ATOM     62  F   UNL A   1      38.912  26.120  29.847  1.00  0.00    -0.203 F 
ATOM     63  C   UNL A   1      39.677  25.615  27.681  1.00  0.00     0.198 A 
ATOM     64  C   UNL A   1      41.053  27.188  26.497  1.00  0.00     0.198 A 
ATOM     65  F   UNL A   1      41.674  29.216  27.518  1.00  0.00    -0.203 F 
ATOM     66  F   UNL A   1      39.082  24.416  27.753  1.00  0.00    -0.200 F 
ATOM     67  C   UNL A   1      40.405  25.963  26.553  1.00  0.00     0.200 A 
ATOM     68  F   UNL A   1      41.751  27.525  25.404  1.00  0.00    -0.200 F 
ATOM     69  F   UNL A   1      40.498  25.106  25.527  1.00  0.00    -0.200 F 
ENDBRANCH  45  59
BRANCH  46  70
ATOM     70  C   UNL A   1      39.613  33.695  36.625  1.00  0.00     0.064 A 
ATOM     71  C   UNL A   1      38.742  33.275  37.639  1.00  0.00     0.173 A 
ATOM     72  C   UNL A   1      40.274  34.919  36.796  1.00  0.00     0.173 A 
ATOM     73  F   UNL A   1      38.073  32.120  37.507  1.00  0.00    -0.203 F 
ATOM     74  C   UNL A   1      38.525  34.058  38.771  1.00  0.00     0.198 A 
ATOM     75  C   UNL A   1      40.067  35.696  37.935  1.00  0.00     0.198 A 
ATOM     76  F   UNL A   1      41.116  35.366  35.852  1.00  0.00    -0.203 F 
ATOM     77  F   UNL A   1      37.661  33.648  39.710  1.00  0.00    -0.200 F 
ATOM     78  C   UNL A   1      39.188  35.267  38.919  1.00  0.00     0.200 A 
ATOM     79  F   UNL A   1      40.710  36.863  38.077  1.00  0.00    -0.200 F 
ATOM     80  F   UNL A   1      38.974  36.022  40.006  1.00  0.00    -0.200 F 
ENDBRANCH  46  70
BRANCH  58  81
ATOM     81  C   UNL A   1      43.989  28.553  34.878  1.00  0.00     0.064 A 
ATOM     82  C   UNL A   1      45.252  29.152  34.784  1.00  0.00     0.173 A 
ATOM     83  C   UNL A   1      43.858  27.415  35.689  1.00  0.00     0.173 A 
ATOM     84  F   UNL A   1      45.431  30.229  34.005  1.00  0.00    -0.203 F 
ATOM     85  C   UNL A   1      46.342  28.630  35.476  1.00  0.00     0.198 A 
ATOM     86  C   UNL A   1      44.943  26.912  36.400  1.00  0.00     0.198 A 
ATOM     87  F   UNL A   1      42.669  26.805  35.812  1.00  0.00    -0.203 F 
ATOM     88  F   UNL A   1      47.547  29.203  35.352  1.00  0.00    -0.200 F 
ATOM     89  C   UNL A   1      46.184  27.520  36.293  1.00  0.00     0.200 A 
ATOM     90  F   UNL A   1      44.785  25.848  37.199  1.00  0.00    -0.200 F 
ATOM     91  F   UNL A   1      47.230  27.034  36.976  1.00  0.00    -0.200 F 
ENDBRANCH  58  81
ENDBRANCH  32  33
ENDBRANCH  25  27
ENDBRANCH  24  25
ENDBRANCH  23  24
ENDBRANCH  22  23
ENDBRANCH   1  22
TORSDOF 18
ENDMDL
