MODEL 1
REMARK VINA RESULT:     -11.4      0.000      0.000
REMARK SMILES CC(C)COc1cccc(C(=O)Nc2ccc(O)c(C(=O)OCCOCCOC(=O)c3ccc(-c4c5nc(c(-c6c(F)c(F)c(F)c(F)c6F)c6ccc([nH]6)c(-c6c(F)c(F)c(F)c(F)c6F)c6nc(c(-c7c(F)c(F)c(F)c(F)c7F)c7ccc4[nH]7)C=C6)C=C5)cc3)c2)c1
REMARK SMILES IDX 23 1 22 2 20 3 21 4 19 5 14 6 15 7 94 8 16 9 17 10 13 11
REMARK SMILES IDX 11 12 12 13 10 15 6 16 7 17 95 18 8 19 9 20 5 21 4 22 2 23
REMARK SMILES IDX 1 24 3 25 18 26 24 28 25 29 26 30 27 31 28 32 29 33 30 34
REMARK SMILES IDX 31 35 32 36 93 37 33 38 92 39 34 40 35 41 36 42 86 43 37 44
REMARK SMILES IDX 91 45 85 46 87 47 38 48 90 49 84 50 83 51 39 53 71 54 51 55
REMARK SMILES IDX 70 56 52 57 55 58 69 59 88 60 53 61 54 62 68 64 89 65 56 66
REMARK SMILES IDX 40 67 41 68 49 69 42 70 43 71 47 72 50 73 44 74 45 75 48 76
REMARK SMILES IDX 46 77 72 78 73 79 81 80 74 81 75 82 79 83 82 84 76 85 77 86
REMARK SMILES IDX 80 87 78 88 57 89 58 90 66 91 59 92 60 93 64 94 67 95 61 96
REMARK SMILES IDX 62 97 65 98 63 99
REMARK H PARENT 13 14 18 27 87 52 55 63
REMARK Flexibility Score: inf
ROOT
ATOM      1  C   UNL A   1      36.735  23.690  24.907  1.00  0.00     0.261 C 
ENDROOT
BRANCH   1   2
ATOM      2  O   UNL A   1      35.541  22.940  24.639  1.00  0.00    -0.460 OA
BRANCH   2   3
ATOM      3  C   UNL A   1      34.652  23.581  23.853  1.00  0.00     0.342 C 
ATOM      4  O   UNL A   1      34.860  24.068  22.749  1.00  0.00    -0.246 OA
BRANCH   3   5
ATOM      5  C   UNL A   1      33.292  23.574  24.416  1.00  0.00     0.103 A 
ATOM      6  C   UNL A   1      31.713  24.703  25.833  1.00  0.00     0.042 A 
ATOM      7  C   UNL A   1      30.657  24.141  25.102  1.00  0.00     0.030 A 
ATOM      8  C   UNL A   1      33.023  24.296  25.581  1.00  0.00     0.045 A 
ATOM      9  C   UNL A   1      30.921  23.320  24.003  1.00  0.00     0.049 A 
ATOM     10  C   UNL A   1      32.238  23.095  23.626  1.00  0.00     0.130 A 
BRANCH   6  11
ATOM     11  N   UNL A   1      31.403  25.764  26.701  1.00  0.00    -0.322 N 
ATOM     12  C   UNL A   1      31.517  27.140  26.564  1.00  0.00     0.255 C 
ATOM     13  O   UNL A   1      31.356  27.833  27.572  1.00  0.00    -0.269 OA
ATOM     14  H   UNL A   1      31.036  25.478  27.568  1.00  0.00     0.170 HD
BRANCH  12  15
ATOM     15  C   UNL A   1      31.713  27.842  25.253  1.00  0.00     0.043 A 
ATOM     16  C   UNL A   1      30.868  28.747  23.153  1.00  0.00     0.120 A 
ATOM     17  C   UNL A   1      32.158  29.079  22.763  1.00  0.00     0.046 A 
ATOM     18  C   UNL A   1      30.657  28.183  24.408  1.00  0.00     0.060 A 
ATOM     19  C   UNL A   1      33.222  28.861  23.641  1.00  0.00     0.005 A 
ATOM     20  C   UNL A   1      33.003  28.231  24.875  1.00  0.00     0.014 A 
BRANCH  16  21
ATOM     21  O   UNL A   1      29.864  28.785  22.226  1.00  0.00    -0.493 OA
BRANCH  21  22
ATOM     22  C   UNL A   1      28.531  28.929  22.752  1.00  0.00     0.232 C 
BRANCH  22  23
ATOM     23  C   UNL A   1      27.842  30.241  22.322  1.00  0.00     0.020 C 
ATOM     24  C   UNL A   1      27.651  31.188  23.511  1.00  0.00     0.011 C 
ATOM     25  C   UNL A   1      28.618  30.976  21.228  1.00  0.00     0.011 C 
ENDBRANCH  22  23
ENDBRANCH  21  22
ENDBRANCH  16  21
ENDBRANCH  12  15
ENDBRANCH   6  11
BRANCH  10  26
ATOM     26  O   UNL A   1      32.434  22.469  22.424  1.00  0.00    -0.507 OA
ATOM     27  H   UNL A   1      33.218  21.980  22.272  1.00  0.00     0.293 HD
ENDBRANCH  10  26
ENDBRANCH   3   5
ENDBRANCH   2   3
ENDBRANCH   1   2
BRANCH   1  28
ATOM     28  C   UNL A   1      37.552  23.141  26.081  1.00  0.00     0.202 C 
BRANCH  28  29
ATOM     29  O   UNL A   1      38.540  22.141  25.871  1.00  0.00    -0.374 OA
BRANCH  29  30
ATOM     30  C   UNL A   1      38.195  20.872  25.337  1.00  0.00     0.202 C 
BRANCH  30  31
ATOM     31  C   UNL A   1      39.103  19.649  25.549  1.00  0.00     0.261 C 
BRANCH  31  32
ATOM     32  O   UNL A   1      40.031  19.756  26.637  1.00  0.00    -0.460 OA
BRANCH  32  33
ATOM     33  C   UNL A   1      41.322  19.564  26.274  1.00  0.00     0.338 C 
ATOM     34  O   UNL A   1      41.809  18.577  25.752  1.00  0.00    -0.246 OA
BRANCH  33  35
ATOM     35  C   UNL A   1      42.095  20.804  26.453  1.00  0.00     0.060 A 
ATOM     36  C   UNL A   1      42.400  21.185  27.765  1.00  0.00     0.016 A 
ATOM     37  C   UNL A   1      42.391  21.643  25.377  1.00  0.00     0.016 A 
ATOM     38  C   UNL A   1      42.956  22.435  28.015  1.00  0.00     0.010 A 
ATOM     39  C   UNL A   1      42.932  22.907  25.631  1.00  0.00     0.010 A 
ATOM     40  C   UNL A   1      43.176  23.322  26.953  1.00  0.00    -0.014 A 
BRANCH  40  41
ATOM     41  C   UNL A   1      43.482  24.735  27.268  1.00  0.00     0.031 A 
ATOM     42  C   UNL A   1      44.859  25.261  26.968  1.00  0.00     0.074 A 
ATOM     43  C   UNL A   1      42.528  25.554  27.742  1.00  0.00     0.049 A 
ATOM     44  N   UNL A   1      45.341  26.467  27.127  1.00  0.00    -0.248 NA
ATOM     45  C   UNL A   1      45.821  24.298  26.410  1.00  0.00     0.031 C 
ATOM     46  C   UNL A   1      41.149  25.165  28.024  1.00  0.00     0.029 A 
ATOM     47  N   UNL A   1      42.578  26.887  28.061  1.00  0.00    -0.354 N 
ATOM     48  C   UNL A   1      46.657  26.407  26.687  1.00  0.00     0.074 A 
ATOM     49  C   UNL A   1      46.910  25.041  26.284  1.00  0.00     0.031 C 
ATOM     50  C   UNL A   1      40.480  26.238  28.483  1.00  0.00     0.029 A 
ATOM     51  C   UNL A   1      41.392  27.378  28.546  1.00  0.00     0.049 A 
ATOM     52  H   UNL A   1      43.386  27.438  27.953  1.00  0.00     0.167 HD
ATOM     53  C   UNL A   1      47.568  27.406  26.617  1.00  0.00     0.037 A 
ATOM     54  C   UNL A   1      41.088  28.608  29.003  1.00  0.00     0.037 A 
ATOM     55  C   UNL A   1      47.313  28.764  27.018  1.00  0.00     0.049 A 
ATOM     56  C   UNL A   1      42.139  29.686  28.974  1.00  0.00     0.074 A 
ATOM     57  C   UNL A   1      48.166  29.853  26.977  1.00  0.00     0.029 A 
ATOM     58  N   UNL A   1      46.110  29.215  27.542  1.00  0.00    -0.354 N 
ATOM     59  N   UNL A   1      43.373  29.629  28.533  1.00  0.00    -0.248 NA
ATOM     60  C   UNL A   1      41.753  31.003  29.499  1.00  0.00     0.031 C 
ATOM     61  C   UNL A   1      47.493  30.954  27.518  1.00  0.00     0.029 A 
ATOM     62  C   UNL A   1      46.207  30.563  27.850  1.00  0.00     0.049 A 
ATOM     63  H   UNL A   1      45.308  28.661  27.675  1.00  0.00     0.167 HD
ATOM     64  C   UNL A   1      43.900  30.902  28.702  1.00  0.00     0.074 A 
ATOM     65  C   UNL A   1      42.847  31.715  29.274  1.00  0.00     0.031 C 
ATOM     66  C   UNL A   1      45.144  31.357  28.410  1.00  0.00     0.037 A 
BRANCH  53  67
ATOM     67  C   UNL A   1      48.937  27.061  26.110  1.00  0.00     0.064 A 
ATOM     68  C   UNL A   1      49.952  26.618  26.971  1.00  0.00     0.173 A 
ATOM     69  C   UNL A   1      49.227  27.144  24.740  1.00  0.00     0.173 A 
ATOM     70  F   UNL A   1      49.730  26.536  28.291  1.00  0.00    -0.203 F 
ATOM     71  C   UNL A   1      51.214  26.289  26.481  1.00  0.00     0.198 A 
ATOM     72  C   UNL A   1      50.482  26.789  24.249  1.00  0.00     0.198 A 
ATOM     73  F   UNL A   1      48.291  27.560  23.874  1.00  0.00    -0.203 F 
ATOM     74  F   UNL A   1      52.180  25.905  27.325  1.00  0.00    -0.200 F 
ATOM     75  C   UNL A   1      51.475  26.368  25.120  1.00  0.00     0.200 A 
ATOM     76  F   UNL A   1      50.729  26.857  22.934  1.00  0.00    -0.200 F 
ATOM     77  F   UNL A   1      52.687  26.044  24.649  1.00  0.00    -0.200 F 
ENDBRANCH  53  67
BRANCH  54  78
ATOM     78  C   UNL A   1      39.728  28.886  29.534  1.00  0.00     0.064 A 
ATOM     79  C   UNL A   1      39.421  28.685  30.887  1.00  0.00     0.173 A 
ATOM     80  C   UNL A   1      38.703  29.345  28.693  1.00  0.00     0.173 A 
ATOM     81  F   UNL A   1      40.362  28.224  31.725  1.00  0.00    -0.203 F 
ATOM     82  C   UNL A   1      38.136  28.915  31.375  1.00  0.00     0.198 A 
ATOM     83  C   UNL A   1      37.426  29.600  29.188  1.00  0.00     0.198 A 
ATOM     84  F   UNL A   1      38.945  29.552  27.391  1.00  0.00    -0.203 F 
ATOM     85  F   UNL A   1      37.857  28.671  32.662  1.00  0.00    -0.200 F 
ATOM     86  C   UNL A   1      37.141  29.378  30.526  1.00  0.00     0.200 A 
ATOM     87  F   UNL A   1      36.472  30.059  28.367  1.00  0.00    -0.200 F 
ATOM     88  F   UNL A   1      35.907  29.601  30.997  1.00  0.00    -0.200 F 
ENDBRANCH  54  78
BRANCH  66  89
ATOM     89  C   UNL A   1      45.424  32.809  28.670  1.00  0.00     0.064 A 
ATOM     90  C   UNL A   1      46.033  33.240  29.857  1.00  0.00     0.173 A 
ATOM     91  C   UNL A   1      45.114  33.775  27.701  1.00  0.00     0.173 A 
ATOM     92  F   UNL A   1      46.334  32.357  30.820  1.00  0.00    -0.203 F 
ATOM     93  C   UNL A   1      46.300  34.589  30.074  1.00  0.00     0.198 A 
ATOM     94  C   UNL A   1      45.409  35.119  27.910  1.00  0.00     0.198 A 
ATOM     95  F   UNL A   1      44.538  33.412  26.545  1.00  0.00    -0.203 F 
ATOM     96  F   UNL A   1      46.841  34.985  31.235  1.00  0.00    -0.200 F 
ATOM     97  C   UNL A   1      45.995  35.526  29.098  1.00  0.00     0.200 A 
ATOM     98  F   UNL A   1      45.126  36.021  26.959  1.00  0.00    -0.200 F 
ATOM     99  F   UNL A   1      46.259  36.823  29.307  1.00  0.00    -0.200 F 
ENDBRANCH  66  89
ENDBRANCH  40  41
ENDBRANCH  33  35
ENDBRANCH  32  33
ENDBRANCH  31  32
ENDBRANCH  30  31
ENDBRANCH  29  30
ENDBRANCH  28  29
ENDBRANCH   1  28
TORSDOF 20
ENDMDL
MODEL 2
REMARK VINA RESULT:     -11.4      1.715      2.553
REMARK SMILES CC(C)COc1cccc(C(=O)Nc2ccc(O)c(C(=O)OCCOCCOC(=O)c3ccc(-c4c5nc(c(-c6c(F)c(F)c(F)c(F)c6F)c6ccc([nH]6)c(-c6c(F)c(F)c(F)c(F)c6F)c6nc(c(-c7c(F)c(F)c(F)c(F)c7F)c7ccc4[nH]7)C=C6)C=C5)cc3)c2)c1
REMARK SMILES IDX 23 1 22 2 20 3 21 4 19 5 14 6 15 7 94 8 16 9 17 10 13 11
REMARK SMILES IDX 11 12 12 13 10 15 6 16 7 17 95 18 8 19 9 20 5 21 4 22 2 23
REMARK SMILES IDX 1 24 3 25 18 26 24 28 25 29 26 30 27 31 28 32 29 33 30 34
REMARK SMILES IDX 31 35 32 36 93 37 33 38 92 39 34 40 35 41 36 42 86 43 37 44
REMARK SMILES IDX 91 45 85 46 87 47 38 48 90 49 84 50 83 51 39 53 71 54 51 55
REMARK SMILES IDX 70 56 52 57 55 58 69 59 88 60 53 61 54 62 68 64 89 65 56 66
REMARK SMILES IDX 40 67 41 68 49 69 42 70 43 71 47 72 50 73 44 74 45 75 48 76
REMARK SMILES IDX 46 77 72 78 73 79 81 80 74 81 75 82 79 83 82 84 76 85 77 86
REMARK SMILES IDX 80 87 78 88 57 89 58 90 66 91 59 92 60 93 64 94 67 95 61 96
REMARK SMILES IDX 62 97 65 98 63 99
REMARK H PARENT 13 14 18 27 87 52 55 63
REMARK Flexibility Score: inf
ROOT
ATOM      1  C   UNL A   1      36.452  23.506  24.904  1.00  0.00     0.261 C 
ENDROOT
BRANCH   1   2
ATOM      2  O   UNL A   1      35.493  24.141  25.763  1.00  0.00    -0.460 OA
BRANCH   2   3
ATOM      3  C   UNL A   1      34.513  23.320  26.195  1.00  0.00     0.342 C 
ATOM      4  O   UNL A   1      34.419  22.800  27.299  1.00  0.00    -0.246 OA
BRANCH   3   5
ATOM      5  C   UNL A   1      33.437  23.156  25.204  1.00  0.00     0.103 A 
ATOM      6  C   UNL A   1      32.729  23.558  22.942  1.00  0.00     0.042 A 
ATOM      7  C   UNL A   1      31.877  22.447  23.013  1.00  0.00     0.030 A 
ATOM      8  C   UNL A   1      33.392  23.997  24.089  1.00  0.00     0.045 A 
ATOM      9  C   UNL A   1      31.831  21.668  24.172  1.00  0.00     0.049 A 
ATOM     10  C   UNL A   1      32.662  21.989  25.237  1.00  0.00     0.130 A 
BRANCH   6  11
ATOM     11  N   UNL A   1      32.981  24.096  21.669  1.00  0.00    -0.322 N 
ATOM     12  C   UNL A   1      32.806  25.371  21.148  1.00  0.00     0.255 C 
ATOM     13  O   UNL A   1      32.924  25.514  19.929  1.00  0.00    -0.269 OA
ATOM     14  H   UNL A   1      33.350  23.449  21.026  1.00  0.00     0.170 HD
BRANCH  12  15
ATOM     15  C   UNL A   1      32.595  26.598  21.983  1.00  0.00     0.043 A 
ATOM     16  C   UNL A   1      31.156  28.178  23.155  1.00  0.00     0.120 A 
ATOM     17  C   UNL A   1      32.255  28.965  23.472  1.00  0.00     0.046 A 
ATOM     18  C   UNL A   1      31.344  26.985  22.464  1.00  0.00     0.060 A 
ATOM     19  C   UNL A   1      33.535  28.539  23.109  1.00  0.00     0.005 A 
ATOM     20  C   UNL A   1      33.703  27.368  22.355  1.00  0.00     0.014 A 
BRANCH  16  21
ATOM     21  O   UNL A   1      29.900  28.687  23.342  1.00  0.00    -0.493 OA
BRANCH  21  22
ATOM     22  C   UNL A   1      29.836  30.077  23.710  1.00  0.00     0.232 C 
BRANCH  22  23
ATOM     23  C   UNL A   1      28.910  30.910  22.796  1.00  0.00     0.020 C 
ATOM     24  C   UNL A   1      28.455  30.103  21.577  1.00  0.00     0.011 C 
ATOM     25  C   UNL A   1      27.674  31.425  23.534  1.00  0.00     0.011 C 
ENDBRANCH  22  23
ENDBRANCH  21  22
ENDBRANCH  16  21
ENDBRANCH  12  15
ENDBRANCH   6  11
BRANCH  10  26
ATOM     26  O   UNL A   1      32.737  21.075  26.254  1.00  0.00    -0.507 OA
ATOM     27  H   UNL A   1      33.491  20.526  26.337  1.00  0.00     0.293 HD
ENDBRANCH  10  26
ENDBRANCH   3   5
ENDBRANCH   2   3
ENDBRANCH   1   2
BRANCH   1  28
ATOM     28  C   UNL A   1      36.963  22.165  25.442  1.00  0.00     0.202 C 
BRANCH  28  29
ATOM     29  O   UNL A   1      37.477  21.178  24.557  1.00  0.00    -0.374 OA
BRANCH  29  30
ATOM     30  C   UNL A   1      37.706  19.848  24.997  1.00  0.00     0.202 C 
BRANCH  30  31
ATOM     31  C   UNL A   1      39.037  19.448  25.653  1.00  0.00     0.261 C 
BRANCH  31  32
ATOM     32  O   UNL A   1      40.057  20.455  25.633  1.00  0.00    -0.460 OA
BRANCH  32  33
ATOM     33  C   UNL A   1      40.848  20.454  26.734  1.00  0.00     0.338 C 
ATOM     34  O   UNL A   1      41.495  19.526  27.183  1.00  0.00    -0.246 OA
BRANCH  33  35
ATOM     35  C   UNL A   1      40.969  21.817  27.279  1.00  0.00     0.060 A 
ATOM     36  C   UNL A   1      40.389  22.856  26.539  1.00  0.00     0.016 A 
ATOM     37  C   UNL A   1      41.745  22.088  28.406  1.00  0.00     0.016 A 
ATOM     38  C   UNL A   1      40.628  24.178  26.894  1.00  0.00     0.010 A 
ATOM     39  C   UNL A   1      42.001  23.419  28.751  1.00  0.00     0.010 A 
ATOM     40  C   UNL A   1      41.478  24.466  27.970  1.00  0.00    -0.014 A 
BRANCH  40  41
ATOM     41  C   UNL A   1      41.952  25.858  28.141  1.00  0.00     0.031 A 
ATOM     42  C   UNL A   1      43.286  26.244  27.564  1.00  0.00     0.074 A 
ATOM     43  C   UNL A   1      41.173  26.778  28.733  1.00  0.00     0.049 A 
ATOM     44  N   UNL A   1      43.885  27.408  27.561  1.00  0.00    -0.248 NA
ATOM     45  C   UNL A   1      44.045  25.175  26.896  1.00  0.00     0.031 C 
ATOM     46  C   UNL A   1      39.844  26.528  29.286  1.00  0.00     0.029 A 
ATOM     47  N   UNL A   1      41.389  28.114  28.960  1.00  0.00    -0.354 N 
ATOM     48  C   UNL A   1      45.086  27.210  26.892  1.00  0.00     0.074 A 
ATOM     49  C   UNL A   1      45.147  25.811  26.529  1.00  0.00     0.031 C 
ATOM     50  C   UNL A   1      39.363  27.675  29.796  1.00  0.00     0.029 A 
ATOM     51  C   UNL A   1      40.359  28.730  29.625  1.00  0.00     0.049 A 
ATOM     52  H   UNL A   1      42.204  28.585  28.673  1.00  0.00     0.167 HD
ATOM     53  C   UNL A   1      46.046  28.119  26.598  1.00  0.00     0.037 A 
ATOM     54  C   UNL A   1      40.246  30.001  30.058  1.00  0.00     0.037 A 
ATOM     55  C   UNL A   1      45.981  29.510  26.959  1.00  0.00     0.049 A 
ATOM     56  C   UNL A   1      41.358  30.977  29.773  1.00  0.00     0.074 A 
ATOM     57  C   UNL A   1      46.896  30.515  26.699  1.00  0.00     0.029 A 
ATOM     58  N   UNL A   1      44.938  30.090  27.668  1.00  0.00    -0.354 N 
ATOM     59  N   UNL A   1      42.478  30.790  29.118  1.00  0.00    -0.248 NA
ATOM     60  C   UNL A   1      41.185  32.345  30.283  1.00  0.00     0.031 C 
ATOM     61  C   UNL A   1      46.428  31.694  27.290  1.00  0.00     0.029 A 
ATOM     62  C   UNL A   1      45.199  31.436  27.874  1.00  0.00     0.049 A 
ATOM     63  H   UNL A   1      44.133  29.617  27.977  1.00  0.00     0.167 HD
ATOM     64  C   UNL A   1      43.129  32.016  29.113  1.00  0.00     0.074 A 
ATOM     65  C   UNL A   1      42.271  32.945  29.820  1.00  0.00     0.031 C 
ATOM     66  C   UNL A   1      44.328  32.345  28.572  1.00  0.00     0.037 A 
BRANCH  53  67
ATOM     67  C   UNL A   1      47.262  27.631  25.869  1.00  0.00     0.064 A 
ATOM     68  C   UNL A   1      47.309  27.574  24.468  1.00  0.00     0.173 A 
ATOM     69  C   UNL A   1      48.408  27.245  26.580  1.00  0.00     0.173 A 
ATOM     70  F   UNL A   1      46.234  27.917  23.743  1.00  0.00    -0.203 F 
ATOM     71  C   UNL A   1      48.451  27.131  23.807  1.00  0.00     0.198 A 
ATOM     72  C   UNL A   1      49.558  26.827  25.916  1.00  0.00     0.198 A 
ATOM     73  F   UNL A   1      48.416  27.282  27.922  1.00  0.00    -0.203 F 
ATOM     74  F   UNL A   1      48.461  27.047  22.470  1.00  0.00    -0.200 F 
ATOM     75  C   UNL A   1      49.577  26.764  24.531  1.00  0.00     0.200 A 
ATOM     76  F   UNL A   1      50.647  26.483  26.616  1.00  0.00    -0.200 F 
ATOM     77  F   UNL A   1      50.678  26.345  23.893  1.00  0.00    -0.200 F 
ENDBRANCH  53  67
BRANCH  54  78
ATOM     78  C   UNL A   1      39.038  30.422  30.812  1.00  0.00     0.064 A 
ATOM     79  C   UNL A   1      38.975  30.309  32.207  1.00  0.00     0.173 A 
ATOM     80  C   UNL A   1      37.913  30.934  30.148  1.00  0.00     0.173 A 
ATOM     81  F   UNL A   1      40.017  29.802  32.884  1.00  0.00    -0.203 F 
ATOM     82  C   UNL A   1      37.828  30.674  32.908  1.00  0.00     0.198 A 
ATOM     83  C   UNL A   1      36.777  31.324  30.852  1.00  0.00     0.198 A 
ATOM     84  F   UNL A   1      37.922  31.062  28.813  1.00  0.00    -0.203 F 
ATOM     85  F   UNL A   1      37.777  30.512  34.237  1.00  0.00    -0.200 F 
ATOM     86  C   UNL A   1      36.731  31.187  32.231  1.00  0.00     0.200 A 
ATOM     87  F   UNL A   1      35.725  31.831  30.195  1.00  0.00    -0.200 F 
ATOM     88  F   UNL A   1      35.630  31.541  32.906  1.00  0.00    -0.200 F 
ENDBRANCH  54  78
BRANCH  66  89
ATOM     89  C   UNL A   1      44.768  33.776  28.692  1.00  0.00     0.064 A 
ATOM     90  C   UNL A   1      45.583  34.209  29.747  1.00  0.00     0.173 A 
ATOM     91  C   UNL A   1      44.402  34.713  27.715  1.00  0.00     0.173 A 
ATOM     92  F   UNL A   1      45.948  33.354  30.713  1.00  0.00    -0.203 F 
ATOM     93  C   UNL A   1      45.995  35.536  29.832  1.00  0.00     0.198 A 
ATOM     94  C   UNL A   1      44.840  36.032  27.788  1.00  0.00     0.198 A 
ATOM     95  F   UNL A   1      43.630  34.346  26.681  1.00  0.00    -0.203 F 
ATOM     96  F   UNL A   1      46.736  35.940  30.874  1.00  0.00    -0.200 F 
ATOM     97  C   UNL A   1      45.630  36.444  28.850  1.00  0.00     0.200 A 
ATOM     98  F   UNL A   1      44.497  36.905  26.830  1.00  0.00    -0.200 F 
ATOM     99  F   UNL A   1      46.033  37.719  28.931  1.00  0.00    -0.200 F 
ENDBRANCH  66  89
ENDBRANCH  40  41
ENDBRANCH  33  35
ENDBRANCH  32  33
ENDBRANCH  31  32
ENDBRANCH  30  31
ENDBRANCH  29  30
ENDBRANCH  28  29
ENDBRANCH   1  28
TORSDOF 20
ENDMDL
MODEL 3
REMARK VINA RESULT:     -11.2      1.916      7.615
REMARK SMILES CC(C)COc1cccc(C(=O)Nc2ccc(O)c(C(=O)OCCOCCOC(=O)c3ccc(-c4c5nc(c(-c6c(F)c(F)c(F)c(F)c6F)c6ccc([nH]6)c(-c6c(F)c(F)c(F)c(F)c6F)c6nc(c(-c7c(F)c(F)c(F)c(F)c7F)c7ccc4[nH]7)C=C6)C=C5)cc3)c2)c1
REMARK SMILES IDX 23 1 22 2 20 3 21 4 19 5 14 6 15 7 94 8 16 9 17 10 13 11
REMARK SMILES IDX 11 12 12 13 10 15 6 16 7 17 95 18 8 19 9 20 5 21 4 22 2 23
REMARK SMILES IDX 1 24 3 25 18 26 24 28 25 29 26 30 27 31 28 32 29 33 30 34
REMARK SMILES IDX 31 35 32 36 93 37 33 38 92 39 34 40 35 41 36 42 86 43 37 44
REMARK SMILES IDX 91 45 85 46 87 47 38 48 90 49 84 50 83 51 39 53 71 54 51 55
REMARK SMILES IDX 70 56 52 57 55 58 69 59 88 60 53 61 54 62 68 64 89 65 56 66
REMARK SMILES IDX 40 67 41 68 49 69 42 70 43 71 47 72 50 73 44 74 45 75 48 76
REMARK SMILES IDX 46 77 72 78 73 79 81 80 74 81 75 82 79 83 82 84 76 85 77 86
REMARK SMILES IDX 80 87 78 88 57 89 58 90 66 91 59 92 60 93 64 94 67 95 61 96
REMARK SMILES IDX 62 97 65 98 63 99
REMARK H PARENT 13 14 18 27 87 52 55 63
REMARK Flexibility Score: inf
ROOT
ATOM      1  C   UNL A   1      36.522  23.322  25.175  1.00  0.00     0.261 C 
ENDROOT
BRANCH   1   2
ATOM      2  O   UNL A   1      35.571  23.872  26.100  1.00  0.00    -0.460 OA
BRANCH   2   3
ATOM      3  C   UNL A   1      34.584  23.021  26.445  1.00  0.00     0.342 C 
ATOM      4  O   UNL A   1      34.351  22.575  27.561  1.00  0.00    -0.246 OA
BRANCH   3   5
ATOM      5  C   UNL A   1      33.682  22.717  25.322  1.00  0.00     0.103 A 
ATOM      6  C   UNL A   1      33.081  23.227  23.052  1.00  0.00     0.042 A 
ATOM      7  C   UNL A   1      32.570  21.931  22.897  1.00  0.00     0.030 A 
ATOM      8  C   UNL A   1      33.496  23.662  24.310  1.00  0.00     0.045 A 
ATOM      9  C   UNL A   1      32.647  21.014  23.948  1.00  0.00     0.049 A 
ATOM     10  C   UNL A   1      33.264  21.392  25.133  1.00  0.00     0.130 A 
BRANCH   6  11
ATOM     11  N   UNL A   1      33.277  23.985  21.886  1.00  0.00    -0.322 N 
ATOM     12  C   UNL A   1      32.749  25.199  21.466  1.00  0.00     0.255 C 
ATOM     13  O   UNL A   1      32.944  25.536  20.296  1.00  0.00    -0.269 OA
ATOM     14  H   UNL A   1      33.906  23.581  21.245  1.00  0.00     0.170 HD
BRANCH  12  15
ATOM     15  C   UNL A   1      32.056  26.172  22.372  1.00  0.00     0.043 A 
ATOM     16  C   UNL A   1      31.962  28.279  23.594  1.00  0.00     0.120 A 
ATOM     17  C   UNL A   1      30.745  27.916  24.153  1.00  0.00     0.046 A 
ATOM     18  C   UNL A   1      32.574  27.431  22.676  1.00  0.00     0.060 A 
ATOM     19  C   UNL A   1      30.142  26.715  23.772  1.00  0.00     0.005 A 
ATOM     20  C   UNL A   1      30.801  25.839  22.897  1.00  0.00     0.014 A 
BRANCH  16  21
ATOM     21  O   UNL A   1      32.634  29.354  24.108  1.00  0.00    -0.493 OA
BRANCH  21  22
ATOM     22  C   UNL A   1      32.823  29.351  25.535  1.00  0.00     0.232 C 
BRANCH  22  23
ATOM     23  C   UNL A   1      34.063  28.548  25.985  1.00  0.00     0.020 C 
ATOM     24  C   UNL A   1      34.681  29.141  27.255  1.00  0.00     0.011 C 
ATOM     25  C   UNL A   1      33.743  27.074  26.235  1.00  0.00     0.011 C 
ENDBRANCH  22  23
ENDBRANCH  21  22
ENDBRANCH  16  21
ENDBRANCH  12  15
ENDBRANCH   6  11
BRANCH  10  26
ATOM     26  O   UNL A   1      33.507  20.398  26.044  1.00  0.00    -0.507 OA
ATOM     27  H   UNL A   1      33.035  20.377  26.852  1.00  0.00     0.293 HD
ENDBRANCH  10  26
ENDBRANCH   3   5
ENDBRANCH   2   3
ENDBRANCH   1   2
BRANCH   1  28
ATOM     28  C   UNL A   1      37.072  21.957  25.602  1.00  0.00     0.202 C 
BRANCH  28  29
ATOM     29  O   UNL A   1      37.592  21.052  24.638  1.00  0.00    -0.374 OA
BRANCH  29  30
ATOM     30  C   UNL A   1      37.939  19.722  24.993  1.00  0.00     0.202 C 
BRANCH  30  31
ATOM     31  C   UNL A   1      39.325  19.392  25.570  1.00  0.00     0.261 C 
BRANCH  31  32
ATOM     32  O   UNL A   1      40.166  20.524  25.832  1.00  0.00    -0.460 OA
BRANCH  32  33
ATOM     33  C   UNL A   1      40.650  20.564  27.098  1.00  0.00     0.338 C 
ATOM     34  O   UNL A   1      40.979  19.624  27.798  1.00  0.00    -0.246 OA
BRANCH  33  35
ATOM     35  C   UNL A   1      40.890  21.957  27.509  1.00  0.00     0.060 A 
ATOM     36  C   UNL A   1      40.356  22.966  26.698  1.00  0.00     0.016 A 
ATOM     37  C   UNL A   1      41.731  22.269  28.579  1.00  0.00     0.016 A 
ATOM     38  C   UNL A   1      40.705  24.293  26.919  1.00  0.00     0.010 A 
ATOM     39  C   UNL A   1      42.096  23.603  28.789  1.00  0.00     0.010 A 
ATOM     40  C   UNL A   1      41.617  24.612  27.934  1.00  0.00    -0.014 A 
BRANCH  40  41
ATOM     41  C   UNL A   1      42.197  25.974  27.958  1.00  0.00     0.031 A 
ATOM     42  C   UNL A   1      41.444  27.068  28.665  1.00  0.00     0.074 A 
ATOM     43  C   UNL A   1      43.406  26.214  27.424  1.00  0.00     0.049 A 
ATOM     44  N   UNL A   1      41.772  28.321  28.843  1.00  0.00    -0.248 NA
ATOM     45  C   UNL A   1      40.148  26.695  29.255  1.00  0.00     0.031 C 
ATOM     46  C   UNL A   1      44.245  25.221  26.758  1.00  0.00     0.029 A 
ATOM     47  N   UNL A   1      44.140  27.371  27.369  1.00  0.00    -0.354 N 
ATOM     48  C   UNL A   1      40.728  28.885  29.565  1.00  0.00     0.074 A 
ATOM     49  C   UNL A   1      39.741  27.847  29.767  1.00  0.00     0.031 C 
ATOM     50  C   UNL A   1      45.381  25.814  26.352  1.00  0.00     0.029 A 
ATOM     51  C   UNL A   1      45.336  27.229  26.711  1.00  0.00     0.049 A 
ATOM     52  H   UNL A   1      43.838  28.221  27.763  1.00  0.00     0.167 HD
ATOM     53  C   UNL A   1      40.610  30.152  30.026  1.00  0.00     0.037 A 
ATOM     54  C   UNL A   1      46.278  28.148  26.422  1.00  0.00     0.037 A 
ATOM     55  C   UNL A   1      41.594  31.181  29.825  1.00  0.00     0.049 A 
ATOM     56  C   UNL A   1      46.093  29.567  26.892  1.00  0.00     0.074 A 
ATOM     57  C   UNL A   1      41.575  32.494  30.261  1.00  0.00     0.029 A 
ATOM     58  N   UNL A   1      42.777  31.011  29.119  1.00  0.00    -0.354 N 
ATOM     59  N   UNL A   1      45.115  30.086  27.596  1.00  0.00    -0.248 NA
ATOM     60  C   UNL A   1      47.146  30.527  26.533  1.00  0.00     0.031 C 
ATOM     61  C   UNL A   1      42.724  33.131  29.781  1.00  0.00     0.029 A 
ATOM     62  C   UNL A   1      43.484  32.202  29.088  1.00  0.00     0.049 A 
ATOM     63  H   UNL A   1      43.070  30.169  28.703  1.00  0.00     0.167 HD
ATOM     64  C   UNL A   1      45.447  31.420  27.787  1.00  0.00     0.074 A 
ATOM     65  C   UNL A   1      46.724  31.629  27.136  1.00  0.00     0.031 C 
ATOM     66  C   UNL A   1      44.757  32.387  28.442  1.00  0.00     0.037 A 
BRANCH  53  67
ATOM     67  C   UNL A   1      39.358  30.503  30.775  1.00  0.00     0.064 A 
ATOM     68  C   UNL A   1      38.216  30.982  30.116  1.00  0.00     0.173 A 
ATOM     69  C   UNL A   1      39.290  30.329  32.165  1.00  0.00     0.173 A 
ATOM     70  F   UNL A   1      38.235  31.181  28.790  1.00  0.00    -0.203 F 
ATOM     71  C   UNL A   1      37.057  31.290  30.825  1.00  0.00     0.198 A 
ATOM     72  C   UNL A   1      38.122  30.613  32.868  1.00  0.00     0.198 A 
ATOM     73  F   UNL A   1      40.355  29.872  32.842  1.00  0.00    -0.203 F 
ATOM     74  F   UNL A   1      35.990  31.783  30.181  1.00  0.00    -0.200 F 
ATOM     75  C   UNL A   1      37.009  31.100  32.199  1.00  0.00     0.200 A 
ATOM     76  F   UNL A   1      38.075  30.419  34.192  1.00  0.00    -0.200 F 
ATOM     77  F   UNL A   1      35.892  31.389  32.878  1.00  0.00    -0.200 F 
ENDBRANCH  53  67
BRANCH  54  78
ATOM     78  C   UNL A   1      47.480  27.756  25.641  1.00  0.00     0.064 A 
ATOM     79  C   UNL A   1      48.680  27.411  26.278  1.00  0.00     0.173 A 
ATOM     80  C   UNL A   1      47.456  27.733  24.238  1.00  0.00     0.173 A 
ATOM     81  F   UNL A   1      48.759  27.442  27.617  1.00  0.00    -0.203 F 
ATOM     82  C   UNL A   1      49.815  27.075  25.542  1.00  0.00     0.198 A 
ATOM     83  C   UNL A   1      48.582  27.370  23.505  1.00  0.00     0.198 A 
ATOM     84  F   UNL A   1      46.332  28.055  23.581  1.00  0.00    -0.203 F 
ATOM     85  F   UNL A   1      50.962  26.795  26.175  1.00  0.00    -0.200 F 
ATOM     86  C   UNL A   1      49.764  27.050  24.156  1.00  0.00     0.200 A 
ATOM     87  F   UNL A   1      48.525  27.335  22.166  1.00  0.00    -0.200 F 
ATOM     88  F   UNL A   1      50.854  26.724  23.450  1.00  0.00    -0.200 F 
ENDBRANCH  54  78
BRANCH  66  89
ATOM     89  C   UNL A   1      45.386  33.748  28.519  1.00  0.00     0.064 A 
ATOM     90  C   UNL A   1      45.108  34.741  27.569  1.00  0.00     0.173 A 
ATOM     91  C   UNL A   1      46.244  34.073  29.581  1.00  0.00     0.173 A 
ATOM     92  F   UNL A   1      44.307  34.474  26.528  1.00  0.00    -0.203 F 
ATOM     93  C   UNL A   1      45.687  36.003  27.666  1.00  0.00     0.198 A 
ATOM     94  C   UNL A   1      46.797  35.346  29.690  1.00  0.00     0.198 A 
ATOM     95  F   UNL A   1      46.533  33.161  30.520  1.00  0.00    -0.203 F 
ATOM     96  F   UNL A   1      45.445  36.924  26.721  1.00  0.00    -0.200 F 
ATOM     97  C   UNL A   1      46.524  36.307  28.729  1.00  0.00     0.200 A 
ATOM     98  F   UNL A   1      47.595  35.641  30.725  1.00  0.00    -0.200 F 
ATOM     99  F   UNL A   1      47.075  37.525  28.823  1.00  0.00    -0.200 F 
ENDBRANCH  66  89
ENDBRANCH  40  41
ENDBRANCH  33  35
ENDBRANCH  32  33
ENDBRANCH  31  32
ENDBRANCH  30  31
ENDBRANCH  29  30
ENDBRANCH  28  29
ENDBRANCH   1  28
TORSDOF 20
ENDMDL
