MODEL 1
REMARK VINA RESULT:     -12.7      0.000      0.000
REMARK SMILES O=C(OCCOCCOC(=O)c1cccnc1C(=O)Nc1ccc([N+](=O)[O-])cc1)c1ccc(-c2c3nc(c(-c4c(F)c(F)c(F)c(F)c4F)c4ccc([nH]4)c(-c4c(F)c(F)c(F)c(F)c4F)c4nc(c(-c5c(F)c(F)c(F)c(F)c5F)c5ccc2[nH]5)C=C4)C=C3)cc1
REMARK SMILES IDX 7 1 6 2 5 3 4 4 3 5 2 6 1 7 30 8 31 9 92 10 32 11 91 12
REMARK SMILES IDX 33 13 34 14 35 15 85 16 36 17 90 18 84 19 86 20 37 21 89 22
REMARK SMILES IDX 83 23 82 24 38 26 70 27 50 28 69 29 51 30 54 31 68 32 87 33
REMARK SMILES IDX 52 34 53 35 67 37 88 38 55 39 39 40 40 41 48 42 41 43 42 44
REMARK SMILES IDX 46 45 49 46 43 47 44 48 47 49 45 50 71 51 72 52 80 53 73 54
REMARK SMILES IDX 74 55 78 56 81 57 75 58 76 59 79 60 77 61 56 62 57 63 65 64
REMARK SMILES IDX 58 65 59 66 63 67 66 68 60 69 61 70 64 71 62 72 8 73 9 74
REMARK SMILES IDX 10 75 11 76 12 77 13 78 17 79 14 80 16 81 15 82 18 83 19 84
REMARK SMILES IDX 20 85 21 87 22 88 29 89 23 90 28 91 24 92 25 93 26 94 27 95
REMARK H PARENT 86 25 54 36 20 86
REMARK Flexibility Score: inf
ROOT
ATOM      1  C   UNL A   1      31.449  26.699  25.771  1.00  0.00     0.202 C 
ENDROOT
BRANCH   1   2
ATOM      2  O   UNL A   1      31.120  27.074  27.105  1.00  0.00    -0.374 OA
BRANCH   2   3
ATOM      3  C   UNL A   1      31.691  28.258  27.661  1.00  0.00     0.202 C 
BRANCH   3   4
ATOM      4  C   UNL A   1      31.718  29.562  26.853  1.00  0.00     0.261 C 
BRANCH   4   5
ATOM      5  O   UNL A   1      33.040  30.089  26.632  1.00  0.00    -0.460 OA
BRANCH   5   6
ATOM      6  C   UNL A   1      33.449  31.186  27.311  1.00  0.00     0.338 C 
ATOM      7  O   UNL A   1      32.800  32.155  27.645  1.00  0.00    -0.246 OA
BRANCH   6   8
ATOM      8  C   UNL A   1      34.881  30.950  27.551  1.00  0.00     0.060 A 
ATOM      9  C   UNL A   1      35.305  29.634  27.698  1.00  0.00     0.016 A 
ATOM     10  C   UNL A   1      35.706  32.005  27.923  1.00  0.00     0.016 A 
ATOM     11  C   UNL A   1      36.425  29.362  28.453  1.00  0.00     0.010 A 
ATOM     12  C   UNL A   1      36.941  31.718  28.509  1.00  0.00     0.010 A 
ATOM     13  C   UNL A   1      37.278  30.394  28.846  1.00  0.00    -0.014 A 
BRANCH  13  14
ATOM     14  C   UNL A   1      38.461  30.060  29.678  1.00  0.00     0.031 A 
ATOM     15  C   UNL A   1      39.561  29.218  29.096  1.00  0.00     0.074 A 
ATOM     16  C   UNL A   1      38.591  30.591  30.911  1.00  0.00     0.049 A 
ATOM     17  N   UNL A   1      40.559  28.631  29.703  1.00  0.00    -0.248 NA
ATOM     18  C   UNL A   1      39.526  28.985  27.642  1.00  0.00     0.031 C 
ATOM     19  C   UNL A   1      37.631  31.495  31.554  1.00  0.00     0.029 A 
ATOM     20  N   UNL A   1      39.598  30.482  31.835  1.00  0.00    -0.354 N 
ATOM     21  C   UNL A   1      41.214  27.894  28.725  1.00  0.00     0.074 A 
ATOM     22  C   UNL A   1      40.512  28.115  27.481  1.00  0.00     0.031 C 
ATOM     23  C   UNL A   1      38.134  31.923  32.718  1.00  0.00     0.029 A 
ATOM     24  C   UNL A   1      39.370  31.205  32.982  1.00  0.00     0.049 A 
ATOM     25  H   UNL A   1      40.407  29.938  31.691  1.00  0.00     0.167 HD
ATOM     26  C   UNL A   1      42.300  27.097  28.871  1.00  0.00     0.037 A 
ATOM     27  C   UNL A   1      40.042  31.227  34.147  1.00  0.00     0.037 A 
ATOM     28  C   UNL A   1      43.011  26.949  30.112  1.00  0.00     0.049 A 
ATOM     29  C   UNL A   1      41.224  30.312  34.290  1.00  0.00     0.074 A 
ATOM     30  C   UNL A   1      44.086  26.131  30.407  1.00  0.00     0.029 A 
ATOM     31  N   UNL A   1      42.727  27.669  31.266  1.00  0.00    -0.354 N 
ATOM     32  N   UNL A   1      41.759  29.506  33.403  1.00  0.00    -0.248 NA
ATOM     33  C   UNL A   1      41.873  30.276  35.605  1.00  0.00     0.031 C 
ATOM     34  C   UNL A   1      44.436  26.339  31.746  1.00  0.00     0.029 A 
ATOM     35  C   UNL A   1      43.610  27.319  32.273  1.00  0.00     0.049 A 
ATOM     36  H   UNL A   1      42.003  28.330  31.355  1.00  0.00     0.167 HD
ATOM     37  C   UNL A   1      42.801  28.863  34.051  1.00  0.00     0.074 A 
ATOM     38  C   UNL A   1      42.852  29.409  35.394  1.00  0.00     0.031 C 
ATOM     39  C   UNL A   1      43.629  27.891  33.594  1.00  0.00     0.037 A 
BRANCH  26  40
ATOM     40  C   UNL A   1      42.739  26.295  27.680  1.00  0.00     0.064 A 
ATOM     41  C   UNL A   1      42.201  25.034  27.388  1.00  0.00     0.173 A 
ATOM     42  C   UNL A   1      43.717  26.806  26.812  1.00  0.00     0.173 A 
ATOM     43  F   UNL A   1      41.282  24.487  28.198  1.00  0.00    -0.203 F 
ATOM     44  C   UNL A   1      42.642  24.303  26.286  1.00  0.00     0.198 A 
ATOM     45  C   UNL A   1      44.135  26.087  25.695  1.00  0.00     0.198 A 
ATOM     46  F   UNL A   1      44.269  28.005  27.046  1.00  0.00    -0.203 F 
ATOM     47  F   UNL A   1      42.151  23.077  26.056  1.00  0.00    -0.200 F 
ATOM     48  C   UNL A   1      43.603  24.833  25.437  1.00  0.00     0.200 A 
ATOM     49  F   UNL A   1      45.058  26.603  24.873  1.00  0.00    -0.200 F 
ATOM     50  F   UNL A   1      44.024  24.130  24.377  1.00  0.00    -0.200 F 
ENDBRANCH  26  40
BRANCH  27  51
ATOM     51  C   UNL A   1      39.555  32.056  35.285  1.00  0.00     0.064 A 
ATOM     52  C   UNL A   1      39.995  33.374  35.464  1.00  0.00     0.173 A 
ATOM     53  C   UNL A   1      38.655  31.541  36.232  1.00  0.00     0.173 A 
ATOM     54  F   UNL A   1      40.875  33.909  34.605  1.00  0.00    -0.203 F 
ATOM     55  C   UNL A   1      39.571  34.135  36.553  1.00  0.00     0.198 A 
ATOM     56  C   UNL A   1      38.197  32.315  37.295  1.00  0.00     0.198 A 
ATOM     57  F   UNL A   1      38.207  30.281  36.119  1.00  0.00    -0.203 F 
ATOM     58  F   UNL A   1      40.057  35.371  36.733  1.00  0.00    -0.200 F 
ATOM     59  C   UNL A   1      38.665  33.609  37.462  1.00  0.00     0.200 A 
ATOM     60  F   UNL A   1      37.311  31.806  38.161  1.00  0.00    -0.200 F 
ATOM     61  F   UNL A   1      38.258  34.342  38.507  1.00  0.00    -0.200 F 
ENDBRANCH  27  51
BRANCH  39  62
ATOM     62  C   UNL A   1      44.667  27.394  34.553  1.00  0.00     0.064 A 
ATOM     63  C   UNL A   1      44.426  26.292  35.387  1.00  0.00     0.173 A 
ATOM     64  C   UNL A   1      45.917  28.024  34.633  1.00  0.00     0.173 A 
ATOM     65  F   UNL A   1      43.237  25.670  35.358  1.00  0.00    -0.203 F 
ATOM     66  C   UNL A   1      45.390  25.860  36.292  1.00  0.00     0.198 A 
ATOM     67  C   UNL A   1      46.889  27.569  35.516  1.00  0.00     0.198 A 
ATOM     68  F   UNL A   1      46.194  29.079  33.851  1.00  0.00    -0.203 F 
ATOM     69  F   UNL A   1      45.118  24.844  37.122  1.00  0.00    -0.200 F 
ATOM     70  C   UNL A   1      46.622  26.496  36.352  1.00  0.00     0.200 A 
ATOM     71  F   UNL A   1      48.084  28.175  35.566  1.00  0.00    -0.200 F 
ATOM     72  F   UNL A   1      47.548  26.078  37.226  1.00  0.00    -0.200 F 
ENDBRANCH  39  62
ENDBRANCH  13  14
ENDBRANCH   6   8
ENDBRANCH   5   6
ENDBRANCH   4   5
ENDBRANCH   3   4
ENDBRANCH   2   3
ENDBRANCH   1   2
BRANCH   1  73
ATOM     73  C   UNL A   1      30.965  25.289  25.526  1.00  0.00     0.261 C 
BRANCH  73  74
ATOM     74  O   UNL A   1      31.505  24.506  26.596  1.00  0.00    -0.460 OA
BRANCH  74  75
ATOM     75  C   UNL A   1      31.552  23.192  26.314  1.00  0.00     0.340 C 
ATOM     76  O   UNL A   1      30.705  22.360  26.529  1.00  0.00    -0.246 OA
BRANCH  75  77
ATOM     77  C   UNL A   1      32.893  22.858  25.845  1.00  0.00     0.091 A 
ATOM     78  C   UNL A   1      33.909  23.426  26.633  1.00  0.00     0.020 A 
ATOM     79  C   UNL A   1      33.238  22.107  24.730  1.00  0.00     0.142 A 
ATOM     80  C   UNL A   1      35.237  23.303  26.254  1.00  0.00     0.021 A 
ATOM     81  N   UNL A   1      34.560  21.960  24.385  1.00  0.00    -0.250 NA
ATOM     82  C   UNL A   1      35.510  22.574  25.120  1.00  0.00     0.112 A 
BRANCH  79  83
ATOM     83  C   UNL A   1      32.384  21.566  23.628  1.00  0.00     0.275 C 
ATOM     84  O   UNL A   1      31.740  22.411  22.982  1.00  0.00    -0.267 OA
ATOM     85  N   UNL A   1      32.302  20.295  23.107  1.00  0.00    -0.321 N 
ATOM     86  H   UNL A   1      32.054  20.321  22.155  1.00  0.00     0.170 HD
BRANCH  85  87
ATOM     87  C   UNL A   1      32.470  18.978  23.543  1.00  0.00     0.042 A 
ATOM     88  C   UNL A   1      32.466  18.795  24.939  1.00  0.00     0.033 A 
ATOM     89  C   UNL A   1      32.795  17.904  22.738  1.00  0.00     0.033 A 
ATOM     90  C   UNL A   1      32.986  17.633  25.515  1.00  0.00     0.088 A 
ATOM     91  C   UNL A   1      33.386  16.761  23.294  1.00  0.00     0.088 A 
ATOM     92  C   UNL A   1      33.525  16.655  24.681  1.00  0.00     0.269 A 
BRANCH  92  93
ATOM     93  N   UNL A   1      34.282  15.544  25.261  1.00  0.00     0.062 N 
ATOM     94  O   UNL A   1      33.697  14.459  25.395  1.00  0.00    -0.258 OA
ATOM     95  O   UNL A   1      35.447  15.766  25.615  1.00  0.00    -0.258 OA
ENDBRANCH  92  93
ENDBRANCH  85  87
ENDBRANCH  79  83
ENDBRANCH  75  77
ENDBRANCH  74  75
ENDBRANCH  73  74
ENDBRANCH   1  73
TORSDOF 17
ENDMDL
MODEL 2
REMARK VINA RESULT:     -12.6      2.269      4.145
REMARK SMILES O=C(OCCOCCOC(=O)c1cccnc1C(=O)Nc1ccc([N+](=O)[O-])cc1)c1ccc(-c2c3nc(c(-c4c(F)c(F)c(F)c(F)c4F)c4ccc([nH]4)c(-c4c(F)c(F)c(F)c(F)c4F)c4nc(c(-c5c(F)c(F)c(F)c(F)c5F)c5ccc2[nH]5)C=C4)C=C3)cc1
REMARK SMILES IDX 7 1 6 2 5 3 4 4 3 5 2 6 1 7 30 8 31 9 92 10 32 11 91 12
REMARK SMILES IDX 33 13 34 14 35 15 85 16 36 17 90 18 84 19 86 20 37 21 89 22
REMARK SMILES IDX 83 23 82 24 38 26 70 27 50 28 69 29 51 30 54 31 68 32 87 33
REMARK SMILES IDX 52 34 53 35 67 37 88 38 55 39 39 40 40 41 48 42 41 43 42 44
REMARK SMILES IDX 46 45 49 46 43 47 44 48 47 49 45 50 71 51 72 52 80 53 73 54
REMARK SMILES IDX 74 55 78 56 81 57 75 58 76 59 79 60 77 61 56 62 57 63 65 64
REMARK SMILES IDX 58 65 59 66 63 67 66 68 60 69 61 70 64 71 62 72 8 73 9 74
REMARK SMILES IDX 10 75 11 76 12 77 13 78 17 79 14 80 16 81 15 82 18 83 19 84
REMARK SMILES IDX 20 85 21 87 22 88 29 89 23 90 28 91 24 92 25 93 26 94 27 95
REMARK H PARENT 86 25 54 36 20 86
REMARK Flexibility Score: inf
ROOT
ATOM      1  C   UNL A   1      33.714  28.061  25.361  1.00  0.00     0.202 C 
ENDROOT
BRANCH   1   2
ATOM      2  O   UNL A   1      33.092  29.236  24.850  1.00  0.00    -0.374 OA
BRANCH   2   3
ATOM      3  C   UNL A   1      31.841  29.658  25.391  1.00  0.00     0.202 C 
BRANCH   3   4
ATOM      4  C   UNL A   1      31.771  30.861  26.342  1.00  0.00     0.261 C 
BRANCH   4   5
ATOM      5  O   UNL A   1      32.801  30.876  27.347  1.00  0.00    -0.460 OA
BRANCH   5   6
ATOM      6  C   UNL A   1      33.481  32.019  27.599  1.00  0.00     0.338 C 
ATOM      7  O   UNL A   1      33.062  33.157  27.628  1.00  0.00    -0.246 OA
BRANCH   6   8
ATOM      8  C   UNL A   1      34.865  31.576  27.823  1.00  0.00     0.060 A 
ATOM      9  C   UNL A   1      35.074  30.238  28.142  1.00  0.00     0.016 A 
ATOM     10  C   UNL A   1      35.873  32.513  28.014  1.00  0.00     0.016 A 
ATOM     11  C   UNL A   1      36.174  29.882  28.890  1.00  0.00     0.010 A 
ATOM     12  C   UNL A   1      37.074  32.101  28.595  1.00  0.00     0.010 A 
ATOM     13  C   UNL A   1      37.207  30.796  29.105  1.00  0.00    -0.014 A 
BRANCH  13  14
ATOM     14  C   UNL A   1      38.363  30.379  29.937  1.00  0.00     0.031 A 
ATOM     15  C   UNL A   1      39.436  29.518  29.334  1.00  0.00     0.074 A 
ATOM     16  C   UNL A   1      38.497  30.852  31.193  1.00  0.00     0.049 A 
ATOM     17  N   UNL A   1      40.401  28.866  29.928  1.00  0.00    -0.248 NA
ATOM     18  C   UNL A   1      39.413  29.348  27.871  1.00  0.00     0.031 C 
ATOM     19  C   UNL A   1      37.565  31.767  31.862  1.00  0.00     0.029 A 
ATOM     20  N   UNL A   1      39.485  30.663  32.124  1.00  0.00    -0.354 N 
ATOM     21  C   UNL A   1      41.040  28.144  28.927  1.00  0.00     0.074 A 
ATOM     22  C   UNL A   1      40.365  28.446  27.685  1.00  0.00     0.031 C 
ATOM     23  C   UNL A   1      38.067  32.125  33.050  1.00  0.00     0.029 A 
ATOM     24  C   UNL A   1      39.270  31.347  33.298  1.00  0.00     0.049 A 
ATOM     25  H   UNL A   1      40.273  30.093  31.967  1.00  0.00     0.167 HD
ATOM     26  C   UNL A   1      42.090  27.298  29.053  1.00  0.00     0.037 A 
ATOM     27  C   UNL A   1      39.925  31.292  34.471  1.00  0.00     0.037 A 
ATOM     28  C   UNL A   1      42.777  27.069  30.296  1.00  0.00     0.049 A 
ATOM     29  C   UNL A   1      41.067  30.324  34.590  1.00  0.00     0.074 A 
ATOM     30  C   UNL A   1      43.814  26.196  30.569  1.00  0.00     0.029 A 
ATOM     31  N   UNL A   1      42.505  27.751  31.476  1.00  0.00    -0.354 N 
ATOM     32  N   UNL A   1      41.582  29.535  33.676  1.00  0.00    -0.248 NA
ATOM     33  C   UNL A   1      41.696  30.206  35.910  1.00  0.00     0.031 C 
ATOM     34  C   UNL A   1      44.153  26.333  31.920  1.00  0.00     0.029 A 
ATOM     35  C   UNL A   1      43.360  27.323  32.478  1.00  0.00     0.049 A 
ATOM     36  H   UNL A   1      41.808  28.437  31.584  1.00  0.00     0.167 HD
ATOM     37  C   UNL A   1      42.588  28.823  34.310  1.00  0.00     0.074 A 
ATOM     38  C   UNL A   1      42.641  29.309  35.675  1.00  0.00     0.031 C 
ATOM     39  C   UNL A   1      43.382  27.838  33.822  1.00  0.00     0.037 A 
BRANCH  26  40
ATOM     40  C   UNL A   1      42.513  26.529  27.835  1.00  0.00     0.064 A 
ATOM     41  C   UNL A   1      41.966  25.281  27.510  1.00  0.00     0.173 A 
ATOM     42  C   UNL A   1      43.486  27.061  26.972  1.00  0.00     0.173 A 
ATOM     43  F   UNL A   1      41.051  24.715  28.313  1.00  0.00    -0.203 F 
ATOM     44  C   UNL A   1      42.392  24.581  26.383  1.00  0.00     0.198 A 
ATOM     45  C   UNL A   1      43.890  26.373  25.831  1.00  0.00     0.198 A 
ATOM     46  F   UNL A   1      44.047  28.250  27.237  1.00  0.00    -0.203 F 
ATOM     47  F   UNL A   1      41.893  23.365  26.121  1.00  0.00    -0.200 F 
ATOM     48  C   UNL A   1      43.349  25.130  25.541  1.00  0.00     0.200 A 
ATOM     49  F   UNL A   1      44.808  26.909  25.016  1.00  0.00    -0.200 F 
ATOM     50  F   UNL A   1      43.756  24.457  24.456  1.00  0.00    -0.200 F 
ENDBRANCH  26  40
BRANCH  27  51
ATOM     51  C   UNL A   1      39.456  32.091  35.638  1.00  0.00     0.064 A 
ATOM     52  C   UNL A   1      39.954  33.377  35.884  1.00  0.00     0.173 A 
ATOM     53  C   UNL A   1      38.514  31.578  36.544  1.00  0.00     0.173 A 
ATOM     54  F   UNL A   1      40.875  33.908  35.066  1.00  0.00    -0.203 F 
ATOM     55  C   UNL A   1      39.545  34.108  36.999  1.00  0.00     0.198 A 
ATOM     56  C   UNL A   1      38.072  32.326  37.633  1.00  0.00     0.198 A 
ATOM     57  F   UNL A   1      38.009  30.348  36.366  1.00  0.00    -0.203 F 
ATOM     58  F   UNL A   1      40.086  35.310  37.244  1.00  0.00    -0.200 F 
ATOM     59  C   UNL A   1      38.598  33.586  37.867  1.00  0.00     0.200 A 
ATOM     60  F   UNL A   1      37.147  31.821  38.459  1.00  0.00    -0.200 F 
ATOM     61  F   UNL A   1      38.205  34.290  38.937  1.00  0.00    -0.200 F 
ENDBRANCH  27  51
BRANCH  39  62
ATOM     62  C   UNL A   1      44.386  27.259  34.772  1.00  0.00     0.064 A 
ATOM     63  C   UNL A   1      45.657  27.831  34.932  1.00  0.00     0.173 A 
ATOM     64  C   UNL A   1      44.068  26.126  35.534  1.00  0.00     0.173 A 
ATOM     65  F   UNL A   1      46.011  28.905  34.210  1.00  0.00    -0.203 F 
ATOM     66  C   UNL A   1      46.587  27.265  35.798  1.00  0.00     0.198 A 
ATOM     67  C   UNL A   1      44.990  25.583  36.422  1.00  0.00     0.198 A 
ATOM     68  F   UNL A   1      42.862  25.549  35.418  1.00  0.00    -0.203 F 
ATOM     69  F   UNL A   1      47.817  27.790  35.891  1.00  0.00    -0.200 F 
ATOM     70  C   UNL A   1      46.252  26.145  36.545  1.00  0.00     0.200 A 
ATOM     71  F   UNL A   1      44.662  24.508  37.152  1.00  0.00    -0.200 F 
ATOM     72  F   UNL A   1      47.150  25.602  37.377  1.00  0.00    -0.200 F 
ENDBRANCH  39  62
ENDBRANCH  13  14
ENDBRANCH   6   8
ENDBRANCH   5   6
ENDBRANCH   4   5
ENDBRANCH   3   4
ENDBRANCH   2   3
ENDBRANCH   1   2
BRANCH   1  73
ATOM     73  C   UNL A   1      32.678  27.237  26.090  1.00  0.00     0.261 C 
BRANCH  73  74
ATOM     74  O   UNL A   1      33.340  26.020  26.452  1.00  0.00    -0.460 OA
BRANCH  74  75
ATOM     75  C   UNL A   1      32.694  24.924  26.017  1.00  0.00     0.340 C 
ATOM     76  O   UNL A   1      31.632  24.494  26.394  1.00  0.00    -0.246 OA
BRANCH  75  77
ATOM     77  C   UNL A   1      33.570  24.191  25.107  1.00  0.00     0.091 A 
ATOM     78  C   UNL A   1      34.926  24.264  25.469  1.00  0.00     0.020 A 
ATOM     79  C   UNL A   1      33.210  23.501  23.957  1.00  0.00     0.142 A 
ATOM     80  C   UNL A   1      35.899  23.722  24.644  1.00  0.00     0.021 A 
ATOM     81  N   UNL A   1      34.180  22.936  23.166  1.00  0.00    -0.250 NA
ATOM     82  C   UNL A   1      35.478  23.081  23.501  1.00  0.00     0.112 A 
BRANCH  79  83
ATOM     83  C   UNL A   1      31.897  23.433  23.244  1.00  0.00     0.275 C 
ATOM     84  O   UNL A   1      31.620  22.336  22.729  1.00  0.00    -0.267 OA
ATOM     85  N   UNL A   1      30.867  24.343  23.185  1.00  0.00    -0.321 N 
ATOM     86  H   UNL A   1      30.001  23.889  23.073  1.00  0.00     0.170 HD
BRANCH  85  87
ATOM     87  C   UNL A   1      30.699  25.730  23.240  1.00  0.00     0.042 A 
ATOM     88  C   UNL A   1      29.528  26.175  23.882  1.00  0.00     0.033 A 
ATOM     89  C   UNL A   1      31.487  26.657  22.588  1.00  0.00     0.033 A 
ATOM     90  C   UNL A   1      29.048  27.474  23.687  1.00  0.00     0.088 A 
ATOM     91  C   UNL A   1      30.990  27.940  22.320  1.00  0.00     0.088 A 
ATOM     92  C   UNL A   1      29.746  28.324  22.830  1.00  0.00     0.269 A 
BRANCH  92  93
ATOM     93  N   UNL A   1      29.147  29.596  22.426  1.00  0.00     0.062 N 
ATOM     94  O   UNL A   1      28.762  29.703  21.252  1.00  0.00    -0.258 OA
ATOM     95  O   UNL A   1      29.092  30.500  23.270  1.00  0.00    -0.258 OA
ENDBRANCH  92  93
ENDBRANCH  85  87
ENDBRANCH  79  83
ENDBRANCH  75  77
ENDBRANCH  74  75
ENDBRANCH  73  74
ENDBRANCH   1  73
TORSDOF 17
ENDMDL
MODEL 3
REMARK VINA RESULT:     -12.5      1.616      3.599
REMARK SMILES O=C(OCCOCCOC(=O)c1cccnc1C(=O)Nc1ccc([N+](=O)[O-])cc1)c1ccc(-c2c3nc(c(-c4c(F)c(F)c(F)c(F)c4F)c4ccc([nH]4)c(-c4c(F)c(F)c(F)c(F)c4F)c4nc(c(-c5c(F)c(F)c(F)c(F)c5F)c5ccc2[nH]5)C=C4)C=C3)cc1
REMARK SMILES IDX 7 1 6 2 5 3 4 4 3 5 2 6 1 7 30 8 31 9 92 10 32 11 91 12
REMARK SMILES IDX 33 13 34 14 35 15 85 16 36 17 90 18 84 19 86 20 37 21 89 22
REMARK SMILES IDX 83 23 82 24 38 26 70 27 50 28 69 29 51 30 54 31 68 32 87 33
REMARK SMILES IDX 52 34 53 35 67 37 88 38 55 39 39 40 40 41 48 42 41 43 42 44
REMARK SMILES IDX 46 45 49 46 43 47 44 48 47 49 45 50 71 51 72 52 80 53 73 54
REMARK SMILES IDX 74 55 78 56 81 57 75 58 76 59 79 60 77 61 56 62 57 63 65 64
REMARK SMILES IDX 58 65 59 66 63 67 66 68 60 69 61 70 64 71 62 72 8 73 9 74
REMARK SMILES IDX 10 75 11 76 12 77 13 78 17 79 14 80 16 81 15 82 18 83 19 84
REMARK SMILES IDX 20 85 21 87 22 88 29 89 23 90 28 91 24 92 25 93 26 94 27 95
REMARK H PARENT 86 25 54 36 20 86
REMARK Flexibility Score: inf
ROOT
ATOM      1  C   UNL A   1      33.586  27.414  25.018  1.00  0.00     0.202 C 
ENDROOT
BRANCH   1   2
ATOM      2  O   UNL A   1      32.175  27.526  24.856  1.00  0.00    -0.374 OA
BRANCH   2   3
ATOM      3  C   UNL A   1      31.467  28.540  25.569  1.00  0.00     0.202 C 
BRANCH   3   4
ATOM      4  C   UNL A   1      32.095  29.925  25.779  1.00  0.00     0.261 C 
BRANCH   4   5
ATOM      5  O   UNL A   1      32.820  30.060  27.015  1.00  0.00    -0.460 OA
BRANCH   5   6
ATOM      6  C   UNL A   1      33.367  31.253  27.349  1.00  0.00     0.338 C 
ATOM      7  O   UNL A   1      32.825  32.335  27.439  1.00  0.00    -0.246 OA
BRANCH   6   8
ATOM      8  C   UNL A   1      34.788  30.949  27.574  1.00  0.00     0.060 A 
ATOM      9  C   UNL A   1      35.140  29.622  27.795  1.00  0.00     0.016 A 
ATOM     10  C   UNL A   1      35.681  31.974  27.862  1.00  0.00     0.016 A 
ATOM     11  C   UNL A   1      36.261  29.332  28.542  1.00  0.00     0.010 A 
ATOM     12  C   UNL A   1      36.911  31.654  28.440  1.00  0.00     0.010 A 
ATOM     13  C   UNL A   1      37.181  30.335  28.851  1.00  0.00    -0.014 A 
BRANCH  13  14
ATOM     14  C   UNL A   1      38.362  29.985  29.679  1.00  0.00     0.031 A 
ATOM     15  C   UNL A   1      39.461  29.150  29.084  1.00  0.00     0.074 A 
ATOM     16  C   UNL A   1      38.493  30.495  30.921  1.00  0.00     0.049 A 
ATOM     17  N   UNL A   1      40.458  28.552  29.681  1.00  0.00    -0.248 NA
ATOM     18  C   UNL A   1      39.427  28.942  27.626  1.00  0.00     0.031 C 
ATOM     19  C   UNL A   1      37.534  31.390  31.578  1.00  0.00     0.029 A 
ATOM     20  N   UNL A   1      39.499  30.368  31.843  1.00  0.00    -0.354 N 
ATOM     21  C   UNL A   1      41.112  27.830  28.690  1.00  0.00     0.074 A 
ATOM     22  C   UNL A   1      40.411  28.073  27.450  1.00  0.00     0.031 C 
ATOM     23  C   UNL A   1      38.037  31.797  32.750  1.00  0.00     0.029 A 
ATOM     24  C   UNL A   1      39.272  31.073  33.002  1.00  0.00     0.049 A 
ATOM     25  H   UNL A   1      40.307  29.825  31.690  1.00  0.00     0.167 HD
ATOM     26  C   UNL A   1      42.195  27.028  28.824  1.00  0.00     0.037 A 
ATOM     27  C   UNL A   1      39.943  31.074  34.167  1.00  0.00     0.037 A 
ATOM     28  C   UNL A   1      42.905  26.858  30.063  1.00  0.00     0.049 A 
ATOM     29  C   UNL A   1      41.123  30.154  34.295  1.00  0.00     0.074 A 
ATOM     30  C   UNL A   1      43.980  26.033  30.344  1.00  0.00     0.029 A 
ATOM     31  N   UNL A   1      42.622  27.559  31.228  1.00  0.00    -0.354 N 
ATOM     32  N   UNL A   1      41.657  29.362  33.395  1.00  0.00    -0.248 NA
ATOM     33  C   UNL A   1      41.772  30.095  35.610  1.00  0.00     0.031 C 
ATOM     34  C   UNL A   1      44.329  26.218  31.687  1.00  0.00     0.029 A 
ATOM     35  C   UNL A   1      43.505  27.190  32.230  1.00  0.00     0.049 A 
ATOM     36  H   UNL A   1      41.900  28.220  31.328  1.00  0.00     0.167 HD
ATOM     37  C   UNL A   1      42.698  28.706  34.033  1.00  0.00     0.074 A 
ATOM     38  C   UNL A   1      42.749  29.229  35.385  1.00  0.00     0.031 C 
ATOM     39  C   UNL A   1      43.524  27.740  33.560  1.00  0.00     0.037 A 
BRANCH  26  40
ATOM     40  C   UNL A   1      42.634  26.245  27.620  1.00  0.00     0.064 A 
ATOM     41  C   UNL A   1      43.619  26.715  26.740  1.00  0.00     0.173 A 
ATOM     42  C   UNL A   1      42.055  24.994  27.348  1.00  0.00     0.173 A 
ATOM     43  F   UNL A   1      44.186  27.914  26.939  1.00  0.00    -0.203 F 
ATOM     44  C   UNL A   1      43.992  25.975  25.619  1.00  0.00     0.198 A 
ATOM     45  C   UNL A   1      42.450  24.244  26.243  1.00  0.00     0.198 A 
ATOM     46  F   UNL A   1      41.105  24.499  28.153  1.00  0.00    -0.203 F 
ATOM     47  F   UNL A   1      44.898  26.467  24.763  1.00  0.00    -0.200 F 
ATOM     48  C   UNL A   1      43.413  24.737  25.376  1.00  0.00     0.200 A 
ATOM     49  F   UNL A   1      41.895  23.047  26.014  1.00  0.00    -0.200 F 
ATOM     50  F   UNL A   1      43.774  24.026  24.299  1.00  0.00    -0.200 F 
ENDBRANCH  26  40
BRANCH  27  51
ATOM     51  C   UNL A   1      39.458  31.884  35.319  1.00  0.00     0.064 A 
ATOM     52  C   UNL A   1      38.578  31.344  36.267  1.00  0.00     0.173 A 
ATOM     53  C   UNL A   1      39.847  33.223  35.488  1.00  0.00     0.173 A 
ATOM     54  F   UNL A   1      38.152  30.078  36.142  1.00  0.00    -0.203 F 
ATOM     55  C   UNL A   1      38.092  32.116  37.322  1.00  0.00     0.198 A 
ATOM     56  C   UNL A   1      39.396  33.980  36.566  1.00  0.00     0.198 A 
ATOM     57  F   UNL A   1      40.679  33.797  34.606  1.00  0.00    -0.203 F 
ATOM     58  F   UNL A   1      37.202  31.592  38.177  1.00  0.00    -0.200 F 
ATOM     59  C   UNL A   1      38.509  33.430  37.476  1.00  0.00     0.200 A 
ATOM     60  F   UNL A   1      39.814  35.243  36.717  1.00  0.00    -0.200 F 
ATOM     61  F   UNL A   1      38.041  34.169  38.491  1.00  0.00    -0.200 F 
ENDBRANCH  27  51
BRANCH  39  62
ATOM     62  C   UNL A   1      44.561  27.225  34.511  1.00  0.00     0.064 A 
ATOM     63  C   UNL A   1      45.816  27.841  34.630  1.00  0.00     0.173 A 
ATOM     64  C   UNL A   1      44.292  26.109  35.315  1.00  0.00     0.173 A 
ATOM     65  F   UNL A   1      46.123  28.901  33.867  1.00  0.00    -0.203 F 
ATOM     66  C   UNL A   1      46.777  27.334  35.497  1.00  0.00     0.198 A 
ATOM     67  C   UNL A   1      45.245  25.625  36.204  1.00  0.00     0.198 A 
ATOM     68  F   UNL A   1      43.103  25.490  35.239  1.00  0.00    -0.203 F 
ATOM     69  F   UNL A   1      47.991  27.900  35.553  1.00  0.00    -0.200 F 
ATOM     70  C   UNL A   1      46.490  26.230  36.287  1.00  0.00     0.200 A 
ATOM     71  F   UNL A   1      44.963  24.565  36.975  1.00  0.00    -0.200 F 
ATOM     72  F   UNL A   1      47.419  25.743  37.120  1.00  0.00    -0.200 F 
ENDBRANCH  39  62
ENDBRANCH  13  14
ENDBRANCH   6   8
ENDBRANCH   5   6
ENDBRANCH   4   5
ENDBRANCH   3   4
ENDBRANCH   2   3
ENDBRANCH   1   2
BRANCH   1  73
ATOM     73  C   UNL A   1      33.876  26.374  26.076  1.00  0.00     0.261 C 
BRANCH  73  74
ATOM     74  O   UNL A   1      34.433  25.257  25.375  1.00  0.00    -0.460 OA
BRANCH  74  75
ATOM     75  C   UNL A   1      34.100  24.076  25.923  1.00  0.00     0.340 C 
ATOM     76  O   UNL A   1      33.130  23.820  26.593  1.00  0.00    -0.246 OA
BRANCH  75  77
ATOM     77  C   UNL A   1      35.204  23.140  25.733  1.00  0.00     0.091 A 
ATOM     78  C   UNL A   1      36.461  23.710  25.998  1.00  0.00     0.020 A 
ATOM     79  C   UNL A   1      35.133  21.823  25.300  1.00  0.00     0.142 A 
ATOM     80  C   UNL A   1      37.620  22.991  25.751  1.00  0.00     0.021 A 
ATOM     81  N   UNL A   1      36.288  21.106  25.095  1.00  0.00    -0.250 NA
ATOM     82  C   UNL A   1      37.482  21.701  25.290  1.00  0.00     0.112 A 
BRANCH  79  83
ATOM     83  C   UNL A   1      33.974  21.042  24.768  1.00  0.00     0.275 C 
ATOM     84  O   UNL A   1      33.989  19.823  25.009  1.00  0.00    -0.267 OA
ATOM     85  N   UNL A   1      32.808  21.472  24.177  1.00  0.00    -0.321 N 
ATOM     86  H   UNL A   1      32.070  20.846  24.357  1.00  0.00     0.170 HD
BRANCH  85  87
ATOM     87  C   UNL A   1      32.372  22.544  23.393  1.00  0.00     0.042 A 
ATOM     88  C   UNL A   1      33.254  22.951  22.375  1.00  0.00     0.033 A 
ATOM     89  C   UNL A   1      31.251  23.312  23.642  1.00  0.00     0.033 A 
ATOM     90  C   UNL A   1      33.132  24.209  21.776  1.00  0.00     0.088 A 
ATOM     91  C   UNL A   1      31.151  24.604  23.108  1.00  0.00     0.088 A 
ATOM     92  C   UNL A   1      32.123  25.064  22.214  1.00  0.00     0.269 A 
BRANCH  92  93
ATOM     93  N   UNL A   1      32.117  26.461  21.776  1.00  0.00     0.062 N 
ATOM     94  O   UNL A   1      33.209  26.984  21.509  1.00  0.00    -0.258 OA
ATOM     95  O   UNL A   1      31.026  27.045  21.734  1.00  0.00    -0.258 OA
ENDBRANCH  92  93
ENDBRANCH  85  87
ENDBRANCH  79  83
ENDBRANCH  75  77
ENDBRANCH  74  75
ENDBRANCH  73  74
ENDBRANCH   1  73
TORSDOF 17
ENDMDL
