MODEL 1
REMARK VINA RESULT:     -11.3      0.000      0.000
REMARK SMILES C[NH2+]C[C@@H](C)C(=O)N1CCC([N@@H+]2CCC[C@@H]2C(=O)OCCOCCOC(=O)c2ccc(-c3c4nc(c(-c5c(F)c(F)c(F)c(F)c5F)c5ccc([nH]5)c(-c5c(F)c(F)c(F)c(F)c5F)c5nc(c(-c6c(F)c(F)c(F)c(F)c6F)c6ccc3[nH]6)C=C5)C=C4)cc2)CC1
REMARK SMILES IDX 21 1 20 2 19 3 17 4 18 5 16 6 12 7 13 8 14 10 15 11 11 12
REMARK SMILES IDX 6 13 7 14 8 15 9 16 92 17 10 18 91 19 4 20 5 21 3 22 2 23
REMARK SMILES IDX 1 24 22 27 23 28 24 29 25 30 26 31 27 32 28 33 29 34 90 35
REMARK SMILES IDX 30 36 89 37 31 38 32 39 33 40 83 41 34 42 88 43 82 44 84 45
REMARK SMILES IDX 35 46 87 47 81 48 80 49 36 51 68 52 48 53 67 54 49 55 52 56
REMARK SMILES IDX 66 57 85 58 50 59 51 60 65 62 86 63 53 64 37 65 38 66 46 67
REMARK SMILES IDX 39 68 40 69 44 70 47 71 41 72 42 73 45 74 43 75 69 76 70 77
REMARK SMILES IDX 78 78 71 79 72 80 76 81 79 82 73 83 74 84 77 85 75 86 54 87
REMARK SMILES IDX 55 88 63 89 56 90 57 91 61 92 64 93 58 94 59 95 62 96 60 97
REMARK H PARENT 12 9 2 25 2 26 84 50 52 61
REMARK Flexibility Score: inf
ROOT
ATOM      1  C   UNL A   1      39.124  21.917  26.330  1.00  0.00     0.202 C 
ENDROOT
BRANCH   1   2
ATOM      2  C   UNL A   1      37.977  22.144  25.350  1.00  0.00     0.261 C 
BRANCH   2   3
ATOM      3  O   UNL A   1      36.694  22.133  25.995  1.00  0.00    -0.459 OA
BRANCH   3   4
ATOM      4  C   UNL A   1      35.858  21.118  25.640  1.00  0.00     0.365 C 
ATOM      5  O   UNL A   1      36.174  20.172  24.925  1.00  0.00    -0.245 OA
BRANCH   4   6
ATOM      6  C   UNL A   1      34.449  21.315  26.174  1.00  0.00     0.295 C 
ATOM      7  N   UNL A   1      33.431  21.842  25.218  1.00  0.00    -0.321 N 
ATOM      8  C   UNL A   1      32.297  22.167  26.109  1.00  0.00     0.263 C 
ATOM      9  H   UNL A   1      33.269  21.132  24.504  1.00  0.00     0.349 HD
ATOM     10  C   UNL A   1      32.889  22.659  27.428  1.00  0.00     0.068 C 
ATOM     11  C   UNL A   1      34.304  22.100  27.473  1.00  0.00     0.083 C 
BRANCH   7  12
ATOM     12  C   UNL A   1      33.764  22.949  24.285  1.00  0.00     0.188 C 
ATOM     13  C   UNL A   1      32.306  26.416  22.819  1.00  0.00     0.231 C 
ATOM     14  O   UNL A   1      31.211  26.040  22.385  1.00  0.00    -0.274 OA
ATOM     15  N   UNL A   1      33.339  25.509  22.976  1.00  0.00    -0.342 N 
ATOM     16  C   UNL A   1      33.280  24.280  22.204  1.00  0.00     0.125 C 
ATOM     17  C   UNL A   1      34.341  25.475  24.035  1.00  0.00     0.125 C 
ATOM     18  C   UNL A   1      32.832  23.119  23.073  1.00  0.00     0.086 C 
ATOM     19  C   UNL A   1      34.087  24.297  24.995  1.00  0.00     0.086 C 
BRANCH  13  20
ATOM     20  C   UNL A   1      32.517  27.920  23.021  1.00  0.00     0.130 C 
ATOM     21  C   UNL A   1      33.840  28.364  22.404  1.00  0.00     0.024 C 
BRANCH  20  22
ATOM     22  C   UNL A   1      32.261  28.441  24.440  1.00  0.00     0.273 C 
BRANCH  22  23
ATOM     23  N   UNL A   1      31.144  27.809  25.157  1.00  0.00    -0.348 N 
ATOM     24  C   UNL A   1      31.556  27.084  26.352  1.00  0.00     0.330 C 
ATOM     25  H   UNL A   1      30.485  28.537  25.434  1.00  0.00     0.346 HD
ATOM     26  H   UNL A   1      30.726  27.129  24.523  1.00  0.00     0.346 HD
ENDBRANCH  22  23
ENDBRANCH  20  22
ENDBRANCH  13  20
ENDBRANCH   7  12
ENDBRANCH   4   6
ENDBRANCH   3   4
ENDBRANCH   2   3
ENDBRANCH   1   2
BRANCH   1  27
ATOM     27  O   UNL A   1      40.097  20.957  25.927  1.00  0.00    -0.374 OA
BRANCH  27  28
ATOM     28  C   UNL A   1      41.333  20.932  26.635  1.00  0.00     0.202 C 
BRANCH  28  29
ATOM     29  C   UNL A   1      42.544  21.528  25.908  1.00  0.00     0.261 C 
BRANCH  29  30
ATOM     30  O   UNL A   1      42.224  22.690  25.119  1.00  0.00    -0.460 OA
BRANCH  30  31
ATOM     31  C   UNL A   1      43.075  23.735  25.271  1.00  0.00     0.338 C 
ATOM     32  O   UNL A   1      44.189  23.857  24.778  1.00  0.00    -0.246 OA
BRANCH  31  33
ATOM     33  C   UNL A   1      42.457  24.810  26.066  1.00  0.00     0.060 A 
ATOM     34  C   UNL A   1      43.062  26.073  26.057  1.00  0.00     0.016 A 
ATOM     35  C   UNL A   1      41.385  24.544  26.920  1.00  0.00     0.016 A 
ATOM     36  C   UNL A   1      42.625  27.065  26.936  1.00  0.00     0.010 A 
ATOM     37  C   UNL A   1      40.956  25.535  27.808  1.00  0.00     0.010 A 
ATOM     38  C   UNL A   1      41.596  26.787  27.843  1.00  0.00    -0.014 A 
BRANCH  38  39
ATOM     39  C   UNL A   1      41.282  27.733  28.941  1.00  0.00     0.031 A 
ATOM     40  C   UNL A   1      42.105  27.681  30.197  1.00  0.00     0.074 A 
ATOM     41  C   UNL A   1      40.263  28.602  28.839  1.00  0.00     0.049 A 
ATOM     42  N   UNL A   1      41.936  28.313  31.330  1.00  0.00    -0.248 NA
ATOM     43  C   UNL A   1      43.276  26.790  30.169  1.00  0.00     0.031 C 
ATOM     44  C   UNL A   1      39.437  28.798  27.652  1.00  0.00     0.029 A 
ATOM     45  N   UNL A   1      39.742  29.472  29.764  1.00  0.00    -0.354 N 
ATOM     46  C   UNL A   1      42.970  27.886  32.155  1.00  0.00     0.074 A 
ATOM     47  C   UNL A   1      43.750  26.930  31.397  1.00  0.00     0.031 C 
ATOM     48  C   UNL A   1      38.493  29.715  27.926  1.00  0.00     0.029 A 
ATOM     49  C   UNL A   1      38.628  30.141  29.320  1.00  0.00     0.049 A 
ATOM     50  H   UNL A   1      40.129  29.604  30.659  1.00  0.00     0.167 HD
ATOM     51  C   UNL A   1      43.242  28.259  33.428  1.00  0.00     0.037 A 
ATOM     52  C   UNL A   1      37.800  30.976  29.977  1.00  0.00     0.037 A 
ATOM     53  C   UNL A   1      42.461  29.205  34.180  1.00  0.00     0.049 A 
ATOM     54  C   UNL A   1      38.059  31.289  31.429  1.00  0.00     0.074 A 
ATOM     55  C   UNL A   1      42.669  29.665  35.469  1.00  0.00     0.029 A 
ATOM     56  N   UNL A   1      41.314  29.826  33.712  1.00  0.00    -0.354 N 
ATOM     57  N   UNL A   1      39.046  30.901  32.199  1.00  0.00    -0.248 NA
ATOM     58  C   UNL A   1      37.078  32.153  32.106  1.00  0.00     0.031 C 
ATOM     59  C   UNL A   1      41.615  30.524  35.799  1.00  0.00     0.029 A 
ATOM     60  C   UNL A   1      40.781  30.639  34.699  1.00  0.00     0.049 A 
ATOM     61  H   UNL A   1      40.932  29.706  32.812  1.00  0.00     0.167 HD
ATOM     62  C   UNL A   1      38.831  31.502  33.432  1.00  0.00     0.074 A 
ATOM     63  C   UNL A   1      37.614  32.278  33.313  1.00  0.00     0.031 C 
ATOM     64  C   UNL A   1      39.580  31.424  34.560  1.00  0.00     0.037 A 
BRANCH  51  65
ATOM     65  C   UNL A   1      44.411  27.602  34.101  1.00  0.00     0.064 A 
ATOM     66  C   UNL A   1      44.299  26.351  34.724  1.00  0.00     0.173 A 
ATOM     67  C   UNL A   1      45.664  28.233  34.112  1.00  0.00     0.173 A 
ATOM     68  F   UNL A   1      43.119  25.713  34.751  1.00  0.00    -0.203 F 
ATOM     69  C   UNL A   1      45.391  25.770  35.364  1.00  0.00     0.198 A 
ATOM     70  C   UNL A   1      46.761  27.637  34.729  1.00  0.00     0.198 A 
ATOM     71  F   UNL A   1      45.826  29.428  33.527  1.00  0.00    -0.203 F 
ATOM     72  F   UNL A   1      45.248  24.598  35.998  1.00  0.00    -0.200 F 
ATOM     73  C   UNL A   1      46.621  26.410  35.363  1.00  0.00     0.200 A 
ATOM     74  F   UNL A   1      47.951  28.251  34.717  1.00  0.00    -0.200 F 
ATOM     75  F   UNL A   1      47.671  25.851  35.979  1.00  0.00    -0.200 F 
ENDBRANCH  51  65
BRANCH  52  76
ATOM     76  C   UNL A   1      36.638  31.573  29.272  1.00  0.00     0.064 A 
ATOM     77  C   UNL A   1      36.616  32.939  28.956  1.00  0.00     0.173 A 
ATOM     78  C   UNL A   1      35.525  30.801  28.909  1.00  0.00     0.173 A 
ATOM     79  F   UNL A   1      37.646  33.723  29.309  1.00  0.00    -0.203 F 
ATOM     80  C   UNL A   1      35.522  33.512  28.315  1.00  0.00     0.198 A 
ATOM     81  C   UNL A   1      34.440  31.371  28.245  1.00  0.00     0.198 A 
ATOM     82  F   UNL A   1      35.493  29.491  29.192  1.00  0.00    -0.203 F 
ATOM     83  F   UNL A   1      35.511  34.827  28.057  1.00  0.00    -0.200 F 
ATOM     84  C   UNL A   1      34.437  32.726  27.953  1.00  0.00     0.200 A 
ATOM     85  F   UNL A   1      33.400  30.606  27.889  1.00  0.00    -0.200 F 
ATOM     86  F   UNL A   1      33.386  33.277  27.330  1.00  0.00    -0.200 F 
ENDBRANCH  52  76
BRANCH  64  87
ATOM     87  C   UNL A   1      39.147  32.239  35.744  1.00  0.00     0.064 A 
ATOM     88  C   UNL A   1      38.336  31.701  36.754  1.00  0.00     0.173 A 
ATOM     89  C   UNL A   1      39.608  33.554  35.901  1.00  0.00     0.173 A 
ATOM     90  F   UNL A   1      37.857  30.453  36.642  1.00  0.00    -0.203 F 
ATOM     91  C   UNL A   1      37.997  32.455  37.875  1.00  0.00     0.198 A 
ATOM     92  C   UNL A   1      39.288  34.296  37.035  1.00  0.00     0.198 A 
ATOM     93  F   UNL A   1      40.390  34.113  34.965  1.00  0.00    -0.203 F 
ATOM     94  F   UNL A   1      37.196  31.933  38.814  1.00  0.00    -0.200 F 
ATOM     95  C   UNL A   1      38.480  33.748  38.018  1.00  0.00     0.200 A 
ATOM     96  F   UNL A   1      39.768  35.540  37.177  1.00  0.00    -0.200 F 
ATOM     97  F   UNL A   1      38.164  34.466  39.105  1.00  0.00    -0.200 F 
ENDBRANCH  64  87
ENDBRANCH  38  39
ENDBRANCH  31  33
ENDBRANCH  30  31
ENDBRANCH  29  30
ENDBRANCH  28  29
ENDBRANCH  27  28
ENDBRANCH   1  27
TORSDOF 18
ENDMDL
MODEL 2
REMARK VINA RESULT:     -11.2      4.498      6.558
REMARK SMILES C[NH2+]C[C@@H](C)C(=O)N1CCC([N@@H+]2CCC[C@@H]2C(=O)OCCOCCOC(=O)c2ccc(-c3c4nc(c(-c5c(F)c(F)c(F)c(F)c5F)c5ccc([nH]5)c(-c5c(F)c(F)c(F)c(F)c5F)c5nc(c(-c6c(F)c(F)c(F)c(F)c6F)c6ccc3[nH]6)C=C5)C=C4)cc2)CC1
REMARK SMILES IDX 21 1 20 2 19 3 17 4 18 5 16 6 12 7 13 8 14 10 15 11 11 12
REMARK SMILES IDX 6 13 7 14 8 15 9 16 92 17 10 18 91 19 4 20 5 21 3 22 2 23
REMARK SMILES IDX 1 24 22 27 23 28 24 29 25 30 26 31 27 32 28 33 29 34 90 35
REMARK SMILES IDX 30 36 89 37 31 38 32 39 33 40 83 41 34 42 88 43 82 44 84 45
REMARK SMILES IDX 35 46 87 47 81 48 80 49 36 51 68 52 48 53 67 54 49 55 52 56
REMARK SMILES IDX 66 57 85 58 50 59 51 60 65 62 86 63 53 64 37 65 38 66 46 67
REMARK SMILES IDX 39 68 40 69 44 70 47 71 41 72 42 73 45 74 43 75 69 76 70 77
REMARK SMILES IDX 78 78 71 79 72 80 76 81 79 82 73 83 74 84 77 85 75 86 54 87
REMARK SMILES IDX 55 88 63 89 56 90 57 91 61 92 64 93 58 94 59 95 62 96 60 97
REMARK H PARENT 12 9 2 25 2 26 84 50 52 61
REMARK Flexibility Score: inf
ROOT
ATOM      1  C   UNL A   1      37.088  21.831  25.705  1.00  0.00     0.202 C 
ENDROOT
BRANCH   1   2
ATOM      2  C   UNL A   1      36.870  23.322  25.474  1.00  0.00     0.261 C 
BRANCH   2   3
ATOM      3  O   UNL A   1      35.494  23.706  25.622  1.00  0.00    -0.459 OA
BRANCH   3   4
ATOM      4  C   UNL A   1      34.613  23.109  24.772  1.00  0.00     0.365 C 
ATOM      5  O   UNL A   1      34.809  22.940  23.572  1.00  0.00    -0.245 OA
BRANCH   4   6
ATOM      6  C   UNL A   1      33.312  22.727  25.458  1.00  0.00     0.295 C 
ATOM      7  N   UNL A   1      32.089  23.481  25.055  1.00  0.00    -0.321 N 
ATOM      8  C   UNL A   1      31.109  23.069  26.081  1.00  0.00     0.263 C 
ATOM      9  H   UNL A   1      31.874  23.242  24.088  1.00  0.00     0.349 HD
ATOM     10  C   UNL A   1      31.878  22.887  27.389  1.00  0.00     0.068 C 
ATOM     11  C   UNL A   1      33.327  22.663  26.981  1.00  0.00     0.083 C 
BRANCH   7  12
ATOM     12  C   UNL A   1      32.131  24.954  24.861  1.00  0.00     0.188 C 
ATOM     13  C   UNL A   1      30.469  27.921  22.687  1.00  0.00     0.231 C 
ATOM     14  O   UNL A   1      30.675  27.509  21.539  1.00  0.00    -0.274 OA
ATOM     15  N   UNL A   1      31.264  27.488  23.733  1.00  0.00    -0.342 N 
ATOM     16  C   UNL A   1      32.578  26.960  23.407  1.00  0.00     0.125 C 
ATOM     17  C   UNL A   1      30.858  27.210  25.106  1.00  0.00     0.125 C 
ATOM     18  C   UNL A   1      32.580  25.444  23.473  1.00  0.00     0.086 C 
ATOM     19  C   UNL A   1      30.867  25.696  25.387  1.00  0.00     0.086 C 
BRANCH  13  20
ATOM     20  C   UNL A   1      29.424  29.026  22.874  1.00  0.00     0.130 C 
ATOM     21  C   UNL A   1      28.041  28.425  23.104  1.00  0.00     0.024 C 
BRANCH  20  22
ATOM     22  C   UNL A   1      29.470  30.162  21.845  1.00  0.00     0.273 C 
BRANCH  22  23
ATOM     23  N   UNL A   1      29.603  31.517  22.399  1.00  0.00    -0.348 N 
ATOM     24  C   UNL A   1      28.573  31.849  23.375  1.00  0.00     0.330 C 
ATOM     25  H   UNL A   1      30.513  31.593  22.854  1.00  0.00     0.346 HD
ATOM     26  H   UNL A   1      29.502  32.170  21.623  1.00  0.00     0.346 HD
ENDBRANCH  22  23
ENDBRANCH  20  22
ENDBRANCH  13  20
ENDBRANCH   7  12
ENDBRANCH   4   6
ENDBRANCH   3   4
ENDBRANCH   2   3
ENDBRANCH   1   2
BRANCH   1  27
ATOM     27  O   UNL A   1      37.739  21.133  24.647  1.00  0.00    -0.374 OA
BRANCH  27  28
ATOM     28  C   UNL A   1      38.007  19.747  24.837  1.00  0.00     0.202 C 
BRANCH  28  29
ATOM     29  C   UNL A   1      39.109  19.401  25.846  1.00  0.00     0.261 C 
BRANCH  29  30
ATOM     30  O   UNL A   1      40.211  20.328  25.831  1.00  0.00    -0.460 OA
BRANCH  30  31
ATOM     31  C   UNL A   1      40.873  20.447  27.009  1.00  0.00     0.338 C 
ATOM     32  O   UNL A   1      41.393  19.547  27.658  1.00  0.00    -0.246 OA
BRANCH  31  33
ATOM     33  C   UNL A   1      40.986  21.859  27.412  1.00  0.00     0.060 A 
ATOM     34  C   UNL A   1      40.276  22.817  26.676  1.00  0.00     0.016 A 
ATOM     35  C   UNL A   1      41.886  22.252  28.404  1.00  0.00     0.016 A 
ATOM     36  C   UNL A   1      40.497  24.177  26.901  1.00  0.00     0.010 A 
ATOM     37  C   UNL A   1      42.115  23.614  28.619  1.00  0.00     0.010 A 
ATOM     38  C   UNL A   1      41.447  24.581  27.846  1.00  0.00    -0.014 A 
BRANCH  38  39
ATOM     39  C   UNL A   1      41.873  25.999  27.930  1.00  0.00     0.031 A 
ATOM     40  C   UNL A   1      43.206  26.387  27.355  1.00  0.00     0.074 A 
ATOM     41  C   UNL A   1      41.106  26.920  28.534  1.00  0.00     0.049 A 
ATOM     42  N   UNL A   1      43.842  27.529  27.424  1.00  0.00    -0.248 NA
ATOM     43  C   UNL A   1      43.917  25.343  26.601  1.00  0.00     0.031 C 
ATOM     44  C   UNL A   1      39.768  26.685  29.069  1.00  0.00     0.029 A 
ATOM     45  N   UNL A   1      41.357  28.240  28.814  1.00  0.00    -0.354 N 
ATOM     46  C   UNL A   1      45.034  27.336  26.737  1.00  0.00     0.074 A 
ATOM     47  C   UNL A   1      45.039  25.964  26.273  1.00  0.00     0.031 C 
ATOM     48  C   UNL A   1      39.322  27.819  29.635  1.00  0.00     0.029 A 
ATOM     49  C   UNL A   1      40.359  28.846  29.535  1.00  0.00     0.049 A 
ATOM     50  H   UNL A   1      42.174  28.708  28.525  1.00  0.00     0.167 HD
ATOM     51  C   UNL A   1      46.033  28.223  26.515  1.00  0.00     0.037 A 
ATOM     52  C   UNL A   1      40.308  30.080  30.076  1.00  0.00     0.037 A 
ATOM     53  C   UNL A   1      46.028  29.583  26.983  1.00  0.00     0.049 A 
ATOM     54  C   UNL A   1      41.480  31.013  29.910  1.00  0.00     0.074 A 
ATOM     55  C   UNL A   1      46.982  30.567  26.790  1.00  0.00     0.029 A 
ATOM     56  N   UNL A   1      45.020  30.147  27.749  1.00  0.00    -0.354 N 
ATOM     57  N   UNL A   1      42.595  30.836  29.245  1.00  0.00    -0.248 NA
ATOM     58  C   UNL A   1      41.388  32.319  30.583  1.00  0.00     0.031 C 
ATOM     59  C   UNL A   1      46.576  31.710  27.487  1.00  0.00     0.029 A 
ATOM     60  C   UNL A   1      45.345  31.455  28.069  1.00  0.00     0.049 A 
ATOM     61  H   UNL A   1      44.195  29.686  28.028  1.00  0.00     0.167 HD
ATOM     62  C   UNL A   1      43.317  32.014  29.382  1.00  0.00     0.074 A 
ATOM     63  C   UNL A   1      42.517  32.901  30.201  1.00  0.00     0.031 C 
ATOM     64  C   UNL A   1      44.530  32.336  28.867  1.00  0.00     0.037 A 
BRANCH  51  65
ATOM     65  C   UNL A   1      47.236  27.729  25.768  1.00  0.00     0.064 A 
ATOM     66  C   UNL A   1      48.357  27.209  26.431  1.00  0.00     0.173 A 
ATOM     67  C   UNL A   1      47.262  27.769  24.365  1.00  0.00     0.173 A 
ATOM     68  F   UNL A   1      48.386  27.161  27.772  1.00  0.00    -0.203 F 
ATOM     69  C   UNL A   1      49.474  26.779  25.719  1.00  0.00     0.198 A 
ATOM     70  C   UNL A   1      48.369  27.312  23.656  1.00  0.00     0.198 A 
ATOM     71  F   UNL A   1      46.214  28.253  23.683  1.00  0.00    -0.203 F 
ATOM     72  F   UNL A   1      50.555  26.334  26.375  1.00  0.00    -0.200 F 
ATOM     73  C   UNL A   1      49.478  26.827  24.333  1.00  0.00     0.200 A 
ATOM     74  F   UNL A   1      48.367  27.349  22.316  1.00  0.00    -0.200 F 
ATOM     75  F   UNL A   1      50.553  26.413  23.649  1.00  0.00    -0.200 F 
ENDBRANCH  51  65
BRANCH  52  76
ATOM     76  C   UNL A   1      39.105  30.506  30.834  1.00  0.00     0.064 A 
ATOM     77  C   UNL A   1      38.030  31.127  30.182  1.00  0.00     0.173 A 
ATOM     78  C   UNL A   1      39.006  30.315  32.220  1.00  0.00     0.173 A 
ATOM     79  F   UNL A   1      38.092  31.357  28.862  1.00  0.00    -0.203 F 
ATOM     80  C   UNL A   1      36.908  31.550  30.889  1.00  0.00     0.198 A 
ATOM     81  C   UNL A   1      37.871  30.717  32.922  1.00  0.00     0.198 A 
ATOM     82  F   UNL A   1      40.008  29.730  32.892  1.00  0.00    -0.203 F 
ATOM     83  F   UNL A   1      35.910  32.174  30.247  1.00  0.00    -0.200 F 
ATOM     84  C   UNL A   1      36.825  31.339  32.257  1.00  0.00     0.200 A 
ATOM     85  F   UNL A   1      37.792  30.501  34.242  1.00  0.00    -0.200 F 
ATOM     86  F   UNL A   1      35.742  31.740  32.936  1.00  0.00    -0.200 F 
ENDBRANCH  52  76
BRANCH  64  87
ATOM     87  C   UNL A   1      45.051  33.720  29.120  1.00  0.00     0.064 A 
ATOM     88  C   UNL A   1      44.717  34.799  28.288  1.00  0.00     0.173 A 
ATOM     89  C   UNL A   1      45.839  33.981  30.251  1.00  0.00     0.173 A 
ATOM     90  F   UNL A   1      43.980  34.599  27.186  1.00  0.00    -0.203 F 
ATOM     91  C   UNL A   1      45.161  36.087  28.577  1.00  0.00     0.198 A 
ATOM     92  C   UNL A   1      46.259  35.274  30.550  1.00  0.00     0.198 A 
ATOM     93  F   UNL A   1      46.181  32.984  31.081  1.00  0.00    -0.203 F 
ATOM     94  F   UNL A   1      44.856  37.099  27.752  1.00  0.00    -0.200 F 
ATOM     95  C   UNL A   1      45.923  36.325  29.711  1.00  0.00     0.200 A 
ATOM     96  F   UNL A   1      46.984  35.503  31.655  1.00  0.00    -0.200 F 
ATOM     97  F   UNL A   1      46.337  37.568  29.995  1.00  0.00    -0.200 F 
ENDBRANCH  64  87
ENDBRANCH  38  39
ENDBRANCH  31  33
ENDBRANCH  30  31
ENDBRANCH  29  30
ENDBRANCH  28  29
ENDBRANCH  27  28
ENDBRANCH   1  27
TORSDOF 18
ENDMDL
MODEL 3
REMARK VINA RESULT:     -11.1      4.624      9.133
REMARK SMILES C[NH2+]C[C@@H](C)C(=O)N1CCC([N@@H+]2CCC[C@@H]2C(=O)OCCOCCOC(=O)c2ccc(-c3c4nc(c(-c5c(F)c(F)c(F)c(F)c5F)c5ccc([nH]5)c(-c5c(F)c(F)c(F)c(F)c5F)c5nc(c(-c6c(F)c(F)c(F)c(F)c6F)c6ccc3[nH]6)C=C5)C=C4)cc2)CC1
REMARK SMILES IDX 21 1 20 2 19 3 17 4 18 5 16 6 12 7 13 8 14 10 15 11 11 12
REMARK SMILES IDX 6 13 7 14 8 15 9 16 92 17 10 18 91 19 4 20 5 21 3 22 2 23
REMARK SMILES IDX 1 24 22 27 23 28 24 29 25 30 26 31 27 32 28 33 29 34 90 35
REMARK SMILES IDX 30 36 89 37 31 38 32 39 33 40 83 41 34 42 88 43 82 44 84 45
REMARK SMILES IDX 35 46 87 47 81 48 80 49 36 51 68 52 48 53 67 54 49 55 52 56
REMARK SMILES IDX 66 57 85 58 50 59 51 60 65 62 86 63 53 64 37 65 38 66 46 67
REMARK SMILES IDX 39 68 40 69 44 70 47 71 41 72 42 73 45 74 43 75 69 76 70 77
REMARK SMILES IDX 78 78 71 79 72 80 76 81 79 82 73 83 74 84 77 85 75 86 54 87
REMARK SMILES IDX 55 88 63 89 56 90 57 91 61 92 64 93 58 94 59 95 62 96 60 97
REMARK H PARENT 12 9 2 25 2 26 84 50 52 61
REMARK Flexibility Score: inf
ROOT
ATOM      1  C   UNL A   1      37.820  22.467  25.981  1.00  0.00     0.202 C 
ENDROOT
BRANCH   1   2
ATOM      2  C   UNL A   1      37.417  23.900  25.649  1.00  0.00     0.261 C 
BRANCH   2   3
ATOM      3  O   UNL A   1      36.001  24.111  25.751  1.00  0.00    -0.459 OA
BRANCH   3   4
ATOM      4  C   UNL A   1      35.231  23.440  24.850  1.00  0.00     0.365 C 
ATOM      5  O   UNL A   1      35.507  23.308  23.661  1.00  0.00    -0.245 OA
BRANCH   4   6
ATOM      6  C   UNL A   1      33.941  22.921  25.461  1.00  0.00     0.295 C 
ATOM      7  N   UNL A   1      32.673  23.567  25.013  1.00  0.00    -0.321 N 
ATOM      8  C   UNL A   1      31.688  23.037  25.980  1.00  0.00     0.263 C 
ATOM      9  H   UNL A   1      32.528  23.333  24.031  1.00  0.00     0.349 HD
ATOM     10  C   UNL A   1      32.407  22.894  27.320  1.00  0.00     0.068 C 
ATOM     11  C   UNL A   1      33.888  22.818  26.981  1.00  0.00     0.083 C 
BRANCH   7  12
ATOM     12  C   UNL A   1      32.584  25.041  24.853  1.00  0.00     0.188 C 
ATOM     13  C   UNL A   1      30.549  27.905  22.865  1.00  0.00     0.231 C 
ATOM     14  O   UNL A   1      30.711  27.533  21.696  1.00  0.00    -0.274 OA
ATOM     15  N   UNL A   1      31.444  27.518  23.847  1.00  0.00    -0.342 N 
ATOM     16  C   UNL A   1      32.771  27.105  23.424  1.00  0.00     0.125 C 
ATOM     17  C   UNL A   1      31.153  27.181  25.235  1.00  0.00     0.125 C 
ATOM     18  C   UNL A   1      32.899  25.593  23.452  1.00  0.00     0.086 C 
ATOM     19  C   UNL A   1      31.302  25.667  25.478  1.00  0.00     0.086 C 
BRANCH  13  20
ATOM     20  C   UNL A   1      29.434  28.918  23.146  1.00  0.00     0.130 C 
ATOM     21  C   UNL A   1      28.070  28.233  23.135  1.00  0.00     0.024 C 
BRANCH  20  22
ATOM     22  C   UNL A   1      29.506  30.222  22.345  1.00  0.00     0.273 C 
BRANCH  22  23
ATOM     23  N   UNL A   1      29.386  31.459  23.131  1.00  0.00    -0.348 N 
ATOM     24  C   UNL A   1      28.048  32.034  23.108  1.00  0.00     0.330 C 
ATOM     25  H   UNL A   1      29.631  31.251  24.099  1.00  0.00     0.346 HD
ATOM     26  H   UNL A   1      30.014  32.144  22.711  1.00  0.00     0.346 HD
ENDBRANCH  22  23
ENDBRANCH  20  22
ENDBRANCH  13  20
ENDBRANCH   7  12
ENDBRANCH   4   6
ENDBRANCH   3   4
ENDBRANCH   2   3
ENDBRANCH   1   2
BRANCH   1  27
ATOM     27  O   UNL A   1      38.128  21.640  24.863  1.00  0.00    -0.374 OA
BRANCH  27  28
ATOM     28  C   UNL A   1      37.880  20.243  24.986  1.00  0.00     0.202 C 
BRANCH  28  29
ATOM     29  C   UNL A   1      39.087  19.368  25.348  1.00  0.00     0.261 C 
BRANCH  29  30
ATOM     30  O   UNL A   1      39.968  19.977  26.310  1.00  0.00    -0.460 OA
BRANCH  30  31
ATOM     31  C   UNL A   1      41.283  19.689  26.142  1.00  0.00     0.338 C 
ATOM     32  O   UNL A   1      41.760  18.665  25.671  1.00  0.00    -0.246 OA
BRANCH  31  33
ATOM     33  C   UNL A   1      42.128  20.832  26.530  1.00  0.00     0.060 A 
ATOM     34  C   UNL A   1      42.275  21.115  27.894  1.00  0.00     0.016 A 
ATOM     35  C   UNL A   1      42.648  21.699  25.566  1.00  0.00     0.016 A 
ATOM     36  C   UNL A   1      42.908  22.291  28.300  1.00  0.00     0.010 A 
ATOM     37  C   UNL A   1      43.270  22.881  25.975  1.00  0.00     0.010 A 
ATOM     38  C   UNL A   1      43.373  23.199  27.341  1.00  0.00    -0.014 A 
BRANCH  38  39
ATOM     39  C   UNL A   1      43.824  24.554  27.741  1.00  0.00     0.031 A 
ATOM     40  C   UNL A   1      42.788  25.588  28.081  1.00  0.00     0.074 A 
ATOM     41  C   UNL A   1      45.128  24.871  27.771  1.00  0.00     0.049 A 
ATOM     42  N   UNL A   1      42.935  26.865  28.329  1.00  0.00    -0.248 NA
ATOM     43  C   UNL A   1      41.396  25.116  28.146  1.00  0.00     0.031 C 
ATOM     44  C   UNL A   1      46.228  23.943  27.530  1.00  0.00     0.029 A 
ATOM     45  N   UNL A   1      45.744  26.077  28.000  1.00  0.00    -0.354 N 
ATOM     46  C   UNL A   1      41.656  27.351  28.565  1.00  0.00     0.074 A 
ATOM     47  C   UNL A   1      40.744  26.236  28.414  1.00  0.00     0.031 C 
ATOM     48  C   UNL A   1      47.389  24.617  27.602  1.00  0.00     0.029 A 
ATOM     49  C   UNL A   1      47.108  26.031  27.855  1.00  0.00     0.049 A 
ATOM     50  H   UNL A   1      45.254  26.895  28.245  1.00  0.00     0.167 HD
ATOM     51  C   UNL A   1      41.278  28.613  28.878  1.00  0.00     0.037 A 
ATOM     52  C   UNL A   1      48.017  27.025  27.893  1.00  0.00     0.037 A 
ATOM     53  C   UNL A   1      42.185  29.720  29.021  1.00  0.00     0.049 A 
ATOM     54  C   UNL A   1      47.559  28.442  28.133  1.00  0.00     0.074 A 
ATOM     55  C   UNL A   1      41.902  31.032  29.358  1.00  0.00     0.029 A 
ATOM     56  N   UNL A   1      43.555  29.644  28.821  1.00  0.00    -0.354 N 
ATOM     57  N   UNL A   1      46.353  28.895  28.375  1.00  0.00    -0.248 NA
ATOM     58  C   UNL A   1      48.593  29.488  28.094  1.00  0.00     0.031 C 
ATOM     59  C   UNL A   1      43.095  31.761  29.308  1.00  0.00     0.029 A 
ATOM     60  C   UNL A   1      44.128  30.893  28.992  1.00  0.00     0.049 A 
ATOM     61  H   UNL A   1      44.049  28.823  28.589  1.00  0.00     0.167 HD
ATOM     62  C   UNL A   1      46.487  30.265  28.558  1.00  0.00     0.074 A 
ATOM     63  C   UNL A   1      47.892  30.574  28.393  1.00  0.00     0.031 C 
ATOM     64  C   UNL A   1      45.532  31.183  28.846  1.00  0.00     0.037 A 
BRANCH  51  65
ATOM     65  C   UNL A   1      39.808  28.869  29.041  1.00  0.00     0.064 A 
ATOM     66  C   UNL A   1      39.005  29.280  27.968  1.00  0.00     0.173 A 
ATOM     67  C   UNL A   1      39.196  28.689  30.291  1.00  0.00     0.173 A 
ATOM     68  F   UNL A   1      39.546  29.479  26.757  1.00  0.00    -0.203 F 
ATOM     69  C   UNL A   1      37.648  29.536  28.148  1.00  0.00     0.198 A 
ATOM     70  C   UNL A   1      37.833  28.918  30.460  1.00  0.00     0.198 A 
ATOM     71  F   UNL A   1      39.918  28.292  31.349  1.00  0.00    -0.203 F 
ATOM     72  F   UNL A   1      36.909  29.979  27.120  1.00  0.00    -0.200 F 
ATOM     73  C   UNL A   1      37.062  29.351  29.391  1.00  0.00     0.200 A 
ATOM     74  F   UNL A   1      37.266  28.729  31.659  1.00  0.00    -0.200 F 
ATOM     75  F   UNL A   1      35.757  29.598  29.562  1.00  0.00    -0.200 F 
ENDBRANCH  51  65
BRANCH  52  76
ATOM     76  C   UNL A   1      49.455  26.721  27.692  1.00  0.00     0.064 A 
ATOM     77  C   UNL A   1      49.997  26.641  26.402  1.00  0.00     0.173 A 
ATOM     78  C   UNL A   1      50.315  26.494  28.777  1.00  0.00     0.173 A 
ATOM     79  F   UNL A   1      49.208  26.823  25.333  1.00  0.00    -0.203 F 
ATOM     80  C   UNL A   1      51.341  26.336  26.203  1.00  0.00     0.198 A 
ATOM     81  C   UNL A   1      51.665  26.212  28.577  1.00  0.00     0.198 A 
ATOM     82  F   UNL A   1      49.846  26.553  30.032  1.00  0.00    -0.203 F 
ATOM     83  F   UNL A   1      51.825  26.229  24.958  1.00  0.00    -0.200 F 
ATOM     84  C   UNL A   1      52.176  26.128  27.291  1.00  0.00     0.200 A 
ATOM     85  F   UNL A   1      52.470  26.023  29.632  1.00  0.00    -0.200 F 
ATOM     86  F   UNL A   1      53.471  25.840  27.100  1.00  0.00    -0.200 F 
ENDBRANCH  52  76
BRANCH  64  87
ATOM     87  C   UNL A   1      45.970  32.603  29.060  1.00  0.00     0.064 A 
ATOM     88  C   UNL A   1      46.259  33.103  30.338  1.00  0.00     0.173 A 
ATOM     89  C   UNL A   1      46.170  33.452  27.961  1.00  0.00     0.173 A 
ATOM     90  F   UNL A   1      46.069  32.336  31.422  1.00  0.00    -0.203 F 
ATOM     91  C   UNL A   1      46.723  34.405  30.507  1.00  0.00     0.198 A 
ATOM     92  C   UNL A   1      46.659  34.744  28.132  1.00  0.00     0.198 A 
ATOM     93  F   UNL A   1      45.912  33.019  26.717  1.00  0.00    -0.203 F 
ATOM     94  F   UNL A   1      46.964  34.873  31.740  1.00  0.00    -0.200 F 
ATOM     95  C   UNL A   1      46.931  35.221  29.405  1.00  0.00     0.200 A 
ATOM     96  F   UNL A   1      46.872  35.525  27.063  1.00  0.00    -0.200 F 
ATOM     97  F   UNL A   1      47.393  36.468  29.569  1.00  0.00    -0.200 F 
ENDBRANCH  64  87
ENDBRANCH  38  39
ENDBRANCH  31  33
ENDBRANCH  30  31
ENDBRANCH  29  30
ENDBRANCH  28  29
ENDBRANCH  27  28
ENDBRANCH   1  27
TORSDOF 18
ENDMDL
