MODEL 1
REMARK VINA RESULT:     -12.3      0.000      0.000
REMARK SMILES C[C@@H](C(=O)OCCOCCOC(=O)c1ccc(-c2c3nc(c(-c4c(F)c(F)c(F)c(F)c4F)c4ccc([nH]4)c(-c4c(F)c(F)c(F)c(F)c4F)c4nc(c(-c5c(F)c(F)c(F)c(F)c5F)c5ccc2[nH]5)C=C4)C=C3)cc1)S(=O)(=O)N[C@@]12C[C@@H]3C[C@@](C)(C[C@@](C)(C3)C1)C2
REMARK SMILES IDX 7 1 6 2 5 3 3 4 4 5 2 6 1 7 77 8 78 9 79 10 80 11 81 13
REMARK SMILES IDX 82 14 91 15 92 16 83 17 88 18 85 19 90 20 84 21 87 22 89 23
REMARK SMILES IDX 86 24 8 25 9 26 10 27 11 28 12 29 13 30 14 31 15 32 76 33
REMARK SMILES IDX 16 34 75 35 17 36 18 37 19 38 69 39 20 40 74 41 68 42 70 43
REMARK SMILES IDX 21 44 73 45 67 46 66 47 22 49 54 50 34 51 53 52 35 53 38 54
REMARK SMILES IDX 52 55 71 56 36 57 37 58 51 60 72 61 39 62 23 63 24 64 32 65
REMARK SMILES IDX 25 66 26 67 30 68 33 69 27 70 28 71 31 72 29 73 55 74 56 75
REMARK SMILES IDX 64 76 57 77 58 78 62 79 65 80 59 81 60 82 63 83 61 84 40 85
REMARK SMILES IDX 41 86 49 87 42 88 43 89 47 90 50 91 44 92 45 93 48 94 46 95
REMARK H PARENT 80 12 70 48 38 59
REMARK Flexibility Score: inf
ROOT
ATOM      1  C   UNL A   1      31.785  28.898  25.842  1.00  0.00     0.202 C 
ENDROOT
BRANCH   1   2
ATOM      2  C   UNL A   1      31.002  28.211  24.721  1.00  0.00     0.261 C 
BRANCH   2   3
ATOM      3  O   UNL A   1      31.818  27.451  23.807  1.00  0.00    -0.462 OA
BRANCH   3   4
ATOM      4  C   UNL A   1      31.207  27.080  22.641  1.00  0.00     0.325 C 
ATOM      5  O   UNL A   1      30.506  27.839  21.986  1.00  0.00    -0.251 OA
BRANCH   4   6
ATOM      6  C   UNL A   1      31.374  25.615  22.338  1.00  0.00     0.230 C 
ATOM      7  C   UNL A   1      30.647  24.628  23.246  1.00  0.00     0.039 C 
BRANCH   6   8
ATOM      8  S   UNL A   1      33.102  25.220  22.064  1.00  0.00     0.225 S 
ATOM      9  O   UNL A   1      33.174  23.931  21.423  1.00  0.00    -0.212 OA
ATOM     10  O   UNL A   1      33.731  26.351  21.406  1.00  0.00    -0.212 OA
BRANCH   8  11
ATOM     11  N   UNL A   1      33.862  25.157  23.555  1.00  0.00    -0.208 NA
ATOM     12  H   UNL A   1      33.257  25.690  24.179  1.00  0.00     0.141 HD
BRANCH  11  13
ATOM     13  C   UNL A   1      34.232  23.941  24.332  1.00  0.00     0.034 C 
ATOM     14  C   UNL A   1      34.238  24.338  25.836  1.00  0.00     0.027 C 
ATOM     15  C   UNL A   1      33.170  22.852  24.140  1.00  0.00     0.030 C 
ATOM     16  C   UNL A   1      35.624  23.369  24.006  1.00  0.00     0.030 C 
ATOM     17  C   UNL A   1      34.532  23.119  26.728  1.00  0.00    -0.008 C 
ATOM     18  C   UNL A   1      33.450  21.613  25.013  1.00  0.00    -0.030 C 
ATOM     19  C   UNL A   1      35.940  22.132  24.884  1.00  0.00    -0.030 C 
ATOM     20  C   UNL A   1      33.464  22.039  26.495  1.00  0.00     0.010 C 
ATOM     21  C   UNL A   1      35.909  22.546  26.368  1.00  0.00     0.010 C 
ATOM     22  C   UNL A   1      34.844  21.065  24.634  1.00  0.00     0.013 C 
ATOM     23  C   UNL A   1      32.363  20.562  24.765  1.00  0.00     0.011 C 
ATOM     24  C   UNL A   1      37.317  21.569  24.518  1.00  0.00     0.011 C 
ENDBRANCH  11  13
ENDBRANCH   8  11
ENDBRANCH   6   8
ENDBRANCH   4   6
ENDBRANCH   3   4
ENDBRANCH   2   3
ENDBRANCH   1   2
BRANCH   1  25
ATOM     25  O   UNL A   1      32.134  30.258  25.601  1.00  0.00    -0.374 OA
BRANCH  25  26
ATOM     26  C   UNL A   1      31.132  31.223  25.930  1.00  0.00     0.202 C 
BRANCH  26  27
ATOM     27  C   UNL A   1      31.660  32.399  26.759  1.00  0.00     0.261 C 
BRANCH  27  28
ATOM     28  O   UNL A   1      32.805  31.977  27.526  1.00  0.00    -0.460 OA
BRANCH  28  29
ATOM     29  C   UNL A   1      33.680  32.970  27.804  1.00  0.00     0.338 C 
ATOM     30  O   UNL A   1      33.430  34.151  27.981  1.00  0.00    -0.246 OA
BRANCH  29  31
ATOM     31  C   UNL A   1      35.008  32.395  28.071  1.00  0.00     0.060 A 
ATOM     32  C   UNL A   1      35.079  31.007  28.240  1.00  0.00     0.016 A 
ATOM     33  C   UNL A   1      36.137  33.194  28.260  1.00  0.00     0.016 A 
ATOM     34  C   UNL A   1      36.263  30.419  28.675  1.00  0.00     0.010 A 
ATOM     35  C   UNL A   1      37.328  32.601  28.699  1.00  0.00     0.010 A 
ATOM     36  C   UNL A   1      37.380  31.219  28.958  1.00  0.00    -0.014 A 
BRANCH  36  37
ATOM     37  C   UNL A   1      38.519  30.618  29.697  1.00  0.00     0.031 A 
ATOM     38  C   UNL A   1      38.713  30.974  31.147  1.00  0.00     0.074 A 
ATOM     39  C   UNL A   1      39.318  29.706  29.116  1.00  0.00     0.049 A 
ATOM     40  N   UNL A   1      39.605  30.538  32.000  1.00  0.00    -0.248 NA
ATOM     41  C   UNL A   1      37.769  31.952  31.713  1.00  0.00     0.031 C 
ATOM     42  C   UNL A   1      39.208  29.250  27.732  1.00  0.00     0.029 A 
ATOM     43  N   UNL A   1      40.379  28.997  29.623  1.00  0.00    -0.354 N 
ATOM     44  C   UNL A   1      39.328  31.183  33.199  1.00  0.00     0.074 A 
ATOM     45  C   UNL A   1      38.210  32.069  32.956  1.00  0.00     0.031 C 
ATOM     46  C   UNL A   1      40.165  28.335  27.499  1.00  0.00     0.029 A 
ATOM     47  C   UNL A   1      40.967  28.158  28.709  1.00  0.00     0.049 A 
ATOM     48  H   UNL A   1      40.688  29.082  30.554  1.00  0.00     0.167 HD
ATOM     49  C   UNL A   1      39.940  31.040  34.398  1.00  0.00     0.037 A 
ATOM     50  C   UNL A   1      42.037  27.349  28.834  1.00  0.00     0.037 A 
ATOM     51  C   UNL A   1      41.050  30.157  34.642  1.00  0.00     0.049 A 
ATOM     52  C   UNL A   1      42.738  27.250  30.164  1.00  0.00     0.074 A 
ATOM     53  C   UNL A   1      41.734  29.935  35.825  1.00  0.00     0.029 A 
ATOM     54  N   UNL A   1      41.642  29.352  33.681  1.00  0.00    -0.354 N 
ATOM     55  N   UNL A   1      42.455  27.848  31.296  1.00  0.00    -0.248 NA
ATOM     56  C   UNL A   1      43.905  26.358  30.235  1.00  0.00     0.031 C 
ATOM     57  C   UNL A   1      42.767  29.028  35.568  1.00  0.00     0.029 A 
ATOM     58  C   UNL A   1      42.697  28.648  34.238  1.00  0.00     0.049 A 
ATOM     59  H   UNL A   1      41.354  29.290  32.741  1.00  0.00     0.167 HD
ATOM     60  C   UNL A   1      43.389  27.389  32.216  1.00  0.00     0.074 A 
ATOM     61  C   UNL A   1      44.240  26.451  31.513  1.00  0.00     0.031 C 
ATOM     62  C   UNL A   1      43.532  27.716  33.523  1.00  0.00     0.037 A 
BRANCH  49  63
ATOM     63  C   UNL A   1      39.431  31.871  35.539  1.00  0.00     0.064 A 
ATOM     64  C   UNL A   1      38.469  31.379  36.435  1.00  0.00     0.173 A 
ATOM     65  C   UNL A   1      39.933  33.162  35.757  1.00  0.00     0.173 A 
ATOM     66  F   UNL A   1      37.946  30.156  36.260  1.00  0.00    -0.203 F 
ATOM     67  C   UNL A   1      38.013  32.160  37.494  1.00  0.00     0.198 A 
ATOM     68  C   UNL A   1      39.494  33.929  36.833  1.00  0.00     0.198 A 
ATOM     69  F   UNL A   1      40.856  33.677  34.932  1.00  0.00    -0.203 F 
ATOM     70  F   UNL A   1      37.061  31.687  38.312  1.00  0.00    -0.200 F 
ATOM     71  C   UNL A   1      38.530  33.431  37.696  1.00  0.00     0.200 A 
ATOM     72  F   UNL A   1      40.001  35.154  37.031  1.00  0.00    -0.200 F 
ATOM     73  F   UNL A   1      38.093  34.180  38.718  1.00  0.00    -0.200 F 
ENDBRANCH  49  63
BRANCH  50  74
ATOM     74  C   UNL A   1      42.517  26.572  27.662  1.00  0.00     0.064 A 
ATOM     75  C   UNL A   1      42.011  25.297  27.378  1.00  0.00     0.173 A 
ATOM     76  C   UNL A   1      43.503  27.089  26.808  1.00  0.00     0.173 A 
ATOM     77  F   UNL A   1      41.086  24.749  28.179  1.00  0.00    -0.203 F 
ATOM     78  C   UNL A   1      42.482  24.562  26.291  1.00  0.00     0.198 A 
ATOM     79  C   UNL A   1      43.953  26.365  25.706  1.00  0.00     0.198 A 
ATOM     80  F   UNL A   1      44.022  28.304  27.039  1.00  0.00    -0.203 F 
ATOM     81  F   UNL A   1      42.011  23.328  26.063  1.00  0.00    -0.200 F 
ATOM     82  C   UNL A   1      43.447  25.099  25.452  1.00  0.00     0.200 A 
ATOM     83  F   UNL A   1      44.878  26.893  24.893  1.00  0.00    -0.200 F 
ATOM     84  F   UNL A   1      43.895  24.395  24.404  1.00  0.00    -0.200 F 
ENDBRANCH  50  74
BRANCH  62  85
ATOM     85  C   UNL A   1      44.630  27.038  34.288  1.00  0.00     0.064 A 
ATOM     86  C   UNL A   1      44.433  25.799  34.915  1.00  0.00     0.173 A 
ATOM     87  C   UNL A   1      45.909  27.614  34.357  1.00  0.00     0.173 A 
ATOM     88  F   UNL A   1      43.225  25.216  34.889  1.00  0.00    -0.203 F 
ATOM     89  C   UNL A   1      45.469  25.172  35.602  1.00  0.00     0.198 A 
ATOM     90  C   UNL A   1      46.949  26.970  35.023  1.00  0.00     0.198 A 
ATOM     91  F   UNL A   1      46.152  28.794  33.767  1.00  0.00    -0.203 F 
ATOM     92  F   UNL A   1      45.245  24.009  36.231  1.00  0.00    -0.200 F 
ATOM     93  C   UNL A   1      46.726  25.755  35.650  1.00  0.00     0.200 A 
ATOM     94  F   UNL A   1      48.167  27.529  35.056  1.00  0.00    -0.200 F 
ATOM     95  F   UNL A   1      47.724  25.146  36.307  1.00  0.00    -0.200 F 
ENDBRANCH  62  85
ENDBRANCH  36  37
ENDBRANCH  29  31
ENDBRANCH  28  29
ENDBRANCH  27  28
ENDBRANCH  26  27
ENDBRANCH  25  26
ENDBRANCH   1  25
TORSDOF 17
ENDMDL
MODEL 2
REMARK VINA RESULT:     -11.9      0.838      2.134
REMARK SMILES C[C@@H](C(=O)OCCOCCOC(=O)c1ccc(-c2c3nc(c(-c4c(F)c(F)c(F)c(F)c4F)c4ccc([nH]4)c(-c4c(F)c(F)c(F)c(F)c4F)c4nc(c(-c5c(F)c(F)c(F)c(F)c5F)c5ccc2[nH]5)C=C4)C=C3)cc1)S(=O)(=O)N[C@@]12C[C@@H]3C[C@@](C)(C[C@@](C)(C3)C1)C2
REMARK SMILES IDX 7 1 6 2 5 3 3 4 4 5 2 6 1 7 77 8 78 9 79 10 80 11 81 13
REMARK SMILES IDX 82 14 91 15 92 16 83 17 88 18 85 19 90 20 84 21 87 22 89 23
REMARK SMILES IDX 86 24 8 25 9 26 10 27 11 28 12 29 13 30 14 31 15 32 76 33
REMARK SMILES IDX 16 34 75 35 17 36 18 37 19 38 69 39 20 40 74 41 68 42 70 43
REMARK SMILES IDX 21 44 73 45 67 46 66 47 22 49 54 50 34 51 53 52 35 53 38 54
REMARK SMILES IDX 52 55 71 56 36 57 37 58 51 60 72 61 39 62 23 63 24 64 32 65
REMARK SMILES IDX 25 66 26 67 30 68 33 69 27 70 28 71 31 72 29 73 55 74 56 75
REMARK SMILES IDX 64 76 57 77 58 78 62 79 65 80 59 81 60 82 63 83 61 84 40 85
REMARK SMILES IDX 41 86 49 87 42 88 43 89 47 90 50 91 44 92 45 93 48 94 46 95
REMARK H PARENT 80 12 70 48 38 59
REMARK Flexibility Score: inf
ROOT
ATOM      1  C   UNL A   1      31.866  29.100  26.009  1.00  0.00     0.202 C 
ENDROOT
BRANCH   1   2
ATOM      2  C   UNL A   1      31.080  29.093  24.696  1.00  0.00     0.261 C 
BRANCH   2   3
ATOM      3  O   UNL A   1      30.892  27.783  24.123  1.00  0.00    -0.462 OA
BRANCH   3   4
ATOM      4  C   UNL A   1      31.378  27.620  22.855  1.00  0.00     0.325 C 
ATOM      5  O   UNL A   1      30.694  27.785  21.854  1.00  0.00    -0.251 OA
BRANCH   4   6
ATOM      6  C   UNL A   1      32.783  27.079  22.836  1.00  0.00     0.230 C 
ATOM      7  C   UNL A   1      33.894  28.039  22.422  1.00  0.00     0.039 C 
BRANCH   6   8
ATOM      8  S   UNL A   1      32.836  25.495  21.998  1.00  0.00     0.225 S 
ATOM      9  O   UNL A   1      31.718  24.706  22.453  1.00  0.00    -0.212 OA
ATOM     10  O   UNL A   1      32.972  25.735  20.573  1.00  0.00    -0.212 OA
BRANCH   8  11
ATOM     11  N   UNL A   1      34.271  24.737  22.411  1.00  0.00    -0.208 NA
ATOM     12  H   UNL A   1      34.932  25.498  22.570  1.00  0.00     0.141 HD
BRANCH  11  13
ATOM     13  C   UNL A   1      34.504  23.790  23.537  1.00  0.00     0.034 C 
ATOM     14  C   UNL A   1      34.281  24.579  24.859  1.00  0.00     0.027 C 
ATOM     15  C   UNL A   1      33.473  22.655  23.489  1.00  0.00     0.030 C 
ATOM     16  C   UNL A   1      35.924  23.196  23.594  1.00  0.00     0.030 C 
ATOM     17  C   UNL A   1      34.420  23.656  26.083  1.00  0.00    -0.008 C 
ATOM     18  C   UNL A   1      33.602  21.709  24.699  1.00  0.00    -0.030 C 
ATOM     19  C   UNL A   1      36.087  22.254  24.812  1.00  0.00    -0.030 C 
ATOM     20  C   UNL A   1      33.391  22.520  25.993  1.00  0.00     0.010 C 
ATOM     21  C   UNL A   1      35.831  23.053  26.105  1.00  0.00     0.010 C 
ATOM     22  C   UNL A   1      35.032  21.124  24.699  1.00  0.00     0.013 C 
ATOM     23  C   UNL A   1      32.556  20.595  24.584  1.00  0.00     0.011 C 
ATOM     24  C   UNL A   1      37.498  21.658  24.828  1.00  0.00     0.011 C 
ENDBRANCH  11  13
ENDBRANCH   8  11
ENDBRANCH   6   8
ENDBRANCH   4   6
ENDBRANCH   3   4
ENDBRANCH   2   3
ENDBRANCH   1   2
BRANCH   1  25
ATOM     25  O   UNL A   1      31.630  30.218  26.859  1.00  0.00    -0.374 OA
BRANCH  25  26
ATOM     26  C   UNL A   1      32.439  31.369  26.607  1.00  0.00     0.202 C 
BRANCH  26  27
ATOM     27  C   UNL A   1      31.917  32.646  27.273  1.00  0.00     0.261 C 
BRANCH  27  28
ATOM     28  O   UNL A   1      32.950  33.651  27.275  1.00  0.00    -0.460 OA
BRANCH  28  29
ATOM     29  C   UNL A   1      33.459  33.918  28.498  1.00  0.00     0.338 C 
ATOM     30  O   UNL A   1      32.928  34.541  29.403  1.00  0.00    -0.246 OA
BRANCH  29  31
ATOM     31  C   UNL A   1      34.711  33.167  28.685  1.00  0.00     0.060 A 
ATOM     32  C   UNL A   1      34.602  31.858  29.170  1.00  0.00     0.016 A 
ATOM     33  C   UNL A   1      35.963  33.756  28.497  1.00  0.00     0.016 A 
ATOM     34  C   UNL A   1      35.747  31.159  29.543  1.00  0.00     0.010 A 
ATOM     35  C   UNL A   1      37.113  33.051  28.874  1.00  0.00     0.010 A 
ATOM     36  C   UNL A   1      37.005  31.769  29.446  1.00  0.00    -0.014 A 
BRANCH  36  37
ATOM     37  C   UNL A   1      38.162  31.129  30.121  1.00  0.00     0.031 A 
ATOM     38  C   UNL A   1      38.434  31.458  31.566  1.00  0.00     0.074 A 
ATOM     39  C   UNL A   1      38.910  30.209  29.489  1.00  0.00     0.049 A 
ATOM     40  N   UNL A   1      39.355  30.987  32.369  1.00  0.00    -0.248 NA
ATOM     41  C   UNL A   1      37.543  32.449  32.191  1.00  0.00     0.031 C 
ATOM     42  C   UNL A   1      38.724  29.777  28.105  1.00  0.00     0.029 A 
ATOM     43  N   UNL A   1      39.976  29.466  29.934  1.00  0.00    -0.354 N 
ATOM     44  C   UNL A   1      39.151  31.618  33.589  1.00  0.00     0.074 A 
ATOM     45  C   UNL A   1      38.045  32.534  33.413  1.00  0.00     0.031 C 
ATOM     46  C   UNL A   1      39.645  28.843  27.813  1.00  0.00     0.029 A 
ATOM     47  C   UNL A   1      40.499  28.628  28.980  1.00  0.00     0.049 A 
ATOM     48  H   UNL A   1      40.331  29.528  30.850  1.00  0.00     0.167 HD
ATOM     49  C   UNL A   1      39.816  31.441  34.755  1.00  0.00     0.037 A 
ATOM     50  C   UNL A   1      41.554  27.791  29.042  1.00  0.00     0.037 A 
ATOM     51  C   UNL A   1      40.914  30.528  34.932  1.00  0.00     0.049 A 
ATOM     52  C   UNL A   1      42.315  27.654  30.335  1.00  0.00     0.074 A 
ATOM     53  C   UNL A   1      41.647  30.270  36.077  1.00  0.00     0.029 A 
ATOM     54  N   UNL A   1      41.439  29.725  33.932  1.00  0.00    -0.354 N 
ATOM     55  N   UNL A   1      42.101  28.240  31.488  1.00  0.00    -0.248 NA
ATOM     56  C   UNL A   1      43.461  26.733  30.337  1.00  0.00     0.031 C 
ATOM     57  C   UNL A   1      42.644  29.343  35.758  1.00  0.00     0.029 A 
ATOM     58  C   UNL A   1      42.502  28.987  34.427  1.00  0.00     0.049 A 
ATOM     59  H   UNL A   1      41.105  29.685  33.006  1.00  0.00     0.167 HD
ATOM     60  C   UNL A   1      43.065  27.744  32.355  1.00  0.00     0.074 A 
ATOM     61  C   UNL A   1      43.858  26.797  31.599  1.00  0.00     0.031 C 
ATOM     62  C   UNL A   1      43.278  28.046  33.659  1.00  0.00     0.037 A 
BRANCH  49  63
ATOM     63  C   UNL A   1      39.382  32.265  35.931  1.00  0.00     0.064 A 
ATOM     64  C   UNL A   1      39.936  33.528  36.189  1.00  0.00     0.173 A 
ATOM     65  C   UNL A   1      38.377  31.800  36.793  1.00  0.00     0.173 A 
ATOM     66  F   UNL A   1      40.911  34.010  35.403  1.00  0.00    -0.203 F 
ATOM     67  C   UNL A   1      39.517  34.285  37.279  1.00  0.00     0.198 A 
ATOM     68  C   UNL A   1      37.942  32.572  37.867  1.00  0.00     0.198 A 
ATOM     69  F   UNL A   1      37.813  30.602  36.589  1.00  0.00    -0.203 F 
ATOM     70  F   UNL A   1      40.092  35.470  37.531  1.00  0.00    -0.200 F 
ATOM     71  C   UNL A   1      38.516  33.810  38.113  1.00  0.00     0.200 A 
ATOM     72  F   UNL A   1      36.968  32.115  38.666  1.00  0.00    -0.200 F 
ATOM     73  F   UNL A   1      38.109  34.542  39.160  1.00  0.00    -0.200 F 
ENDBRANCH  49  63
BRANCH  50  74
ATOM     74  C   UNL A   1      41.958  27.022  27.836  1.00  0.00     0.064 A 
ATOM     75  C   UNL A   1      42.880  27.540  26.918  1.00  0.00     0.173 A 
ATOM     76  C   UNL A   1      41.417  25.754  27.575  1.00  0.00     0.173 A 
ATOM     77  F   UNL A   1      43.405  28.759  27.110  1.00  0.00    -0.203 F 
ATOM     78  C   UNL A   1      43.238  26.825  25.776  1.00  0.00     0.198 A 
ATOM     79  C   UNL A   1      41.796  25.028  26.448  1.00  0.00     0.198 A 
ATOM     80  F   UNL A   1      40.528  25.215  28.422  1.00  0.00    -0.203 F 
ATOM     81  F   UNL A   1      44.091  27.359  24.892  1.00  0.00    -0.200 F 
ATOM     82  C   UNL A   1      42.701  25.567  25.546  1.00  0.00     0.200 A 
ATOM     83  F   UNL A   1      41.283  23.809  26.236  1.00  0.00    -0.200 F 
ATOM     84  F   UNL A   1      43.049  24.877  24.451  1.00  0.00    -0.200 F 
ENDBRANCH  50  74
BRANCH  62  85
ATOM     85  C   UNL A   1      44.394  27.330  34.361  1.00  0.00     0.064 A 
ATOM     86  C   UNL A   1      45.683  27.878  34.441  1.00  0.00     0.173 A 
ATOM     87  C   UNL A   1      44.161  26.102  34.998  1.00  0.00     0.173 A 
ATOM     88  F   UNL A   1      45.958  29.044  33.835  1.00  0.00    -0.203 F 
ATOM     89  C   UNL A   1      46.703  27.212  35.114  1.00  0.00     0.198 A 
ATOM     90  C   UNL A   1      45.178  25.452  35.694  1.00  0.00     0.198 A 
ATOM     91  F   UNL A   1      42.945  25.538  34.959  1.00  0.00    -0.203 F 
ATOM     92  F   UNL A   1      47.937  27.735  35.140  1.00  0.00    -0.200 F 
ATOM     93  C   UNL A   1      46.449  26.004  35.745  1.00  0.00     0.200 A 
ATOM     94  F   UNL A   1      44.927  24.290  36.314  1.00  0.00    -0.200 F 
ATOM     95  F   UNL A   1      47.431  25.367  36.398  1.00  0.00    -0.200 F 
ENDBRANCH  62  85
ENDBRANCH  36  37
ENDBRANCH  29  31
ENDBRANCH  28  29
ENDBRANCH  27  28
ENDBRANCH  26  27
ENDBRANCH  25  26
ENDBRANCH   1  25
TORSDOF 17
ENDMDL
MODEL 3
REMARK VINA RESULT:     -11.8      4.260      9.912
REMARK SMILES C[C@@H](C(=O)OCCOCCOC(=O)c1ccc(-c2c3nc(c(-c4c(F)c(F)c(F)c(F)c4F)c4ccc([nH]4)c(-c4c(F)c(F)c(F)c(F)c4F)c4nc(c(-c5c(F)c(F)c(F)c(F)c5F)c5ccc2[nH]5)C=C4)C=C3)cc1)S(=O)(=O)N[C@@]12C[C@@H]3C[C@@](C)(C[C@@](C)(C3)C1)C2
REMARK SMILES IDX 7 1 6 2 5 3 3 4 4 5 2 6 1 7 77 8 78 9 79 10 80 11 81 13
REMARK SMILES IDX 82 14 91 15 92 16 83 17 88 18 85 19 90 20 84 21 87 22 89 23
REMARK SMILES IDX 86 24 8 25 9 26 10 27 11 28 12 29 13 30 14 31 15 32 76 33
REMARK SMILES IDX 16 34 75 35 17 36 18 37 19 38 69 39 20 40 74 41 68 42 70 43
REMARK SMILES IDX 21 44 73 45 67 46 66 47 22 49 54 50 34 51 53 52 35 53 38 54
REMARK SMILES IDX 52 55 71 56 36 57 37 58 51 60 72 61 39 62 23 63 24 64 32 65
REMARK SMILES IDX 25 66 26 67 30 68 33 69 27 70 28 71 31 72 29 73 55 74 56 75
REMARK SMILES IDX 64 76 57 77 58 78 62 79 65 80 59 81 60 82 63 83 61 84 40 85
REMARK SMILES IDX 41 86 49 87 42 88 43 89 47 90 50 91 44 92 45 93 48 94 46 95
REMARK H PARENT 80 12 70 48 38 59
REMARK Flexibility Score: inf
ROOT
ATOM      1  C   UNL A   1      35.950  22.554  24.374  1.00  0.00     0.202 C 
ENDROOT
BRANCH   1   2
ATOM      2  C   UNL A   1      34.533  23.125  24.450  1.00  0.00     0.261 C 
BRANCH   2   3
ATOM      3  O   UNL A   1      33.491  22.167  24.173  1.00  0.00    -0.462 OA
BRANCH   3   4
ATOM      4  C   UNL A   1      32.921  21.582  25.270  1.00  0.00     0.325 C 
ATOM      5  O   UNL A   1      32.569  20.410  25.290  1.00  0.00    -0.251 OA
BRANCH   4   6
ATOM      6  C   UNL A   1      32.647  22.564  26.377  1.00  0.00     0.230 C 
ATOM      7  C   UNL A   1      33.044  22.150  27.790  1.00  0.00     0.039 C 
BRANCH   6   8
ATOM      8  S   UNL A   1      30.980  23.211  26.246  1.00  0.00     0.225 S 
ATOM      9  O   UNL A   1      30.056  22.124  26.456  1.00  0.00    -0.212 OA
ATOM     10  O   UNL A   1      30.873  24.378  27.103  1.00  0.00    -0.212 OA
BRANCH   8  11
ATOM     11  N   UNL A   1      30.784  23.833  24.703  1.00  0.00    -0.208 NA
ATOM     12  H   UNL A   1      29.779  23.791  24.531  1.00  0.00     0.141 HD
BRANCH  11  13
ATOM     13  C   UNL A   1      31.198  25.175  24.208  1.00  0.00     0.034 C 
ATOM     14  C   UNL A   1      31.864  24.969  22.817  1.00  0.00     0.027 C 
ATOM     15  C   UNL A   1      29.965  26.064  24.008  1.00  0.00     0.030 C 
ATOM     16  C   UNL A   1      32.221  25.903  25.100  1.00  0.00     0.030 C 
ATOM     17  C   UNL A   1      32.254  26.317  22.186  1.00  0.00    -0.008 C 
ATOM     18  C   UNL A   1      30.331  27.427  23.389  1.00  0.00    -0.030 C 
ATOM     19  C   UNL A   1      32.621  27.270  24.491  1.00  0.00    -0.030 C 
ATOM     20  C   UNL A   1      31.002  27.192  22.021  1.00  0.00     0.010 C 
ATOM     21  C   UNL A   1      33.250  27.039  23.103  1.00  0.00     0.010 C 
ATOM     22  C   UNL A   1      31.339  28.126  24.330  1.00  0.00     0.013 C 
ATOM     23  C   UNL A   1      29.060  28.269  23.228  1.00  0.00     0.011 C 
ATOM     24  C   UNL A   1      33.616  27.982  25.413  1.00  0.00     0.011 C 
ENDBRANCH  11  13
ENDBRANCH   8  11
ENDBRANCH   6   8
ENDBRANCH   4   6
ENDBRANCH   3   4
ENDBRANCH   2   3
ENDBRANCH   1   2
BRANCH   1  25
ATOM     25  O   UNL A   1      36.252  21.534  25.320  1.00  0.00    -0.374 OA
BRANCH  25  26
ATOM     26  C   UNL A   1      36.770  20.318  24.776  1.00  0.00     0.202 C 
BRANCH  26  27
ATOM     27  C   UNL A   1      38.121  19.904  25.370  1.00  0.00     0.261 C 
BRANCH  27  28
ATOM     28  O   UNL A   1      38.966  21.063  25.507  1.00  0.00    -0.460 OA
BRANCH  28  29
ATOM     29  C   UNL A   1      40.014  20.888  26.343  1.00  0.00     0.338 C 
ATOM     30  O   UNL A   1      40.740  19.911  26.428  1.00  0.00    -0.246 OA
BRANCH  29  31
ATOM     31  C   UNL A   1      40.306  22.152  27.038  1.00  0.00     0.060 A 
ATOM     32  C   UNL A   1      39.573  23.278  26.645  1.00  0.00     0.016 A 
ATOM     33  C   UNL A   1      41.339  22.263  27.971  1.00  0.00     0.016 A 
ATOM     34  C   UNL A   1      39.924  24.537  27.126  1.00  0.00     0.010 A 
ATOM     35  C   UNL A   1      41.691  23.530  28.453  1.00  0.00     0.010 A 
ATOM     36  C   UNL A   1      41.017  24.677  27.993  1.00  0.00    -0.014 A 
BRANCH  36  37
ATOM     37  C   UNL A   1      41.553  26.038  28.250  1.00  0.00     0.031 A 
ATOM     38  C   UNL A   1      42.928  26.386  27.744  1.00  0.00     0.074 A 
ATOM     39  C   UNL A   1      40.800  26.976  28.851  1.00  0.00     0.049 A 
ATOM     40  N   UNL A   1      43.578  27.520  27.811  1.00  0.00    -0.248 NA
ATOM     41  C   UNL A   1      43.668  25.309  27.065  1.00  0.00     0.031 C 
ATOM     42  C   UNL A   1      39.442  26.774  29.351  1.00  0.00     0.029 A 
ATOM     43  N   UNL A   1      41.073  28.291  29.136  1.00  0.00    -0.354 N 
ATOM     44  C   UNL A   1      44.796  27.295  27.182  1.00  0.00     0.074 A 
ATOM     45  C   UNL A   1      44.812  25.907  26.773  1.00  0.00     0.031 C 
ATOM     46  C   UNL A   1      38.998  27.926  29.882  1.00  0.00     0.029 A 
ATOM     47  C   UNL A   1      40.048  28.939  29.780  1.00  0.00     0.049 A 
ATOM     48  H   UNL A   1      41.923  28.728  28.900  1.00  0.00     0.167 HD
ATOM     49  C   UNL A   1      45.804  28.169  26.952  1.00  0.00     0.037 A 
ATOM     50  C   UNL A   1      39.972  30.202  30.243  1.00  0.00     0.037 A 
ATOM     51  C   UNL A   1      45.789  29.550  27.355  1.00  0.00     0.049 A 
ATOM     52  C   UNL A   1      41.131  31.140  30.026  1.00  0.00     0.074 A 
ATOM     53  C   UNL A   1      46.759  30.518  27.161  1.00  0.00     0.029 A 
ATOM     54  N   UNL A   1      44.748  30.159  28.039  1.00  0.00    -0.354 N 
ATOM     55  N   UNL A   1      42.269  30.923  29.412  1.00  0.00    -0.248 NA
ATOM     56  C   UNL A   1      40.992  32.502  30.562  1.00  0.00     0.031 C 
ATOM     57  C   UNL A   1      46.322  31.701  27.766  1.00  0.00     0.029 A 
ATOM     58  C   UNL A   1      45.060  31.483  28.295  1.00  0.00     0.049 A 
ATOM     59  H   UNL A   1      43.910  29.714  28.304  1.00  0.00     0.167 HD
ATOM     60  C   UNL A   1      42.969  32.121  29.467  1.00  0.00     0.074 A 
ATOM     61  C   UNL A   1      42.122  33.068  30.162  1.00  0.00     0.031 C 
ATOM     62  C   UNL A   1      44.203  32.412  28.987  1.00  0.00     0.037 A 
BRANCH  49  63
ATOM     63  C   UNL A   1      47.021  27.651  26.243  1.00  0.00     0.064 A 
ATOM     64  C   UNL A   1      48.111  27.117  26.947  1.00  0.00     0.173 A 
ATOM     65  C   UNL A   1      47.084  27.659  24.842  1.00  0.00     0.173 A 
ATOM     66  F   UNL A   1      48.105  27.101  28.289  1.00  0.00    -0.203 F 
ATOM     67  C   UNL A   1      49.229  26.632  26.274  1.00  0.00     0.198 A 
ATOM     68  C   UNL A   1      48.193  27.148  24.172  1.00  0.00     0.198 A 
ATOM     69  F   UNL A   1      46.068  28.155  24.122  1.00  0.00    -0.203 F 
ATOM     70  F   UNL A   1      50.278  26.167  26.969  1.00  0.00    -0.200 F 
ATOM     71  C   UNL A   1      49.267  26.642  24.888  1.00  0.00     0.200 A 
ATOM     72  F   UNL A   1      48.224  27.150  22.832  1.00  0.00    -0.200 F 
ATOM     73  F   UNL A   1      50.342  26.170  24.242  1.00  0.00    -0.200 F 
ENDBRANCH  49  63
BRANCH  50  74
ATOM     74  C   UNL A   1      38.754  30.653  30.965  1.00  0.00     0.064 A 
ATOM     75  C   UNL A   1      37.632  31.126  30.274  1.00  0.00     0.173 A 
ATOM     76  C   UNL A   1      38.696  30.627  32.367  1.00  0.00     0.173 A 
ATOM     77  F   UNL A   1      37.648  31.194  28.935  1.00  0.00    -0.203 F 
ATOM     78  C   UNL A   1      36.501  31.570  30.957  1.00  0.00     0.198 A 
ATOM     79  C   UNL A   1      37.555  31.046  33.048  1.00  0.00     0.198 A 
ATOM     80  F   UNL A   1      39.746  30.186  33.075  1.00  0.00    -0.203 F 
ATOM     81  F   UNL A   1      35.455  32.057  30.275  1.00  0.00    -0.200 F 
ATOM     82  C   UNL A   1      36.460  31.523  32.343  1.00  0.00     0.200 A 
ATOM     83  F   UNL A   1      37.517  30.988  34.385  1.00  0.00    -0.200 F 
ATOM     84  F   UNL A   1      35.371  31.945  32.999  1.00  0.00    -0.200 F 
ENDBRANCH  50  74
BRANCH  62  85
ATOM     85  C   UNL A   1      44.703  33.814  29.173  1.00  0.00     0.064 A 
ATOM     86  C   UNL A   1      45.483  34.175  30.282  1.00  0.00     0.173 A 
ATOM     87  C   UNL A   1      44.436  34.798  28.208  1.00  0.00     0.173 A 
ATOM     88  F   UNL A   1      45.753  33.272  31.237  1.00  0.00    -0.203 F 
ATOM     89  C   UNL A   1      45.958  35.475  30.429  1.00  0.00     0.198 A 
ATOM     90  C   UNL A   1      44.936  36.091  28.346  1.00  0.00     0.198 A 
ATOM     91  F   UNL A   1      43.702  34.503  27.125  1.00  0.00    -0.203 F 
ATOM     92  F   UNL A   1      46.665  35.807  31.518  1.00  0.00    -0.200 F 
ATOM     93  C   UNL A   1      45.690  36.429  29.459  1.00  0.00     0.200 A 
ATOM     94  F   UNL A   1      44.687  37.008  27.401  1.00  0.00    -0.200 F 
ATOM     95  F   UNL A   1      46.154  37.679  29.600  1.00  0.00    -0.200 F 
ENDBRANCH  62  85
ENDBRANCH  36  37
ENDBRANCH  29  31
ENDBRANCH  28  29
ENDBRANCH  27  28
ENDBRANCH  26  27
ENDBRANCH  25  26
ENDBRANCH   1  25
TORSDOF 17
ENDMDL
