MODEL 1
REMARK VINA RESULT:     -12.1      0.000      0.000
REMARK SMILES O=C(C[C@@H]([NH2+]Cc1cccnc1)C(=O)OCCOCCOC(=O)c1ccc(-c2c3nc(c(-c4c(F)c(F)c(F)c(F)c4F)c4ccc([nH]4)c(-c4c(F)c(F)c(F)c(F)c4F)c4nc(c(-c5c(F)c(F)c(F)c(F)c5F)c5ccc2[nH]5)C=C4)C=C3)cc1)Nc1ccc2ccccc2c1
REMARK SMILES IDX 17 1 16 2 15 3 13 4 14 5 4 6 3 7 2 8 1 9 87 10 88 12 89 13
REMARK SMILES IDX 97 14 90 15 96 16 91 17 95 18 92 19 94 20 93 21 5 22 6 25
REMARK SMILES IDX 7 26 8 27 12 28 9 29 11 30 10 31 18 32 19 33 20 34 21 35
REMARK SMILES IDX 22 36 23 37 24 38 25 39 86 40 26 41 85 42 27 43 28 44 29 45
REMARK SMILES IDX 79 46 30 47 84 48 78 49 80 50 31 51 83 52 77 53 76 54 32 56
REMARK SMILES IDX 64 57 44 58 63 59 45 60 48 61 62 62 81 63 46 64 47 65 61 67
REMARK SMILES IDX 82 68 49 69 33 70 34 71 42 72 35 73 36 74 40 75 43 76 37 77
REMARK SMILES IDX 38 78 41 79 39 80 65 81 66 82 74 83 67 84 68 85 72 86 75 87
REMARK SMILES IDX 69 88 70 89 73 90 71 91 50 92 51 93 59 94 52 95 53 96 57 97
REMARK SMILES IDX 60 98 54 99 55 100 58 101 56 102
REMARK H PARENT 87 11 5 23 5 24 80 55 48 66
REMARK Flexibility Score: inf
ROOT
ATOM      1  C   UNL A   1      32.945  26.368  26.483  1.00  0.00     0.202 C 
ENDROOT
BRANCH   1   2
ATOM      2  C   UNL A   1      34.015  25.587  25.709  1.00  0.00     0.261 C 
BRANCH   2   3
ATOM      3  O   UNL A   1      33.518  24.440  25.005  1.00  0.00    -0.459 OA
BRANCH   3   4
ATOM      4  C   UNL A   1      33.676  23.274  25.691  1.00  0.00     0.365 C 
ATOM      5  O   UNL A   1      34.589  23.076  26.485  1.00  0.00    -0.245 OA
BRANCH   4   6
ATOM      6  C   UNL A   1      32.618  22.208  25.361  1.00  0.00     0.303 C 
BRANCH   6   7
ATOM      7  C   UNL A   1      31.171  22.748  25.459  1.00  0.00     0.177 C 
BRANCH   7   8
ATOM      8  C   UNL A   1      30.817  23.684  24.310  1.00  0.00     0.231 C 
ATOM      9  O   UNL A   1      31.090  23.416  23.146  1.00  0.00    -0.274 OA
ATOM     10  N   UNL A   1      30.254  24.862  24.767  1.00  0.00    -0.326 N 
ATOM     11  H   UNL A   1      29.946  24.879  25.701  1.00  0.00     0.169 HD
BRANCH  10  12
ATOM     12  C   UNL A   1      30.083  26.033  24.015  1.00  0.00     0.041 A 
ATOM     13  C   UNL A   1      31.236  26.609  23.479  1.00  0.00     0.027 A 
ATOM     14  C   UNL A   1      28.849  26.662  23.850  1.00  0.00     0.034 A 
ATOM     15  C   UNL A   1      31.160  27.779  22.728  1.00  0.00     0.011 A 
ATOM     16  C   UNL A   1      28.780  27.917  23.206  1.00  0.00    -0.016 A 
ATOM     17  C   UNL A   1      29.946  28.459  22.610  1.00  0.00    -0.018 A 
ATOM     18  C   UNL A   1      27.597  28.674  23.169  1.00  0.00     0.009 A 
ATOM     19  C   UNL A   1      29.886  29.691  21.945  1.00  0.00     0.009 A 
ATOM     20  C   UNL A   1      27.567  29.930  22.554  1.00  0.00     0.001 A 
ATOM     21  C   UNL A   1      28.705  30.430  21.928  1.00  0.00     0.001 A 
ENDBRANCH  10  12
ENDBRANCH   7   8
ENDBRANCH   6   7
BRANCH   6  22
ATOM     22  N   UNL A   1      32.858  21.570  24.026  1.00  0.00    -0.330 N 
ATOM     23  H   UNL A   1      33.849  21.336  23.964  1.00  0.00     0.347 HD
ATOM     24  H   UNL A   1      32.553  22.252  23.332  1.00  0.00     0.347 HD
BRANCH  22  25
ATOM     25  C   UNL A   1      32.083  20.344  23.755  1.00  0.00     0.299 C 
BRANCH  25  26
ATOM     26  C   UNL A   1      32.908  19.086  23.709  1.00  0.00     0.024 A 
ATOM     27  C   UNL A   1      34.009  18.879  24.546  1.00  0.00     0.013 A 
ATOM     28  C   UNL A   1      32.587  18.062  22.821  1.00  0.00     0.120 A 
ATOM     29  C   UNL A   1      34.758  17.712  24.430  1.00  0.00     0.021 A 
ATOM     30  N   UNL A   1      33.286  16.910  22.702  1.00  0.00    -0.264 NA
ATOM     31  C   UNL A   1      34.364  16.769  23.497  1.00  0.00     0.111 A 
ENDBRANCH  25  26
ENDBRANCH  22  25
ENDBRANCH   6  22
ENDBRANCH   4   6
ENDBRANCH   3   4
ENDBRANCH   2   3
ENDBRANCH   1   2
BRANCH   1  32
ATOM     32  O   UNL A   1      32.945  27.786  26.395  1.00  0.00    -0.374 OA
BRANCH  32  33
ATOM     33  C   UNL A   1      31.784  28.503  26.814  1.00  0.00     0.202 C 
BRANCH  33  34
ATOM     34  C   UNL A   1      31.775  30.024  26.625  1.00  0.00     0.261 C 
BRANCH  34  35
ATOM     35  O   UNL A   1      33.088  30.544  26.338  1.00  0.00    -0.460 OA
BRANCH  35  36
ATOM     36  C   UNL A   1      33.501  31.527  27.176  1.00  0.00     0.338 C 
ATOM     37  O   UNL A   1      32.859  32.481  27.579  1.00  0.00    -0.246 OA
BRANCH  36  38
ATOM     38  C   UNL A   1      34.827  31.190  27.726  1.00  0.00     0.060 A 
ATOM     39  C   UNL A   1      35.059  29.856  28.089  1.00  0.00     0.016 A 
ATOM     40  C   UNL A   1      35.790  32.171  27.964  1.00  0.00     0.016 A 
ATOM     41  C   UNL A   1      36.248  29.503  28.724  1.00  0.00     0.010 A 
ATOM     42  C   UNL A   1      36.976  31.817  28.615  1.00  0.00     0.010 A 
ATOM     43  C   UNL A   1      37.199  30.488  29.020  1.00  0.00    -0.014 A 
BRANCH  43  44
ATOM     44  C   UNL A   1      38.373  30.144  29.856  1.00  0.00     0.031 A 
ATOM     45  C   UNL A   1      39.412  29.203  29.315  1.00  0.00     0.074 A 
ATOM     46  C   UNL A   1      38.520  30.684  31.078  1.00  0.00     0.049 A 
ATOM     47  N   UNL A   1      40.488  28.734  29.892  1.00  0.00    -0.248 NA
ATOM     48  C   UNL A   1      39.210  28.728  27.937  1.00  0.00     0.031 C 
ATOM     49  C   UNL A   1      37.603  31.641  31.691  1.00  0.00     0.029 A 
ATOM     50  N   UNL A   1      39.494  30.495  32.026  1.00  0.00    -0.354 N 
ATOM     51  C   UNL A   1      41.091  27.908  28.952  1.00  0.00     0.074 A 
ATOM     52  C   UNL A   1      40.248  27.919  27.776  1.00  0.00     0.031 C 
ATOM     53  C   UNL A   1      38.050  31.946  32.921  1.00  0.00     0.029 A 
ATOM     54  C   UNL A   1      39.264  31.179  33.193  1.00  0.00     0.049 A 
ATOM     55  H   UNL A   1      40.283  29.923  31.882  1.00  0.00     0.167 HD
ATOM     56  C   UNL A   1      42.247  27.211  29.060  1.00  0.00     0.037 A 
ATOM     57  C   UNL A   1      39.942  31.163  34.358  1.00  0.00     0.037 A 
ATOM     58  C   UNL A   1      43.083  27.202  30.233  1.00  0.00     0.049 A 
ATOM     59  C   UNL A   1      41.177  30.309  34.481  1.00  0.00     0.074 A 
ATOM     60  C   UNL A   1      44.288  26.552  30.429  1.00  0.00     0.029 A 
ATOM     61  N   UNL A   1      42.792  27.869  31.414  1.00  0.00    -0.354 N 
ATOM     62  N   UNL A   1      41.756  29.554  33.579  1.00  0.00    -0.248 NA
ATOM     63  C   UNL A   1      41.852  30.306  35.787  1.00  0.00     0.031 C 
ATOM     64  C   UNL A   1      44.700  26.780  31.746  1.00  0.00     0.029 A 
ATOM     65  C   UNL A   1      43.777  27.616  32.355  1.00  0.00     0.049 A 
ATOM     66  H   UNL A   1      42.003  28.438  31.561  1.00  0.00     0.167 HD
ATOM     67  C   UNL A   1      42.869  29.001  34.200  1.00  0.00     0.074 A 
ATOM     68  C   UNL A   1      42.895  29.524  35.550  1.00  0.00     0.031 C 
ATOM     69  C   UNL A   1      43.786  28.139  33.697  1.00  0.00     0.037 A 
BRANCH  56  70
ATOM     70  C   UNL A   1      42.666  26.374  27.887  1.00  0.00     0.064 A 
ATOM     71  C   UNL A   1      43.554  26.860  26.915  1.00  0.00     0.173 A 
ATOM     72  C   UNL A   1      42.204  25.056  27.756  1.00  0.00     0.173 A 
ATOM     73  F   UNL A   1      44.013  28.117  26.989  1.00  0.00    -0.203 F 
ATOM     74  C   UNL A   1      43.947  26.061  25.844  1.00  0.00     0.198 A 
ATOM     75  C   UNL A   1      42.621  24.252  26.699  1.00  0.00     0.198 A 
ATOM     76  F   UNL A   1      41.357  24.544  28.661  1.00  0.00    -0.203 F 
ATOM     77  F   UNL A   1      44.765  26.558  24.905  1.00  0.00    -0.200 F 
ATOM     78  C   UNL A   1      43.487  24.757  25.740  1.00  0.00     0.200 A 
ATOM     79  F   UNL A   1      42.184  22.988  26.606  1.00  0.00    -0.200 F 
ATOM     80  F   UNL A   1      43.873  23.987  24.713  1.00  0.00    -0.200 F 
ENDBRANCH  56  70
BRANCH  57  81
ATOM     81  C   UNL A   1      39.452  31.962  35.509  1.00  0.00     0.064 A 
ATOM     82  C   UNL A   1      39.906  33.269  35.730  1.00  0.00     0.173 A 
ATOM     83  C   UNL A   1      38.530  31.429  36.422  1.00  0.00     0.173 A 
ATOM     84  F   UNL A   1      40.809  33.812  34.900  1.00  0.00    -0.203 F 
ATOM     85  C   UNL A   1      39.469  34.007  36.828  1.00  0.00     0.198 A 
ATOM     86  C   UNL A   1      38.071  32.178  37.504  1.00  0.00     0.198 A 
ATOM     87  F   UNL A   1      38.065  30.181  36.258  1.00  0.00    -0.203 F 
ATOM     88  F   UNL A   1      39.952  35.239  37.040  1.00  0.00    -0.200 F 
ATOM     89  C   UNL A   1      38.546  33.463  37.709  1.00  0.00     0.200 A 
ATOM     90  F   UNL A   1      37.171  31.652  38.346  1.00  0.00    -0.200 F 
ATOM     91  F   UNL A   1      38.122  34.175  38.762  1.00  0.00    -0.200 F 
ENDBRANCH  57  81
BRANCH  69  92
ATOM     92  C   UNL A   1      44.905  27.717  34.605  1.00  0.00     0.064 A 
ATOM     93  C   UNL A   1      46.069  28.489  34.740  1.00  0.00     0.173 A 
ATOM     94  C   UNL A   1      44.796  26.551  35.378  1.00  0.00     0.173 A 
ATOM     95  F   UNL A   1      46.228  29.603  34.010  1.00  0.00    -0.203 F 
ATOM     96  C   UNL A   1      47.092  28.097  35.600  1.00  0.00     0.198 A 
ATOM     97  C   UNL A   1      45.807  26.178  36.258  1.00  0.00     0.198 A 
ATOM     98  F   UNL A   1      43.701  25.781  35.290  1.00  0.00    -0.203 F 
ATOM     99  F   UNL A   1      48.213  28.825  35.681  1.00  0.00    -0.200 F 
ATOM    100  C   UNL A   1      46.957  26.946  36.364  1.00  0.00     0.200 A 
ATOM    101  F   UNL A   1      45.670  25.073  37.006  1.00  0.00    -0.200 F 
ATOM    102  F   UNL A   1      47.938  26.575  37.197  1.00  0.00    -0.200 F 
ENDBRANCH  69  92
ENDBRANCH  43  44
ENDBRANCH  36  38
ENDBRANCH  35  36
ENDBRANCH  34  35
ENDBRANCH  33  34
ENDBRANCH  32  33
ENDBRANCH   1  32
TORSDOF 20
ENDMDL
MODEL 2
REMARK VINA RESULT:     -12.1      3.992      9.939
REMARK SMILES O=C(C[C@@H]([NH2+]Cc1cccnc1)C(=O)OCCOCCOC(=O)c1ccc(-c2c3nc(c(-c4c(F)c(F)c(F)c(F)c4F)c4ccc([nH]4)c(-c4c(F)c(F)c(F)c(F)c4F)c4nc(c(-c5c(F)c(F)c(F)c(F)c5F)c5ccc2[nH]5)C=C4)C=C3)cc1)Nc1ccc2ccccc2c1
REMARK SMILES IDX 17 1 16 2 15 3 13 4 14 5 4 6 3 7 2 8 1 9 87 10 88 12 89 13
REMARK SMILES IDX 97 14 90 15 96 16 91 17 95 18 92 19 94 20 93 21 5 22 6 25
REMARK SMILES IDX 7 26 8 27 12 28 9 29 11 30 10 31 18 32 19 33 20 34 21 35
REMARK SMILES IDX 22 36 23 37 24 38 25 39 86 40 26 41 85 42 27 43 28 44 29 45
REMARK SMILES IDX 79 46 30 47 84 48 78 49 80 50 31 51 83 52 77 53 76 54 32 56
REMARK SMILES IDX 64 57 44 58 63 59 45 60 48 61 62 62 81 63 46 64 47 65 61 67
REMARK SMILES IDX 82 68 49 69 33 70 34 71 42 72 35 73 36 74 40 75 43 76 37 77
REMARK SMILES IDX 38 78 41 79 39 80 65 81 66 82 74 83 67 84 68 85 72 86 75 87
REMARK SMILES IDX 69 88 70 89 73 90 71 91 50 92 51 93 59 94 52 95 53 96 57 97
REMARK SMILES IDX 60 98 54 99 55 100 58 101 56 102
REMARK H PARENT 87 11 5 23 5 24 80 55 48 66
REMARK Flexibility Score: inf
ROOT
ATOM      1  C   UNL A   1      35.401  24.080  25.308  1.00  0.00     0.202 C 
ENDROOT
BRANCH   1   2
ATOM      2  C   UNL A   1      34.401  25.166  24.892  1.00  0.00     0.261 C 
BRANCH   2   3
ATOM      3  O   UNL A   1      34.128  26.141  25.909  1.00  0.00    -0.459 OA
BRANCH   3   4
ATOM      4  C   UNL A   1      32.833  26.561  25.920  1.00  0.00     0.365 C 
ATOM      5  O   UNL A   1      32.435  27.508  26.589  1.00  0.00    -0.245 OA
BRANCH   4   6
ATOM      6  C   UNL A   1      31.898  25.720  25.035  1.00  0.00     0.303 C 
BRANCH   6   7
ATOM      7  C   UNL A   1      30.792  25.001  25.844  1.00  0.00     0.177 C 
BRANCH   7   8
ATOM      8  C   UNL A   1      30.739  23.505  25.561  1.00  0.00     0.231 C 
ATOM      9  O   UNL A   1      30.100  22.732  26.264  1.00  0.00    -0.274 OA
ATOM     10  N   UNL A   1      31.556  23.158  24.499  1.00  0.00    -0.326 N 
ATOM     11  H   UNL A   1      31.883  23.890  23.928  1.00  0.00     0.169 HD
BRANCH  10  12
ATOM     12  C   UNL A   1      31.958  21.857  24.166  1.00  0.00     0.041 A 
ATOM     13  C   UNL A   1      31.828  21.483  22.827  1.00  0.00     0.027 A 
ATOM     14  C   UNL A   1      32.401  20.929  25.108  1.00  0.00     0.034 A 
ATOM     15  C   UNL A   1      32.194  20.207  22.410  1.00  0.00     0.011 A 
ATOM     16  C   UNL A   1      32.646  19.594  24.719  1.00  0.00    -0.016 A 
ATOM     17  C   UNL A   1      32.574  19.244  23.348  1.00  0.00    -0.018 A 
ATOM     18  C   UNL A   1      32.922  18.581  25.653  1.00  0.00     0.009 A 
ATOM     19  C   UNL A   1      32.840  17.929  22.943  1.00  0.00     0.009 A 
ATOM     20  C   UNL A   1      33.126  17.259  25.241  1.00  0.00     0.001 A 
ATOM     21  C   UNL A   1      33.102  16.937  23.887  1.00  0.00     0.001 A 
ENDBRANCH  10  12
ENDBRANCH   7   8
ENDBRANCH   6   7
BRANCH   6  22
ATOM     22  N   UNL A   1      31.301  26.526  23.920  1.00  0.00    -0.330 N 
ATOM     23  H   UNL A   1      31.495  26.041  23.044  1.00  0.00     0.347 HD
ATOM     24  H   UNL A   1      31.730  27.449  23.983  1.00  0.00     0.347 HD
BRANCH  22  25
ATOM     25  C   UNL A   1      29.845  26.752  24.003  1.00  0.00     0.299 C 
BRANCH  25  26
ATOM     26  C   UNL A   1      29.356  27.941  23.220  1.00  0.00     0.024 A 
ATOM     27  C   UNL A   1      28.029  28.377  23.268  1.00  0.00     0.013 A 
ATOM     28  C   UNL A   1      30.232  28.666  22.416  1.00  0.00     0.120 A 
ATOM     29  C   UNL A   1      27.627  29.459  22.490  1.00  0.00     0.021 A 
ATOM     30  N   UNL A   1      29.872  29.733  21.666  1.00  0.00    -0.264 NA
ATOM     31  C   UNL A   1      28.576  30.095  21.709  1.00  0.00     0.111 A 
ENDBRANCH  25  26
ENDBRANCH  22  25
ENDBRANCH   6  22
ENDBRANCH   4   6
ENDBRANCH   3   4
ENDBRANCH   2   3
ENDBRANCH   1   2
BRANCH   1  32
ATOM     32  O   UNL A   1      36.129  23.403  24.292  1.00  0.00    -0.374 OA
BRANCH  32  33
ATOM     33  C   UNL A   1      36.020  21.984  24.194  1.00  0.00     0.202 C 
BRANCH  33  34
ATOM     34  C   UNL A   1      37.220  21.140  24.639  1.00  0.00     0.261 C 
BRANCH  34  35
ATOM     35  O   UNL A   1      37.680  21.503  25.955  1.00  0.00    -0.460 OA
BRANCH  35  36
ATOM     36  C   UNL A   1      39.015  21.351  26.148  1.00  0.00     0.338 C 
ATOM     37  O   UNL A   1      39.719  20.425  25.786  1.00  0.00    -0.246 OA
BRANCH  36  38
ATOM     38  C   UNL A   1      39.582  22.591  26.710  1.00  0.00     0.060 A 
ATOM     39  C   UNL A   1      39.104  23.810  26.208  1.00  0.00     0.016 A 
ATOM     40  C   UNL A   1      40.621  22.562  27.640  1.00  0.00     0.016 A 
ATOM     41  C   UNL A   1      39.687  25.007  26.613  1.00  0.00     0.010 A 
ATOM     42  C   UNL A   1      41.215  23.766  28.034  1.00  0.00     0.010 A 
ATOM     43  C   UNL A   1      40.768  24.990  27.503  1.00  0.00    -0.014 A 
BRANCH  43  44
ATOM     44  C   UNL A   1      41.503  26.245  27.787  1.00  0.00     0.031 A 
ATOM     45  C   UNL A   1      40.811  27.351  28.533  1.00  0.00     0.074 A 
ATOM     46  C   UNL A   1      42.783  26.386  27.401  1.00  0.00     0.049 A 
ATOM     47  N   UNL A   1      41.251  28.543  28.845  1.00  0.00    -0.248 NA
ATOM     48  C   UNL A   1      39.440  27.074  28.989  1.00  0.00     0.031 C 
ATOM     49  C   UNL A   1      43.572  25.369  26.712  1.00  0.00     0.029 A 
ATOM     50  N   UNL A   1      43.641  27.450  27.528  1.00  0.00    -0.354 N 
ATOM     51  C   UNL A   1      40.212  29.160  29.530  1.00  0.00     0.074 A 
ATOM     52  C   UNL A   1      39.111  28.221  29.566  1.00  0.00     0.031 C 
ATOM     53  C   UNL A   1      44.797  25.862  26.462  1.00  0.00     0.029 A 
ATOM     54  C   UNL A   1      44.864  27.241  26.943  1.00  0.00     0.049 A 
ATOM     55  H   UNL A   1      43.401  28.284  27.995  1.00  0.00     0.167 HD
ATOM     56  C   UNL A   1      40.184  30.396  30.085  1.00  0.00     0.037 A 
ATOM     57  C   UNL A   1      45.908  28.079  26.788  1.00  0.00     0.037 A 
ATOM     58  C   UNL A   1      41.282  31.327  30.046  1.00  0.00     0.049 A 
ATOM     59  C   UNL A   1      45.819  29.479  27.337  1.00  0.00     0.074 A 
ATOM     60  C   UNL A   1      41.362  32.591  30.604  1.00  0.00     0.029 A 
ATOM     61  N   UNL A   1      42.489  31.098  29.402  1.00  0.00    -0.354 N 
ATOM     62  N   UNL A   1      44.844  30.045  28.008  1.00  0.00    -0.248 NA
ATOM     63  C   UNL A   1      46.975  30.357  27.105  1.00  0.00     0.031 C 
ATOM     64  C   UNL A   1      42.595  33.148  30.252  1.00  0.00     0.029 A 
ATOM     65  C   UNL A   1      43.306  32.212  29.517  1.00  0.00     0.049 A 
ATOM     66  H   UNL A   1      42.729  30.267  28.932  1.00  0.00     0.167 HD
ATOM     67  C   UNL A   1      45.275  31.334  28.294  1.00  0.00     0.074 A 
ATOM     68  C   UNL A   1      46.607  31.461  27.740  1.00  0.00     0.031 C 
ATOM     69  C   UNL A   1      44.626  32.324  28.955  1.00  0.00     0.037 A 
BRANCH  56  70
ATOM     70  C   UNL A   1      38.915  30.825  30.760  1.00  0.00     0.064 A 
ATOM     71  C   UNL A   1      37.845  31.373  30.037  1.00  0.00     0.173 A 
ATOM     72  C   UNL A   1      38.753  30.646  32.142  1.00  0.00     0.173 A 
ATOM     73  F   UNL A   1      37.956  31.575  28.717  1.00  0.00    -0.203 F 
ATOM     74  C   UNL A   1      36.666  31.747  30.679  1.00  0.00     0.198 A 
ATOM     75  C   UNL A   1      37.563  30.996  32.775  1.00  0.00     0.198 A 
ATOM     76  F   UNL A   1      39.744  30.122  32.877  1.00  0.00    -0.203 F 
ATOM     77  F   UNL A   1      35.672  32.306  29.976  1.00  0.00    -0.200 F 
ATOM     78  C   UNL A   1      36.523  31.552  32.045  1.00  0.00     0.200 A 
ATOM     79  F   UNL A   1      37.423  30.796  34.093  1.00  0.00    -0.200 F 
ATOM     80  F   UNL A   1      35.385  31.905  32.659  1.00  0.00    -0.200 F 
ENDBRANCH  56  70
BRANCH  57  81
ATOM     81  C   UNL A   1      47.119  27.625  26.058  1.00  0.00     0.064 A 
ATOM     82  C   UNL A   1      47.191  27.692  24.660  1.00  0.00     0.173 A 
ATOM     83  C   UNL A   1      48.225  27.101  26.744  1.00  0.00     0.173 A 
ATOM     84  F   UNL A   1      46.148  28.160  23.959  1.00  0.00    -0.203 F 
ATOM     85  C   UNL A   1      48.316  27.238  23.976  1.00  0.00     0.198 A 
ATOM     86  C   UNL A   1      49.361  26.673  26.061  1.00  0.00     0.198 A 
ATOM     87  F   UNL A   1      48.205  27.013  28.083  1.00  0.00    -0.203 F 
ATOM     88  F   UNL A   1      48.342  27.273  22.636  1.00  0.00    -0.200 F 
ATOM     89  C   UNL A   1      49.402  26.736  24.676  1.00  0.00     0.200 A 
ATOM     90  F   UNL A   1      50.412  26.200  26.743  1.00  0.00    -0.200 F 
ATOM     91  F   UNL A   1      50.487  26.304  24.018  1.00  0.00    -0.200 F 
ENDBRANCH  57  81
BRANCH  69  92
ATOM     92  C   UNL A   1      45.352  33.627  29.130  1.00  0.00     0.064 A 
ATOM     93  C   UNL A   1      46.207  33.848  30.220  1.00  0.00     0.173 A 
ATOM     94  C   UNL A   1      45.224  34.649  28.177  1.00  0.00     0.173 A 
ATOM     95  F   UNL A   1      46.350  32.909  31.167  1.00  0.00    -0.203 F 
ATOM     96  C   UNL A   1      46.890  35.054  30.361  1.00  0.00     0.198 A 
ATOM     97  C   UNL A   1      45.932  35.841  28.305  1.00  0.00     0.198 A 
ATOM     98  F   UNL A   1      44.425  34.485  27.112  1.00  0.00    -0.203 F 
ATOM     99  F   UNL A   1      47.666  35.261  31.433  1.00  0.00    -0.200 F 
ATOM    100  C   UNL A   1      46.758  36.045  29.400  1.00  0.00     0.200 A 
ATOM    101  F   UNL A   1      45.813  36.793  27.369  1.00  0.00    -0.200 F 
ATOM    102  F   UNL A   1      47.422  37.202  29.532  1.00  0.00    -0.200 F 
ENDBRANCH  69  92
ENDBRANCH  43  44
ENDBRANCH  36  38
ENDBRANCH  35  36
ENDBRANCH  34  35
ENDBRANCH  33  34
ENDBRANCH  32  33
ENDBRANCH   1  32
TORSDOF 20
ENDMDL
MODEL 3
REMARK VINA RESULT:     -12.0      4.636      9.505
REMARK SMILES O=C(C[C@@H]([NH2+]Cc1cccnc1)C(=O)OCCOCCOC(=O)c1ccc(-c2c3nc(c(-c4c(F)c(F)c(F)c(F)c4F)c4ccc([nH]4)c(-c4c(F)c(F)c(F)c(F)c4F)c4nc(c(-c5c(F)c(F)c(F)c(F)c5F)c5ccc2[nH]5)C=C4)C=C3)cc1)Nc1ccc2ccccc2c1
REMARK SMILES IDX 17 1 16 2 15 3 13 4 14 5 4 6 3 7 2 8 1 9 87 10 88 12 89 13
REMARK SMILES IDX 97 14 90 15 96 16 91 17 95 18 92 19 94 20 93 21 5 22 6 25
REMARK SMILES IDX 7 26 8 27 12 28 9 29 11 30 10 31 18 32 19 33 20 34 21 35
REMARK SMILES IDX 22 36 23 37 24 38 25 39 86 40 26 41 85 42 27 43 28 44 29 45
REMARK SMILES IDX 79 46 30 47 84 48 78 49 80 50 31 51 83 52 77 53 76 54 32 56
REMARK SMILES IDX 64 57 44 58 63 59 45 60 48 61 62 62 81 63 46 64 47 65 61 67
REMARK SMILES IDX 82 68 49 69 33 70 34 71 42 72 35 73 36 74 40 75 43 76 37 77
REMARK SMILES IDX 38 78 41 79 39 80 65 81 66 82 74 83 67 84 68 85 72 86 75 87
REMARK SMILES IDX 69 88 70 89 73 90 71 91 50 92 51 93 59 94 52 95 53 96 57 97
REMARK SMILES IDX 60 98 54 99 55 100 58 101 56 102
REMARK H PARENT 87 11 5 23 5 24 80 55 48 66
REMARK Flexibility Score: inf
ROOT
ATOM      1  C   UNL A   1      38.196  23.246  25.738  1.00  0.00     0.202 C 
ENDROOT
BRANCH   1   2
ATOM      2  C   UNL A   1      36.716  23.392  26.111  1.00  0.00     0.261 C 
BRANCH   2   3
ATOM      3  O   UNL A   1      35.888  23.909  25.059  1.00  0.00    -0.459 OA
BRANCH   3   4
ATOM      4  C   UNL A   1      35.436  22.949  24.207  1.00  0.00     0.365 C 
ATOM      5  O   UNL A   1      35.977  22.682  23.139  1.00  0.00    -0.245 OA
BRANCH   4   6
ATOM      6  C   UNL A   1      34.159  22.239  24.689  1.00  0.00     0.303 C 
BRANCH   6   7
ATOM      7  C   UNL A   1      32.946  22.492  23.762  1.00  0.00     0.177 C 
BRANCH   7   8
ATOM      8  C   UNL A   1      32.588  23.970  23.657  1.00  0.00     0.231 C 
ATOM      9  O   UNL A   1      32.734  24.602  22.618  1.00  0.00    -0.274 OA
ATOM     10  N   UNL A   1      32.183  24.484  24.876  1.00  0.00    -0.326 N 
ATOM     11  H   UNL A   1      31.958  23.837  25.583  1.00  0.00     0.169 HD
BRANCH  10  12
ATOM     12  C   UNL A   1      32.063  25.845  25.192  1.00  0.00     0.041 A 
ATOM     13  C   UNL A   1      31.163  26.589  24.427  1.00  0.00     0.027 A 
ATOM     14  C   UNL A   1      32.839  26.475  26.164  1.00  0.00     0.034 A 
ATOM     15  C   UNL A   1      30.989  27.949  24.666  1.00  0.00     0.011 A 
ATOM     16  C   UNL A   1      32.767  27.876  26.321  1.00  0.00    -0.016 A 
ATOM     17  C   UNL A   1      31.805  28.611  25.586  1.00  0.00    -0.018 A 
ATOM     18  C   UNL A   1      33.649  28.581  27.158  1.00  0.00     0.009 A 
ATOM     19  C   UNL A   1      31.704  29.999  25.752  1.00  0.00     0.009 A 
ATOM     20  C   UNL A   1      33.577  29.974  27.267  1.00  0.00     0.001 A 
ATOM     21  C   UNL A   1      32.595  30.680  26.579  1.00  0.00     0.001 A 
ENDBRANCH  10  12
ENDBRANCH   7   8
ENDBRANCH   6   7
BRANCH   6  22
ATOM     22  N   UNL A   1      34.374  20.769  24.893  1.00  0.00    -0.330 N 
ATOM     23  H   UNL A   1      34.298  20.577  25.892  1.00  0.00     0.347 HD
ATOM     24  H   UNL A   1      35.295  20.565  24.504  1.00  0.00     0.347 HD
BRANCH  22  25
ATOM     25  C   UNL A   1      33.431  19.881  24.186  1.00  0.00     0.299 C 
BRANCH  25  26
ATOM     26  C   UNL A   1      33.524  18.433  24.587  1.00  0.00     0.024 A 
ATOM     27  C   UNL A   1      34.594  17.616  24.208  1.00  0.00     0.013 A 
ATOM     28  C   UNL A   1      32.533  17.853  25.375  1.00  0.00     0.120 A 
ATOM     29  C   UNL A   1      34.604  16.274  24.576  1.00  0.00     0.021 A 
ATOM     30  N   UNL A   1      32.529  16.558  25.763  1.00  0.00    -0.264 NA
ATOM     31  C   UNL A   1      33.556  15.795  25.342  1.00  0.00     0.111 A 
ENDBRANCH  25  26
ENDBRANCH  22  25
ENDBRANCH   6  22
ENDBRANCH   4   6
ENDBRANCH   3   4
ENDBRANCH   2   3
ENDBRANCH   1   2
BRANCH   1  32
ATOM     32  O   UNL A   1      38.838  22.002  25.985  1.00  0.00    -0.374 OA
BRANCH  32  33
ATOM     33  C   UNL A   1      38.378  20.840  25.296  1.00  0.00     0.202 C 
BRANCH  33  34
ATOM     34  C   UNL A   1      39.205  19.556  25.425  1.00  0.00     0.261 C 
BRANCH  34  35
ATOM     35  O   UNL A   1      40.105  19.600  26.549  1.00  0.00    -0.460 OA
BRANCH  35  36
ATOM     36  C   UNL A   1      41.413  19.434  26.232  1.00  0.00     0.338 C 
ATOM     37  O   UNL A   1      41.931  18.476  25.686  1.00  0.00    -0.246 OA
BRANCH  36  38
ATOM     38  C   UNL A   1      42.146  20.693  26.462  1.00  0.00     0.060 A 
ATOM     39  C   UNL A   1      42.273  21.139  27.785  1.00  0.00     0.016 A 
ATOM     40  C   UNL A   1      42.620  21.466  25.402  1.00  0.00     0.016 A 
ATOM     41  C   UNL A   1      42.848  22.379  28.051  1.00  0.00     0.010 A 
ATOM     42  C   UNL A   1      43.183  22.718  25.670  1.00  0.00     0.010 A 
ATOM     43  C   UNL A   1      43.276  23.190  26.993  1.00  0.00    -0.014 A 
BRANCH  43  44
ATOM     44  C   UNL A   1      43.715  24.579  27.266  1.00  0.00     0.031 A 
ATOM     45  C   UNL A   1      42.701  25.599  27.701  1.00  0.00     0.074 A 
ATOM     46  C   UNL A   1      45.010  24.919  27.147  1.00  0.00     0.049 A 
ATOM     47  N   UNL A   1      42.859  26.874  27.946  1.00  0.00    -0.248 NA
ATOM     48  C   UNL A   1      41.323  25.115  27.885  1.00  0.00     0.031 C 
ATOM     49  C   UNL A   1      46.089  24.008  26.777  1.00  0.00     0.029 A 
ATOM     50  N   UNL A   1      45.633  26.130  27.318  1.00  0.00    -0.354 N 
ATOM     51  C   UNL A   1      41.605  27.347  28.310  1.00  0.00     0.074 A 
ATOM     52  C   UNL A   1      40.691  26.228  28.229  1.00  0.00     0.031 C 
ATOM     53  C   UNL A   1      47.243  24.695  26.733  1.00  0.00     0.029 A 
ATOM     54  C   UNL A   1      46.976  26.099  27.038  1.00  0.00     0.049 A 
ATOM     55  H   UNL A   1      45.161  26.943  27.614  1.00  0.00     0.167 HD
ATOM     56  C   UNL A   1      41.252  28.600  28.685  1.00  0.00     0.037 A 
ATOM     57  C   UNL A   1      47.879  27.099  27.004  1.00  0.00     0.037 A 
ATOM     58  C   UNL A   1      42.165  29.711  28.763  1.00  0.00     0.049 A 
ATOM     59  C   UNL A   1      47.442  28.501  27.340  1.00  0.00     0.074 A 
ATOM     60  C   UNL A   1      41.910  31.011  29.161  1.00  0.00     0.029 A 
ATOM     61  N   UNL A   1      43.509  29.653  28.425  1.00  0.00    -0.354 N 
ATOM     62  N   UNL A   1      46.261  28.934  27.711  1.00  0.00    -0.248 NA
ATOM     63  C   UNL A   1      48.465  29.553  27.251  1.00  0.00     0.031 C 
ATOM     64  C   UNL A   1      43.086  31.753  29.012  1.00  0.00     0.029 A 
ATOM     65  C   UNL A   1      44.088  30.904  28.570  1.00  0.00     0.049 A 
ATOM     66  H   UNL A   1      43.981  28.842  28.127  1.00  0.00     0.167 HD
ATOM     67  C   UNL A   1      46.402  30.301  27.916  1.00  0.00     0.074 A 
ATOM     68  C   UNL A   1      47.788  30.622  27.647  1.00  0.00     0.031 C 
ATOM     69  C   UNL A   1      45.468  31.208  28.293  1.00  0.00     0.037 A 
BRANCH  56  70
ATOM     70  C   UNL A   1      39.809  28.845  29.014  1.00  0.00     0.064 A 
ATOM     71  C   UNL A   1      39.304  28.646  30.308  1.00  0.00     0.173 A 
ATOM     72  C   UNL A   1      38.930  29.326  28.032  1.00  0.00     0.173 A 
ATOM     73  F   UNL A   1      40.101  28.176  31.279  1.00  0.00    -0.203 F 
ATOM     74  C   UNL A   1      37.965  28.899  30.600  1.00  0.00     0.198 A 
ATOM     75  C   UNL A   1      37.600  29.603  28.335  1.00  0.00     0.198 A 
ATOM     76  F   UNL A   1      39.365  29.537  26.781  1.00  0.00    -0.203 F 
ATOM     77  F   UNL A   1      37.495  28.664  31.832  1.00  0.00    -0.200 F 
ATOM     78  C   UNL A   1      37.117  29.384  29.616  1.00  0.00     0.200 A 
ATOM     79  F   UNL A   1      36.784  30.082  27.385  1.00  0.00    -0.200 F 
ATOM     80  F   UNL A   1      35.831  29.635  29.901  1.00  0.00    -0.200 F 
ENDBRANCH  56  70
BRANCH  57  81
ATOM     81  C   UNL A   1      49.283  26.814  26.614  1.00  0.00     0.064 A 
ATOM     82  C   UNL A   1      49.680  26.832  25.269  1.00  0.00     0.173 A 
ATOM     83  C   UNL A   1      50.255  26.502  27.576  1.00  0.00     0.173 A 
ATOM     84  F   UNL A   1      48.780  27.098  24.311  1.00  0.00    -0.203 F 
ATOM     85  C   UNL A   1      50.990  26.536  24.902  1.00  0.00     0.198 A 
ATOM     86  C   UNL A   1      51.572  26.233  27.210  1.00  0.00     0.198 A 
ATOM     87  F   UNL A   1      49.926  26.468  28.876  1.00  0.00    -0.203 F 
ATOM     88  F   UNL A   1      51.333  26.518  23.607  1.00  0.00    -0.200 F 
ATOM     89  C   UNL A   1      51.937  26.243  25.873  1.00  0.00     0.200 A 
ATOM     90  F   UNL A   1      52.485  25.962  28.153  1.00  0.00    -0.200 F 
ATOM     91  F   UNL A   1      53.198  25.963  25.519  1.00  0.00    -0.200 F 
ENDBRANCH  57  81
BRANCH  69  92
ATOM     92  C   UNL A   1      45.915  32.632  28.452  1.00  0.00     0.064 A 
ATOM     93  C   UNL A   1      45.826  33.551  27.395  1.00  0.00     0.173 A 
ATOM     94  C   UNL A   1      46.401  33.094  29.685  1.00  0.00     0.173 A 
ATOM     95  F   UNL A   1      45.385  33.154  26.192  1.00  0.00    -0.203 F 
ATOM     96  C   UNL A   1      46.226  34.874  27.561  1.00  0.00     0.198 A 
ATOM     97  C   UNL A   1      46.772  34.425  29.856  1.00  0.00     0.198 A 
ATOM     98  F   UNL A   1      46.500  32.257  30.729  1.00  0.00    -0.203 F 
ATOM     99  F   UNL A   1      46.174  35.723  26.527  1.00  0.00    -0.200 F 
ATOM    100  C   UNL A   1      46.692  35.311  28.793  1.00  0.00     0.200 A 
ATOM    101  F   UNL A   1      47.209  34.849  31.050  1.00  0.00    -0.200 F 
ATOM    102  F   UNL A   1      47.068  36.588  28.953  1.00  0.00    -0.200 F 
ENDBRANCH  69  92
ENDBRANCH  43  44
ENDBRANCH  36  38
ENDBRANCH  35  36
ENDBRANCH  34  35
ENDBRANCH  33  34
ENDBRANCH  32  33
ENDBRANCH   1  32
TORSDOF 20
ENDMDL
