MODEL 1
REMARK VINA RESULT:     -10.8      0.000      0.000
REMARK SMILES CC(C)C[C@H](CNC(=O)NC[C@H]1CCC(=O)N1)C(=O)OCCOCCOC(=O)c1ccc(-c2c3nc(c(-c4c(F)c(F)c(F)c(F)c4F)c4ccc([nH]4)c(-c4c(F)c(F)c(F)c(F)c4F)c4nc(c(-c5c(F)c(F)c(F)c(F)c5F)c5ccc2[nH]5)C=C4)C=C3)cc1
REMARK SMILES IDX 22 1 21 2 20 3 18 4 19 5 5 6 4 7 2 8 1 9 3 10 6 11 7 12 8 13
REMARK SMILES IDX 9 15 10 16 11 18 12 19 13 20 17 21 14 22 15 23 16 25 23 26
REMARK SMILES IDX 24 27 25 28 26 29 27 30 28 31 29 32 30 33 91 34 31 35 90 36
REMARK SMILES IDX 32 37 33 38 34 39 84 40 35 41 89 42 83 43 85 44 36 45 88 46
REMARK SMILES IDX 82 47 81 48 37 50 69 51 49 52 68 53 50 54 53 55 67 56 86 57
REMARK SMILES IDX 51 58 52 59 66 61 87 62 54 63 38 64 39 65 47 66 40 67 41 68
REMARK SMILES IDX 45 69 48 70 42 71 43 72 46 73 44 74 70 75 71 76 79 77 72 78
REMARK SMILES IDX 73 79 77 80 80 81 74 82 75 83 78 84 76 85 55 86 56 87 64 88
REMARK SMILES IDX 57 89 58 90 62 91 65 92 59 93 60 94 63 95 61 96
REMARK H PARENT 7 14 10 17 17 24 85 49 53 60
REMARK Flexibility Score: inf
ROOT
ATOM      1  C   UNL A   1      36.738  22.395  25.837  1.00  0.00     0.202 C 
ENDROOT
BRANCH   1   2
ATOM      2  C   UNL A   1      36.401  23.700  25.098  1.00  0.00     0.261 C 
BRANCH   2   3
ATOM      3  O   UNL A   1      35.074  23.767  24.546  1.00  0.00    -0.463 OA
BRANCH   3   4
ATOM      4  C   UNL A   1      34.966  23.260  23.290  1.00  0.00     0.310 C 
ATOM      5  O   UNL A   1      35.927  22.973  22.583  1.00  0.00    -0.252 OA
BRANCH   4   6
ATOM      6  C   UNL A   1      33.534  23.076  22.804  1.00  0.00     0.119 C 
BRANCH   6   7
ATOM      7  C   UNL A   1      32.791  24.385  23.155  1.00  0.00     0.020 C 
BRANCH   7   8
ATOM      8  C   UNL A   1      33.225  25.572  22.269  1.00  0.00    -0.017 C 
ATOM      9  C   UNL A   1      32.142  25.930  21.248  1.00  0.00     0.007 C 
ATOM     10  C   UNL A   1      33.545  26.787  23.140  1.00  0.00     0.007 C 
ENDBRANCH   7   8
ENDBRANCH   6   7
BRANCH   6  11
ATOM     11  C   UNL A   1      32.803  21.820  23.314  1.00  0.00     0.133 C 
BRANCH  11  12
ATOM     12  N   UNL A   1      33.364  21.355  24.591  1.00  0.00    -0.337 N 
ATOM     13  C   UNL A   1      33.253  20.291  25.387  1.00  0.00     0.314 C 
ATOM     14  H   UNL A   1      33.997  22.013  24.961  1.00  0.00     0.165 HD
ATOM     15  O   UNL A   1      33.642  20.413  26.552  1.00  0.00    -0.249 OA
ATOM     16  N   UNL A   1      32.786  19.095  25.027  1.00  0.00    -0.336 N 
ATOM     17  H   UNL A   1      32.543  18.530  25.795  1.00  0.00     0.165 HD
BRANCH  16  18
ATOM     18  C   UNL A   1      32.559  18.444  23.749  1.00  0.00     0.142 C 
BRANCH  18  19
ATOM     19  C   UNL A   1      33.468  17.213  23.563  1.00  0.00     0.101 C 
ATOM     20  C   UNL A   1      34.822  17.341  24.259  1.00  0.00     0.036 C 
ATOM     21  N   UNL A   1      32.891  16.018  24.107  1.00  0.00    -0.352 N 
ATOM     22  C   UNL A   1      34.861  16.253  25.330  1.00  0.00     0.102 C 
ATOM     23  C   UNL A   1      33.621  15.443  25.106  1.00  0.00     0.220 C 
ATOM     24  H   UNL A   1      32.039  15.643  23.785  1.00  0.00     0.163 HD
ATOM     25  O   UNL A   1      33.289  14.445  25.729  1.00  0.00    -0.275 OA
ENDBRANCH  18  19
ENDBRANCH  16  18
ENDBRANCH  11  12
ENDBRANCH   6  11
ENDBRANCH   4   6
ENDBRANCH   3   4
ENDBRANCH   2   3
ENDBRANCH   1   2
BRANCH   1  26
ATOM     26  O   UNL A   1      37.934  21.708  25.493  1.00  0.00    -0.374 OA
BRANCH  26  27
ATOM     27  C   UNL A   1      37.839  20.377  25.002  1.00  0.00     0.202 C 
BRANCH  27  28
ATOM     28  C   UNL A   1      38.947  19.387  25.371  1.00  0.00     0.261 C 
BRANCH  28  29
ATOM     29  O   UNL A   1      39.819  19.844  26.421  1.00  0.00    -0.460 OA
BRANCH  29  30
ATOM     30  C   UNL A   1      41.132  19.597  26.185  1.00  0.00     0.338 C 
ATOM     31  O   UNL A   1      41.618  18.562  25.756  1.00  0.00    -0.246 OA
BRANCH  30  32
ATOM     32  C   UNL A   1      41.964  20.784  26.413  1.00  0.00     0.060 A 
ATOM     33  C   UNL A   1      42.265  21.118  27.736  1.00  0.00     0.016 A 
ATOM     34  C   UNL A   1      42.235  21.677  25.376  1.00  0.00     0.016 A 
ATOM     35  C   UNL A   1      42.776  22.378  28.028  1.00  0.00     0.010 A 
ATOM     36  C   UNL A   1      42.768  22.936  25.669  1.00  0.00     0.010 A 
ATOM     37  C   UNL A   1      42.996  23.311  27.002  1.00  0.00    -0.014 A 
BRANCH  37  38
ATOM     38  C   UNL A   1      43.386  24.698  27.359  1.00  0.00     0.031 A 
ATOM     39  C   UNL A   1      44.787  25.183  27.101  1.00  0.00     0.074 A 
ATOM     40  C   UNL A   1      42.455  25.536  27.848  1.00  0.00     0.049 A 
ATOM     41  N   UNL A   1      45.296  26.377  27.276  1.00  0.00    -0.248 NA
ATOM     42  C   UNL A   1      45.745  24.196  26.578  1.00  0.00     0.031 C 
ATOM     43  C   UNL A   1      41.068  25.172  28.136  1.00  0.00     0.029 A 
ATOM     44  N   UNL A   1      42.530  26.865  28.177  1.00  0.00    -0.354 N 
ATOM     45  C   UNL A   1      46.624  26.289  26.875  1.00  0.00     0.074 A 
ATOM     46  C   UNL A   1      46.859  24.912  26.499  1.00  0.00     0.031 C 
ATOM     47  C   UNL A   1      40.417  26.254  28.588  1.00  0.00     0.029 A 
ATOM     48  C   UNL A   1      41.349  27.377  28.653  1.00  0.00     0.049 A 
ATOM     49  H   UNL A   1      43.351  27.399  28.082  1.00  0.00     0.167 HD
ATOM     50  C   UNL A   1      47.554  27.272  26.808  1.00  0.00     0.037 A 
ATOM     51  C   UNL A   1      41.057  28.612  29.103  1.00  0.00     0.037 A 
ATOM     52  C   UNL A   1      47.316  28.639  27.199  1.00  0.00     0.049 A 
ATOM     53  C   UNL A   1      42.125  29.671  29.066  1.00  0.00     0.074 A 
ATOM     54  C   UNL A   1      48.187  29.714  27.170  1.00  0.00     0.029 A 
ATOM     55  N   UNL A   1      46.112  29.117  27.702  1.00  0.00    -0.354 N 
ATOM     56  N   UNL A   1      43.363  29.588  28.644  1.00  0.00    -0.248 NA
ATOM     57  C   UNL A   1      41.748  31.004  29.555  1.00  0.00     0.031 C 
ATOM     58  C   UNL A   1      47.529  30.827  27.703  1.00  0.00     0.029 A 
ATOM     59  C   UNL A   1      46.226  30.465  28.003  1.00  0.00     0.049 A 
ATOM     60  H   UNL A   1      45.298  28.578  27.825  1.00  0.00     0.167 HD
ATOM     61  C   UNL A   1      43.905  30.857  28.791  1.00  0.00     0.074 A 
ATOM     62  C   UNL A   1      42.850  31.700  29.314  1.00  0.00     0.031 C 
ATOM     63  C   UNL A   1      45.164  31.289  28.524  1.00  0.00     0.037 A 
BRANCH  50  64
ATOM     64  C   UNL A   1      48.922  26.908  26.298  1.00  0.00     0.064 A 
ATOM     65  C   UNL A   1      49.909  26.386  27.149  1.00  0.00     0.173 A 
ATOM     66  C   UNL A   1      49.235  27.031  24.935  1.00  0.00     0.173 A 
ATOM     67  F   UNL A   1      49.668  26.254  28.462  1.00  0.00    -0.203 F 
ATOM     68  C   UNL A   1      51.164  26.028  26.660  1.00  0.00     0.198 A 
ATOM     69  C   UNL A   1      50.479  26.641  24.445  1.00  0.00     0.198 A 
ATOM     70  F   UNL A   1      48.328  27.514  24.073  1.00  0.00    -0.203 F 
ATOM     71  F   UNL A   1      52.105  25.575  27.501  1.00  0.00    -0.200 F 
ATOM     72  C   UNL A   1      51.445  26.149  25.308  1.00  0.00     0.200 A 
ATOM     73  F   UNL A   1      50.743  26.741  23.135  1.00  0.00    -0.200 F 
ATOM     74  F   UNL A   1      52.649  25.792  24.837  1.00  0.00    -0.200 F 
ENDBRANCH  50  64
BRANCH  51  75
ATOM     75  C   UNL A   1      39.700  28.907  29.634  1.00  0.00     0.064 A 
ATOM     76  C   UNL A   1      39.371  28.661  30.974  1.00  0.00     0.173 A 
ATOM     77  C   UNL A   1      38.696  29.424  28.801  1.00  0.00     0.173 A 
ATOM     78  F   UNL A   1      40.291  28.153  31.808  1.00  0.00    -0.203 F 
ATOM     79  C   UNL A   1      38.081  28.888  31.452  1.00  0.00     0.198 A 
ATOM     80  C   UNL A   1      37.417  29.685  29.289  1.00  0.00     0.198 A 
ATOM     81  F   UNL A   1      38.959  29.684  27.512  1.00  0.00    -0.203 F 
ATOM     82  F   UNL A   1      37.777  28.587  32.722  1.00  0.00    -0.200 F 
ATOM     83  C   UNL A   1      37.107  29.405  30.611  1.00  0.00     0.200 A 
ATOM     84  F   UNL A   1      36.486  30.204  28.477  1.00  0.00    -0.200 F 
ATOM     85  F   UNL A   1      35.868  29.625  31.070  1.00  0.00    -0.200 F 
ENDBRANCH  51  75
BRANCH  63  86
ATOM     86  C   UNL A   1      45.449  32.746  28.758  1.00  0.00     0.064 A 
ATOM     87  C   UNL A   1      45.231  33.712  27.762  1.00  0.00     0.173 A 
ATOM     88  C   UNL A   1      45.941  33.183  29.998  1.00  0.00     0.173 A 
ATOM     89  F   UNL A   1      44.776  33.347  26.555  1.00  0.00    -0.203 F 
ATOM     90  C   UNL A   1      45.539  35.053  27.985  1.00  0.00     0.198 A 
ATOM     91  C   UNL A   1      46.209  34.529  30.229  1.00  0.00     0.198 A 
ATOM     92  F   UNL A   1      46.158  32.305  30.988  1.00  0.00    -0.203 F 
ATOM     93  F   UNL A   1      45.391  35.943  26.996  1.00  0.00    -0.200 F 
ATOM     94  C   UNL A   1      46.022  35.460  29.219  1.00  0.00     0.200 A 
ATOM     95  F   UNL A   1      46.659  34.925  31.429  1.00  0.00    -0.200 F 
ATOM     96  F   UNL A   1      46.318  36.750  29.431  1.00  0.00    -0.200 F 
ENDBRANCH  63  86
ENDBRANCH  37  38
ENDBRANCH  30  32
ENDBRANCH  29  30
ENDBRANCH  28  29
ENDBRANCH  27  28
ENDBRANCH  26  27
ENDBRANCH   1  26
TORSDOF 20
ENDMDL
MODEL 2
REMARK VINA RESULT:     -10.8      0.813      7.465
REMARK SMILES CC(C)C[C@H](CNC(=O)NC[C@H]1CCC(=O)N1)C(=O)OCCOCCOC(=O)c1ccc(-c2c3nc(c(-c4c(F)c(F)c(F)c(F)c4F)c4ccc([nH]4)c(-c4c(F)c(F)c(F)c(F)c4F)c4nc(c(-c5c(F)c(F)c(F)c(F)c5F)c5ccc2[nH]5)C=C4)C=C3)cc1
REMARK SMILES IDX 22 1 21 2 20 3 18 4 19 5 5 6 4 7 2 8 1 9 3 10 6 11 7 12 8 13
REMARK SMILES IDX 9 15 10 16 11 18 12 19 13 20 17 21 14 22 15 23 16 25 23 26
REMARK SMILES IDX 24 27 25 28 26 29 27 30 28 31 29 32 30 33 91 34 31 35 90 36
REMARK SMILES IDX 32 37 33 38 34 39 84 40 35 41 89 42 83 43 85 44 36 45 88 46
REMARK SMILES IDX 82 47 81 48 37 50 69 51 49 52 68 53 50 54 53 55 67 56 86 57
REMARK SMILES IDX 51 58 52 59 66 61 87 62 54 63 38 64 39 65 47 66 40 67 41 68
REMARK SMILES IDX 45 69 48 70 42 71 43 72 46 73 44 74 70 75 71 76 79 77 72 78
REMARK SMILES IDX 73 79 77 80 80 81 74 82 75 83 78 84 76 85 55 86 56 87 64 88
REMARK SMILES IDX 57 89 58 90 62 91 65 92 59 93 60 94 63 95 61 96
REMARK H PARENT 7 14 10 17 17 24 85 49 53 60
REMARK Flexibility Score: inf
ROOT
ATOM      1  C   UNL A   1      37.036  22.137  25.648  1.00  0.00     0.202 C 
ENDROOT
BRANCH   1   2
ATOM      2  C   UNL A   1      37.054  23.654  25.402  1.00  0.00     0.261 C 
BRANCH   2   3
ATOM      3  O   UNL A   1      35.799  24.223  24.985  1.00  0.00    -0.463 OA
BRANCH   3   4
ATOM      4  C   UNL A   1      35.371  23.795  23.769  1.00  0.00     0.310 C 
ATOM      5  O   UNL A   1      36.115  23.366  22.893  1.00  0.00    -0.252 OA
BRANCH   4   6
ATOM      6  C   UNL A   1      33.866  23.897  23.557  1.00  0.00     0.119 C 
BRANCH   6   7
ATOM      7  C   UNL A   1      33.454  25.295  24.071  1.00  0.00     0.020 C 
BRANCH   7   8
ATOM      8  C   UNL A   1      32.770  26.151  22.984  1.00  0.00    -0.017 C 
ATOM      9  C   UNL A   1      33.371  27.558  22.923  1.00  0.00     0.007 C 
ATOM     10  C   UNL A   1      32.896  25.469  21.623  1.00  0.00     0.007 C 
ENDBRANCH   7   8
ENDBRANCH   6   7
BRANCH   6  11
ATOM     11  C   UNL A   1      33.019  22.764  24.168  1.00  0.00     0.133 C 
BRANCH  11  12
ATOM     12  N   UNL A   1      33.299  22.599  25.602  1.00  0.00    -0.337 N 
ATOM     13  C   UNL A   1      33.364  21.602  26.485  1.00  0.00     0.314 C 
ATOM     14  H   UNL A   1      33.491  23.466  26.027  1.00  0.00     0.165 HD
ATOM     15  O   UNL A   1      33.305  21.902  27.681  1.00  0.00    -0.249 OA
ATOM     16  N   UNL A   1      33.518  20.311  26.191  1.00  0.00    -0.336 N 
ATOM     17  H   UNL A   1      33.287  19.716  26.940  1.00  0.00     0.165 HD
BRANCH  16  18
ATOM     18  C   UNL A   1      33.954  19.591  25.008  1.00  0.00     0.142 C 
BRANCH  18  19
ATOM     19  C   UNL A   1      33.231  18.237  24.862  1.00  0.00     0.101 C 
ATOM     20  C   UNL A   1      33.225  17.697  23.432  1.00  0.00     0.036 C 
ATOM     21  N   UNL A   1      33.847  17.201  25.639  1.00  0.00    -0.352 N 
ATOM     22  C   UNL A   1      34.027  16.399  23.458  1.00  0.00     0.102 C 
ATOM     23  C   UNL A   1      34.320  16.151  24.907  1.00  0.00     0.220 C 
ATOM     24  H   UNL A   1      33.921  17.243  26.620  1.00  0.00     0.163 HD
ATOM     25  O   UNL A   1      34.912  15.187  25.368  1.00  0.00    -0.275 OA
ENDBRANCH  18  19
ENDBRANCH  16  18
ENDBRANCH  11  12
ENDBRANCH   6  11
ENDBRANCH   4   6
ENDBRANCH   3   4
ENDBRANCH   2   3
ENDBRANCH   1   2
BRANCH   1  26
ATOM     26  O   UNL A   1      37.816  21.302  24.803  1.00  0.00    -0.374 OA
BRANCH  26  27
ATOM     27  C   UNL A   1      37.766  19.894  24.999  1.00  0.00     0.202 C 
BRANCH  27  28
ATOM     28  C   UNL A   1      39.059  19.167  25.375  1.00  0.00     0.261 C 
BRANCH  28  29
ATOM     29  O   UNL A   1      39.920  19.915  26.255  1.00  0.00    -0.460 OA
BRANCH  29  30
ATOM     30  C   UNL A   1      41.233  19.599  26.128  1.00  0.00     0.338 C 
ATOM     31  O   UNL A   1      41.702  18.512  25.827  1.00  0.00    -0.246 OA
BRANCH  30  32
ATOM     32  C   UNL A   1      42.099  20.772  26.302  1.00  0.00     0.060 A 
ATOM     33  C   UNL A   1      42.278  21.256  27.600  1.00  0.00     0.016 A 
ATOM     34  C   UNL A   1      42.521  21.517  25.201  1.00  0.00     0.016 A 
ATOM     35  C   UNL A   1      42.822  22.522  27.793  1.00  0.00     0.010 A 
ATOM     36  C   UNL A   1      43.087  22.781  25.397  1.00  0.00     0.010 A 
ATOM     37  C   UNL A   1      43.195  23.310  26.692  1.00  0.00    -0.014 A 
BRANCH  37  38
ATOM     38  C   UNL A   1      43.619  24.714  26.921  1.00  0.00     0.031 A 
ATOM     39  C   UNL A   1      42.633  25.732  27.426  1.00  0.00     0.074 A 
ATOM     40  C   UNL A   1      44.909  25.048  26.741  1.00  0.00     0.049 A 
ATOM     41  N   UNL A   1      42.830  26.985  27.755  1.00  0.00    -0.248 NA
ATOM     42  C   UNL A   1      41.240  25.285  27.583  1.00  0.00     0.031 C 
ATOM     43  C   UNL A   1      45.949  24.141  26.254  1.00  0.00     0.029 A 
ATOM     44  N   UNL A   1      45.567  26.232  26.954  1.00  0.00    -0.354 N 
ATOM     45  C   UNL A   1      41.594  27.471  28.167  1.00  0.00     0.074 A 
ATOM     46  C   UNL A   1      40.642  26.395  27.996  1.00  0.00     0.031 C 
ATOM     47  C   UNL A   1      47.118  24.797  26.218  1.00  0.00     0.029 A 
ATOM     48  C   UNL A   1      46.903  26.178  26.645  1.00  0.00     0.049 A 
ATOM     49  H   UNL A   1      45.124  27.041  27.295  1.00  0.00     0.167 HD
ATOM     50  C   UNL A   1      41.289  28.695  28.661  1.00  0.00     0.037 A 
ATOM     51  C   UNL A   1      47.844  27.139  26.690  1.00  0.00     0.037 A 
ATOM     52  C   UNL A   1      42.242  29.765  28.814  1.00  0.00     0.049 A 
ATOM     53  C   UNL A   1      47.465  28.505  27.195  1.00  0.00     0.074 A 
ATOM     54  C   UNL A   1      42.039  31.043  29.306  1.00  0.00     0.029 A 
ATOM     55  N   UNL A   1      43.585  29.683  28.467  1.00  0.00    -0.354 N 
ATOM     56  N   UNL A   1      46.305  28.940  27.622  1.00  0.00    -0.248 NA
ATOM     57  C   UNL A   1      48.534  29.511  27.237  1.00  0.00     0.031 C 
ATOM     58  C   UNL A   1      43.243  31.748  29.207  1.00  0.00     0.029 A 
ATOM     59  C   UNL A   1      44.215  30.892  28.716  1.00  0.00     0.049 A 
ATOM     60  H   UNL A   1      44.023  28.883  28.098  1.00  0.00     0.167 HD
ATOM     61  C   UNL A   1      46.507  30.258  28.007  1.00  0.00     0.074 A 
ATOM     62  C   UNL A   1      47.911  30.542  27.790  1.00  0.00     0.031 C 
ATOM     63  C   UNL A   1      45.614  31.157  28.493  1.00  0.00     0.037 A 
BRANCH  50  64
ATOM     64  C   UNL A   1      39.864  28.949  29.070  1.00  0.00     0.064 A 
ATOM     65  C   UNL A   1      38.903  29.392  28.147  1.00  0.00     0.173 A 
ATOM     66  C   UNL A   1      39.438  28.699  30.384  1.00  0.00     0.173 A 
ATOM     67  F   UNL A   1      39.254  29.654  26.879  1.00  0.00    -0.203 F 
ATOM     68  C   UNL A   1      37.579  29.600  28.530  1.00  0.00     0.198 A 
ATOM     69  C   UNL A   1      38.108  28.876  30.755  1.00  0.00     0.198 A 
ATOM     70  F   UNL A   1      40.311  28.265  31.306  1.00  0.00    -0.203 F 
ATOM     71  F   UNL A   1      36.690  30.066  27.642  1.00  0.00    -0.200 F 
ATOM     72  C   UNL A   1      37.181  29.334  29.832  1.00  0.00     0.200 A 
ATOM     73  F   UNL A   1      37.721  28.602  32.009  1.00  0.00    -0.200 F 
ATOM     74  F   UNL A   1      35.905  29.522  30.196  1.00  0.00    -0.200 F 
ENDBRANCH  50  64
BRANCH  51  75
ATOM     75  C   UNL A   1      49.229  26.844  26.237  1.00  0.00     0.064 A 
ATOM     76  C   UNL A   1      49.606  26.994  24.895  1.00  0.00     0.173 A 
ATOM     77  C   UNL A   1      50.201  26.385  27.138  1.00  0.00     0.173 A 
ATOM     78  F   UNL A   1      48.710  27.416  23.990  1.00  0.00    -0.203 F 
ATOM     79  C   UNL A   1      50.890  26.663  24.467  1.00  0.00     0.198 A 
ATOM     80  C   UNL A   1      51.496  26.090  26.715  1.00  0.00     0.198 A 
ATOM     81  F   UNL A   1      49.897  26.230  28.435  1.00  0.00    -0.203 F 
ATOM     82  F   UNL A   1      51.206  26.757  23.167  1.00  0.00    -0.200 F 
ATOM     83  C   UNL A   1      51.836  26.217  25.378  1.00  0.00     0.200 A 
ATOM     84  F   UNL A   1      52.411  25.679  27.605  1.00  0.00    -0.200 F 
ATOM     85  F   UNL A   1      53.071  25.900  24.966  1.00  0.00    -0.200 F 
ENDBRANCH  51  75
BRANCH  63  86
ATOM     86  C   UNL A   1      46.143  32.516  28.856  1.00  0.00     0.064 A 
ATOM     87  C   UNL A   1      46.631  32.801  30.141  1.00  0.00     0.173 A 
ATOM     88  C   UNL A   1      46.168  33.546  27.903  1.00  0.00     0.173 A 
ATOM     89  F   UNL A   1      46.617  31.858  31.094  1.00  0.00    -0.203 F 
ATOM     90  C   UNL A   1      47.081  34.079  30.470  1.00  0.00     0.198 A 
ATOM     91  C   UNL A   1      46.655  34.810  28.224  1.00  0.00     0.198 A 
ATOM     92  F   UNL A   1      45.723  33.326  26.656  1.00  0.00    -0.203 F 
ATOM     93  F   UNL A   1      47.473  34.345  31.722  1.00  0.00    -0.200 F 
ATOM     94  C   UNL A   1      47.097  35.078  29.510  1.00  0.00     0.200 A 
ATOM     95  F   UNL A   1      46.688  35.771  27.290  1.00  0.00    -0.200 F 
ATOM     96  F   UNL A   1      47.529  36.307  29.828  1.00  0.00    -0.200 F 
ENDBRANCH  63  86
ENDBRANCH  37  38
ENDBRANCH  30  32
ENDBRANCH  29  30
ENDBRANCH  28  29
ENDBRANCH  27  28
ENDBRANCH  26  27
ENDBRANCH   1  26
TORSDOF 20
ENDMDL
MODEL 3
REMARK VINA RESULT:     -10.6      2.849      5.195
REMARK SMILES CC(C)C[C@H](CNC(=O)NC[C@H]1CCC(=O)N1)C(=O)OCCOCCOC(=O)c1ccc(-c2c3nc(c(-c4c(F)c(F)c(F)c(F)c4F)c4ccc([nH]4)c(-c4c(F)c(F)c(F)c(F)c4F)c4nc(c(-c5c(F)c(F)c(F)c(F)c5F)c5ccc2[nH]5)C=C4)C=C3)cc1
REMARK SMILES IDX 22 1 21 2 20 3 18 4 19 5 5 6 4 7 2 8 1 9 3 10 6 11 7 12 8 13
REMARK SMILES IDX 9 15 10 16 11 18 12 19 13 20 17 21 14 22 15 23 16 25 23 26
REMARK SMILES IDX 24 27 25 28 26 29 27 30 28 31 29 32 30 33 91 34 31 35 90 36
REMARK SMILES IDX 32 37 33 38 34 39 84 40 35 41 89 42 83 43 85 44 36 45 88 46
REMARK SMILES IDX 82 47 81 48 37 50 69 51 49 52 68 53 50 54 53 55 67 56 86 57
REMARK SMILES IDX 51 58 52 59 66 61 87 62 54 63 38 64 39 65 47 66 40 67 41 68
REMARK SMILES IDX 45 69 48 70 42 71 43 72 46 73 44 74 70 75 71 76 79 77 72 78
REMARK SMILES IDX 73 79 77 80 80 81 74 82 75 83 78 84 76 85 55 86 56 87 64 88
REMARK SMILES IDX 57 89 58 90 62 91 65 92 59 93 60 94 63 95 61 96
REMARK H PARENT 7 14 10 17 17 24 85 49 53 60
REMARK Flexibility Score: inf
ROOT
ATOM      1  C   UNL A   1      36.625  23.441  24.186  1.00  0.00     0.202 C 
ENDROOT
BRANCH   1   2
ATOM      2  C   UNL A   1      35.176  23.934  24.055  1.00  0.00     0.261 C 
BRANCH   2   3
ATOM      3  O   UNL A   1      34.319  23.111  23.242  1.00  0.00    -0.463 OA
BRANCH   3   4
ATOM      4  C   UNL A   1      33.471  23.809  22.443  1.00  0.00     0.310 C 
ATOM      5  O   UNL A   1      33.525  23.805  21.217  1.00  0.00    -0.252 OA
BRANCH   4   6
ATOM      6  C   UNL A   1      32.426  24.627  23.192  1.00  0.00     0.119 C 
BRANCH   6   7
ATOM      7  C   UNL A   1      31.250  23.664  23.474  1.00  0.00     0.020 C 
BRANCH   7   8
ATOM      8  C   UNL A   1      31.039  23.408  24.982  1.00  0.00    -0.017 C 
ATOM      9  C   UNL A   1      31.573  22.034  25.394  1.00  0.00     0.007 C 
ATOM     10  C   UNL A   1      31.724  24.502  25.799  1.00  0.00     0.007 C 
ENDBRANCH   7   8
ENDBRANCH   6   7
BRANCH   6  11
ATOM     11  C   UNL A   1      31.977  25.934  22.513  1.00  0.00     0.133 C 
BRANCH  11  12
ATOM     12  N   UNL A   1      33.026  26.962  22.582  1.00  0.00    -0.337 N 
ATOM     13  C   UNL A   1      33.121  28.285  22.437  1.00  0.00     0.314 C 
ATOM     14  H   UNL A   1      33.900  26.563  22.793  1.00  0.00     0.165 HD
ATOM     15  O   UNL A   1      34.246  28.752  22.245  1.00  0.00    -0.249 OA
ATOM     16  N   UNL A   1      32.109  29.150  22.512  1.00  0.00    -0.336 N 
ATOM     17  H   UNL A   1      32.328  30.030  22.129  1.00  0.00     0.165 HD
BRANCH  16  18
ATOM     18  C   UNL A   1      30.757  29.079  23.034  1.00  0.00     0.142 C 
BRANCH  18  19
ATOM     19  C   UNL A   1      29.742  29.756  22.093  1.00  0.00     0.101 C 
ATOM     20  C   UNL A   1      28.290  29.380  22.385  1.00  0.00     0.036 C 
ATOM     21  N   UNL A   1      29.773  31.186  22.191  1.00  0.00    -0.352 N 
ATOM     22  C   UNL A   1      27.589  30.665  22.818  1.00  0.00     0.102 C 
ATOM     23  C   UNL A   1      28.600  31.750  22.603  1.00  0.00     0.220 C 
ATOM     24  H   UNL A   1      30.574  31.718  21.979  1.00  0.00     0.163 HD
ATOM     25  O   UNL A   1      28.426  32.945  22.790  1.00  0.00    -0.275 OA
ENDBRANCH  18  19
ENDBRANCH  16  18
ENDBRANCH  11  12
ENDBRANCH   6  11
ENDBRANCH   4   6
ENDBRANCH   3   4
ENDBRANCH   2   3
ENDBRANCH   1   2
BRANCH   1  26
ATOM     26  O   UNL A   1      36.927  22.106  23.804  1.00  0.00    -0.374 OA
BRANCH  26  27
ATOM     27  C   UNL A   1      37.006  21.107  24.813  1.00  0.00     0.202 C 
BRANCH  27  28
ATOM     28  C   UNL A   1      38.348  20.407  25.039  1.00  0.00     0.261 C 
BRANCH  28  29
ATOM     29  O   UNL A   1      38.864  20.542  26.376  1.00  0.00    -0.460 OA
BRANCH  29  30
ATOM     30  C   UNL A   1      40.188  20.833  26.421  1.00  0.00     0.338 C 
ATOM     31  O   UNL A   1      41.101  20.175  25.947  1.00  0.00    -0.246 OA
BRANCH  30  32
ATOM     32  C   UNL A   1      40.443  22.137  27.046  1.00  0.00     0.060 A 
ATOM     33  C   UNL A   1      39.899  23.266  26.429  1.00  0.00     0.016 A 
ATOM     34  C   UNL A   1      41.387  22.269  28.064  1.00  0.00     0.016 A 
ATOM     35  C   UNL A   1      40.353  24.531  26.787  1.00  0.00     0.010 A 
ATOM     36  C   UNL A   1      41.828  23.543  28.438  1.00  0.00     0.010 A 
ATOM     37  C   UNL A   1      41.348  24.678  27.766  1.00  0.00    -0.014 A 
BRANCH  37  38
ATOM     38  C   UNL A   1      41.928  26.022  28.011  1.00  0.00     0.031 A 
ATOM     39  C   UNL A   1      43.290  26.371  27.475  1.00  0.00     0.074 A 
ATOM     40  C   UNL A   1      41.192  26.947  28.653  1.00  0.00     0.049 A 
ATOM     41  N   UNL A   1      43.931  27.513  27.522  1.00  0.00    -0.248 NA
ATOM     42  C   UNL A   1      44.031  25.297  26.797  1.00  0.00     0.031 C 
ATOM     43  C   UNL A   1      39.861  26.717  29.214  1.00  0.00     0.029 A 
ATOM     44  N   UNL A   1      41.453  28.264  28.933  1.00  0.00    -0.354 N 
ATOM     45  C   UNL A   1      45.141  27.297  26.872  1.00  0.00     0.074 A 
ATOM     46  C   UNL A   1      45.169  25.903  26.487  1.00  0.00     0.031 C 
ATOM     47  C   UNL A   1      39.414  27.858  29.760  1.00  0.00     0.029 A 
ATOM     48  C   UNL A   1      40.440  28.887  29.619  1.00  0.00     0.049 A 
ATOM     49  H   UNL A   1      42.285  28.717  28.668  1.00  0.00     0.167 HD
ATOM     50  C   UNL A   1      46.127  28.188  26.605  1.00  0.00     0.037 A 
ATOM     51  C   UNL A   1      40.357  30.146  30.090  1.00  0.00     0.037 A 
ATOM     52  C   UNL A   1      46.097  29.572  27.005  1.00  0.00     0.049 A 
ATOM     53  C   UNL A   1      41.491  31.098  29.823  1.00  0.00     0.074 A 
ATOM     54  C   UNL A   1      47.042  30.559  26.783  1.00  0.00     0.029 A 
ATOM     55  N   UNL A   1      45.064  30.164  27.722  1.00  0.00    -0.354 N 
ATOM     56  N   UNL A   1      42.609  30.896  29.170  1.00  0.00    -0.248 NA
ATOM     57  C   UNL A   1      41.341  32.462  30.347  1.00  0.00     0.031 C 
ATOM     58  C   UNL A   1      46.607  31.732  27.410  1.00  0.00     0.029 A 
ATOM     59  C   UNL A   1      45.359  31.496  27.966  1.00  0.00     0.049 A 
ATOM     60  H   UNL A   1      44.245  29.705  28.012  1.00  0.00     0.167 HD
ATOM     61  C   UNL A   1      43.285  32.109  29.182  1.00  0.00     0.074 A 
ATOM     62  C   UNL A   1      42.434  33.050  29.882  1.00  0.00     0.031 C 
ATOM     63  C   UNL A   1      44.501  32.419  28.665  1.00  0.00     0.037 A 
BRANCH  50  64
ATOM     64  C   UNL A   1      47.329  27.694  25.846  1.00  0.00     0.064 A 
ATOM     65  C   UNL A   1      47.386  27.749  24.444  1.00  0.00     0.173 A 
ATOM     66  C   UNL A   1      48.457  27.209  26.525  1.00  0.00     0.173 A 
ATOM     67  F   UNL A   1      46.334  28.197  23.742  1.00  0.00    -0.203 F 
ATOM     68  C   UNL A   1      48.514  27.313  23.752  1.00  0.00     0.198 A 
ATOM     69  C   UNL A   1      49.595  26.804  25.832  1.00  0.00     0.198 A 
ATOM     70  F   UNL A   1      48.463  27.142  27.865  1.00  0.00    -0.203 F 
ATOM     71  F   UNL A   1      48.527  27.334  22.411  1.00  0.00    -0.200 F 
ATOM     72  C   UNL A   1      49.621  26.848  24.447  1.00  0.00     0.200 A 
ATOM     73  F   UNL A   1      50.670  26.372  26.505  1.00  0.00    -0.200 F 
ATOM     74  F   UNL A   1      50.710  26.441  23.780  1.00  0.00    -0.200 F 
ENDBRANCH  50  64
BRANCH  51  75
ATOM     75  C   UNL A   1      39.164  30.570  30.868  1.00  0.00     0.064 A 
ATOM     76  C   UNL A   1      39.086  30.371  32.253  1.00  0.00     0.173 A 
ATOM     77  C   UNL A   1      38.063  31.166  30.234  1.00  0.00     0.173 A 
ATOM     78  F   UNL A   1      40.106  29.792  32.905  1.00  0.00    -0.203 F 
ATOM     79  C   UNL A   1      37.943  30.721  32.968  1.00  0.00     0.198 A 
ATOM     80  C   UNL A   1      36.935  31.549  30.956  1.00  0.00     0.198 A 
ATOM     81  F   UNL A   1      38.086  31.386  28.911  1.00  0.00    -0.203 F 
ATOM     82  F   UNL A   1      37.871  30.464  34.282  1.00  0.00    -0.200 F 
ATOM     83  C   UNL A   1      36.870  31.314  32.321  1.00  0.00     0.200 A 
ATOM     84  F   UNL A   1      35.910  32.141  30.327  1.00  0.00    -0.200 F 
ATOM     85  F   UNL A   1      35.771  31.652  33.008  1.00  0.00    -0.200 F 
ENDBRANCH  51  75
BRANCH  63  86
ATOM     86  C   UNL A   1      44.960  33.843  28.808  1.00  0.00     0.064 A 
ATOM     87  C   UNL A   1      44.641  34.822  27.854  1.00  0.00     0.173 A 
ATOM     88  C   UNL A   1      45.724  34.235  29.918  1.00  0.00     0.173 A 
ATOM     89  F   UNL A   1      43.926  34.499  26.766  1.00  0.00    -0.203 F 
ATOM     90  C   UNL A   1      45.109  36.128  27.983  1.00  0.00     0.198 A 
ATOM     91  C   UNL A   1      46.155  35.550  30.064  1.00  0.00     0.198 A 
ATOM     92  F   UNL A   1      46.049  33.343  30.865  1.00  0.00    -0.203 F 
ATOM     93  F   UNL A   1      44.853  37.026  27.023  1.00  0.00    -0.200 F 
ATOM     94  C   UNL A   1      45.860  36.491  29.091  1.00  0.00     0.200 A 
ATOM     95  F   UNL A   1      46.866  35.904  31.144  1.00  0.00    -0.200 F 
ATOM     96  F   UNL A   1      46.310  37.748  29.213  1.00  0.00    -0.200 F 
ENDBRANCH  63  86
ENDBRANCH  37  38
ENDBRANCH  30  32
ENDBRANCH  29  30
ENDBRANCH  28  29
ENDBRANCH  27  28
ENDBRANCH  26  27
ENDBRANCH   1  26
TORSDOF 20
ENDMDL
