MODEL 1
REMARK VINA RESULT:     -14.4      0.000      0.000
REMARK SMILES CCC[C@H]1CCc2c(sc(NC(=O)[C@H]3[C@@H](C(=O)OCCOCCOC(=O)c4ccc(-c5c6nc(c(-c7c(F)c(F)c(F)c(F)c7F)c7ccc([nH]7)c(-c7c(F)c(F)c(F)c(F)c7F)c7nc(c(-c8c(F)c(F)c(F)c(F)c8F)c8ccc5[nH]8)C=C7)C=C6)cc4)[C@H]4CC[C@@H]3O4)c2C(N)=O)C1
REMARK SMILES IDX 20 1 19 2 18 3 16 4 17 5 15 6 14 7 93 8 90 9 92 10 94 11
REMARK SMILES IDX 91 12 12 13 11 14 13 16 10 17 4 18 5 19 99 20 6 21 8 22 7 23
REMARK SMILES IDX 9 24 95 25 3 26 2 27 1 28 96 29 97 30 98 31 21 34 22 35
REMARK SMILES IDX 23 36 24 37 25 38 26 39 27 40 28 41 89 42 29 43 88 44 30 45
REMARK SMILES IDX 31 46 32 47 82 48 33 49 87 50 81 51 83 52 34 53 86 54 80 55
REMARK SMILES IDX 79 56 35 58 67 59 47 60 66 61 48 62 51 63 65 64 84 65 49 66
REMARK SMILES IDX 50 67 64 69 85 70 52 71 36 72 37 73 45 74 38 75 39 76 43 77
REMARK SMILES IDX 46 78 40 79 41 80 44 81 42 82 68 83 69 84 77 85 70 86 71 87
REMARK SMILES IDX 75 88 78 89 72 90 73 91 76 92 74 93 53 94 54 95 62 96 55 97
REMARK SMILES IDX 56 98 60 99 63 100 57 101 58 102 61 103 59 104
REMARK H PARENT 11 15 97 32 97 33 83 57 51 68
REMARK Flexibility Score: inf
ROOT
ATOM      1  C   UNL A   1      33.843  20.110  24.736  1.00  0.00     0.202 C 
ENDROOT
BRANCH   1   2
ATOM      2  C   UNL A   1      32.720  20.768  23.618  1.00  0.00     0.261 C 
BRANCH   2   3
ATOM      3  O   UNL A   1      31.811  21.910  23.964  1.00  0.00    -0.463 OA
BRANCH   3   4
ATOM      4  C   UNL A   1      32.108  23.224  23.625  1.00  0.00     0.312 C 
ATOM      5  O   UNL A   1      32.660  23.517  22.573  1.00  0.00    -0.252 OA
BRANCH   4   6
ATOM      6  C   UNL A   1      31.561  24.299  24.644  1.00  0.00     0.143 C 
ATOM      7  C   UNL A   1      32.618  24.847  25.637  1.00  0.00     0.124 C 
ATOM      8  C   UNL A   1      32.185  24.246  26.960  1.00  0.00     0.132 C 
ATOM      9  C   UNL A   1      30.432  24.012  25.665  1.00  0.00     0.133 C 
ATOM     10  C   UNL A   1      31.869  22.745  27.006  1.00  0.00     0.035 C 
ATOM     11  O   UNL A   1      30.827  24.774  26.870  1.00  0.00    -0.373 OA
ATOM     12  C   UNL A   1      30.515  22.649  26.290  1.00  0.00     0.036 C 
BRANCH   7  13
ATOM     13  C   UNL A   1      34.073  24.858  25.263  1.00  0.00     0.231 C 
ATOM     14  N   UNL A   1      34.632  26.114  25.080  1.00  0.00    -0.317 N 
ATOM     15  H   UNL A   1      35.611  26.220  25.081  1.00  0.00     0.170 HD
ATOM     16  O   UNL A   1      34.755  23.844  25.159  1.00  0.00    -0.274 OA
BRANCH  14  17
ATOM     17  C   UNL A   1      33.823  27.217  24.894  1.00  0.00     0.108 A 
ATOM     18  C   UNL A   1      29.514  30.453  22.821  1.00  0.00    -0.006 C 
ATOM     19  C   UNL A   1      29.976  31.150  24.565  1.00  0.00     0.009 C 
ATOM     20  C   UNL A   1      30.231  28.641  22.451  1.00  0.00     0.050 C 
ATOM     21  C   UNL A   1      31.222  30.261  25.677  1.00  0.00     0.038 C 
ATOM     22  C   UNL A   1      31.720  28.037  23.660  1.00  0.00     0.011 A 
ATOM     23  C   UNL A   1      32.102  28.754  25.074  1.00  0.00    -0.019 A 
ATOM     24  S   UNL A   1      33.410  27.381  23.294  1.00  0.00    -0.122 S 
ATOM     25  C   UNL A   1      33.385  28.294  25.635  1.00  0.00     0.077 A 
BRANCH  18  26
ATOM     26  C   UNL A   1      28.125  31.109  22.419  1.00  0.00     0.004 C 
BRANCH  26  27
ATOM     27  C   UNL A   1      28.011  32.445  21.684  1.00  0.00    -0.003 C 
ATOM     28  C   UNL A   1      28.038  32.334  20.151  1.00  0.00     0.004 C 
ENDBRANCH  26  27
ENDBRANCH  18  26
BRANCH  25  29
ATOM     29  C   UNL A   1      34.096  28.933  26.743  1.00  0.00     0.251 C 
ATOM     30  N   UNL A   1      35.269  29.573  26.446  1.00  0.00    -0.365 N 
ATOM     31  O   UNL A   1      33.667  28.964  27.879  1.00  0.00    -0.269 OA
ATOM     32  H   UNL A   1      35.622  29.552  25.527  1.00  0.00     0.159 HD
ATOM     33  H   UNL A   1      35.757  30.056  27.151  1.00  0.00     0.159 HD
ENDBRANCH  25  29
ENDBRANCH  14  17
ENDBRANCH   7  13
ENDBRANCH   4   6
ENDBRANCH   3   4
ENDBRANCH   2   3
ENDBRANCH   1   2
BRANCH   1  34
ATOM     34  O   UNL A   1      35.081  20.736  25.334  1.00  0.00    -0.374 OA
BRANCH  34  35
ATOM     35  C   UNL A   1      36.596  20.636  25.061  1.00  0.00     0.202 C 
BRANCH  35  36
ATOM     36  C   UNL A   1      37.690  19.162  24.853  1.00  0.00     0.261 C 
BRANCH  36  37
ATOM     37  O   UNL A   1      39.587  19.162  25.416  1.00  0.00    -0.460 OA
BRANCH  37  38
ATOM     38  C   UNL A   1      40.751  19.658  26.121  1.00  0.00     0.338 C 
ATOM     39  O   UNL A   1      41.894  19.409  25.746  1.00  0.00    -0.246 OA
BRANCH  38  40
ATOM     40  C   UNL A   1      40.943  20.752  27.155  1.00  0.00     0.060 A 
ATOM     41  C   UNL A   1      40.026  21.833  27.159  1.00  0.00     0.016 A 
ATOM     42  C   UNL A   1      42.295  21.147  27.292  1.00  0.00     0.016 A 
ATOM     43  C   UNL A   1      40.435  23.197  27.172  1.00  0.00     0.010 A 
ATOM     44  C   UNL A   1      42.704  22.516  27.328  1.00  0.00     0.010 A 
ATOM     45  C   UNL A   1      41.784  23.571  27.236  1.00  0.00    -0.014 A 
BRANCH  45  46
ATOM     46  C   UNL A   1      42.208  25.025  27.264  1.00  0.00     0.031 A 
ATOM     47  C   UNL A   1      43.516  25.535  26.672  1.00  0.00     0.074 A 
ATOM     48  C   UNL A   1      41.403  25.942  27.844  1.00  0.00     0.049 A 
ATOM     49  N   UNL A   1      44.074  26.724  26.777  1.00  0.00    -0.248 NA
ATOM     50  C   UNL A   1      44.280  24.601  25.836  1.00  0.00     0.031 C 
ATOM     51  C   UNL A   1      40.076  25.664  28.387  1.00  0.00     0.029 A 
ATOM     52  N   UNL A   1      41.582  27.288  28.087  1.00  0.00    -0.354 N 
ATOM     53  C   UNL A   1      45.265  26.673  26.054  1.00  0.00     0.074 A 
ATOM     54  C   UNL A   1      45.339  25.334  25.500  1.00  0.00     0.031 C 
ATOM     55  C   UNL A   1      39.560  26.792  28.894  1.00  0.00     0.029 A 
ATOM     56  C   UNL A   1      40.553  27.859  28.797  1.00  0.00     0.049 A 
ATOM     57  H   UNL A   1      42.371  27.791  27.781  1.00  0.00     0.167 HD
ATOM     58  C   UNL A   1      46.210  27.638  25.876  1.00  0.00     0.037 A 
ATOM     59  C   UNL A   1      40.422  29.076  29.366  1.00  0.00     0.037 A 
ATOM     60  C   UNL A   1      46.138  28.987  26.397  1.00  0.00     0.049 A 
ATOM     61  C   UNL A   1      41.529  30.087  29.261  1.00  0.00     0.074 A 
ATOM     62  C   UNL A   1      47.047  30.026  26.243  1.00  0.00     0.029 A 
ATOM     63  N   UNL A   1      45.107  29.489  27.176  1.00  0.00    -0.354 N 
ATOM     64  N   UNL A   1      42.663  30.006  28.613  1.00  0.00    -0.248 NA
ATOM     65  C   UNL A   1      41.342  31.355  29.983  1.00  0.00     0.031 C 
ATOM     66  C   UNL A   1      46.599  31.129  26.979  1.00  0.00     0.029 A 
ATOM     67  C   UNL A   1      45.378  30.802  27.542  1.00  0.00     0.049 A 
ATOM     68  H   UNL A   1      44.300  28.987  27.433  1.00  0.00     0.167 HD
ATOM     69  C   UNL A   1      43.310  31.217  28.823  1.00  0.00     0.074 A 
ATOM     70  C   UNL A   1      42.440  32.021  29.652  1.00  0.00     0.031 C 
ATOM     71  C   UNL A   1      44.519  31.618  28.362  1.00  0.00     0.037 A 
BRANCH  58  72
ATOM     72  C   UNL A   1      47.466  27.280  25.120  1.00  0.00     0.064 A 
ATOM     73  C   UNL A   1      47.665  27.643  23.780  1.00  0.00     0.173 A 
ATOM     74  C   UNL A   1      48.533  26.650  25.787  1.00  0.00     0.173 A 
ATOM     75  F   UNL A   1      46.691  28.260  23.097  1.00  0.00    -0.203 F 
ATOM     76  C   UNL A   1      48.869  27.366  23.130  1.00  0.00     0.198 A 
ATOM     77  C   UNL A   1      49.744  26.400  25.143  1.00  0.00     0.198 A 
ATOM     78  F   UNL A   1      48.414  26.308  27.078  1.00  0.00    -0.203 F 
ATOM     79  F   UNL A   1      49.025  27.695  21.840  1.00  0.00    -0.200 F 
ATOM     80  C   UNL A   1      49.908  26.750  23.813  1.00  0.00     0.200 A 
ATOM     81  F   UNL A   1      50.753  25.829  25.815  1.00  0.00    -0.200 F 
ATOM     82  F   UNL A   1      51.067  26.496  23.190  1.00  0.00    -0.200 F 
ENDBRANCH  58  72
BRANCH  59  83
ATOM     83  C   UNL A   1      39.192  29.388  30.144  1.00  0.00     0.064 A 
ATOM     84  C   UNL A   1      39.145  29.193  31.530  1.00  0.00     0.173 A 
ATOM     85  C   UNL A   1      38.044  29.895  29.516  1.00  0.00     0.173 A 
ATOM     86  F   UNL A   1      40.204  28.678  32.171  1.00  0.00    -0.203 F 
ATOM     87  C   UNL A   1      37.994  29.493  32.258  1.00  0.00     0.198 A 
ATOM     88  C   UNL A   1      36.908  30.227  30.248  1.00  0.00     0.198 A 
ATOM     89  F   UNL A   1      38.035  30.092  28.189  1.00  0.00    -0.203 F 
ATOM     90  F   UNL A   1      37.960  29.260  33.577  1.00  0.00    -0.200 F 
ATOM     91  C   UNL A   1      36.882  30.020  31.619  1.00  0.00     0.200 A 
ATOM     92  F   UNL A   1      35.842  30.751  29.628  1.00  0.00    -0.200 F 
ATOM     93  F   UNL A   1      35.783  30.321  32.322  1.00  0.00    -0.200 F 
ENDBRANCH  59  83
BRANCH  71  94
ATOM     94  C   UNL A   1      44.964  33.013  28.701  1.00  0.00     0.064 A 
ATOM     95  C   UNL A   1      44.636  34.113  27.895  1.00  0.00     0.173 A 
ATOM     96  C   UNL A   1      45.712  33.257  29.864  1.00  0.00     0.173 A 
ATOM     97  F   UNL A   1      43.941  33.934  26.761  1.00  0.00    -0.203 F 
ATOM     98  C   UNL A   1      45.056  35.399  28.227  1.00  0.00     0.198 A 
ATOM     99  C   UNL A   1      46.108  34.548  30.208  1.00  0.00     0.198 A 
ATOM    100  F   UNL A   1      46.054  32.243  30.673  1.00  0.00    -0.203 F 
ATOM    101  F   UNL A   1      44.769  36.427  27.416  1.00  0.00    -0.200 F 
ATOM    102  C   UNL A   1      45.785  35.616  29.387  1.00  0.00     0.200 A 
ATOM    103  F   UNL A   1      46.804  34.757  31.334  1.00  0.00    -0.200 F 
ATOM    104  F   UNL A   1      46.185  36.855  29.707  1.00  0.00    -0.200 F 
ENDBRANCH  71  94
ENDBRANCH  45  46
ENDBRANCH  38  40
ENDBRANCH  37  38
ENDBRANCH  36  37
ENDBRANCH  35  36
ENDBRANCH  34  35
ENDBRANCH   1  34
TORSDOF 19
ENDMDL
MODEL 2
REMARK VINA RESULT:     -14.2      6.468     11.742
REMARK SMILES CCC[C@H]1CCc2c(sc(NC(=O)[C@H]3[C@@H](C(=O)OCCOCCOC(=O)c4ccc(-c5c6nc(c(-c7c(F)c(F)c(F)c(F)c7F)c7ccc([nH]7)c(-c7c(F)c(F)c(F)c(F)c7F)c7nc(c(-c8c(F)c(F)c(F)c(F)c8F)c8ccc5[nH]8)C=C7)C=C6)cc4)[C@H]4CC[C@@H]3O4)c2C(N)=O)C1
REMARK SMILES IDX 20 1 19 2 18 3 16 4 17 5 15 6 14 7 93 8 90 9 92 10 94 11
REMARK SMILES IDX 91 12 12 13 11 14 13 16 10 17 4 18 5 19 99 20 6 21 8 22 7 23
REMARK SMILES IDX 9 24 95 25 3 26 2 27 1 28 96 29 97 30 98 31 21 34 22 35
REMARK SMILES IDX 23 36 24 37 25 38 26 39 27 40 28 41 89 42 29 43 88 44 30 45
REMARK SMILES IDX 31 46 32 47 82 48 33 49 87 50 81 51 83 52 34 53 86 54 80 55
REMARK SMILES IDX 79 56 35 58 67 59 47 60 66 61 48 62 51 63 65 64 84 65 49 66
REMARK SMILES IDX 50 67 64 69 85 70 52 71 36 72 37 73 45 74 38 75 39 76 43 77
REMARK SMILES IDX 46 78 40 79 41 80 44 81 42 82 68 83 69 84 77 85 70 86 71 87
REMARK SMILES IDX 75 88 78 89 72 90 73 91 76 92 74 93 53 94 54 95 62 96 55 97
REMARK SMILES IDX 56 98 60 99 63 100 57 101 58 102 61 103 59 104
REMARK H PARENT 11 15 97 32 97 33 83 57 51 68
REMARK Flexibility Score: inf
ROOT
ATOM      1  C   UNL A   1      39.564  32.249  36.882  1.00  0.00     0.202 C 
ENDROOT
BRANCH   1   2
ATOM      2  C   UNL A   1      39.214  31.706  35.292  1.00  0.00     0.261 C 
BRANCH   2   3
ATOM      3  O   UNL A   1      37.821  31.385  34.836  1.00  0.00    -0.463 OA
BRANCH   3   4
ATOM      4  C   UNL A   1      36.856  32.367  34.648  1.00  0.00     0.312 C 
ATOM      5  O   UNL A   1      36.440  33.055  35.571  1.00  0.00    -0.252 OA
BRANCH   4   6
ATOM      6  C   UNL A   1      36.447  32.600  33.141  1.00  0.00     0.143 C 
ATOM      7  C   UNL A   1      37.056  33.870  32.494  1.00  0.00     0.124 C 
ATOM      8  C   UNL A   1      35.854  34.781  32.337  1.00  0.00     0.132 C 
ATOM      9  C   UNL A   1      34.984  32.797  32.674  1.00  0.00     0.133 C 
ATOM     10  C   UNL A   1      34.924  34.967  33.543  1.00  0.00     0.035 C 
ATOM     11  O   UNL A   1      35.079  33.797  31.587  1.00  0.00    -0.373 OA
ATOM     12  C   UNL A   1      34.160  33.637  33.607  1.00  0.00     0.036 C 
BRANCH   7  13
ATOM     13  C   UNL A   1      38.355  34.429  33.000  1.00  0.00     0.231 C 
ATOM     14  N   UNL A   1      39.475  34.115  32.245  1.00  0.00    -0.317 N 
ATOM     15  H   UNL A   1      40.305  34.632  32.359  1.00  0.00     0.170 HD
ATOM     16  O   UNL A   1      38.445  35.150  33.989  1.00  0.00    -0.274 OA
BRANCH  14  17
ATOM     17  C   UNL A   1      39.433  33.077  31.334  1.00  0.00     0.108 A 
ATOM     18  C   UNL A   1      39.638  27.678  29.301  1.00  0.00    -0.006 C 
ATOM     19  C   UNL A   1      38.521  28.707  28.103  1.00  0.00     0.009 C 
ATOM     20  C   UNL A   1      39.973  28.547  31.052  1.00  0.00     0.050 C 
ATOM     21  C   UNL A   1      38.036  30.490  28.505  1.00  0.00     0.038 C 
ATOM     22  C   UNL A   1      39.581  30.518  31.128  1.00  0.00     0.011 A 
ATOM     23  C   UNL A   1      38.706  31.323  30.011  1.00  0.00    -0.019 A 
ATOM     24  S   UNL A   1      40.611  31.956  31.664  1.00  0.00    -0.122 S 
ATOM     25  C   UNL A   1      38.786  32.788  30.151  1.00  0.00     0.077 A 
BRANCH  18  26
ATOM     26  C   UNL A   1      39.407  26.149  28.941  1.00  0.00     0.004 C 
BRANCH  26  27
ATOM     27  C   UNL A   1      40.299  25.372  27.973  1.00  0.00    -0.003 C 
ATOM     28  C   UNL A   1      41.720  25.099  28.491  1.00  0.00     0.004 C 
ENDBRANCH  26  27
ENDBRANCH  18  26
BRANCH  25  29
ATOM     29  C   UNL A   1      38.321  33.755  29.156  1.00  0.00     0.251 C 
ATOM     30  N   UNL A   1      36.981  33.770  28.877  1.00  0.00    -0.365 N 
ATOM     31  O   UNL A   1      39.054  34.563  28.621  1.00  0.00    -0.269 OA
ATOM     32  H   UNL A   1      36.383  33.117  29.307  1.00  0.00     0.159 HD
ATOM     33  H   UNL A   1      36.618  34.434  28.249  1.00  0.00     0.159 HD
ENDBRANCH  25  29
ENDBRANCH  14  17
ENDBRANCH   7  13
ENDBRANCH   4   6
ENDBRANCH   3   4
ENDBRANCH   2   3
ENDBRANCH   1   2
BRANCH   1  34
ATOM     34  O   UNL A   1      38.649  32.369  38.078  1.00  0.00    -0.374 OA
BRANCH  34  35
ATOM     35  C   UNL A   1      38.778  32.964  39.495  1.00  0.00     0.202 C 
BRANCH  35  36
ATOM     36  C   UNL A   1      38.794  34.720  40.071  1.00  0.00     0.261 C 
BRANCH  36  37
ATOM     37  O   UNL A   1      40.372  35.894  39.849  1.00  0.00    -0.460 OA
BRANCH  37  38
ATOM     38  C   UNL A   1      41.517  36.442  39.152  1.00  0.00     0.338 C 
ATOM     39  O   UNL A   1      42.589  36.642  39.718  1.00  0.00    -0.246 OA
BRANCH  38  40
ATOM     40  C   UNL A   1      41.855  36.593  37.680  1.00  0.00     0.060 A 
ATOM     41  C   UNL A   1      40.933  36.087  36.730  1.00  0.00     0.016 A 
ATOM     42  C   UNL A   1      43.204  36.280  37.391  1.00  0.00     0.016 A 
ATOM     43  C   UNL A   1      41.315  35.237  35.654  1.00  0.00     0.010 A 
ATOM     44  C   UNL A   1      43.591  35.443  36.298  1.00  0.00     0.010 A 
ATOM     45  C   UNL A   1      42.651  34.878  35.424  1.00  0.00    -0.014 A 
BRANCH  45  46
ATOM     46  C   UNL A   1      43.049  33.984  34.268  1.00  0.00     0.031 A 
ATOM     47  C   UNL A   1      43.301  34.493  32.855  1.00  0.00     0.074 A 
ATOM     48  C   UNL A   1      43.192  32.656  34.473  1.00  0.00     0.049 A 
ATOM     49  N   UNL A   1      43.484  33.813  31.741  1.00  0.00    -0.248 NA
ATOM     50  C   UNL A   1      43.384  35.947  32.673  1.00  0.00     0.031 C 
ATOM     51  C   UNL A   1      43.081  31.994  35.770  1.00  0.00     0.029 A 
ATOM     52  N   UNL A   1      43.450  31.622  33.597  1.00  0.00    -0.354 N 
ATOM     53  C   UNL A   1      43.668  34.750  30.725  1.00  0.00     0.074 A 
ATOM     54  C   UNL A   1      43.590  36.051  31.362  1.00  0.00     0.031 C 
ATOM     55  C   UNL A   1      43.268  30.676  35.611  1.00  0.00     0.029 A 
ATOM     56  C   UNL A   1      43.425  30.381  34.189  1.00  0.00     0.049 A 
ATOM     57  H   UNL A   1      43.635  31.759  32.639  1.00  0.00     0.167 HD
ATOM     58  C   UNL A   1      43.870  34.550  29.392  1.00  0.00     0.037 A 
ATOM     59  C   UNL A   1      43.461  29.138  33.668  1.00  0.00     0.037 A 
ATOM     60  C   UNL A   1      43.979  33.260  28.746  1.00  0.00     0.049 A 
ATOM     61  C   UNL A   1      43.563  28.939  32.182  1.00  0.00     0.074 A 
ATOM     62  C   UNL A   1      44.202  32.979  27.404  1.00  0.00     0.029 A 
ATOM     63  N   UNL A   1      43.869  32.034  29.383  1.00  0.00    -0.354 N 
ATOM     64  N   UNL A   1      43.691  29.834  31.236  1.00  0.00    -0.248 NA
ATOM     65  C   UNL A   1      43.509  27.553  31.691  1.00  0.00     0.031 C 
ATOM     66  C   UNL A   1      44.162  31.592  27.222  1.00  0.00     0.029 A 
ATOM     67  C   UNL A   1      43.977  31.001  28.459  1.00  0.00     0.049 A 
ATOM     68  H   UNL A   1      43.732  31.913  30.351  1.00  0.00     0.167 HD
ATOM     69  C   UNL A   1      43.762  29.122  30.045  1.00  0.00     0.074 A 
ATOM     70  C   UNL A   1      43.671  27.720  30.386  1.00  0.00     0.031 C 
ATOM     71  C   UNL A   1      43.895  29.600  28.784  1.00  0.00     0.037 A 
BRANCH  58  72
ATOM     72  C   UNL A   1      43.940  35.758  28.491  1.00  0.00     0.064 A 
ATOM     73  C   UNL A   1      42.798  36.339  27.923  1.00  0.00     0.173 A 
ATOM     74  C   UNL A   1      45.171  36.407  28.278  1.00  0.00     0.173 A 
ATOM     75  F   UNL A   1      41.595  35.776  28.104  1.00  0.00    -0.203 F 
ATOM     76  C   UNL A   1      42.887  37.503  27.156  1.00  0.00     0.198 A 
ATOM     77  C   UNL A   1      45.253  37.583  27.536  1.00  0.00     0.198 A 
ATOM     78  F   UNL A   1      46.295  35.916  28.823  1.00  0.00    -0.203 F 
ATOM     79  F   UNL A   1      41.784  38.023  26.598  1.00  0.00    -0.200 F 
ATOM     80  C   UNL A   1      44.112  38.126  26.969  1.00  0.00     0.200 A 
ATOM     81  F   UNL A   1      46.434  38.196  27.380  1.00  0.00    -0.200 F 
ATOM     82  F   UNL A   1      44.192  39.250  26.242  1.00  0.00    -0.200 F 
ENDBRANCH  58  72
BRANCH  59  83
ATOM     83  C   UNL A   1      43.346  27.963  34.576  1.00  0.00     0.064 A 
ATOM     84  C   UNL A   1      42.124  27.302  34.751  1.00  0.00     0.173 A 
ATOM     85  C   UNL A   1      44.459  27.477  35.279  1.00  0.00     0.173 A 
ATOM     86  F   UNL A   1      41.024  27.751  34.128  1.00  0.00    -0.203 F 
ATOM     87  C   UNL A   1      42.019  26.199  35.596  1.00  0.00     0.198 A 
ATOM     88  C   UNL A   1      44.361  26.353  36.095  1.00  0.00     0.198 A 
ATOM     89  F   UNL A   1      45.650  28.080  35.152  1.00  0.00    -0.203 F 
ATOM     90  F   UNL A   1      40.830  25.608  35.778  1.00  0.00    -0.200 F 
ATOM     91  C   UNL A   1      43.140  25.719  36.258  1.00  0.00     0.200 A 
ATOM     92  F   UNL A   1      45.450  25.884  36.719  1.00  0.00    -0.200 F 
ATOM     93  F   UNL A   1      43.040  24.649  37.058  1.00  0.00    -0.200 F 
ENDBRANCH  59  83
BRANCH  71  94
ATOM     94  C   UNL A   1      43.997  28.598  27.668  1.00  0.00     0.064 A 
ATOM     95  C   UNL A   1      45.202  27.949  27.363  1.00  0.00     0.173 A 
ATOM     96  C   UNL A   1      42.865  28.264  26.907  1.00  0.00     0.173 A 
ATOM     97  F   UNL A   1      46.319  28.245  28.046  1.00  0.00    -0.203 F 
ATOM     98  C   UNL A   1      45.277  27.021  26.327  1.00  0.00     0.198 A 
ATOM     99  C   UNL A   1      42.937  27.316  25.888  1.00  0.00     0.198 A 
ATOM    100  F   UNL A   1      41.686  28.854  27.154  1.00  0.00    -0.203 F 
ATOM    101  F   UNL A   1      46.450  26.448  26.025  1.00  0.00    -0.200 F 
ATOM    102  C   UNL A   1      44.143  26.700  25.595  1.00  0.00     0.200 A 
ATOM    103  F   UNL A   1      41.838  27.001  25.189  1.00  0.00    -0.200 F 
ATOM    104  F   UNL A   1      44.216  25.804  24.600  1.00  0.00    -0.200 F 
ENDBRANCH  71  94
ENDBRANCH  45  46
ENDBRANCH  38  40
ENDBRANCH  37  38
ENDBRANCH  36  37
ENDBRANCH  35  36
ENDBRANCH  34  35
ENDBRANCH   1  34
TORSDOF 19
ENDMDL
MODEL 3
REMARK VINA RESULT:     -14.1      4.402      8.560
REMARK SMILES CCC[C@H]1CCc2c(sc(NC(=O)[C@H]3[C@@H](C(=O)OCCOCCOC(=O)c4ccc(-c5c6nc(c(-c7c(F)c(F)c(F)c(F)c7F)c7ccc([nH]7)c(-c7c(F)c(F)c(F)c(F)c7F)c7nc(c(-c8c(F)c(F)c(F)c(F)c8F)c8ccc5[nH]8)C=C7)C=C6)cc4)[C@H]4CC[C@@H]3O4)c2C(N)=O)C1
REMARK SMILES IDX 20 1 19 2 18 3 16 4 17 5 15 6 14 7 93 8 90 9 92 10 94 11
REMARK SMILES IDX 91 12 12 13 11 14 13 16 10 17 4 18 5 19 99 20 6 21 8 22 7 23
REMARK SMILES IDX 9 24 95 25 3 26 2 27 1 28 96 29 97 30 98 31 21 34 22 35
REMARK SMILES IDX 23 36 24 37 25 38 26 39 27 40 28 41 89 42 29 43 88 44 30 45
REMARK SMILES IDX 31 46 32 47 82 48 33 49 87 50 81 51 83 52 34 53 86 54 80 55
REMARK SMILES IDX 79 56 35 58 67 59 47 60 66 61 48 62 51 63 65 64 84 65 49 66
REMARK SMILES IDX 50 67 64 69 85 70 52 71 36 72 37 73 45 74 38 75 39 76 43 77
REMARK SMILES IDX 46 78 40 79 41 80 44 81 42 82 68 83 69 84 77 85 70 86 71 87
REMARK SMILES IDX 75 88 78 89 72 90 73 91 76 92 74 93 53 94 54 95 62 96 55 97
REMARK SMILES IDX 56 98 60 99 63 100 57 101 58 102 61 103 59 104
REMARK H PARENT 11 15 97 32 97 33 83 57 51 68
REMARK Flexibility Score: inf
ROOT
ATOM      1  C   UNL A   1      29.137  30.090  22.885  1.00  0.00     0.202 C 
ENDROOT
BRANCH   1   2
ATOM      2  C   UNL A   1      29.615  28.454  23.085  1.00  0.00     0.261 C 
BRANCH   2   3
ATOM      3  O   UNL A   1      30.768  28.049  23.954  1.00  0.00    -0.463 OA
BRANCH   3   4
ATOM      4  C   UNL A   1      31.861  27.347  23.459  1.00  0.00     0.312 C 
ATOM      5  O   UNL A   1      32.381  27.625  22.387  1.00  0.00    -0.252 OA
BRANCH   4   6
ATOM      6  C   UNL A   1      32.441  26.262  24.449  1.00  0.00     0.143 C 
ATOM      7  C   UNL A   1      31.663  24.922  24.468  1.00  0.00     0.124 C 
ATOM      8  C   UNL A   1      30.993  24.938  25.828  1.00  0.00     0.132 C 
ATOM      9  C   UNL A   1      32.550  26.472  25.978  1.00  0.00     0.133 C 
ATOM     10  C   UNL A   1      30.244  26.208  26.252  1.00  0.00     0.035 C 
ATOM     11  O   UNL A   1      32.243  25.144  26.553  1.00  0.00    -0.373 OA
ATOM     12  C   UNL A   1      31.376  27.193  26.575  1.00  0.00     0.036 C 
BRANCH   7  13
ATOM     13  C   UNL A   1      30.887  24.479  23.260  1.00  0.00     0.231 C 
ATOM     14  N   UNL A   1      31.232  23.235  22.752  1.00  0.00    -0.317 N 
ATOM     15  H   UNL A   1      30.622  22.771  22.135  1.00  0.00     0.170 HD
ATOM     16  O   UNL A   1      29.980  25.134  22.758  1.00  0.00    -0.274 OA
BRANCH  14  17
ATOM     17  C   UNL A   1      32.428  22.644  23.108  1.00  0.00     0.108 A 
ATOM     18  C   UNL A   1      37.830  22.178  25.093  1.00  0.00    -0.006 C 
ATOM     19  C   UNL A   1      36.966  20.468  25.356  1.00  0.00     0.009 C 
ATOM     20  C   UNL A   1      36.582  23.673  24.716  1.00  0.00     0.050 C 
ATOM     21  C   UNL A   1      35.120  20.240  25.011  1.00  0.00     0.038 C 
ATOM     22  C   UNL A   1      34.732  23.131  24.144  1.00  0.00     0.011 A 
ATOM     23  C   UNL A   1      34.121  21.629  24.317  1.00  0.00    -0.019 A 
ATOM     24  S   UNL A   1      33.711  23.605  22.677  1.00  0.00    -0.122 S 
ATOM     25  C   UNL A   1      32.858  21.424  23.586  1.00  0.00     0.077 A 
BRANCH  18  26
ATOM     26  C   UNL A   1      39.170  22.149  25.944  1.00  0.00     0.004 C 
BRANCH  26  27
ATOM     27  C   UNL A   1      39.523  23.209  26.987  1.00  0.00    -0.003 C 
ATOM     28  C   UNL A   1      39.390  24.660  26.495  1.00  0.00     0.004 C 
ENDBRANCH  26  27
ENDBRANCH  18  26
BRANCH  25  29
ATOM     29  C   UNL A   1      32.222  20.126  23.352  1.00  0.00     0.251 C 
ATOM     30  N   UNL A   1      31.913  19.807  22.058  1.00  0.00    -0.365 N 
ATOM     31  O   UNL A   1      32.014  19.319  24.235  1.00  0.00    -0.269 OA
ATOM     32  H   UNL A   1      32.079  20.457  21.338  1.00  0.00     0.159 HD
ATOM     33  H   UNL A   1      31.526  18.926  21.849  1.00  0.00     0.159 HD
ENDBRANCH  25  29
ENDBRANCH  14  17
ENDBRANCH   7  13
ENDBRANCH   4   6
ENDBRANCH   3   4
ENDBRANCH   2   3
ENDBRANCH   1   2
BRANCH   1  34
ATOM     34  O   UNL A   1      29.190  31.232  23.871  1.00  0.00    -0.374 OA
BRANCH  34  35
ATOM     35  C   UNL A   1      30.194  31.702  24.945  1.00  0.00     0.202 C 
BRANCH  35  36
ATOM     36  C   UNL A   1      31.391  30.747  25.978  1.00  0.00     0.261 C 
BRANCH  36  37
ATOM     37  O   UNL A   1      32.638  31.624  27.240  1.00  0.00    -0.460 OA
BRANCH  37  38
ATOM     38  C   UNL A   1      33.916  31.857  27.879  1.00  0.00     0.338 C 
ATOM     39  O   UNL A   1      34.004  32.380  28.987  1.00  0.00    -0.246 OA
BRANCH  38  40
ATOM     40  C   UNL A   1      35.311  31.314  27.627  1.00  0.00     0.060 A 
ATOM     41  C   UNL A   1      35.575  29.968  27.984  1.00  0.00     0.016 A 
ATOM     42  C   UNL A   1      36.330  32.218  28.009  1.00  0.00     0.016 A 
ATOM     43  C   UNL A   1      36.700  29.578  28.765  1.00  0.00     0.010 A 
ATOM     44  C   UNL A   1      37.472  31.823  28.774  1.00  0.00     0.010 A 
ATOM     45  C   UNL A   1      37.664  30.500  29.195  1.00  0.00    -0.014 A 
BRANCH  45  46
ATOM     46  C   UNL A   1      38.866  30.073  30.014  1.00  0.00     0.031 A 
ATOM     47  C   UNL A   1      39.920  29.092  29.518  1.00  0.00     0.074 A 
ATOM     48  C   UNL A   1      39.034  30.572  31.258  1.00  0.00     0.049 A 
ATOM     49  N   UNL A   1      40.904  28.517  30.179  1.00  0.00    -0.248 NA
ATOM     50  C   UNL A   1      39.881  28.731  28.095  1.00  0.00     0.031 C 
ATOM     51  C   UNL A   1      38.183  31.587  31.873  1.00  0.00     0.029 A 
ATOM     52  N   UNL A   1      39.967  30.289  32.234  1.00  0.00    -0.354 N 
ATOM     53  C   UNL A   1      41.577  27.704  29.268  1.00  0.00     0.074 A 
ATOM     54  C   UNL A   1      40.895  27.875  27.999  1.00  0.00     0.031 C 
ATOM     55  C   UNL A   1      38.626  31.844  33.112  1.00  0.00     0.029 A 
ATOM     56  C   UNL A   1      39.740  30.950  33.419  1.00  0.00     0.049 A 
ATOM     57  H   UNL A   1      40.723  29.674  32.096  1.00  0.00     0.167 HD
ATOM     58  C   UNL A   1      42.649  26.886  29.467  1.00  0.00     0.037 A 
ATOM     59  C   UNL A   1      40.305  30.827  34.637  1.00  0.00     0.037 A 
ATOM     60  C   UNL A   1      43.358  26.726  30.719  1.00  0.00     0.049 A 
ATOM     61  C   UNL A   1      41.408  29.831  34.866  1.00  0.00     0.074 A 
ATOM     62  C   UNL A   1      44.465  25.931  30.993  1.00  0.00     0.029 A 
ATOM     63  N   UNL A   1      43.037  27.363  31.907  1.00  0.00    -0.354 N 
ATOM     64  N   UNL A   1      42.000  29.042  34.007  1.00  0.00    -0.248 NA
ATOM     65  C   UNL A   1      41.909  29.700  36.243  1.00  0.00     0.031 C 
ATOM     66  C   UNL A   1      44.769  26.038  32.354  1.00  0.00     0.029 A 
ATOM     67  C   UNL A   1      43.893  26.948  32.921  1.00  0.00     0.049 A 
ATOM     68  H   UNL A   1      42.306  28.014  32.018  1.00  0.00     0.167 HD
ATOM     69  C   UNL A   1      42.960  28.344  34.728  1.00  0.00     0.074 A 
ATOM     70  C   UNL A   1      42.878  28.807  36.096  1.00  0.00     0.031 C 
ATOM     71  C   UNL A   1      43.829  27.404  34.286  1.00  0.00     0.037 A 
BRANCH  58  72
ATOM     72  C   UNL A   1      43.122  26.032  28.316  1.00  0.00     0.064 A 
ATOM     73  C   UNL A   1      44.047  26.493  27.369  1.00  0.00     0.173 A 
ATOM     74  C   UNL A   1      42.715  24.688  28.225  1.00  0.00     0.173 A 
ATOM     75  F   UNL A   1      44.484  27.759  27.415  1.00  0.00    -0.203 F 
ATOM     76  C   UNL A   1      44.524  25.653  26.361  1.00  0.00     0.198 A 
ATOM     77  C   UNL A   1      43.214  23.845  27.234  1.00  0.00     0.198 A 
ATOM     78  F   UNL A   1      41.855  24.180  29.122  1.00  0.00    -0.203 F 
ATOM     79  F   UNL A   1      45.385  26.126  25.448  1.00  0.00    -0.200 F 
ATOM     80  C   UNL A   1      44.112  24.330  26.298  1.00  0.00     0.200 A 
ATOM     81  F   UNL A   1      42.833  22.560  27.194  1.00  0.00    -0.200 F 
ATOM     82  F   UNL A   1      44.581  23.523  25.336  1.00  0.00    -0.200 F 
ENDBRANCH  58  72
BRANCH  59  83
ATOM     83  C   UNL A   1      39.791  31.650  35.766  1.00  0.00     0.064 A 
ATOM     84  C   UNL A   1      38.670  31.248  36.502  1.00  0.00     0.173 A 
ATOM     85  C   UNL A   1      40.418  32.852  36.133  1.00  0.00     0.173 A 
ATOM     86  F   UNL A   1      38.016  30.125  36.167  1.00  0.00    -0.203 F 
ATOM     87  C   UNL A   1      38.194  32.016  37.562  1.00  0.00     0.198 A 
ATOM     88  C   UNL A   1      39.963  33.600  37.215  1.00  0.00     0.198 A 
ATOM     89  F   UNL A   1      41.490  33.285  35.455  1.00  0.00    -0.203 F 
ATOM     90  F   UNL A   1      37.095  31.630  38.226  1.00  0.00    -0.200 F 
ATOM     91  C   UNL A   1      38.847  33.185  37.925  1.00  0.00     0.200 A 
ATOM     92  F   UNL A   1      40.607  34.719  37.571  1.00  0.00    -0.200 F 
ATOM     93  F   UNL A   1      38.397  33.914  38.955  1.00  0.00    -0.200 F 
ENDBRANCH  59  83
BRANCH  71  94
ATOM     94  C   UNL A   1      44.805  26.837  35.279  1.00  0.00     0.064 A 
ATOM     95  C   UNL A   1      46.041  27.449  35.534  1.00  0.00     0.173 A 
ATOM     96  C   UNL A   1      44.489  25.676  36.002  1.00  0.00     0.173 A 
ATOM     97  F   UNL A   1      46.402  28.549  34.856  1.00  0.00    -0.203 F 
ATOM     98  C   UNL A   1      46.932  26.910  36.460  1.00  0.00     0.198 A 
ATOM     99  C   UNL A   1      45.371  25.154  36.947  1.00  0.00     0.198 A 
ATOM    100  F   UNL A   1      43.321  25.049  35.799  1.00  0.00    -0.203 F 
ATOM    101  F   UNL A   1      48.126  27.487  36.654  1.00  0.00    -0.200 F 
ATOM    102  C   UNL A   1      46.593  25.768  37.171  1.00  0.00     0.200 A 
ATOM    103  F   UNL A   1      45.037  24.057  37.639  1.00  0.00    -0.200 F 
ATOM    104  F   UNL A   1      47.450  25.253  38.064  1.00  0.00    -0.200 F 
ENDBRANCH  71  94
ENDBRANCH  45  46
ENDBRANCH  38  40
ENDBRANCH  37  38
ENDBRANCH  36  37
ENDBRANCH  35  36
ENDBRANCH  34  35
ENDBRANCH   1  34
TORSDOF 19
ENDMDL
