MODEL 1
REMARK VINA RESULT:     -11.2      0.000      0.000
REMARK SMILES C[C@H](O)[C@H](NC(=O)N1CC[N@@H+]2CCC[C@@H]2C1)C(=O)OCCOCCOC(=O)c1ccc(-c2c3nc(c(-c4c(F)c(F)c(F)c(F)c4F)c4ccc([nH]4)c(-c4c(F)c(F)c(F)c(F)c4F)c4nc(c(-c5c(F)c(F)c(F)c(F)c5F)c5ccc2[nH]5)C=C4)C=C3)cc1
REMARK SMILES IDX 22 1 21 2 20 3 19 4 17 5 18 6 4 7 2 8 1 9 3 10 5 12 6 13
REMARK SMILES IDX 7 15 8 16 9 17 16 18 10 19 15 20 11 21 14 22 12 23 13 25
REMARK SMILES IDX 23 26 24 27 25 28 26 29 27 30 28 31 29 32 90 33 30 34 89 35
REMARK SMILES IDX 31 36 32 37 33 38 83 39 34 40 88 41 82 42 84 43 35 44 87 45
REMARK SMILES IDX 81 46 80 47 36 49 68 50 48 51 67 52 49 53 52 54 66 55 85 56
REMARK SMILES IDX 50 57 51 58 65 60 86 61 53 62 37 63 38 64 46 65 39 66 40 67
REMARK SMILES IDX 44 68 47 69 41 70 42 71 45 72 43 73 69 74 70 75 78 76 71 77
REMARK SMILES IDX 72 78 76 79 79 80 73 81 74 82 77 83 75 84 54 85 55 86 63 87
REMARK SMILES IDX 56 88 57 89 61 90 64 91 58 92 59 93 62 94 60 95
REMARK H PARENT 3 11 5 14 11 24 84 48 52 59
REMARK Flexibility Score: inf
ROOT
ATOM      1  O   UNL A   1      37.639  21.243  24.742  1.00  0.00    -0.374 OA
ENDROOT
BRANCH   1   2
ATOM      2  C   UNL A   1      36.286  21.686  24.688  1.00  0.00     0.202 C 
BRANCH   2   3
ATOM      3  C   UNL A   1      35.215  20.649  25.030  1.00  0.00     0.261 C 
BRANCH   3   4
ATOM      4  O   UNL A   1      33.887  21.177  24.905  1.00  0.00    -0.462 OA
BRANCH   4   5
ATOM      5  C   UNL A   1      33.499  22.077  25.863  1.00  0.00     0.331 C 
ATOM      6  O   UNL A   1      33.753  21.984  27.057  1.00  0.00    -0.250 OA
BRANCH   5   7
ATOM      7  C   UNL A   1      32.599  23.169  25.254  1.00  0.00     0.222 C 
BRANCH   7   8
ATOM      8  C   UNL A   1      31.132  22.757  25.507  1.00  0.00     0.145 C 
ATOM      9  C   UNL A   1      30.493  23.672  26.550  1.00  0.00     0.041 C 
BRANCH   8  10
ATOM     10  O   UNL A   1      30.965  21.400  25.924  1.00  0.00    -0.391 OA
ATOM     11  H   UNL A   1      30.040  21.135  25.801  1.00  0.00     0.211 HD
ENDBRANCH   8  10
ENDBRANCH   7   8
BRANCH   7  12
ATOM     12  N   UNL A   1      33.009  23.426  23.855  1.00  0.00    -0.322 N 
ATOM     13  C   UNL A   1      33.169  24.480  23.039  1.00  0.00     0.318 C 
ATOM     14  H   UNL A   1      33.226  22.586  23.392  1.00  0.00     0.166 HD
ATOM     15  O   UNL A   1      33.512  24.238  21.882  1.00  0.00    -0.249 OA
BRANCH  13  16
ATOM     16  N   UNL A   1      32.793  25.718  23.443  1.00  0.00    -0.313 N 
ATOM     17  C   UNL A   1      33.742  26.783  23.786  1.00  0.00     0.183 C 
ATOM     18  C   UNL A   1      31.441  26.147  23.089  1.00  0.00     0.186 C 
ATOM     19  C   UNL A   1      33.033  27.953  24.502  1.00  0.00     0.284 C 
ATOM     20  C   UNL A   1      31.311  27.642  22.752  1.00  0.00     0.204 C 
ATOM     21  N   UNL A   1      32.015  28.581  23.651  1.00  0.00    -0.330 N 
ATOM     22  C   UNL A   1      29.846  28.085  22.756  1.00  0.00     0.073 C 
ATOM     23  C   UNL A   1      31.010  29.343  24.393  1.00  0.00     0.262 C 
ATOM     24  H   UNL A   1      32.569  29.223  23.085  1.00  0.00     0.348 HD
ATOM     25  C   UNL A   1      29.873  29.461  23.394  1.00  0.00     0.068 C 
ENDBRANCH  13  16
ENDBRANCH   7  12
ENDBRANCH   5   7
ENDBRANCH   4   5
ENDBRANCH   3   4
ENDBRANCH   2   3
ENDBRANCH   1   2
BRANCH   1  26
ATOM     26  C   UNL A   1      37.875  19.848  24.931  1.00  0.00     0.202 C 
BRANCH  26  27
ATOM     27  C   UNL A   1      39.208  19.457  25.580  1.00  0.00     0.261 C 
BRANCH  27  28
ATOM     28  O   UNL A   1      40.058  20.599  25.794  1.00  0.00    -0.460 OA
BRANCH  28  29
ATOM     29  C   UNL A   1      40.758  20.572  26.950  1.00  0.00     0.338 C 
ATOM     30  O   UNL A   1      41.324  19.606  27.452  1.00  0.00    -0.246 OA
BRANCH  29  31
ATOM     31  C   UNL A   1      40.926  21.930  27.495  1.00  0.00     0.060 A 
ATOM     32  C   UNL A   1      40.222  22.964  26.865  1.00  0.00     0.016 A 
ATOM     33  C   UNL A   1      41.838  22.209  28.513  1.00  0.00     0.016 A 
ATOM     34  C   UNL A   1      40.481  24.290  27.200  1.00  0.00     0.010 A 
ATOM     35  C   UNL A   1      42.104  23.543  28.844  1.00  0.00     0.010 A 
ATOM     36  C   UNL A   1      41.462  24.589  28.155  1.00  0.00    -0.014 A 
BRANCH  36  37
ATOM     37  C   UNL A   1      41.927  25.991  28.289  1.00  0.00     0.031 A 
ATOM     38  C   UNL A   1      43.248  26.381  27.681  1.00  0.00     0.074 A 
ATOM     39  C   UNL A   1      41.159  26.917  28.888  1.00  0.00     0.049 A 
ATOM     40  N   UNL A   1      43.843  27.547  27.661  1.00  0.00    -0.248 NA
ATOM     41  C   UNL A   1      43.998  25.312  27.003  1.00  0.00     0.031 C 
ATOM     42  C   UNL A   1      39.847  26.670  29.481  1.00  0.00     0.029 A 
ATOM     43  N   UNL A   1      41.376  28.257  29.094  1.00  0.00    -0.354 N 
ATOM     44  C   UNL A   1      45.037  27.350  26.977  1.00  0.00     0.074 A 
ATOM     45  C   UNL A   1      45.096  25.949  26.623  1.00  0.00     0.031 C 
ATOM     46  C   UNL A   1      39.378  27.819  29.997  1.00  0.00     0.029 A 
ATOM     47  C   UNL A   1      40.368  28.876  29.790  1.00  0.00     0.049 A 
ATOM     48  H   UNL A   1      42.179  28.729  28.774  1.00  0.00     0.167 HD
ATOM     49  C   UNL A   1      45.992  28.258  26.667  1.00  0.00     0.037 A 
ATOM     50  C   UNL A   1      40.266  30.148  30.223  1.00  0.00     0.037 A 
ATOM     51  C   UNL A   1      45.927  29.654  27.012  1.00  0.00     0.049 A 
ATOM     52  C   UNL A   1      41.364  31.129  29.900  1.00  0.00     0.074 A 
ATOM     53  C   UNL A   1      46.833  30.659  26.719  1.00  0.00     0.029 A 
ATOM     54  N   UNL A   1      44.898  30.240  27.733  1.00  0.00    -0.354 N 
ATOM     55  N   UNL A   1      42.472  30.941  29.225  1.00  0.00    -0.248 NA
ATOM     56  C   UNL A   1      41.189  32.503  30.391  1.00  0.00     0.031 C 
ATOM     57  C   UNL A   1      46.376  31.844  27.306  1.00  0.00     0.029 A 
ATOM     58  C   UNL A   1      45.158  31.589  27.916  1.00  0.00     0.049 A 
ATOM     59  H   UNL A   1      44.101  29.769  28.066  1.00  0.00     0.167 HD
ATOM     60  C   UNL A   1      43.109  32.174  29.185  1.00  0.00     0.074 A 
ATOM     61  C   UNL A   1      42.256  33.107  29.892  1.00  0.00     0.031 C 
ATOM     62  C   UNL A   1      44.293  32.507  28.614  1.00  0.00     0.037 A 
BRANCH  49  63
ATOM     63  C   UNL A   1      47.206  27.767  25.937  1.00  0.00     0.064 A 
ATOM     64  C   UNL A   1      47.249  27.699  24.536  1.00  0.00     0.173 A 
ATOM     65  C   UNL A   1      48.360  27.401  26.646  1.00  0.00     0.173 A 
ATOM     66  F   UNL A   1      46.169  28.023  23.811  1.00  0.00    -0.203 F 
ATOM     67  C   UNL A   1      48.396  27.262  23.875  1.00  0.00     0.198 A 
ATOM     68  C   UNL A   1      49.513  26.993  25.982  1.00  0.00     0.198 A 
ATOM     69  F   UNL A   1      48.373  27.452  27.987  1.00  0.00    -0.203 F 
ATOM     70  F   UNL A   1      48.401  27.167  22.538  1.00  0.00    -0.200 F 
ATOM     71  C   UNL A   1      49.528  26.917  24.598  1.00  0.00     0.200 A 
ATOM     72  F   UNL A   1      50.610  26.671  26.682  1.00  0.00    -0.200 F 
ATOM     73  F   UNL A   1      50.634  26.509  23.960  1.00  0.00    -0.200 F 
ENDBRANCH  49  63
BRANCH  50  74
ATOM     74  C   UNL A   1      39.083  30.567  31.020  1.00  0.00     0.064 A 
ATOM     75  C   UNL A   1      37.961  31.143  30.409  1.00  0.00     0.173 A 
ATOM     76  C   UNL A   1      39.064  30.424  32.415  1.00  0.00     0.173 A 
ATOM     77  F   UNL A   1      37.941  31.325  29.080  1.00  0.00    -0.203 F 
ATOM     78  C   UNL A   1      36.875  31.580  31.164  1.00  0.00     0.198 A 
ATOM     79  C   UNL A   1      37.966  30.834  33.167  1.00  0.00     0.198 A 
ATOM     80  F   UNL A   1      40.114  29.879  33.049  1.00  0.00    -0.203 F 
ATOM     81  F   UNL A   1      35.837  32.174  30.560  1.00  0.00    -0.200 F 
ATOM     82  C   UNL A   1      36.876  31.420  32.542  1.00  0.00     0.200 A 
ATOM     83  F   UNL A   1      37.967  30.666  34.496  1.00  0.00    -0.200 F 
ATOM     84  F   UNL A   1      35.831  31.840  33.268  1.00  0.00    -0.200 F 
ENDBRANCH  50  74
BRANCH  62  85
ATOM     85  C   UNL A   1      44.718  33.945  28.694  1.00  0.00     0.064 A 
ATOM     86  C   UNL A   1      45.532  34.419  29.733  1.00  0.00     0.173 A 
ATOM     87  C   UNL A   1      44.326  34.855  27.699  1.00  0.00     0.173 A 
ATOM     88  F   UNL A   1      45.923  33.592  30.715  1.00  0.00    -0.203 F 
ATOM     89  C   UNL A   1      45.911  35.757  29.790  1.00  0.00     0.198 A 
ATOM     90  C   UNL A   1      44.734  36.186  27.744  1.00  0.00     0.198 A 
ATOM     91  F   UNL A   1      43.554  34.452  26.679  1.00  0.00    -0.203 F 
ATOM     92  F   UNL A   1      46.645  36.200  30.822  1.00  0.00    -0.200 F 
ATOM     93  C   UNL A   1      45.517  36.637  28.794  1.00  0.00     0.200 A 
ATOM     94  F   UNL A   1      44.363  37.031  26.772  1.00  0.00    -0.200 F 
ATOM     95  F   UNL A   1      45.886  37.924  28.850  1.00  0.00    -0.200 F 
ENDBRANCH  62  85
ENDBRANCH  36  37
ENDBRANCH  29  31
ENDBRANCH  28  29
ENDBRANCH  27  28
ENDBRANCH  26  27
ENDBRANCH   1  26
TORSDOF 18
ENDMDL
MODEL 2
REMARK VINA RESULT:     -11.1      0.782      1.913
REMARK SMILES C[C@H](O)[C@H](NC(=O)N1CC[N@@H+]2CCC[C@@H]2C1)C(=O)OCCOCCOC(=O)c1ccc(-c2c3nc(c(-c4c(F)c(F)c(F)c(F)c4F)c4ccc([nH]4)c(-c4c(F)c(F)c(F)c(F)c4F)c4nc(c(-c5c(F)c(F)c(F)c(F)c5F)c5ccc2[nH]5)C=C4)C=C3)cc1
REMARK SMILES IDX 22 1 21 2 20 3 19 4 17 5 18 6 4 7 2 8 1 9 3 10 5 12 6 13
REMARK SMILES IDX 7 15 8 16 9 17 16 18 10 19 15 20 11 21 14 22 12 23 13 25
REMARK SMILES IDX 23 26 24 27 25 28 26 29 27 30 28 31 29 32 90 33 30 34 89 35
REMARK SMILES IDX 31 36 32 37 33 38 83 39 34 40 88 41 82 42 84 43 35 44 87 45
REMARK SMILES IDX 81 46 80 47 36 49 68 50 48 51 67 52 49 53 52 54 66 55 85 56
REMARK SMILES IDX 50 57 51 58 65 60 86 61 53 62 37 63 38 64 46 65 39 66 40 67
REMARK SMILES IDX 44 68 47 69 41 70 42 71 45 72 43 73 69 74 70 75 78 76 71 77
REMARK SMILES IDX 72 78 76 79 79 80 73 81 74 82 77 83 75 84 54 85 55 86 63 87
REMARK SMILES IDX 56 88 57 89 61 90 64 91 58 92 59 93 62 94 60 95
REMARK H PARENT 3 11 5 14 11 24 84 48 52 59
REMARK Flexibility Score: inf
ROOT
ATOM      1  O   UNL A   1      37.663  21.077  24.631  1.00  0.00    -0.374 OA
ENDROOT
BRANCH   1   2
ATOM      2  C   UNL A   1      36.729  21.831  25.397  1.00  0.00     0.202 C 
BRANCH   2   3
ATOM      3  C   UNL A   1      36.741  23.346  25.187  1.00  0.00     0.261 C 
BRANCH   3   4
ATOM      4  O   UNL A   1      35.456  23.852  24.800  1.00  0.00    -0.462 OA
BRANCH   4   5
ATOM      5  C   UNL A   1      35.034  23.533  23.535  1.00  0.00     0.331 C 
ATOM      6  O   UNL A   1      35.756  23.116  22.639  1.00  0.00    -0.250 OA
BRANCH   5   7
ATOM      7  C   UNL A   1      33.543  23.879  23.354  1.00  0.00     0.222 C 
BRANCH   7   8
ATOM      8  C   UNL A   1      32.725  22.629  23.750  1.00  0.00     0.145 C 
ATOM      9  C   UNL A   1      31.558  23.021  24.654  1.00  0.00     0.041 C 
BRANCH   8  10
ATOM     10  O   UNL A   1      33.486  21.609  24.400  1.00  0.00    -0.391 OA
ATOM     11  H   UNL A   1      34.053  21.164  23.751  1.00  0.00     0.211 HD
ENDBRANCH   8  10
ENDBRANCH   7   8
BRANCH   7  12
ATOM     12  N   UNL A   1      33.326  24.443  22.003  1.00  0.00    -0.322 N 
ATOM     13  C   UNL A   1      32.991  25.622  21.455  1.00  0.00     0.318 C 
ATOM     14  H   UNL A   1      33.466  23.759  21.309  1.00  0.00     0.166 HD
ATOM     15  O   UNL A   1      32.883  25.653  20.229  1.00  0.00    -0.249 OA
BRANCH  13  16
ATOM     16  N   UNL A   1      32.624  26.661  22.245  1.00  0.00    -0.313 N 
ATOM     17  C   UNL A   1      33.569  27.648  22.779  1.00  0.00     0.183 C 
ATOM     18  C   UNL A   1      31.223  27.074  22.185  1.00  0.00     0.186 C 
ATOM     19  C   UNL A   1      32.914  28.508  23.882  1.00  0.00     0.284 C 
ATOM     20  C   UNL A   1      30.996  28.588  22.320  1.00  0.00     0.204 C 
ATOM     21  N   UNL A   1      31.773  29.278  23.372  1.00  0.00    -0.330 N 
ATOM     22  C   UNL A   1      29.527  28.904  22.617  1.00  0.00     0.073 C 
ATOM     23  C   UNL A   1      30.844  29.719  24.412  1.00  0.00     0.262 C 
ATOM     24  H   UNL A   1      32.226  30.094  22.962  1.00  0.00     0.348 HD
ATOM     25  C   UNL A   1      29.585  30.036  23.625  1.00  0.00     0.068 C 
ENDBRANCH  13  16
ENDBRANCH   7  12
ENDBRANCH   5   7
ENDBRANCH   4   5
ENDBRANCH   3   4
ENDBRANCH   2   3
ENDBRANCH   1   2
BRANCH   1  26
ATOM     26  C   UNL A   1      37.938  19.739  25.048  1.00  0.00     0.202 C 
BRANCH  26  27
ATOM     27  C   UNL A   1      39.336  19.470  25.617  1.00  0.00     0.261 C 
BRANCH  27  28
ATOM     28  O   UNL A   1      40.061  20.689  25.864  1.00  0.00    -0.460 OA
BRANCH  28  29
ATOM     29  C   UNL A   1      40.821  20.676  26.982  1.00  0.00     0.338 C 
ATOM     30  O   UNL A   1      41.435  19.721  27.450  1.00  0.00    -0.246 OA
BRANCH  29  31
ATOM     31  C   UNL A   1      40.988  22.036  27.520  1.00  0.00     0.060 A 
ATOM     32  C   UNL A   1      40.305  23.071  26.867  1.00  0.00     0.016 A 
ATOM     33  C   UNL A   1      41.881  22.316  28.555  1.00  0.00     0.016 A 
ATOM     34  C   UNL A   1      40.567  24.397  27.198  1.00  0.00     0.010 A 
ATOM     35  C   UNL A   1      42.150  23.651  28.881  1.00  0.00     0.010 A 
ATOM     36  C   UNL A   1      41.530  24.696  28.171  1.00  0.00    -0.014 A 
BRANCH  36  37
ATOM     37  C   UNL A   1      42.003  26.095  28.305  1.00  0.00     0.031 A 
ATOM     38  C   UNL A   1      43.333  26.475  27.710  1.00  0.00     0.074 A 
ATOM     39  C   UNL A   1      41.234  27.029  28.892  1.00  0.00     0.049 A 
ATOM     40  N   UNL A   1      43.936  27.637  27.692  1.00  0.00    -0.248 NA
ATOM     41  C   UNL A   1      44.084  25.398  27.044  1.00  0.00     0.031 C 
ATOM     42  C   UNL A   1      39.915  26.793  29.471  1.00  0.00     0.029 A 
ATOM     43  N   UNL A   1      41.458  28.368  29.095  1.00  0.00    -0.354 N 
ATOM     44  C   UNL A   1      45.135  27.429  27.022  1.00  0.00     0.074 A 
ATOM     45  C   UNL A   1      45.189  26.026  26.674  1.00  0.00     0.031 C 
ATOM     46  C   UNL A   1      39.448  27.947  29.977  1.00  0.00     0.029 A 
ATOM     47  C   UNL A   1      40.447  28.996  29.777  1.00  0.00     0.049 A 
ATOM     48  H   UNL A   1      42.268  28.833  28.782  1.00  0.00     0.167 HD
ATOM     49  C   UNL A   1      46.100  28.329  26.719  1.00  0.00     0.037 A 
ATOM     50  C   UNL A   1      40.348  30.270  30.204  1.00  0.00     0.037 A 
ATOM     51  C   UNL A   1      46.040  29.727  27.057  1.00  0.00     0.049 A 
ATOM     52  C   UNL A   1      41.455  31.243  29.889  1.00  0.00     0.074 A 
ATOM     53  C   UNL A   1      46.956  30.725  26.771  1.00  0.00     0.029 A 
ATOM     54  N   UNL A   1      45.007  30.323  27.765  1.00  0.00    -0.354 N 
ATOM     55  N   UNL A   1      42.570  31.045  29.227  1.00  0.00    -0.248 NA
ATOM     56  C   UNL A   1      41.284  32.620  30.373  1.00  0.00     0.031 C 
ATOM     57  C   UNL A   1      46.500  31.915  27.348  1.00  0.00     0.029 A 
ATOM     58  C   UNL A   1      45.274  31.671  27.945  1.00  0.00     0.049 A 
ATOM     59  H   UNL A   1      44.203  29.858  28.091  1.00  0.00     0.167 HD
ATOM     60  C   UNL A   1      43.215  32.275  29.189  1.00  0.00     0.074 A 
ATOM     61  C   UNL A   1      42.361  33.216  29.883  1.00  0.00     0.031 C 
ATOM     62  C   UNL A   1      44.408  32.597  28.630  1.00  0.00     0.037 A 
BRANCH  49  63
ATOM     63  C   UNL A   1      47.319  27.828  26.004  1.00  0.00     0.064 A 
ATOM     64  C   UNL A   1      48.447  27.364  26.699  1.00  0.00     0.173 A 
ATOM     65  C   UNL A   1      47.343  27.769  24.602  1.00  0.00     0.173 A 
ATOM     66  F   UNL A   1      48.480  27.412  28.039  1.00  0.00    -0.203 F 
ATOM     67  C   UNL A   1      49.560  26.881  26.015  1.00  0.00     0.198 A 
ATOM     68  C   UNL A   1      48.446  27.259  23.923  1.00  0.00     0.198 A 
ATOM     69  F   UNL A   1      46.290  28.197  23.890  1.00  0.00    -0.203 F 
ATOM     70  F   UNL A   1      50.642  26.479  26.698  1.00  0.00    -0.200 F 
ATOM     71  C   UNL A   1      49.556  26.821  24.629  1.00  0.00     0.200 A 
ATOM     72  F   UNL A   1      48.435  27.192  22.585  1.00  0.00    -0.200 F 
ATOM     73  F   UNL A   1      50.624  26.345  23.974  1.00  0.00    -0.200 F 
ENDBRANCH  49  63
BRANCH  50  74
ATOM     74  C   UNL A   1      39.159  30.701  30.986  1.00  0.00     0.064 A 
ATOM     75  C   UNL A   1      39.114  30.557  32.379  1.00  0.00     0.173 A 
ATOM     76  C   UNL A   1      38.032  31.242  30.350  1.00  0.00     0.173 A 
ATOM     77  F   UNL A   1      40.157  30.022  33.032  1.00  0.00    -0.203 F 
ATOM     78  C   UNL A   1      37.979  30.916  33.104  1.00  0.00     0.198 A 
ATOM     79  C   UNL A   1      36.909  31.628  31.078  1.00  0.00     0.198 A 
ATOM     80  F   UNL A   1      38.024  31.399  29.017  1.00  0.00    -0.203 F 
ATOM     81  F   UNL A   1      37.943  30.720  34.429  1.00  0.00    -0.200 F 
ATOM     82  C   UNL A   1      36.880  31.456  32.453  1.00  0.00     0.200 A 
ATOM     83  F   UNL A   1      35.855  32.160  30.446  1.00  0.00    -0.200 F 
ATOM     84  F   UNL A   1      35.789  31.802  33.150  1.00  0.00    -0.200 F 
ENDBRANCH  50  74
BRANCH  62  85
ATOM     85  C   UNL A   1      44.840  34.033  28.708  1.00  0.00     0.064 A 
ATOM     86  C   UNL A   1      45.643  34.507  29.757  1.00  0.00     0.173 A 
ATOM     87  C   UNL A   1      44.468  34.940  27.704  1.00  0.00     0.173 A 
ATOM     88  F   UNL A   1      46.015  33.682  30.748  1.00  0.00    -0.203 F 
ATOM     89  C   UNL A   1      46.030  35.843  29.813  1.00  0.00     0.198 A 
ATOM     90  C   UNL A   1      44.885  36.269  27.748  1.00  0.00     0.198 A 
ATOM     91  F   UNL A   1      43.709  34.537  26.675  1.00  0.00    -0.203 F 
ATOM     92  F   UNL A   1      46.752  36.286  30.852  1.00  0.00    -0.200 F 
ATOM     93  C   UNL A   1      45.656  36.721  28.807  1.00  0.00     0.200 A 
ATOM     94  F   UNL A   1      44.533  37.112  26.766  1.00  0.00    -0.200 F 
ATOM     95  F   UNL A   1      46.033  38.005  28.862  1.00  0.00    -0.200 F 
ENDBRANCH  62  85
ENDBRANCH  36  37
ENDBRANCH  29  31
ENDBRANCH  28  29
ENDBRANCH  27  28
ENDBRANCH  26  27
ENDBRANCH   1  26
TORSDOF 18
ENDMDL
MODEL 3
REMARK VINA RESULT:     -10.9      4.446     10.360
REMARK SMILES C[C@H](O)[C@H](NC(=O)N1CC[N@@H+]2CCC[C@@H]2C1)C(=O)OCCOCCOC(=O)c1ccc(-c2c3nc(c(-c4c(F)c(F)c(F)c(F)c4F)c4ccc([nH]4)c(-c4c(F)c(F)c(F)c(F)c4F)c4nc(c(-c5c(F)c(F)c(F)c(F)c5F)c5ccc2[nH]5)C=C4)C=C3)cc1
REMARK SMILES IDX 22 1 21 2 20 3 19 4 17 5 18 6 4 7 2 8 1 9 3 10 5 12 6 13
REMARK SMILES IDX 7 15 8 16 9 17 16 18 10 19 15 20 11 21 14 22 12 23 13 25
REMARK SMILES IDX 23 26 24 27 25 28 26 29 27 30 28 31 29 32 90 33 30 34 89 35
REMARK SMILES IDX 31 36 32 37 33 38 83 39 34 40 88 41 82 42 84 43 35 44 87 45
REMARK SMILES IDX 81 46 80 47 36 49 68 50 48 51 67 52 49 53 52 54 66 55 85 56
REMARK SMILES IDX 50 57 51 58 65 60 86 61 53 62 37 63 38 64 46 65 39 66 40 67
REMARK SMILES IDX 44 68 47 69 41 70 42 71 45 72 43 73 69 74 70 75 78 76 71 77
REMARK SMILES IDX 72 78 76 79 79 80 73 81 74 82 77 83 75 84 54 85 55 86 63 87
REMARK SMILES IDX 56 88 57 89 61 90 64 91 58 92 59 93 62 94 60 95
REMARK H PARENT 3 11 5 14 11 24 84 48 52 59
REMARK Flexibility Score: inf
ROOT
ATOM      1  O   UNL A   1      32.492  30.621  26.101  1.00  0.00    -0.374 OA
ENDROOT
BRANCH   1   2
ATOM      2  C   UNL A   1      32.651  29.421  26.851  1.00  0.00     0.202 C 
BRANCH   2   3
ATOM      3  C   UNL A   1      33.601  28.373  26.268  1.00  0.00     0.261 C 
BRANCH   3   4
ATOM      4  O   UNL A   1      33.610  28.385  24.834  1.00  0.00    -0.462 OA
BRANCH   4   5
ATOM      5  C   UNL A   1      33.196  27.234  24.214  1.00  0.00     0.331 C 
ATOM      6  O   UNL A   1      33.925  26.299  23.911  1.00  0.00    -0.250 OA
BRANCH   5   7
ATOM      7  C   UNL A   1      31.702  27.320  23.844  1.00  0.00     0.222 C 
BRANCH   7   8
ATOM      8  C   UNL A   1      31.424  28.763  23.366  1.00  0.00     0.145 C 
ATOM      9  C   UNL A   1      29.996  28.884  22.839  1.00  0.00     0.041 C 
BRANCH   8  10
ATOM     10  O   UNL A   1      32.325  29.235  22.362  1.00  0.00    -0.391 OA
ATOM     11  H   UNL A   1      32.653  28.485  21.842  1.00  0.00     0.211 HD
ENDBRANCH   8  10
ENDBRANCH   7   8
BRANCH   7  12
ATOM     12  N   UNL A   1      30.885  26.796  24.961  1.00  0.00    -0.322 N 
ATOM     13  C   UNL A   1      30.643  25.616  25.554  1.00  0.00     0.318 C 
ATOM     14  H   UNL A   1      30.371  27.518  25.391  1.00  0.00     0.166 HD
ATOM     15  O   UNL A   1      29.829  25.616  26.478  1.00  0.00    -0.249 OA
BRANCH  13  16
ATOM     16  N   UNL A   1      31.149  24.473  25.028  1.00  0.00    -0.313 N 
ATOM     17  C   UNL A   1      31.067  24.130  23.604  1.00  0.00     0.183 C 
ATOM     18  C   UNL A   1      32.190  23.796  25.798  1.00  0.00     0.186 C 
ATOM     19  C   UNL A   1      31.440  22.651  23.364  1.00  0.00     0.284 C 
ATOM     20  C   UNL A   1      33.283  23.127  24.946  1.00  0.00     0.204 C 
ATOM     21  N   UNL A   1      32.821  22.361  23.769  1.00  0.00    -0.330 N 
ATOM     22  C   UNL A   1      34.112  22.146  25.779  1.00  0.00     0.073 C 
ATOM     23  C   UNL A   1      33.080  20.943  24.017  1.00  0.00     0.262 C 
ATOM     24  H   UNL A   1      33.355  22.660  22.954  1.00  0.00     0.348 HD
ATOM     25  C   UNL A   1      34.350  20.973  24.847  1.00  0.00     0.068 C 
ENDBRANCH  13  16
ENDBRANCH   7  12
ENDBRANCH   5   7
ENDBRANCH   4   5
ENDBRANCH   3   4
ENDBRANCH   2   3
ENDBRANCH   1   2
BRANCH   1  26
ATOM     26  C   UNL A   1      31.409  31.484  26.449  1.00  0.00     0.202 C 
BRANCH  26  27
ATOM     27  C   UNL A   1      31.770  32.771  27.199  1.00  0.00     0.261 C 
BRANCH  27  28
ATOM     28  O   UNL A   1      33.134  33.169  26.962  1.00  0.00    -0.460 OA
BRANCH  28  29
ATOM     29  C   UNL A   1      33.776  33.657  28.046  1.00  0.00     0.338 C 
ATOM     30  O   UNL A   1      33.361  34.498  28.838  1.00  0.00    -0.246 OA
BRANCH  29  31
ATOM     31  C   UNL A   1      35.024  32.916  28.296  1.00  0.00     0.060 A 
ATOM     32  C   UNL A   1      34.907  31.570  28.666  1.00  0.00     0.016 A 
ATOM     33  C   UNL A   1      36.270  33.546  28.289  1.00  0.00     0.016 A 
ATOM     34  C   UNL A   1      36.025  30.867  29.103  1.00  0.00     0.010 A 
ATOM     35  C   UNL A   1      37.393  32.839  28.737  1.00  0.00     0.010 A 
ATOM     36  C   UNL A   1      37.265  31.513  29.190  1.00  0.00    -0.014 A 
BRANCH  36  37
ATOM     37  C   UNL A   1      38.370  30.847  29.922  1.00  0.00     0.031 A 
ATOM     38  C   UNL A   1      38.579  31.171  31.377  1.00  0.00     0.074 A 
ATOM     39  C   UNL A   1      39.137  29.922  29.319  1.00  0.00     0.049 A 
ATOM     40  N   UNL A   1      39.467  30.700  32.216  1.00  0.00    -0.248 NA
ATOM     41  C   UNL A   1      37.661  32.159  31.967  1.00  0.00     0.031 C 
ATOM     42  C   UNL A   1      39.008  29.497  27.928  1.00  0.00     0.029 A 
ATOM     43  N   UNL A   1      40.179  29.173  29.807  1.00  0.00    -0.354 N 
ATOM     44  C   UNL A   1      39.219  31.338  33.426  1.00  0.00     0.074 A 
ATOM     45  C   UNL A   1      38.118  32.249  33.207  1.00  0.00     0.031 C 
ATOM     46  C   UNL A   1      39.945  28.569  27.667  1.00  0.00     0.029 A 
ATOM     47  C   UNL A   1      40.752  28.353  28.868  1.00  0.00     0.049 A 
ATOM     48  H   UNL A   1      40.486  29.220  30.741  1.00  0.00     0.167 HD
ATOM     49  C   UNL A   1      39.850  31.171  34.612  1.00  0.00     0.037 A 
ATOM     50  C   UNL A   1      41.817  27.534  28.965  1.00  0.00     0.037 A 
ATOM     51  C   UNL A   1      40.939  30.256  34.831  1.00  0.00     0.049 A 
ATOM     52  C   UNL A   1      42.528  27.399  30.287  1.00  0.00     0.074 A 
ATOM     53  C   UNL A   1      41.627  29.996  36.004  1.00  0.00     0.029 A 
ATOM     54  N   UNL A   1      41.504  29.455  33.850  1.00  0.00    -0.354 N 
ATOM     55  N   UNL A   1      42.266  27.981  31.432  1.00  0.00    -0.248 NA
ATOM     56  C   UNL A   1      43.676  26.482  30.331  1.00  0.00     0.031 C 
ATOM     57  C   UNL A   1      42.640  29.074  35.722  1.00  0.00     0.029 A 
ATOM     58  C   UNL A   1      42.548  28.718  34.386  1.00  0.00     0.049 A 
ATOM     59  H   UNL A   1      41.208  29.416  32.913  1.00  0.00     0.167 HD
ATOM     60  C   UNL A   1      43.194  27.480  32.337  1.00  0.00     0.074 A 
ATOM     61  C   UNL A   1      44.017  26.536  31.610  1.00  0.00     0.031 C 
ATOM     62  C   UNL A   1      43.352  27.774  33.651  1.00  0.00     0.037 A 
BRANCH  49  63
ATOM     63  C   UNL A   1      39.394  32.014  35.766  1.00  0.00     0.064 A 
ATOM     64  C   UNL A   1      38.418  31.567  36.669  1.00  0.00     0.173 A 
ATOM     65  C   UNL A   1      39.974  33.271  35.997  1.00  0.00     0.173 A 
ATOM     66  F   UNL A   1      37.822  30.379  36.485  1.00  0.00    -0.203 F 
ATOM     67  C   UNL A   1      38.025  32.356  37.748  1.00  0.00     0.198 A 
ATOM     68  C   UNL A   1      39.599  34.045  37.092  1.00  0.00     0.198 A 
ATOM     69  F   UNL A   1      40.914  33.744  35.165  1.00  0.00    -0.203 F 
ATOM     70  F   UNL A   1      37.062  31.926  38.576  1.00  0.00    -0.200 F 
ATOM     71  C   UNL A   1      38.621  33.590  37.963  1.00  0.00     0.200 A 
ATOM     72  F   UNL A   1      40.185  35.231  37.304  1.00  0.00    -0.200 F 
ATOM     73  F   UNL A   1      38.250  34.342  39.008  1.00  0.00    -0.200 F 
ENDBRANCH  49  63
BRANCH  50  74
ATOM     74  C   UNL A   1      42.287  26.784  27.770  1.00  0.00     0.064 A 
ATOM     75  C   UNL A   1      41.792  25.507  27.472  1.00  0.00     0.173 A 
ATOM     76  C   UNL A   1      43.263  27.321  26.917  1.00  0.00     0.173 A 
ATOM     77  F   UNL A   1      40.876  24.940  28.272  1.00  0.00    -0.203 F 
ATOM     78  C   UNL A   1      42.271  24.786  26.380  1.00  0.00     0.198 A 
ATOM     79  C   UNL A   1      43.719  26.612  25.808  1.00  0.00     0.198 A 
ATOM     80  F   UNL A   1      43.769  28.539  27.159  1.00  0.00    -0.203 F 
ATOM     81  F   UNL A   1      41.818  23.547  26.147  1.00  0.00    -0.200 F 
ATOM     82  C   UNL A   1      43.230  25.341  25.546  1.00  0.00     0.200 A 
ATOM     83  F   UNL A   1      44.637  27.158  24.999  1.00  0.00    -0.200 F 
ATOM     84  F   UNL A   1      43.689  24.649  24.495  1.00  0.00    -0.200 F 
ENDBRANCH  50  74
BRANCH  62  85
ATOM     85  C   UNL A   1      44.427  27.038  34.398  1.00  0.00     0.064 A 
ATOM     86  C   UNL A   1      45.722  27.560  34.535  1.00  0.00     0.173 A 
ATOM     87  C   UNL A   1      44.147  25.806  35.009  1.00  0.00     0.173 A 
ATOM     88  F   UNL A   1      46.042  28.729  33.958  1.00  0.00    -0.203 F 
ATOM     89  C   UNL A   1      46.705  26.860  35.228  1.00  0.00     0.198 A 
ATOM     90  C   UNL A   1      45.125  25.125  35.729  1.00  0.00     0.198 A 
ATOM     91  F   UNL A   1      42.923  25.266  34.917  1.00  0.00    -0.203 F 
ATOM     92  F   UNL A   1      47.950  27.352  35.300  1.00  0.00    -0.200 F 
ATOM     93  C   UNL A   1      46.405  25.647  35.829  1.00  0.00     0.200 A 
ATOM     94  F   UNL A   1      44.829  23.959  36.321  1.00  0.00    -0.200 F 
ATOM     95  F   UNL A   1      47.352  24.977  36.499  1.00  0.00    -0.200 F 
ENDBRANCH  62  85
ENDBRANCH  36  37
ENDBRANCH  29  31
ENDBRANCH  28  29
ENDBRANCH  27  28
ENDBRANCH  26  27
ENDBRANCH   1  26
TORSDOF 18
ENDMDL
