MODEL 1
REMARK VINA RESULT:     -12.2      0.000      0.000
REMARK SMILES C[C@H]1[C@H](C(=O)OCCOCCOC(=O)c2ccc(-c3c4nc(c(-c5c(F)c(F)c(F)c(F)c5F)c5ccc([nH]5)c(-c5c(F)c(F)c(F)c(F)c5F)c5nc(c(-c6c(F)c(F)c(F)c(F)c6F)c6ccc3[nH]6)C=C5)C=C4)cc2)CCN1C(=O)Nc1ccc(F)cc1
REMARK SMILES IDX 9 1 8 2 7 3 6 4 4 5 5 6 3 7 1 8 2 9 80 10 78 11 79 12 81 13
REMARK SMILES IDX 82 14 83 15 84 17 85 18 90 19 86 20 89 21 87 22 88 23 10 24
REMARK SMILES IDX 11 25 12 26 13 27 14 28 15 29 16 30 77 31 17 32 76 33 18 34
REMARK SMILES IDX 19 35 20 36 70 37 21 38 75 39 69 40 71 41 22 42 74 43 68 44
REMARK SMILES IDX 67 45 23 47 55 48 35 49 54 50 36 51 39 52 53 53 72 54 37 55
REMARK SMILES IDX 38 56 52 58 73 59 40 60 24 61 25 62 33 63 26 64 27 65 31 66
REMARK SMILES IDX 34 67 28 68 29 69 32 70 30 71 56 72 57 73 65 74 58 75 59 76
REMARK SMILES IDX 63 77 66 78 60 79 61 80 64 81 62 82 41 83 42 84 50 85 43 86
REMARK SMILES IDX 44 87 48 88 51 89 45 90 46 91 49 92 47 93
REMARK H PARENT 83 16 71 46 39 57
REMARK Flexibility Score: inf
ROOT
ATOM      1  O   UNL A   1      30.634  29.819  24.233  1.00  0.00    -0.374 OA
ENDROOT
BRANCH   1   2
ATOM      2  C   UNL A   1      31.099  29.308  22.989  1.00  0.00     0.202 C 
BRANCH   2   3
ATOM      3  C   UNL A   1      32.515  28.722  22.965  1.00  0.00     0.261 C 
BRANCH   3   4
ATOM      4  O   UNL A   1      32.689  27.615  22.062  1.00  0.00    -0.463 OA
BRANCH   4   5
ATOM      5  C   UNL A   1      33.182  26.480  22.632  1.00  0.00     0.311 C 
ATOM      6  O   UNL A   1      33.829  25.625  22.039  1.00  0.00    -0.252 OA
BRANCH   5   7
ATOM      7  C   UNL A   1      32.759  26.298  24.069  1.00  0.00     0.123 C 
ATOM      8  C   UNL A   1      30.329  26.029  24.615  1.00  0.00     0.032 C 
ATOM      9  C   UNL A   1      31.638  25.269  24.375  1.00  0.00     0.098 C 
ATOM     10  N   UNL A   1      32.113  24.540  25.571  1.00  0.00    -0.321 N 
ATOM     11  C   UNL A   1      33.962  25.839  24.877  1.00  0.00     0.039 C 
ATOM     12  C   UNL A   1      33.339  25.154  26.065  1.00  0.00     0.122 C 
BRANCH  10  13
ATOM     13  C   UNL A   1      31.581  23.562  26.357  1.00  0.00     0.322 C 
ATOM     14  O   UNL A   1      30.687  23.831  27.172  1.00  0.00    -0.248 OA
ATOM     15  N   UNL A   1      31.819  22.247  26.215  1.00  0.00    -0.308 N 
ATOM     16  H   UNL A   1      31.048  21.717  26.519  1.00  0.00     0.171 HD
BRANCH  15  17
ATOM     17  C   UNL A   1      32.842  21.416  25.762  1.00  0.00     0.043 A 
ATOM     18  C   UNL A   1      32.438  20.268  25.057  1.00  0.00     0.029 A 
ATOM     19  C   UNL A   1      34.191  21.606  26.038  1.00  0.00     0.029 A 
ATOM     20  C   UNL A   1      33.375  19.363  24.564  1.00  0.00     0.041 A 
ATOM     21  C   UNL A   1      35.128  20.681  25.561  1.00  0.00     0.041 A 
ATOM     22  C   UNL A   1      34.718  19.583  24.815  1.00  0.00     0.123 A 
ATOM     23  F   UNL A   1      35.631  18.722  24.351  1.00  0.00    -0.207 F 
ENDBRANCH  15  17
ENDBRANCH  10  13
ENDBRANCH   5   7
ENDBRANCH   4   5
ENDBRANCH   3   4
ENDBRANCH   2   3
ENDBRANCH   1   2
BRANCH   1  24
ATOM     24  C   UNL A   1      31.502  29.725  25.362  1.00  0.00     0.202 C 
BRANCH  24  25
ATOM     25  C   UNL A   1      31.725  31.013  26.156  1.00  0.00     0.261 C 
BRANCH  25  26
ATOM     26  O   UNL A   1      32.624  30.818  27.268  1.00  0.00    -0.460 OA
BRANCH  26  27
ATOM     27  C   UNL A   1      33.407  31.891  27.530  1.00  0.00     0.338 C 
ATOM     28  O   UNL A   1      33.042  33.052  27.663  1.00  0.00    -0.246 OA
BRANCH  27  29
ATOM     29  C   UNL A   1      34.812  31.507  27.742  1.00  0.00     0.060 A 
ATOM     30  C   UNL A   1      35.081  30.146  27.912  1.00  0.00     0.016 A 
ATOM     31  C   UNL A   1      35.805  32.460  27.980  1.00  0.00     0.016 A 
ATOM     32  C   UNL A   1      36.322  29.739  28.399  1.00  0.00     0.010 A 
ATOM     33  C   UNL A   1      37.054  32.050  28.465  1.00  0.00     0.010 A 
ATOM     34  C   UNL A   1      37.297  30.693  28.728  1.00  0.00    -0.014 A 
BRANCH  34  35
ATOM     35  C   UNL A   1      38.501  30.258  29.476  1.00  0.00     0.031 A 
ATOM     36  C   UNL A   1      38.698  30.713  30.897  1.00  0.00     0.074 A 
ATOM     37  C   UNL A   1      39.378  29.409  28.914  1.00  0.00     0.049 A 
ATOM     38  N   UNL A   1      39.612  30.353  31.765  1.00  0.00    -0.248 NA
ATOM     39  C   UNL A   1      37.743  31.707  31.410  1.00  0.00     0.031 C 
ATOM     40  C   UNL A   1      39.303  28.905  27.545  1.00  0.00     0.029 A 
ATOM     41  N   UNL A   1      40.499  28.814  29.434  1.00  0.00    -0.354 N 
ATOM     42  C   UNL A   1      39.335  31.066  32.924  1.00  0.00     0.074 A 
ATOM     43  C   UNL A   1      38.197  31.912  32.639  1.00  0.00     0.031 C 
ATOM     44  C   UNL A   1      40.329  28.065  27.334  1.00  0.00     0.029 A 
ATOM     45  C   UNL A   1      41.134  27.975  28.553  1.00  0.00     0.049 A 
ATOM     46  H   UNL A   1      40.818  28.972  30.352  1.00  0.00     0.167 HD
ATOM     47  C   UNL A   1      39.962  31.008  34.123  1.00  0.00     0.037 A 
ATOM     48  C   UNL A   1      42.229  27.211  28.717  1.00  0.00     0.037 A 
ATOM     49  C   UNL A   1      41.092  30.164  34.412  1.00  0.00     0.049 A 
ATOM     50  C   UNL A   1      42.912  27.167  30.057  1.00  0.00     0.074 A 
ATOM     51  C   UNL A   1      41.774  30.010  35.607  1.00  0.00     0.029 A 
ATOM     52  N   UNL A   1      41.710  29.334  33.490  1.00  0.00    -0.354 N 
ATOM     53  N   UNL A   1      42.601  27.793  31.166  1.00  0.00    -0.248 NA
ATOM     54  C   UNL A   1      44.087  26.292  30.172  1.00  0.00     0.031 C 
ATOM     55  C   UNL A   1      42.827  29.112  35.398  1.00  0.00     0.029 A 
ATOM     56  C   UNL A   1      42.777  28.679  34.084  1.00  0.00     0.049 A 
ATOM     57  H   UNL A   1      41.433  29.227  32.551  1.00  0.00     0.167 HD
ATOM     58  C   UNL A   1      43.523  27.373  32.113  1.00  0.00     0.074 A 
ATOM     59  C   UNL A   1      44.398  26.425  31.454  1.00  0.00     0.031 C 
ATOM     60  C   UNL A   1      43.635  27.736  33.414  1.00  0.00     0.037 A 
BRANCH  47  61
ATOM     61  C   UNL A   1      39.435  31.883  35.222  1.00  0.00     0.064 A 
ATOM     62  C   UNL A   1      38.563  31.383  36.200  1.00  0.00     0.173 A 
ATOM     63  C   UNL A   1      39.838  33.223  35.322  1.00  0.00     0.173 A 
ATOM     64  F   UNL A   1      38.140  30.112  36.141  1.00  0.00    -0.203 F 
ATOM     65  C   UNL A   1      38.097  32.200  37.228  1.00  0.00     0.198 A 
ATOM     66  C   UNL A   1      39.388  34.030  36.364  1.00  0.00     0.198 A 
ATOM     67  F   UNL A   1      40.675  33.746  34.413  1.00  0.00    -0.203 F 
ATOM     68  F   UNL A   1      37.237  31.710  38.132  1.00  0.00    -0.200 F 
ATOM     69  C   UNL A   1      38.514  33.519  37.311  1.00  0.00     0.200 A 
ATOM     70  F   UNL A   1      39.798  35.303  36.449  1.00  0.00    -0.200 F 
ATOM     71  F   UNL A   1      38.069  34.302  38.305  1.00  0.00    -0.200 F 
ENDBRANCH  47  61
BRANCH  48  72
ATOM     72  C   UNL A   1      42.728  26.392  27.584  1.00  0.00     0.064 A 
ATOM     73  C   UNL A   1      42.217  25.110  27.341  1.00  0.00     0.173 A 
ATOM     74  C   UNL A   1      43.723  26.877  26.723  1.00  0.00     0.173 A 
ATOM     75  F   UNL A   1      41.280  24.598  28.152  1.00  0.00    -0.203 F 
ATOM     76  C   UNL A   1      42.692  24.338  26.284  1.00  0.00     0.198 A 
ATOM     77  C   UNL A   1      44.181  26.113  25.654  1.00  0.00     0.198 A 
ATOM     78  F   UNL A   1      44.240  28.099  26.916  1.00  0.00    -0.203 F 
ATOM     79  F   UNL A   1      42.212  23.101  26.092  1.00  0.00    -0.200 F 
ATOM     80  C   UNL A   1      43.669  24.841  25.438  1.00  0.00     0.200 A 
ATOM     81  F   UNL A   1      45.119  26.606  24.833  1.00  0.00    -0.200 F 
ATOM     82  F   UNL A   1      44.123  24.098  24.419  1.00  0.00    -0.200 F 
ENDBRANCH  48  72
BRANCH  60  83
ATOM     83  C   UNL A   1      44.727  27.092  34.215  1.00  0.00     0.064 A 
ATOM     84  C   UNL A   1      44.524  25.877  34.886  1.00  0.00     0.173 A 
ATOM     85  C   UNL A   1      45.996  27.683  34.291  1.00  0.00     0.173 A 
ATOM     86  F   UNL A   1      43.322  25.281  34.854  1.00  0.00    -0.203 F 
ATOM     87  C   UNL A   1      45.547  25.290  35.626  1.00  0.00     0.198 A 
ATOM     88  C   UNL A   1      47.024  27.081  35.013  1.00  0.00     0.198 A 
ATOM     89  F   UNL A   1      46.241  28.843  33.663  1.00  0.00    -0.203 F 
ATOM     90  F   UNL A   1      45.318  24.152  36.296  1.00  0.00    -0.200 F 
ATOM     91  C   UNL A   1      46.796  25.890  35.685  1.00  0.00     0.200 A 
ATOM     92  F   UNL A   1      48.233  27.657  35.063  1.00  0.00    -0.200 F 
ATOM     93  F   UNL A   1      47.779  25.323  36.398  1.00  0.00    -0.200 F 
ENDBRANCH  60  83
ENDBRANCH  34  35
ENDBRANCH  27  29
ENDBRANCH  26  27
ENDBRANCH  25  26
ENDBRANCH  24  25
ENDBRANCH   1  24
TORSDOF 16
ENDMDL
MODEL 2
REMARK VINA RESULT:     -12.1      4.372      9.977
REMARK SMILES C[C@H]1[C@H](C(=O)OCCOCCOC(=O)c2ccc(-c3c4nc(c(-c5c(F)c(F)c(F)c(F)c5F)c5ccc([nH]5)c(-c5c(F)c(F)c(F)c(F)c5F)c5nc(c(-c6c(F)c(F)c(F)c(F)c6F)c6ccc3[nH]6)C=C5)C=C4)cc2)CCN1C(=O)Nc1ccc(F)cc1
REMARK SMILES IDX 9 1 8 2 7 3 6 4 4 5 5 6 3 7 1 8 2 9 80 10 78 11 79 12 81 13
REMARK SMILES IDX 82 14 83 15 84 17 85 18 90 19 86 20 89 21 87 22 88 23 10 24
REMARK SMILES IDX 11 25 12 26 13 27 14 28 15 29 16 30 77 31 17 32 76 33 18 34
REMARK SMILES IDX 19 35 20 36 70 37 21 38 75 39 69 40 71 41 22 42 74 43 68 44
REMARK SMILES IDX 67 45 23 47 55 48 35 49 54 50 36 51 39 52 53 53 72 54 37 55
REMARK SMILES IDX 38 56 52 58 73 59 40 60 24 61 25 62 33 63 26 64 27 65 31 66
REMARK SMILES IDX 34 67 28 68 29 69 32 70 30 71 56 72 57 73 65 74 58 75 59 76
REMARK SMILES IDX 63 77 66 78 60 79 61 80 64 81 62 82 41 83 42 84 50 85 43 86
REMARK SMILES IDX 44 87 48 88 51 89 45 90 46 91 49 92 47 93
REMARK H PARENT 83 16 71 46 39 57
REMARK Flexibility Score: inf
ROOT
ATOM      1  O   UNL A   1      35.024  20.996  26.158  1.00  0.00    -0.374 OA
ENDROOT
BRANCH   1   2
ATOM      2  C   UNL A   1      34.322  21.981  26.907  1.00  0.00     0.202 C 
BRANCH   2   3
ATOM      3  C   UNL A   1      32.826  22.140  26.617  1.00  0.00     0.261 C 
BRANCH   3   4
ATOM      4  O   UNL A   1      32.327  21.292  25.567  1.00  0.00    -0.463 OA
BRANCH   4   5
ATOM      5  C   UNL A   1      32.444  21.803  24.310  1.00  0.00     0.311 C 
ATOM      6  O   UNL A   1      32.800  21.164  23.326  1.00  0.00    -0.252 OA
BRANCH   5   7
ATOM      7  C   UNL A   1      32.204  23.292  24.242  1.00  0.00     0.123 C 
ATOM      8  C   UNL A   1      34.117  24.867  24.605  1.00  0.00     0.032 C 
ATOM      9  C   UNL A   1      33.269  24.171  23.535  1.00  0.00     0.098 C 
ATOM     10  N   UNL A   1      32.488  25.117  22.710  1.00  0.00    -0.321 N 
ATOM     11  C   UNL A   1      30.907  23.543  23.491  1.00  0.00     0.039 C 
ATOM     12  C   UNL A   1      31.067  24.954  22.989  1.00  0.00     0.122 C 
BRANCH  10  13
ATOM     13  C   UNL A   1      32.816  26.163  21.900  1.00  0.00     0.322 C 
ATOM     14  O   UNL A   1      33.276  25.958  20.767  1.00  0.00    -0.248 OA
ATOM     15  N   UNL A   1      32.523  27.451  22.150  1.00  0.00    -0.308 N 
ATOM     16  H   UNL A   1      32.411  27.953  21.311  1.00  0.00     0.171 HD
BRANCH  15  17
ATOM     17  C   UNL A   1      32.332  28.281  23.253  1.00  0.00     0.043 A 
ATOM     18  C   UNL A   1      31.063  28.878  23.363  1.00  0.00     0.029 A 
ATOM     19  C   UNL A   1      33.323  28.612  24.170  1.00  0.00     0.029 A 
ATOM     20  C   UNL A   1      30.762  29.732  24.422  1.00  0.00     0.041 A 
ATOM     21  C   UNL A   1      33.022  29.490  25.219  1.00  0.00     0.041 A 
ATOM     22  C   UNL A   1      31.747  30.025  25.348  1.00  0.00     0.123 A 
ATOM     23  F   UNL A   1      31.476  30.846  26.370  1.00  0.00    -0.207 F 
ENDBRANCH  15  17
ENDBRANCH  10  13
ENDBRANCH   5   7
ENDBRANCH   4   5
ENDBRANCH   3   4
ENDBRANCH   2   3
ENDBRANCH   1   2
BRANCH   1  24
ATOM     24  C   UNL A   1      35.980  21.441  25.197  1.00  0.00     0.202 C 
BRANCH  24  25
ATOM     25  C   UNL A   1      37.258  20.609  25.076  1.00  0.00     0.261 C 
BRANCH  25  26
ATOM     26  O   UNL A   1      38.440  21.433  25.002  1.00  0.00    -0.460 OA
BRANCH  26  27
ATOM     27  C   UNL A   1      39.360  21.155  25.956  1.00  0.00     0.338 C 
ATOM     28  O   UNL A   1      39.928  20.086  26.139  1.00  0.00    -0.246 OA
BRANCH  27  29
ATOM     29  C   UNL A   1      39.705  22.345  26.750  1.00  0.00     0.060 A 
ATOM     30  C   UNL A   1      39.060  23.540  26.421  1.00  0.00     0.016 A 
ATOM     31  C   UNL A   1      40.778  22.344  27.646  1.00  0.00     0.016 A 
ATOM     32  C   UNL A   1      39.538  24.749  26.923  1.00  0.00     0.010 A 
ATOM     33  C   UNL A   1      41.254  23.559  28.154  1.00  0.00     0.010 A 
ATOM     34  C   UNL A   1      40.670  24.769  27.751  1.00  0.00    -0.014 A 
BRANCH  34  35
ATOM     35  C   UNL A   1      41.307  26.072  28.062  1.00  0.00     0.031 A 
ATOM     36  C   UNL A   1      42.697  26.359  27.562  1.00  0.00     0.074 A 
ATOM     37  C   UNL A   1      40.623  27.018  28.730  1.00  0.00     0.049 A 
ATOM     38  N   UNL A   1      43.386  27.473  27.617  1.00  0.00    -0.248 NA
ATOM     39  C   UNL A   1      43.409  25.245  26.917  1.00  0.00     0.031 C 
ATOM     40  C   UNL A   1      39.278  26.858  29.273  1.00  0.00     0.029 A 
ATOM     41  N   UNL A   1      40.970  28.305  29.052  1.00  0.00    -0.354 N 
ATOM     42  C   UNL A   1      44.601  27.196  27.007  1.00  0.00     0.074 A 
ATOM     43  C   UNL A   1      44.577  25.800  26.626  1.00  0.00     0.031 C 
ATOM     44  C   UNL A   1      38.903  28.010  29.854  1.00  0.00     0.029 A 
ATOM     45  C   UNL A   1      39.985  28.986  29.724  1.00  0.00     0.049 A 
ATOM     46  H   UNL A   1      41.840  28.704  28.822  1.00  0.00     0.167 HD
ATOM     47  C   UNL A   1      45.638  28.034  26.767  1.00  0.00     0.037 A 
ATOM     48  C   UNL A   1      39.957  30.255  30.171  1.00  0.00     0.037 A 
ATOM     49  C   UNL A   1      45.665  29.425  27.140  1.00  0.00     0.049 A 
ATOM     50  C   UNL A   1      41.123  31.166  29.898  1.00  0.00     0.074 A 
ATOM     51  C   UNL A   1      46.657  30.364  26.910  1.00  0.00     0.029 A 
ATOM     52  N   UNL A   1      44.652  30.074  27.826  1.00  0.00    -0.354 N 
ATOM     53  N   UNL A   1      42.240  30.913  29.260  1.00  0.00    -0.248 NA
ATOM     54  C   UNL A   1      41.014  32.546  30.391  1.00  0.00     0.031 C 
ATOM     55  C   UNL A   1      46.257  31.573  27.489  1.00  0.00     0.029 A 
ATOM     56  C   UNL A   1      45.001  31.398  28.046  1.00  0.00     0.049 A 
ATOM     57  H   UNL A   1      43.808  29.657  28.117  1.00  0.00     0.167 HD
ATOM     58  C   UNL A   1      42.954  32.102  29.254  1.00  0.00     0.074 A 
ATOM     59  C   UNL A   1      42.138  33.083  29.940  1.00  0.00     0.031 C 
ATOM     60  C   UNL A   1      44.175  32.361  28.726  1.00  0.00     0.037 A 
BRANCH  47  61
ATOM     61  C   UNL A   1      46.837  27.469  26.064  1.00  0.00     0.064 A 
ATOM     62  C   UNL A   1      46.993  27.588  24.675  1.00  0.00     0.173 A 
ATOM     63  C   UNL A   1      47.858  26.838  26.789  1.00  0.00     0.173 A 
ATOM     64  F   UNL A   1      46.038  28.173  23.936  1.00  0.00    -0.203 F 
ATOM     65  C   UNL A   1      48.120  27.078  24.035  1.00  0.00     0.198 A 
ATOM     66  C   UNL A   1      48.994  26.349  26.149  1.00  0.00     0.198 A 
ATOM     67  F   UNL A   1      47.758  26.704  28.120  1.00  0.00    -0.203 F 
ATOM     68  F   UNL A   1      48.232  27.172  22.703  1.00  0.00    -0.200 F 
ATOM     69  C   UNL A   1      49.121  26.465  24.773  1.00  0.00     0.200 A 
ATOM     70  F   UNL A   1      49.966  25.764  26.864  1.00  0.00    -0.200 F 
ATOM     71  F   UNL A   1      50.208  25.980  24.156  1.00  0.00    -0.200 F 
ENDBRANCH  47  61
BRANCH  48  72
ATOM     72  C   UNL A   1      38.759  30.752  30.893  1.00  0.00     0.064 A 
ATOM     73  C   UNL A   1      37.656  31.260  30.195  1.00  0.00     0.173 A 
ATOM     74  C   UNL A   1      38.696  30.724  32.293  1.00  0.00     0.173 A 
ATOM     75  F   UNL A   1      37.682  31.324  28.856  1.00  0.00    -0.203 F 
ATOM     76  C   UNL A   1      36.536  31.735  30.873  1.00  0.00     0.198 A 
ATOM     77  C   UNL A   1      37.567  31.179  32.969  1.00  0.00     0.198 A 
ATOM     78  F   UNL A   1      39.728  30.244  33.002  1.00  0.00    -0.203 F 
ATOM     79  F   UNL A   1      35.507  32.249  30.185  1.00  0.00    -0.200 F 
ATOM     80  C   UNL A   1      36.490  31.689  32.259  1.00  0.00     0.200 A 
ATOM     81  F   UNL A   1      37.522  31.124  34.307  1.00  0.00    -0.200 F 
ATOM     82  F   UNL A   1      35.410  32.143  32.910  1.00  0.00    -0.200 F 
ENDBRANCH  48  72
BRANCH  60  83
ATOM     83  C   UNL A   1      44.693  33.763  28.850  1.00  0.00     0.064 A 
ATOM     84  C   UNL A   1      45.478  34.160  29.943  1.00  0.00     0.173 A 
ATOM     85  C   UNL A   1      44.423  34.712  27.853  1.00  0.00     0.173 A 
ATOM     86  F   UNL A   1      45.751  33.292  30.928  1.00  0.00    -0.203 F 
ATOM     87  C   UNL A   1      45.953  35.465  30.045  1.00  0.00     0.198 A 
ATOM     88  C   UNL A   1      44.919  36.009  27.948  1.00  0.00     0.198 A 
ATOM     89  F   UNL A   1      43.681  34.379  26.787  1.00  0.00    -0.203 F 
ATOM     90  F   UNL A   1      46.662  35.836  31.120  1.00  0.00    -0.200 F 
ATOM     91  C   UNL A   1      45.677  36.387  29.046  1.00  0.00     0.200 A 
ATOM     92  F   UNL A   1      44.658  36.897  26.978  1.00  0.00    -0.200 F 
ATOM     93  F   UNL A   1      46.134  37.642  29.147  1.00  0.00    -0.200 F 
ENDBRANCH  60  83
ENDBRANCH  34  35
ENDBRANCH  27  29
ENDBRANCH  26  27
ENDBRANCH  25  26
ENDBRANCH  24  25
ENDBRANCH   1  24
TORSDOF 16
ENDMDL
MODEL 3
REMARK VINA RESULT:     -12.1      1.290      2.404
REMARK SMILES C[C@H]1[C@H](C(=O)OCCOCCOC(=O)c2ccc(-c3c4nc(c(-c5c(F)c(F)c(F)c(F)c5F)c5ccc([nH]5)c(-c5c(F)c(F)c(F)c(F)c5F)c5nc(c(-c6c(F)c(F)c(F)c(F)c6F)c6ccc3[nH]6)C=C5)C=C4)cc2)CCN1C(=O)Nc1ccc(F)cc1
REMARK SMILES IDX 9 1 8 2 7 3 6 4 4 5 5 6 3 7 1 8 2 9 80 10 78 11 79 12 81 13
REMARK SMILES IDX 82 14 83 15 84 17 85 18 90 19 86 20 89 21 87 22 88 23 10 24
REMARK SMILES IDX 11 25 12 26 13 27 14 28 15 29 16 30 77 31 17 32 76 33 18 34
REMARK SMILES IDX 19 35 20 36 70 37 21 38 75 39 69 40 71 41 22 42 74 43 68 44
REMARK SMILES IDX 67 45 23 47 55 48 35 49 54 50 36 51 39 52 53 53 72 54 37 55
REMARK SMILES IDX 38 56 52 58 73 59 40 60 24 61 25 62 33 63 26 64 27 65 31 66
REMARK SMILES IDX 34 67 28 68 29 69 32 70 30 71 56 72 57 73 65 74 58 75 59 76
REMARK SMILES IDX 63 77 66 78 60 79 61 80 64 81 62 82 41 83 42 84 50 85 43 86
REMARK SMILES IDX 44 87 48 88 51 89 45 90 46 91 49 92 47 93
REMARK H PARENT 83 16 71 46 39 57
REMARK Flexibility Score: inf
ROOT
ATOM      1  O   UNL A   1      30.896  29.912  24.668  1.00  0.00    -0.374 OA
ENDROOT
BRANCH   1   2
ATOM      2  C   UNL A   1      31.155  28.939  23.662  1.00  0.00     0.202 C 
BRANCH   2   3
ATOM      3  C   UNL A   1      31.437  27.509  24.136  1.00  0.00     0.261 C 
BRANCH   3   4
ATOM      4  O   UNL A   1      30.344  26.882  24.830  1.00  0.00    -0.463 OA
BRANCH   4   5
ATOM      5  C   UNL A   1      30.709  26.022  25.820  1.00  0.00     0.311 C 
ATOM      6  O   UNL A   1      31.284  26.349  26.853  1.00  0.00    -0.252 OA
BRANCH   5   7
ATOM      7  C   UNL A   1      30.444  24.574  25.487  1.00  0.00     0.123 C 
ATOM      8  C   UNL A   1      30.999  23.713  23.201  1.00  0.00     0.032 C 
ATOM      9  C   UNL A   1      31.502  23.813  24.645  1.00  0.00     0.098 C 
ATOM     10  N   UNL A   1      31.632  22.496  25.306  1.00  0.00    -0.321 N 
ATOM     11  C   UNL A   1      30.316  23.790  26.783  1.00  0.00     0.039 C 
ATOM     12  C   UNL A   1      30.639  22.380  26.366  1.00  0.00     0.122 C 
BRANCH  10  13
ATOM     13  C   UNL A   1      32.348  21.368  25.037  1.00  0.00     0.322 C 
ATOM     14  O   UNL A   1      31.778  20.269  24.961  1.00  0.00    -0.248 OA
ATOM     15  N   UNL A   1      33.638  21.347  24.662  1.00  0.00    -0.308 N 
ATOM     16  H   UNL A   1      33.824  20.565  24.093  1.00  0.00     0.171 HD
BRANCH  15  17
ATOM     17  C   UNL A   1      34.789  22.110  24.846  1.00  0.00     0.043 A 
ATOM     18  C   UNL A   1      35.039  22.543  26.160  1.00  0.00     0.029 A 
ATOM     19  C   UNL A   1      35.628  22.528  23.820  1.00  0.00     0.029 A 
ATOM     20  C   UNL A   1      36.158  23.318  26.460  1.00  0.00     0.041 A 
ATOM     21  C   UNL A   1      36.738  23.327  24.122  1.00  0.00     0.041 A 
ATOM     22  C   UNL A   1      37.005  23.698  25.434  1.00  0.00     0.123 A 
ATOM     23  F   UNL A   1      38.082  24.444  25.703  1.00  0.00    -0.207 F 
ENDBRANCH  15  17
ENDBRANCH  10  13
ENDBRANCH   5   7
ENDBRANCH   4   5
ENDBRANCH   3   4
ENDBRANCH   2   3
ENDBRANCH   1   2
BRANCH   1  24
ATOM     24  C   UNL A   1      31.838  30.043  25.731  1.00  0.00     0.202 C 
BRANCH  24  25
ATOM     25  C   UNL A   1      31.841  31.380  26.474  1.00  0.00     0.261 C 
BRANCH  25  26
ATOM     26  O   UNL A   1      32.702  31.357  27.633  1.00  0.00    -0.460 OA
BRANCH  26  27
ATOM     27  C   UNL A   1      33.590  32.378  27.673  1.00  0.00     0.338 C 
ATOM     28  O   UNL A   1      33.336  33.574  27.626  1.00  0.00    -0.246 OA
BRANCH  27  29
ATOM     29  C   UNL A   1      34.967  31.900  27.877  1.00  0.00     0.060 A 
ATOM     30  C   UNL A   1      35.149  30.522  28.018  1.00  0.00     0.016 A 
ATOM     31  C   UNL A   1      36.019  32.783  28.136  1.00  0.00     0.016 A 
ATOM     32  C   UNL A   1      36.360  30.026  28.497  1.00  0.00     0.010 A 
ATOM     33  C   UNL A   1      37.238  32.283  28.613  1.00  0.00     0.010 A 
ATOM     34  C   UNL A   1      37.393  30.908  28.846  1.00  0.00    -0.014 A 
BRANCH  34  35
ATOM     35  C   UNL A   1      38.566  30.382  29.586  1.00  0.00     0.031 A 
ATOM     36  C   UNL A   1      38.782  30.783  31.020  1.00  0.00     0.074 A 
ATOM     37  C   UNL A   1      39.394  29.498  29.003  1.00  0.00     0.049 A 
ATOM     38  N   UNL A   1      39.669  30.345  31.881  1.00  0.00    -0.248 NA
ATOM     39  C   UNL A   1      37.885  31.817  31.559  1.00  0.00     0.031 C 
ATOM     40  C   UNL A   1      39.296  29.040  27.620  1.00  0.00     0.029 A 
ATOM     41  N   UNL A   1      40.475  28.823  29.509  1.00  0.00    -0.354 N 
ATOM     42  C   UNL A   1      39.429  31.039  33.058  1.00  0.00     0.074 A 
ATOM     43  C   UNL A   1      38.343  31.959  32.794  1.00  0.00     0.031 C 
ATOM     44  C   UNL A   1      40.272  28.146  27.388  1.00  0.00     0.029 A 
ATOM     45  C   UNL A   1      41.063  27.973  28.606  1.00  0.00     0.049 A 
ATOM     46  H   UNL A   1      40.798  28.936  30.432  1.00  0.00     0.167 HD
ATOM     47  C   UNL A   1      40.044  30.910  34.258  1.00  0.00     0.037 A 
ATOM     48  C   UNL A   1      42.111  27.142  28.752  1.00  0.00     0.037 A 
ATOM     49  C   UNL A   1      41.121  29.993  34.526  1.00  0.00     0.049 A 
ATOM     50  C   UNL A   1      42.782  27.018  30.093  1.00  0.00     0.074 A 
ATOM     51  C   UNL A   1      41.787  29.764  35.719  1.00  0.00     0.029 A 
ATOM     52  N   UNL A   1      41.694  29.154  33.583  1.00  0.00    -0.354 N 
ATOM     53  N   UNL A   1      42.503  27.630  31.218  1.00  0.00    -0.248 NA
ATOM     54  C   UNL A   1      43.903  26.073  30.186  1.00  0.00     0.031 C 
ATOM     55  C   UNL A   1      42.786  28.812  35.487  1.00  0.00     0.029 A 
ATOM     56  C   UNL A   1      42.717  28.420  34.161  1.00  0.00     0.049 A 
ATOM     57  H   UNL A   1      41.415  29.090  32.640  1.00  0.00     0.167 HD
ATOM     58  C   UNL A   1      43.395  27.129  32.156  1.00  0.00     0.074 A 
ATOM     59  C   UNL A   1      44.215  26.150  31.472  1.00  0.00     0.031 C 
ATOM     60  C   UNL A   1      43.521  27.448  33.467  1.00  0.00     0.037 A 
BRANCH  47  61
ATOM     61  C   UNL A   1      39.565  31.783  35.380  1.00  0.00     0.064 A 
ATOM     62  C   UNL A   1      40.042  33.092  35.541  1.00  0.00     0.173 A 
ATOM     63  C   UNL A   1      38.589  31.323  36.276  1.00  0.00     0.173 A 
ATOM     64  F   UNL A   1      40.983  33.574  34.716  1.00  0.00    -0.203 F 
ATOM     65  C   UNL A   1      39.574  33.902  36.574  1.00  0.00     0.198 A 
ATOM     66  C   UNL A   1      38.107  32.143  37.293  1.00  0.00     0.198 A 
ATOM     67  F   UNL A   1      38.098  30.080  36.160  1.00  0.00    -0.203 F 
ATOM     68  F   UNL A   1      40.070  35.137  36.730  1.00  0.00    -0.200 F 
ATOM     69  C   UNL A   1      38.604  33.429  37.444  1.00  0.00     0.200 A 
ATOM     70  F   UNL A   1      37.163  31.688  38.129  1.00  0.00    -0.200 F 
ATOM     71  F   UNL A   1      38.151  34.211  38.433  1.00  0.00    -0.200 F 
ENDBRANCH  47  61
BRANCH  48  72
ATOM     72  C   UNL A   1      42.566  26.327  27.598  1.00  0.00     0.064 A 
ATOM     73  C   UNL A   1      41.990  25.080  27.322  1.00  0.00     0.173 A 
ATOM     74  C   UNL A   1      43.584  26.782  26.748  1.00  0.00     0.173 A 
ATOM     75  F   UNL A   1      41.027  24.597  28.122  1.00  0.00    -0.203 F 
ATOM     76  C   UNL A   1      42.424  24.311  26.245  1.00  0.00     0.198 A 
ATOM     77  C   UNL A   1      44.002  26.023  25.658  1.00  0.00     0.198 A 
ATOM     78  F   UNL A   1      44.164  27.970  26.971  1.00  0.00    -0.203 F 
ATOM     79  F   UNL A   1      41.880  23.107  26.023  1.00  0.00    -0.200 F 
ATOM     80  C   UNL A   1      43.425  24.785  25.411  1.00  0.00     0.200 A 
ATOM     81  F   UNL A   1      44.963  26.488  24.849  1.00  0.00    -0.200 F 
ATOM     82  F   UNL A   1      43.839  24.047  24.372  1.00  0.00    -0.200 F 
ENDBRANCH  48  72
BRANCH  60  83
ATOM     83  C   UNL A   1      44.569  26.717  34.253  1.00  0.00     0.064 A 
ATOM     84  C   UNL A   1      45.869  27.227  34.391  1.00  0.00     0.173 A 
ATOM     85  C   UNL A   1      44.263  25.508  34.894  1.00  0.00     0.173 A 
ATOM     86  F   UNL A   1      46.212  28.372  33.783  1.00  0.00    -0.203 F 
ATOM     87  C   UNL A   1      46.832  26.538  35.123  1.00  0.00     0.198 A 
ATOM     88  C   UNL A   1      45.222  24.834  35.645  1.00  0.00     0.198 A 
ATOM     89  F   UNL A   1      43.033  24.983  34.796  1.00  0.00    -0.203 F 
ATOM     90  F   UNL A   1      48.080  27.019  35.205  1.00  0.00    -0.200 F 
ATOM     91  C   UNL A   1      46.507  25.345  35.754  1.00  0.00     0.200 A 
ATOM     92  F   UNL A   1      44.905  23.687  36.260  1.00  0.00    -0.200 F 
ATOM     93  F   UNL A   1      47.436  24.684  36.458  1.00  0.00    -0.200 F 
ENDBRANCH  60  83
ENDBRANCH  34  35
ENDBRANCH  27  29
ENDBRANCH  26  27
ENDBRANCH  25  26
ENDBRANCH  24  25
ENDBRANCH   1  24
TORSDOF 16
ENDMDL
