MODEL 1
REMARK VINA RESULT:     -12.0      0.000      0.000
REMARK SMILES COc1cccc([C@@H]2CN(C(=O)CSc3nc(C)n[nH]3)C[C@H]2C(=O)OCCOCCOC(=O)c2ccc(-c3c4nc(c(-c5c(F)c(F)c(F)c(F)c5F)c5ccc([nH]5)c(-c5c(F)c(F)c(F)c(F)c5F)c5nc(c(-c6c(F)c(F)c(F)c(F)c6F)c6ccc3[nH]6)C=C5)C=C4)cc2)c1
REMARK SMILES IDX 27 1 26 2 25 3 23 4 24 5 22 6 8 7 9 8 10 9 21 10 7 11 3 12
REMARK SMILES IDX 4 13 97 14 5 15 6 16 2 17 1 18 11 19 12 20 13 21 14 22 15 23
REMARK SMILES IDX 16 24 20 25 17 26 19 27 18 29 28 30 29 31 30 32 31 33 32 34
REMARK SMILES IDX 33 35 34 36 35 37 96 38 36 39 95 40 37 41 38 42 39 43 89 44
REMARK SMILES IDX 40 45 94 46 88 47 90 48 41 49 93 50 87 51 86 52 42 54 74 55
REMARK SMILES IDX 54 56 73 57 55 58 58 59 72 60 91 61 56 62 57 63 71 65 92 66
REMARK SMILES IDX 59 67 43 68 44 69 52 70 45 71 46 72 50 73 53 74 47 75 48 76
REMARK SMILES IDX 51 77 49 78 75 79 76 80 84 81 77 82 78 83 82 84 85 85 79 86
REMARK SMILES IDX 80 87 83 88 81 89 60 90 61 91 69 92 62 93 63 94 67 95 70 96
REMARK SMILES IDX 64 97 65 98 68 99 66 100
REMARK H PARENT 20 28 90 53 58 64
REMARK Flexibility Score: inf
ROOT
ATOM      1  C   UNL A   1      34.232  30.926  27.548  1.00  0.00     0.202 C 
ENDROOT
BRANCH   1   2
ATOM      2  C   UNL A   1      33.402  29.842  26.861  1.00  0.00     0.261 C 
BRANCH   2   3
ATOM      3  O   UNL A   1      34.191  28.833  26.201  1.00  0.00    -0.463 OA
BRANCH   3   4
ATOM      4  C   UNL A   1      33.598  28.278  25.113  1.00  0.00     0.311 C 
ATOM      5  O   UNL A   1      33.948  28.472  23.953  1.00  0.00    -0.252 OA
BRANCH   4   6
ATOM      6  C   UNL A   1      32.390  27.434  25.422  1.00  0.00     0.128 C 
ATOM      7  C   UNL A   1      31.606  26.746  24.282  1.00  0.00     0.055 C 
ATOM      8  C   UNL A   1      31.128  25.444  24.950  1.00  0.00     0.128 C 
ATOM      9  N   UNL A   1      32.151  25.123  25.923  1.00  0.00    -0.340 N 
ATOM     10  C   UNL A   1      32.915  26.294  26.289  1.00  0.00     0.135 C 
BRANCH   7  11
ATOM     11  C   UNL A   1      30.402  27.461  23.681  1.00  0.00    -0.039 A 
ATOM     12  C   UNL A   1      29.364  29.314  22.468  1.00  0.00     0.119 A 
ATOM     13  C   UNL A   1      28.101  28.792  22.744  1.00  0.00     0.046 A 
ATOM     14  C   UNL A   1      30.506  28.645  22.928  1.00  0.00     0.050 A 
ATOM     15  C   UNL A   1      27.971  27.635  23.502  1.00  0.00     0.004 A 
ATOM     16  C   UNL A   1      29.112  26.995  23.986  1.00  0.00     0.004 A 
BRANCH  12  17
ATOM     17  O   UNL A   1      29.340  30.496  21.781  1.00  0.00    -0.497 OA
ATOM     18  C   UNL A   1      28.079  30.976  21.338  1.00  0.00     0.278 C 
ENDBRANCH  12  17
ENDBRANCH   7  11
BRANCH   9  19
ATOM     19  C   UNL A   1      32.432  23.910  26.518  1.00  0.00     0.233 C 
ATOM     20  O   UNL A   1      31.593  23.352  27.229  1.00  0.00    -0.274 OA
BRANCH  19  21
ATOM     21  C   UNL A   1      33.815  23.308  26.330  1.00  0.00     0.178 C 
BRANCH  21  22
ATOM     22  S   UNL A   1      34.016  21.753  27.249  1.00  0.00    -0.077 SA
BRANCH  22  23
ATOM     23  C   UNL A   1      33.408  20.624  26.107  1.00  0.00     0.184 A 
ATOM     24  N   UNL A   1      33.316  20.754  24.811  1.00  0.00    -0.206 NA
ATOM     25  N   UNL A   1      32.921  19.416  26.493  1.00  0.00    -0.254 N 
ATOM     26  C   UNL A   1      32.753  19.561  24.429  1.00  0.00     0.148 A 
ATOM     27  N   UNL A   1      32.499  18.707  25.432  1.00  0.00    -0.158 NA
ATOM     28  H   UNL A   1      32.883  19.103  27.425  1.00  0.00     0.192 HD
ATOM     29  C   UNL A   1      32.429  19.262  23.020  1.00  0.00     0.092 C 
ENDBRANCH  22  23
ENDBRANCH  21  22
ENDBRANCH  19  21
ENDBRANCH   9  19
ENDBRANCH   4   6
ENDBRANCH   3   4
ENDBRANCH   2   3
ENDBRANCH   1   2
BRANCH   1  30
ATOM     30  O   UNL A   1      33.629  32.190  27.803  1.00  0.00    -0.374 OA
BRANCH  30  31
ATOM     31  C   UNL A   1      34.406  33.272  28.300  1.00  0.00     0.202 C 
BRANCH  31  32
ATOM     32  C   UNL A   1      34.410  33.527  29.800  1.00  0.00     0.261 C 
BRANCH  32  33
ATOM     33  O   UNL A   1      34.412  32.322  30.558  1.00  0.00    -0.460 OA
BRANCH  33  34
ATOM     34  C   UNL A   1      35.536  32.133  31.281  1.00  0.00     0.338 C 
ATOM     35  O   UNL A   1      35.788  32.592  32.391  1.00  0.00    -0.246 OA
BRANCH  34  36
ATOM     36  C   UNL A   1      36.527  31.428  30.467  1.00  0.00     0.060 A 
ATOM     37  C   UNL A   1      36.414  30.039  30.452  1.00  0.00     0.016 A 
ATOM     38  C   UNL A   1      37.699  32.078  30.058  1.00  0.00     0.016 A 
ATOM     39  C   UNL A   1      37.562  29.301  30.308  1.00  0.00     0.010 A 
ATOM     40  C   UNL A   1      38.855  31.344  29.947  1.00  0.00     0.010 A 
ATOM     41  C   UNL A   1      38.781  29.974  30.169  1.00  0.00    -0.014 A 
BRANCH  41  42
ATOM     42  C   UNL A   1      39.977  29.166  30.130  1.00  0.00     0.031 A 
ATOM     43  C   UNL A   1      40.580  29.007  31.471  1.00  0.00     0.074 A 
ATOM     44  C   UNL A   1      40.431  28.589  29.002  1.00  0.00     0.049 A 
ATOM     45  N   UNL A   1      41.710  29.469  31.886  1.00  0.00    -0.248 NA
ATOM     46  C   UNL A   1      39.731  28.434  32.530  1.00  0.00     0.031 C 
ATOM     47  C   UNL A   1      39.781  28.491  27.695  1.00  0.00     0.029 A 
ATOM     48  N   UNL A   1      41.578  27.881  28.825  1.00  0.00    -0.354 N 
ATOM     49  C   UNL A   1      41.802  29.072  33.214  1.00  0.00     0.074 A 
ATOM     50  C   UNL A   1      40.495  28.618  33.605  1.00  0.00     0.031 C 
ATOM     51  C   UNL A   1      40.433  27.574  26.941  1.00  0.00     0.029 A 
ATOM     52  C   UNL A   1      41.611  27.122  27.662  1.00  0.00     0.049 A 
ATOM     53  H   UNL A   1      42.322  27.903  29.469  1.00  0.00     0.167 HD
ATOM     54  C   UNL A   1      43.012  28.883  33.800  1.00  0.00     0.037 A 
ATOM     55  C   UNL A   1      42.506  26.136  27.396  1.00  0.00     0.037 A 
ATOM     56  C   UNL A   1      44.051  29.605  33.114  1.00  0.00     0.049 A 
ATOM     57  C   UNL A   1      43.674  26.349  28.296  1.00  0.00     0.074 A 
ATOM     58  C   UNL A   1      44.259  30.943  32.832  1.00  0.00     0.029 A 
ATOM     59  N   UNL A   1      44.864  28.915  32.250  1.00  0.00    -0.354 N 
ATOM     60  N   UNL A   1      44.496  27.356  28.183  1.00  0.00    -0.248 NA
ATOM     61  C   UNL A   1      43.633  25.719  29.609  1.00  0.00     0.031 C 
ATOM     62  C   UNL A   1      44.784  30.965  31.507  1.00  0.00     0.029 A 
ATOM     63  C   UNL A   1      44.937  29.643  31.088  1.00  0.00     0.049 A 
ATOM     64  H   UNL A   1      45.313  28.057  32.430  1.00  0.00     0.167 HD
ATOM     65  C   UNL A   1      44.746  27.754  29.487  1.00  0.00     0.074 A 
ATOM     66  C   UNL A   1      44.234  26.673  30.325  1.00  0.00     0.031 C 
ATOM     67  C   UNL A   1      45.073  29.047  29.781  1.00  0.00     0.037 A 
BRANCH  54  68
ATOM     68  C   UNL A   1      43.277  27.744  34.746  1.00  0.00     0.064 A 
ATOM     69  C   UNL A   1      43.699  28.018  36.057  1.00  0.00     0.173 A 
ATOM     70  C   UNL A   1      43.400  26.397  34.331  1.00  0.00     0.173 A 
ATOM     71  F   UNL A   1      43.668  29.270  36.536  1.00  0.00    -0.203 F 
ATOM     72  C   UNL A   1      44.248  27.025  36.873  1.00  0.00     0.198 A 
ATOM     73  C   UNL A   1      43.889  25.399  35.167  1.00  0.00     0.198 A 
ATOM     74  F   UNL A   1      43.167  26.012  33.071  1.00  0.00    -0.203 F 
ATOM     75  F   UNL A   1      44.748  27.352  38.072  1.00  0.00    -0.200 F 
ATOM     76  C   UNL A   1      44.340  25.717  36.428  1.00  0.00     0.200 A 
ATOM     77  F   UNL A   1      43.993  24.145  34.704  1.00  0.00    -0.200 F 
ATOM     78  F   UNL A   1      44.911  24.775  37.190  1.00  0.00    -0.200 F 
ENDBRANCH  54  68
BRANCH  55  79
ATOM     79  C   UNL A   1      42.266  24.840  26.713  1.00  0.00     0.064 A 
ATOM     80  C   UNL A   1      43.058  24.440  25.622  1.00  0.00     0.173 A 
ATOM     81  C   UNL A   1      41.457  23.842  27.292  1.00  0.00     0.173 A 
ATOM     82  F   UNL A   1      43.893  25.313  25.040  1.00  0.00    -0.203 F 
ATOM     83  C   UNL A   1      43.061  23.118  25.159  1.00  0.00     0.198 A 
ATOM     84  C   UNL A   1      41.456  22.526  26.825  1.00  0.00     0.198 A 
ATOM     85  F   UNL A   1      40.724  24.096  28.385  1.00  0.00    -0.203 F 
ATOM     86  F   UNL A   1      43.879  22.761  24.158  1.00  0.00    -0.200 F 
ATOM     87  C   UNL A   1      42.268  22.161  25.769  1.00  0.00     0.200 A 
ATOM     88  F   UNL A   1      40.713  21.602  27.450  1.00  0.00    -0.200 F 
ATOM     89  F   UNL A   1      42.319  20.882  25.370  1.00  0.00    -0.200 F 
ENDBRANCH  55  79
BRANCH  67  90
ATOM     90  C   UNL A   1      45.373  29.974  28.636  1.00  0.00     0.064 A 
ATOM     91  C   UNL A   1      44.391  30.679  27.915  1.00  0.00     0.173 A 
ATOM     92  C   UNL A   1      46.712  30.271  28.355  1.00  0.00     0.173 A 
ATOM     93  F   UNL A   1      43.090  30.531  28.194  1.00  0.00    -0.203 F 
ATOM     94  C   UNL A   1      44.741  31.601  26.928  1.00  0.00     0.198 A 
ATOM     95  C   UNL A   1      47.058  31.220  27.397  1.00  0.00     0.198 A 
ATOM     96  F   UNL A   1      47.692  29.672  29.050  1.00  0.00    -0.203 F 
ATOM     97  F   UNL A   1      43.785  32.251  26.246  1.00  0.00    -0.200 F 
ATOM     98  C   UNL A   1      46.073  31.876  26.676  1.00  0.00     0.200 A 
ATOM     99  F   UNL A   1      48.348  31.520  27.193  1.00  0.00    -0.200 F 
ATOM    100  F   UNL A   1      46.411  32.793  25.758  1.00  0.00    -0.200 F 
ENDBRANCH  67  90
ENDBRANCH  41  42
ENDBRANCH  34  36
ENDBRANCH  33  34
ENDBRANCH  32  33
ENDBRANCH  31  32
ENDBRANCH  30  31
ENDBRANCH   1  30
TORSDOF 20
ENDMDL
MODEL 2
REMARK VINA RESULT:     -11.9      3.765      9.303
REMARK SMILES COc1cccc([C@@H]2CN(C(=O)CSc3nc(C)n[nH]3)C[C@H]2C(=O)OCCOCCOC(=O)c2ccc(-c3c4nc(c(-c5c(F)c(F)c(F)c(F)c5F)c5ccc([nH]5)c(-c5c(F)c(F)c(F)c(F)c5F)c5nc(c(-c6c(F)c(F)c(F)c(F)c6F)c6ccc3[nH]6)C=C5)C=C4)cc2)c1
REMARK SMILES IDX 27 1 26 2 25 3 23 4 24 5 22 6 8 7 9 8 10 9 21 10 7 11 3 12
REMARK SMILES IDX 4 13 97 14 5 15 6 16 2 17 1 18 11 19 12 20 13 21 14 22 15 23
REMARK SMILES IDX 16 24 20 25 17 26 19 27 18 29 28 30 29 31 30 32 31 33 32 34
REMARK SMILES IDX 33 35 34 36 35 37 96 38 36 39 95 40 37 41 38 42 39 43 89 44
REMARK SMILES IDX 40 45 94 46 88 47 90 48 41 49 93 50 87 51 86 52 42 54 74 55
REMARK SMILES IDX 54 56 73 57 55 58 58 59 72 60 91 61 56 62 57 63 71 65 92 66
REMARK SMILES IDX 59 67 43 68 44 69 52 70 45 71 46 72 50 73 53 74 47 75 48 76
REMARK SMILES IDX 51 77 49 78 75 79 76 80 84 81 77 82 78 83 82 84 85 85 79 86
REMARK SMILES IDX 80 87 83 88 81 89 60 90 61 91 69 92 62 93 63 94 67 95 70 96
REMARK SMILES IDX 64 97 65 98 68 99 66 100
REMARK H PARENT 20 28 90 53 58 64
REMARK Flexibility Score: inf
ROOT
ATOM      1  C   UNL A   1      39.445  21.268  26.414  1.00  0.00     0.202 C 
ENDROOT
BRANCH   1   2
ATOM      2  C   UNL A   1      38.517  22.274  25.735  1.00  0.00     0.261 C 
BRANCH   2   3
ATOM      3  O   UNL A   1      37.312  21.690  25.202  1.00  0.00    -0.463 OA
BRANCH   3   4
ATOM      4  C   UNL A   1      36.229  22.507  25.234  1.00  0.00     0.311 C 
ATOM      5  O   UNL A   1      35.982  23.304  26.134  1.00  0.00    -0.252 OA
BRANCH   4   6
ATOM      6  C   UNL A   1      35.268  22.317  24.090  1.00  0.00     0.128 C 
ATOM      7  C   UNL A   1      33.855  21.746  24.343  1.00  0.00     0.055 C 
ATOM      8  C   UNL A   1      33.009  22.479  23.287  1.00  0.00     0.128 C 
ATOM      9  N   UNL A   1      33.655  23.763  23.113  1.00  0.00    -0.340 N 
ATOM     10  C   UNL A   1      35.037  23.717  23.531  1.00  0.00     0.135 C 
BRANCH   7  11
ATOM     11  C   UNL A   1      33.631  20.245  24.198  1.00  0.00    -0.039 A 
ATOM     12  C   UNL A   1      34.331  17.914  24.446  1.00  0.00     0.119 A 
ATOM     13  C   UNL A   1      33.201  17.497  23.743  1.00  0.00     0.046 A 
ATOM     14  C   UNL A   1      34.536  19.280  24.678  1.00  0.00     0.050 A 
ATOM     15  C   UNL A   1      32.302  18.431  23.242  1.00  0.00     0.004 A 
ATOM     16  C   UNL A   1      32.533  19.791  23.448  1.00  0.00     0.004 A 
BRANCH  12  17
ATOM     17  O   UNL A   1      35.168  16.897  24.810  1.00  0.00    -0.497 OA
ATOM     18  C   UNL A   1      34.578  15.654  25.164  1.00  0.00     0.278 C 
ENDBRANCH  12  17
ENDBRANCH   7  11
BRANCH   9  19
ATOM     19  C   UNL A   1      33.134  24.932  22.597  1.00  0.00     0.233 C 
ATOM     20  O   UNL A   1      33.763  25.582  21.758  1.00  0.00    -0.274 OA
BRANCH  19  21
ATOM     21  C   UNL A   1      31.802  25.435  23.129  1.00  0.00     0.178 C 
BRANCH  21  22
ATOM     22  S   UNL A   1      31.987  26.343  24.692  1.00  0.00    -0.077 SA
BRANCH  22  23
ATOM     23  C   UNL A   1      31.891  25.056  25.824  1.00  0.00     0.184 A 
ATOM     24  N   UNL A   1      32.863  24.339  26.319  1.00  0.00    -0.206 NA
ATOM     25  N   UNL A   1      30.699  24.636  26.322  1.00  0.00    -0.254 N 
ATOM     26  C   UNL A   1      32.201  23.466  27.148  1.00  0.00     0.148 A 
ATOM     27  N   UNL A   1      30.868  23.618  27.183  1.00  0.00    -0.158 NA
ATOM     28  H   UNL A   1      29.827  25.025  26.083  1.00  0.00     0.192 HD
ATOM     29  C   UNL A   1      32.909  22.423  27.916  1.00  0.00     0.092 C 
ENDBRANCH  22  23
ENDBRANCH  21  22
ENDBRANCH  19  21
ENDBRANCH   9  19
ENDBRANCH   4   6
ENDBRANCH   3   4
ENDBRANCH   2   3
ENDBRANCH   1   2
BRANCH   1  30
ATOM     30  O   UNL A   1      40.557  20.762  25.683  1.00  0.00    -0.374 OA
BRANCH  30  31
ATOM     31  C   UNL A   1      41.825  20.616  26.309  1.00  0.00     0.202 C 
BRANCH  31  32
ATOM     32  C   UNL A   1      42.930  21.594  25.936  1.00  0.00     0.261 C 
BRANCH  32  33
ATOM     33  O   UNL A   1      42.428  22.773  25.315  1.00  0.00    -0.460 OA
BRANCH  33  34
ATOM     34  C   UNL A   1      43.102  23.894  25.648  1.00  0.00     0.338 C 
ATOM     35  O   UNL A   1      44.284  24.140  25.428  1.00  0.00    -0.246 OA
BRANCH  34  36
ATOM     36  C   UNL A   1      42.257  24.740  26.492  1.00  0.00     0.060 A 
ATOM     37  C   UNL A   1      41.550  25.739  25.826  1.00  0.00     0.016 A 
ATOM     38  C   UNL A   1      42.449  24.770  27.880  1.00  0.00     0.016 A 
ATOM     39  C   UNL A   1      41.292  26.905  26.502  1.00  0.00     0.010 A 
ATOM     40  C   UNL A   1      42.222  25.948  28.550  1.00  0.00     0.010 A 
ATOM     41  C   UNL A   1      41.734  27.028  27.823  1.00  0.00    -0.014 A 
BRANCH  41  42
ATOM     42  C   UNL A   1      41.540  28.307  28.465  1.00  0.00     0.031 A 
ATOM     43  C   UNL A   1      42.607  29.268  28.113  1.00  0.00     0.074 A 
ATOM     44  C   UNL A   1      40.473  28.581  29.238  1.00  0.00     0.049 A 
ATOM     45  N   UNL A   1      43.506  29.767  28.892  1.00  0.00    -0.248 NA
ATOM     46  C   UNL A   1      42.815  29.553  26.682  1.00  0.00     0.031 C 
ATOM     47  C   UNL A   1      39.261  27.787  29.446  1.00  0.00     0.029 A 
ATOM     48  N   UNL A   1      40.223  29.709  29.954  1.00  0.00    -0.354 N 
ATOM     49  C   UNL A   1      44.279  30.588  28.080  1.00  0.00     0.074 A 
ATOM     50  C   UNL A   1      43.937  30.270  26.719  1.00  0.00     0.031 C 
ATOM     51  C   UNL A   1      38.320  28.558  30.041  1.00  0.00     0.029 A 
ATOM     52  C   UNL A   1      38.904  29.848  30.367  1.00  0.00     0.049 A 
ATOM     53  H   UNL A   1      40.920  30.374  30.161  1.00  0.00     0.167 HD
ATOM     54  C   UNL A   1      44.931  31.660  28.596  1.00  0.00     0.037 A 
ATOM     55  C   UNL A   1      38.351  30.992  30.847  1.00  0.00     0.037 A 
ATOM     56  C   UNL A   1      45.144  31.518  30.013  1.00  0.00     0.049 A 
ATOM     57  C   UNL A   1      39.469  31.867  31.296  1.00  0.00     0.074 A 
ATOM     58  C   UNL A   1      45.804  30.586  30.791  1.00  0.00     0.029 A 
ATOM     59  N   UNL A   1      44.302  32.184  30.869  1.00  0.00    -0.354 N 
ATOM     60  N   UNL A   1      40.223  31.600  32.327  1.00  0.00    -0.248 NA
ATOM     61  C   UNL A   1      40.053  32.768  30.311  1.00  0.00     0.031 C 
ATOM     62  C   UNL A   1      44.975  30.404  31.936  1.00  0.00     0.029 A 
ATOM     63  C   UNL A   1      43.900  31.286  31.827  1.00  0.00     0.049 A 
ATOM     64  H   UNL A   1      44.037  33.131  30.808  1.00  0.00     0.167 HD
ATOM     65  C   UNL A   1      41.506  31.939  31.923  1.00  0.00     0.074 A 
ATOM     66  C   UNL A   1      41.332  32.708  30.694  1.00  0.00     0.031 C 
ATOM     67  C   UNL A   1      42.600  31.319  32.453  1.00  0.00     0.037 A 
BRANCH  54  68
ATOM     68  C   UNL A   1      45.015  32.975  27.871  1.00  0.00     0.064 A 
ATOM     69  C   UNL A   1      46.249  33.403  27.355  1.00  0.00     0.173 A 
ATOM     70  C   UNL A   1      43.994  33.954  27.907  1.00  0.00     0.173 A 
ATOM     71  F   UNL A   1      47.299  32.568  27.318  1.00  0.00    -0.203 F 
ATOM     72  C   UNL A   1      46.457  34.724  26.951  1.00  0.00     0.198 A 
ATOM     73  C   UNL A   1      44.185  35.252  27.447  1.00  0.00     0.198 A 
ATOM     74  F   UNL A   1      42.811  33.732  28.495  1.00  0.00    -0.203 F 
ATOM     75  F   UNL A   1      47.681  35.120  26.578  1.00  0.00    -0.200 F 
ATOM     76  C   UNL A   1      45.424  35.646  26.996  1.00  0.00     0.200 A 
ATOM     77  F   UNL A   1      43.178  36.132  27.525  1.00  0.00    -0.200 F 
ATOM     78  F   UNL A   1      45.635  36.924  26.657  1.00  0.00    -0.200 F 
ENDBRANCH  54  68
BRANCH  55  79
ATOM     79  C   UNL A   1      36.987  31.525  30.598  1.00  0.00     0.064 A 
ATOM     80  C   UNL A   1      36.108  31.786  31.664  1.00  0.00     0.173 A 
ATOM     81  C   UNL A   1      36.624  32.062  29.347  1.00  0.00     0.173 A 
ATOM     82  F   UNL A   1      36.399  31.354  32.899  1.00  0.00    -0.203 F 
ATOM     83  C   UNL A   1      34.954  32.561  31.493  1.00  0.00     0.198 A 
ATOM     84  C   UNL A   1      35.470  32.829  29.178  1.00  0.00     0.198 A 
ATOM     85  F   UNL A   1      37.430  31.940  28.284  1.00  0.00    -0.203 F 
ATOM     86  F   UNL A   1      34.176  32.844  32.548  1.00  0.00    -0.200 F 
ATOM     87  C   UNL A   1      34.642  33.091  30.253  1.00  0.00     0.200 A 
ATOM     88  F   UNL A   1      35.202  33.367  27.979  1.00  0.00    -0.200 F 
ATOM     89  F   UNL A   1      33.574  33.886  30.102  1.00  0.00    -0.200 F 
ENDBRANCH  55  79
BRANCH  67  90
ATOM     90  C   UNL A   1      42.393  30.421  33.642  1.00  0.00     0.064 A 
ATOM     91  C   UNL A   1      42.419  30.864  34.978  1.00  0.00     0.173 A 
ATOM     92  C   UNL A   1      42.012  29.093  33.413  1.00  0.00     0.173 A 
ATOM     93  F   UNL A   1      42.672  32.144  35.276  1.00  0.00    -0.203 F 
ATOM     94  C   UNL A   1      42.121  29.999  36.032  1.00  0.00     0.198 A 
ATOM     95  C   UNL A   1      41.677  28.244  34.465  1.00  0.00     0.198 A 
ATOM     96  F   UNL A   1      41.914  28.631  32.157  1.00  0.00    -0.203 F 
ATOM     97  F   UNL A   1      42.165  30.443  37.297  1.00  0.00    -0.200 F 
ATOM     98  C   UNL A   1      41.743  28.694  35.774  1.00  0.00     0.200 A 
ATOM     99  F   UNL A   1      41.262  26.997  34.206  1.00  0.00    -0.200 F 
ATOM    100  F   UNL A   1      41.415  27.875  36.783  1.00  0.00    -0.200 F 
ENDBRANCH  67  90
ENDBRANCH  41  42
ENDBRANCH  34  36
ENDBRANCH  33  34
ENDBRANCH  32  33
ENDBRANCH  31  32
ENDBRANCH  30  31
ENDBRANCH   1  30
TORSDOF 20
ENDMDL
MODEL 3
REMARK VINA RESULT:     -11.8      3.465      8.379
REMARK SMILES COc1cccc([C@@H]2CN(C(=O)CSc3nc(C)n[nH]3)C[C@H]2C(=O)OCCOCCOC(=O)c2ccc(-c3c4nc(c(-c5c(F)c(F)c(F)c(F)c5F)c5ccc([nH]5)c(-c5c(F)c(F)c(F)c(F)c5F)c5nc(c(-c6c(F)c(F)c(F)c(F)c6F)c6ccc3[nH]6)C=C5)C=C4)cc2)c1
REMARK SMILES IDX 27 1 26 2 25 3 23 4 24 5 22 6 8 7 9 8 10 9 21 10 7 11 3 12
REMARK SMILES IDX 4 13 97 14 5 15 6 16 2 17 1 18 11 19 12 20 13 21 14 22 15 23
REMARK SMILES IDX 16 24 20 25 17 26 19 27 18 29 28 30 29 31 30 32 31 33 32 34
REMARK SMILES IDX 33 35 34 36 35 37 96 38 36 39 95 40 37 41 38 42 39 43 89 44
REMARK SMILES IDX 40 45 94 46 88 47 90 48 41 49 93 50 87 51 86 52 42 54 74 55
REMARK SMILES IDX 54 56 73 57 55 58 58 59 72 60 91 61 56 62 57 63 71 65 92 66
REMARK SMILES IDX 59 67 43 68 44 69 52 70 45 71 46 72 50 73 53 74 47 75 48 76
REMARK SMILES IDX 51 77 49 78 75 79 76 80 84 81 77 82 78 83 82 84 85 85 79 86
REMARK SMILES IDX 80 87 83 88 81 89 60 90 61 91 69 92 62 93 63 94 67 95 70 96
REMARK SMILES IDX 64 97 65 98 68 99 66 100
REMARK H PARENT 20 28 90 53 58 64
REMARK Flexibility Score: inf
ROOT
ATOM      1  C   UNL A   1      39.217  21.936  26.360  1.00  0.00     0.202 C 
ENDROOT
BRANCH   1   2
ATOM      2  C   UNL A   1      38.377  22.349  25.153  1.00  0.00     0.261 C 
BRANCH   2   3
ATOM      3  O   UNL A   1      37.037  22.763  25.487  1.00  0.00    -0.463 OA
BRANCH   3   4
ATOM      4  C   UNL A   1      36.285  23.147  24.425  1.00  0.00     0.311 C 
ATOM      5  O   UNL A   1      36.738  23.531  23.351  1.00  0.00    -0.252 OA
BRANCH   4   6
ATOM      6  C   UNL A   1      34.800  23.144  24.676  1.00  0.00     0.128 C 
ATOM      7  C   UNL A   1      33.879  24.129  23.922  1.00  0.00     0.055 C 
ATOM      8  C   UNL A   1      32.585  23.313  23.759  1.00  0.00     0.128 C 
ATOM      9  N   UNL A   1      33.019  21.934  23.670  1.00  0.00    -0.340 N 
ATOM     10  C   UNL A   1      34.329  21.757  24.254  1.00  0.00     0.135 C 
BRANCH   7  11
ATOM     11  C   UNL A   1      33.539  25.465  24.573  1.00  0.00    -0.039 A 
ATOM     12  C   UNL A   1      32.334  26.839  26.199  1.00  0.00     0.119 A 
ATOM     13  C   UNL A   1      32.847  27.994  25.609  1.00  0.00     0.046 A 
ATOM     14  C   UNL A   1      32.687  25.584  25.687  1.00  0.00     0.050 A 
ATOM     15  C   UNL A   1      33.675  27.904  24.496  1.00  0.00     0.004 A 
ATOM     16  C   UNL A   1      33.993  26.651  23.972  1.00  0.00     0.004 A 
BRANCH  12  17
ATOM     17  O   UNL A   1      31.473  27.079  27.234  1.00  0.00    -0.497 OA
ATOM     18  C   UNL A   1      31.494  28.371  27.823  1.00  0.00     0.278 C 
ENDBRANCH  12  17
ENDBRANCH   7  11
BRANCH   9  19
ATOM     19  C   UNL A   1      32.348  20.846  23.151  1.00  0.00     0.233 C 
ATOM     20  O   UNL A   1      31.748  20.934  22.077  1.00  0.00    -0.274 OA
BRANCH  19  21
ATOM     21  C   UNL A   1      32.311  19.558  23.959  1.00  0.00     0.178 C 
BRANCH  21  22
ATOM     22  S   UNL A   1      32.422  18.083  22.902  1.00  0.00    -0.077 SA
BRANCH  22  23
ATOM     23  C   UNL A   1      33.372  17.051  23.891  1.00  0.00     0.184 A 
ATOM     24  N   UNL A   1      34.593  17.236  24.316  1.00  0.00    -0.206 NA
ATOM     25  N   UNL A   1      32.899  15.857  24.331  1.00  0.00    -0.254 N 
ATOM     26  C   UNL A   1      34.834  16.095  25.042  1.00  0.00     0.148 A 
ATOM     27  N   UNL A   1      33.815  15.222  25.081  1.00  0.00    -0.158 NA
ATOM     28  H   UNL A   1      32.003  15.503  24.127  1.00  0.00     0.192 HD
ATOM     29  C   UNL A   1      36.131  15.845  25.702  1.00  0.00     0.092 C 
ENDBRANCH  22  23
ENDBRANCH  21  22
ENDBRANCH  19  21
ENDBRANCH   9  19
ENDBRANCH   4   6
ENDBRANCH   3   4
ENDBRANCH   2   3
ENDBRANCH   1   2
BRANCH   1  30
ATOM     30  O   UNL A   1      40.591  21.621  26.161  1.00  0.00    -0.374 OA
BRANCH  30  31
ATOM     31  C   UNL A   1      41.269  20.752  27.060  1.00  0.00     0.202 C 
BRANCH  31  32
ATOM     32  C   UNL A   1      42.223  19.718  26.481  1.00  0.00     0.261 C 
BRANCH  32  33
ATOM     33  O   UNL A   1      42.670  20.060  25.173  1.00  0.00    -0.460 OA
BRANCH  33  34
ATOM     34  C   UNL A   1      44.009  20.207  25.076  1.00  0.00     0.338 C 
ATOM     35  O   UNL A   1      44.850  19.315  25.029  1.00  0.00    -0.246 OA
BRANCH  34  36
ATOM     36  C   UNL A   1      44.356  21.622  25.213  1.00  0.00     0.060 A 
ATOM     37  C   UNL A   1      45.327  21.913  26.169  1.00  0.00     0.016 A 
ATOM     38  C   UNL A   1      43.509  22.611  24.694  1.00  0.00     0.016 A 
ATOM     39  C   UNL A   1      45.255  23.123  26.813  1.00  0.00     0.010 A 
ATOM     40  C   UNL A   1      43.413  23.810  25.359  1.00  0.00     0.010 A 
ATOM     41  C   UNL A   1      44.226  24.007  26.470  1.00  0.00    -0.014 A 
BRANCH  41  42
ATOM     42  C   UNL A   1      44.117  25.222  27.243  1.00  0.00     0.031 A 
ATOM     43  C   UNL A   1      45.310  26.082  27.088  1.00  0.00     0.074 A 
ATOM     44  C   UNL A   1      43.023  25.534  27.961  1.00  0.00     0.049 A 
ATOM     45  N   UNL A   1      46.186  26.382  27.986  1.00  0.00    -0.248 NA
ATOM     46  C   UNL A   1      45.672  26.496  25.721  1.00  0.00     0.031 C 
ATOM     47  C   UNL A   1      41.718  24.871  27.983  1.00  0.00     0.029 A 
ATOM     48  N   UNL A   1      42.837  26.598  28.786  1.00  0.00    -0.354 N 
ATOM     49  C   UNL A   1      47.112  27.190  27.337  1.00  0.00     0.074 A 
ATOM     50  C   UNL A   1      46.858  27.066  25.927  1.00  0.00     0.031 C 
ATOM     51  C   UNL A   1      40.819  25.678  28.593  1.00  0.00     0.029 A 
ATOM     52  C   UNL A   1      41.509  26.846  29.113  1.00  0.00     0.049 A 
ATOM     53  H   UNL A   1      43.580  27.149  29.122  1.00  0.00     0.167 HD
ATOM     54  C   UNL A   1      47.830  28.114  28.024  1.00  0.00     0.037 A 
ATOM     55  C   UNL A   1      41.045  27.988  29.683  1.00  0.00     0.037 A 
ATOM     56  C   UNL A   1      47.901  27.793  29.426  1.00  0.00     0.049 A 
ATOM     57  C   UNL A   1      42.208  28.670  30.315  1.00  0.00     0.074 A 
ATOM     58  C   UNL A   1      48.385  26.710  30.135  1.00  0.00     0.029 A 
ATOM     59  N   UNL A   1      47.066  28.457  30.290  1.00  0.00    -0.354 N 
ATOM     60  N   UNL A   1      42.835  28.203  31.360  1.00  0.00    -0.248 NA
ATOM     61  C   UNL A   1      42.971  29.598  29.491  1.00  0.00     0.031 C 
ATOM     62  C   UNL A   1      47.443  26.503  31.185  1.00  0.00     0.029 A 
ATOM     63  C   UNL A   1      46.485  27.513  31.102  1.00  0.00     0.049 A 
ATOM     64  H   UNL A   1      46.912  29.429  30.323  1.00  0.00     0.167 HD
ATOM     65  C   UNL A   1      44.177  28.430  31.096  1.00  0.00     0.074 A 
ATOM     66  C   UNL A   1      44.197  29.344  29.958  1.00  0.00     0.031 C 
ATOM     67  C   UNL A   1      45.147  27.630  31.629  1.00  0.00     0.037 A 
BRANCH  54  68
ATOM     68  C   UNL A   1      48.121  29.482  27.469  1.00  0.00     0.064 A 
ATOM     69  C   UNL A   1      49.433  29.979  27.509  1.00  0.00     0.173 A 
ATOM     70  C   UNL A   1      47.116  30.426  27.155  1.00  0.00     0.173 A 
ATOM     71  F   UNL A   1      50.456  29.178  27.841  1.00  0.00    -0.203 F 
ATOM     72  C   UNL A   1      49.710  31.333  27.297  1.00  0.00     0.198 A 
ATOM     73  C   UNL A   1      47.402  31.760  26.884  1.00  0.00     0.198 A 
ATOM     74  F   UNL A   1      45.811  30.130  27.214  1.00  0.00    -0.203 F 
ATOM     75  F   UNL A   1      50.959  31.788  27.462  1.00  0.00    -0.200 F 
ATOM     76  C   UNL A   1      48.695  32.221  26.983  1.00  0.00     0.200 A 
ATOM     77  F   UNL A   1      46.398  32.605  26.609  1.00  0.00    -0.200 F 
ATOM     78  F   UNL A   1      48.952  33.525  26.830  1.00  0.00    -0.200 F 
ENDBRANCH  54  68
BRANCH  55  79
ATOM     79  C   UNL A   1      39.774  28.704  29.399  1.00  0.00     0.064 A 
ATOM     80  C   UNL A   1      39.471  29.149  28.100  1.00  0.00     0.173 A 
ATOM     81  C   UNL A   1      38.710  28.708  30.322  1.00  0.00     0.173 A 
ATOM     82  F   UNL A   1      40.412  29.134  27.146  1.00  0.00    -0.203 F 
ATOM     83  C   UNL A   1      38.176  29.545  27.742  1.00  0.00     0.198 A 
ATOM     84  C   UNL A   1      37.422  29.110  29.965  1.00  0.00     0.198 A 
ATOM     85  F   UNL A   1      38.872  28.230  31.564  1.00  0.00    -0.203 F 
ATOM     86  F   UNL A   1      37.911  29.899  26.476  1.00  0.00    -0.200 F 
ATOM     87  C   UNL A   1      37.151  29.514  28.671  1.00  0.00     0.200 A 
ATOM     88  F   UNL A   1      36.431  29.037  30.866  1.00  0.00    -0.200 F 
ATOM     89  F   UNL A   1      35.899  29.829  28.313  1.00  0.00    -0.200 F 
ENDBRANCH  55  79
BRANCH  67  90
ATOM     90  C   UNL A   1      44.740  26.638  32.684  1.00  0.00     0.064 A 
ATOM     91  C   UNL A   1      44.377  25.306  32.414  1.00  0.00     0.173 A 
ATOM     92  C   UNL A   1      44.863  27.011  34.028  1.00  0.00     0.173 A 
ATOM     93  F   UNL A   1      44.338  24.842  31.159  1.00  0.00    -0.203 F 
ATOM     94  C   UNL A   1      44.106  24.407  33.446  1.00  0.00     0.198 A 
ATOM     95  C   UNL A   1      44.630  26.100  35.056  1.00  0.00     0.198 A 
ATOM     96  F   UNL A   1      45.262  28.252  34.347  1.00  0.00    -0.203 F 
ATOM     97  F   UNL A   1      43.749  23.145  33.161  1.00  0.00    -0.200 F 
ATOM     98  C   UNL A   1      44.241  24.803  34.765  1.00  0.00     0.200 A 
ATOM     99  F   UNL A   1      44.812  26.475  36.330  1.00  0.00    -0.200 F 
ATOM    100  F   UNL A   1      44.022  23.929  35.757  1.00  0.00    -0.200 F 
ENDBRANCH  67  90
ENDBRANCH  41  42
ENDBRANCH  34  36
ENDBRANCH  33  34
ENDBRANCH  32  33
ENDBRANCH  31  32
ENDBRANCH  30  31
ENDBRANCH   1  30
TORSDOF 20
ENDMDL
