MODEL 1
REMARK VINA RESULT:      -9.6      0.000      0.000
REMARK SMILES CC(C)C[C@H](NC(=O)CNC(=O)[C@@H](NC(=O)OCc1ccccc1)C(C)C)C(=O)N[C@@H](C)C(=O)OCCOCCOC(=O)c1ccc(-c2c3nc(c(-c4c(F)c(F)c(F)c(F)c4F)c4ccc([nH]4)c(-c4c(F)c(F)c(F)c(F)c4F)c4nc(c(-c5c(F)c(F)c(F)c(F)c5F)c5ccc2[nH]5)C=C4)C=C3)cc1
REMARK SMILES IDX 33 1 34 2 31 3 32 4 30 5 28 6 29 7 5 9 4 10 2 11 1 12 3 13
REMARK SMILES IDX 6 14 7 15 8 17 9 18 10 19 11 20 12 22 13 23 14 24 15 25
REMARK SMILES IDX 16 27 17 28 18 29 19 30 20 31 24 32 21 33 23 34 22 35 25 36
REMARK SMILES IDX 26 37 27 38 35 39 36 40 37 41 38 42 39 43 40 44 41 45 42 46
REMARK SMILES IDX 43 47 44 48 45 49 106 50 46 51 105 52 47 53 48 54 49 55
REMARK SMILES IDX 99 56 50 57 104 58 98 59 100 60 51 61 103 62 97 63 96 64
REMARK SMILES IDX 52 66 84 67 64 68 83 69 65 70 68 71 82 72 101 73 66 74 67 75
REMARK SMILES IDX 81 77 102 78 69 79 53 80 54 81 62 82 55 83 56 84 60 85 63 86
REMARK SMILES IDX 57 87 58 88 61 89 59 90 85 91 86 92 94 93 87 94 88 95 92 96
REMARK SMILES IDX 95 97 89 98 90 99 93 100 91 101 70 102 71 103 79 104 72 105
REMARK SMILES IDX 73 106 77 107 80 108 74 109 75 110 78 111 76 112
REMARK H PARENT 30 8 6 16 10 21 14 26 100 65 68 76
REMARK Flexibility Score: inf
ROOT
ATOM      1  C   UNL A   1      43.954  21.604  25.246  1.00  0.00     0.328 C 
ATOM      2  O   UNL A   1      43.888  20.559  24.609  1.00  0.00    -0.250 OA
ENDROOT
BRANCH   1   3
ATOM      3  C   UNL A   1      42.712  22.422  25.635  1.00  0.00     0.189 C 
ATOM      4  C   UNL A   1      43.122  23.871  25.837  1.00  0.00     0.043 C 
BRANCH   3   5
ATOM      5  N   UNL A   1      41.996  21.932  26.805  1.00  0.00    -0.341 N 
ATOM      6  C   UNL A   1      40.735  22.180  27.246  1.00  0.00     0.243 C 
ATOM      7  O   UNL A   1      40.391  21.558  28.258  1.00  0.00    -0.273 OA
ATOM      8  H   UNL A   1      42.513  21.318  27.374  1.00  0.00     0.164 HD
BRANCH   6   9
ATOM      9  C   UNL A   1      39.684  23.045  26.477  1.00  0.00     0.171 C 
BRANCH   9  10
ATOM     10  C   UNL A   1      39.093  24.234  27.239  1.00  0.00     0.038 C 
BRANCH  10  11
ATOM     11  C   UNL A   1      40.004  25.416  27.562  1.00  0.00    -0.015 C 
ATOM     12  C   UNL A   1      40.350  26.306  26.378  1.00  0.00     0.007 C 
ATOM     13  C   UNL A   1      39.512  26.299  28.711  1.00  0.00     0.007 C 
ENDBRANCH  10  11
ENDBRANCH   9  10
BRANCH   9  14
ATOM     14  N   UNL A   1      38.702  22.286  25.675  1.00  0.00    -0.343 N 
ATOM     15  C   UNL A   1      37.521  22.435  25.034  1.00  0.00     0.240 C 
ATOM     16  H   UNL A   1      39.013  21.357  25.573  1.00  0.00     0.164 HD
ATOM     17  O   UNL A   1      37.103  21.378  24.531  1.00  0.00    -0.273 OA
BRANCH  15  18
ATOM     18  C   UNL A   1      36.723  23.729  24.729  1.00  0.00     0.216 C 
BRANCH  18  19
ATOM     19  N   UNL A   1      35.464  24.104  25.356  1.00  0.00    -0.345 N 
ATOM     20  C   UNL A   1      34.223  23.540  25.361  1.00  0.00     0.243 C 
ATOM     21  H   UNL A   1      35.520  24.934  25.883  1.00  0.00     0.164 HD
ATOM     22  O   UNL A   1      33.513  23.898  26.311  1.00  0.00    -0.273 OA
BRANCH  20  23
ATOM     23  C   UNL A   1      33.618  22.635  24.231  1.00  0.00     0.177 C 
BRANCH  23  24
ATOM     24  N   UNL A   1      33.842  23.100  22.871  1.00  0.00    -0.309 N 
ATOM     25  C   UNL A   1      33.022  23.619  21.939  1.00  0.00     0.408 C 
ATOM     26  H   UNL A   1      34.778  23.020  22.575  1.00  0.00     0.167 HD
ATOM     27  O   UNL A   1      33.346  23.598  20.758  1.00  0.00    -0.225 OA
BRANCH  25  28
ATOM     28  O   UNL A   1      31.948  24.234  22.459  1.00  0.00    -0.445 OA
BRANCH  28  29
ATOM     29  C   UNL A   1      32.100  25.651  22.586  1.00  0.00     0.270 C 
BRANCH  29  30
ATOM     30  C   UNL A   1      32.080  26.144  24.026  1.00  0.00    -0.011 A 
ATOM     31  C   UNL A   1      33.037  27.027  24.562  1.00  0.00     0.007 A 
ATOM     32  C   UNL A   1      31.007  25.776  24.848  1.00  0.00     0.007 A 
ATOM     33  C   UNL A   1      32.940  27.511  25.866  1.00  0.00     0.000 A 
ATOM     34  C   UNL A   1      30.906  26.262  26.154  1.00  0.00     0.000 A 
ATOM     35  C   UNL A   1      31.871  27.129  26.663  1.00  0.00     0.000 A 
ENDBRANCH  29  30
ENDBRANCH  28  29
ENDBRANCH  25  28
ENDBRANCH  23  24
BRANCH  23  36
ATOM     36  C   UNL A   1      33.651  21.101  24.437  1.00  0.00     0.015 C 
ATOM     37  C   UNL A   1      33.686  20.706  25.918  1.00  0.00     0.010 C 
ATOM     38  C   UNL A   1      32.389  20.455  23.830  1.00  0.00     0.010 C 
ENDBRANCH  23  36
ENDBRANCH  20  23
ENDBRANCH  18  19
ENDBRANCH  15  18
ENDBRANCH   9  14
ENDBRANCH   6   9
ENDBRANCH   3   5
ENDBRANCH   1   3
BRANCH   1  39
ATOM     39  O   UNL A   1      45.103  22.175  25.693  1.00  0.00    -0.462 OA
BRANCH  39  40
ATOM     40  C   UNL A   1      46.318  21.698  25.080  1.00  0.00     0.261 C 
BRANCH  40  41
ATOM     41  C   UNL A   1      46.775  22.715  24.029  1.00  0.00     0.202 C 
BRANCH  41  42
ATOM     42  O   UNL A   1      46.371  24.061  24.318  1.00  0.00    -0.374 OA
BRANCH  42  43
ATOM     43  C   UNL A   1      47.382  24.924  24.837  1.00  0.00     0.202 C 
BRANCH  43  44
ATOM     44  C   UNL A   1      47.095  25.454  26.240  1.00  0.00     0.261 C 
BRANCH  44  45
ATOM     45  O   UNL A   1      45.814  26.022  26.301  1.00  0.00    -0.460 OA
BRANCH  45  46
ATOM     46  C   UNL A   1      45.754  27.284  25.855  1.00  0.00     0.338 C 
ATOM     47  O   UNL A   1      46.117  27.769  24.804  1.00  0.00    -0.246 OA
BRANCH  46  48
ATOM     48  C   UNL A   1      44.955  27.921  26.879  1.00  0.00     0.060 A 
ATOM     49  C   UNL A   1      45.416  29.142  27.367  1.00  0.00     0.016 A 
ATOM     50  C   UNL A   1      43.708  27.377  27.216  1.00  0.00     0.016 A 
ATOM     51  C   UNL A   1      44.633  29.812  28.280  1.00  0.00     0.010 A 
ATOM     52  C   UNL A   1      42.918  28.056  28.117  1.00  0.00     0.010 A 
ATOM     53  C   UNL A   1      43.415  29.240  28.680  1.00  0.00    -0.014 A 
BRANCH  53  54
ATOM     54  C   UNL A   1      42.780  29.758  29.887  1.00  0.00     0.031 A 
ATOM     55  C   UNL A   1      41.330  30.105  29.788  1.00  0.00     0.074 A 
ATOM     56  C   UNL A   1      43.500  29.859  31.010  1.00  0.00     0.049 A 
ATOM     57  N   UNL A   1      40.520  30.539  30.711  1.00  0.00    -0.248 NA
ATOM     58  C   UNL A   1      40.705  29.945  28.460  1.00  0.00     0.031 C 
ATOM     59  C   UNL A   1      44.917  29.517  31.138  1.00  0.00     0.029 A 
ATOM     60  N   UNL A   1      43.132  30.272  32.255  1.00  0.00    -0.354 N 
ATOM     61  C   UNL A   1      39.297  30.703  30.078  1.00  0.00     0.074 A 
ATOM     62  C   UNL A   1      39.474  30.373  28.685  1.00  0.00     0.031 C 
ATOM     63  C   UNL A   1      45.299  29.728  32.408  1.00  0.00     0.029 A 
ATOM     64  C   UNL A   1      44.156  30.234  33.162  1.00  0.00     0.049 A 
ATOM     65  H   UNL A   1      42.220  30.567  32.480  1.00  0.00     0.167 HD
ATOM     66  C   UNL A   1      38.125  31.083  30.633  1.00  0.00     0.037 A 
ATOM     67  C   UNL A   1      44.144  30.579  34.461  1.00  0.00     0.037 A 
ATOM     68  C   UNL A   1      38.004  31.411  32.025  1.00  0.00     0.049 A 
ATOM     69  C   UNL A   1      42.836  31.034  35.046  1.00  0.00     0.074 A 
ATOM     70  C   UNL A   1      36.885  31.806  32.731  1.00  0.00     0.029 A 
ATOM     71  N   UNL A   1      39.066  31.387  32.923  1.00  0.00    -0.354 N 
ATOM     72  N   UNL A   1      41.665  31.154  34.462  1.00  0.00    -0.248 NA
ATOM     73  C   UNL A   1      42.840  31.393  36.467  1.00  0.00     0.031 C 
ATOM     74  C   UNL A   1      37.282  32.065  34.048  1.00  0.00     0.029 A 
ATOM     75  C   UNL A   1      38.636  31.783  34.176  1.00  0.00     0.049 A 
ATOM     76  H   UNL A   1      39.989  31.126  32.700  1.00  0.00     0.167 HD
ATOM     77  C   UNL A   1      40.786  31.583  35.445  1.00  0.00     0.074 A 
ATOM     78  C   UNL A   1      41.562  31.686  36.667  1.00  0.00     0.031 C 
ATOM     79  C   UNL A   1      39.462  31.869  35.356  1.00  0.00     0.037 A 
BRANCH  66  80
ATOM     80  C   UNL A   1      36.941  31.192  29.721  1.00  0.00     0.064 A 
ATOM     81  C   UNL A   1      36.226  30.061  29.295  1.00  0.00     0.173 A 
ATOM     82  C   UNL A   1      36.541  32.442  29.226  1.00  0.00     0.173 A 
ATOM     83  F   UNL A   1      36.586  28.837  29.713  1.00  0.00    -0.203 F 
ATOM     84  C   UNL A   1      35.182  30.173  28.379  1.00  0.00     0.198 A 
ATOM     85  C   UNL A   1      35.476  32.554  28.334  1.00  0.00     0.198 A 
ATOM     86  F   UNL A   1      37.197  33.554  29.590  1.00  0.00    -0.203 F 
ATOM     87  F   UNL A   1      34.561  29.072  27.935  1.00  0.00    -0.200 F 
ATOM     88  C   UNL A   1      34.805  31.419  27.904  1.00  0.00     0.200 A 
ATOM     89  F   UNL A   1      35.113  33.760  27.876  1.00  0.00    -0.200 F 
ATOM     90  F   UNL A   1      33.805  31.526  27.017  1.00  0.00    -0.200 F 
ENDBRANCH  66  80
BRANCH  67  91
ATOM     91  C   UNL A   1      45.385  30.467  35.263  1.00  0.00     0.064 A 
ATOM     92  C   UNL A   1      45.702  29.284  35.942  1.00  0.00     0.173 A 
ATOM     93  C   UNL A   1      46.310  31.520  35.323  1.00  0.00     0.173 A 
ATOM     94  F   UNL A   1      44.847  28.250  35.918  1.00  0.00    -0.203 F 
ATOM     95  C   UNL A   1      46.891  29.161  36.659  1.00  0.00     0.198 A 
ATOM     96  C   UNL A   1      47.509  31.390  36.021  1.00  0.00     0.198 A 
ATOM     97  F   UNL A   1      46.062  32.670  34.677  1.00  0.00    -0.203 F 
ATOM     98  F   UNL A   1      47.157  28.026  37.319  1.00  0.00    -0.200 F 
ATOM     99  C   UNL A   1      47.796  30.210  36.692  1.00  0.00     0.200 A 
ATOM    100  F   UNL A   1      48.389  32.399  36.033  1.00  0.00    -0.200 F 
ATOM    101  F   UNL A   1      48.946  30.087  37.370  1.00  0.00    -0.200 F 
ENDBRANCH  67  91
BRANCH  79 102
ATOM    102  C   UNL A   1      38.786  32.297  36.621  1.00  0.00     0.064 A 
ATOM    103  C   UNL A   1      37.978  31.417  37.351  1.00  0.00     0.173 A 
ATOM    104  C   UNL A   1      38.996  33.587  37.131  1.00  0.00     0.173 A 
ATOM    105  F   UNL A   1      37.740  30.178  36.892  1.00  0.00    -0.203 F 
ATOM    106  C   UNL A   1      37.379  31.821  38.539  1.00  0.00     0.198 A 
ATOM    107  C   UNL A   1      38.422  33.977  38.335  1.00  0.00     0.198 A 
ATOM    108  F   UNL A   1      39.771  34.458  36.470  1.00  0.00    -0.203 F 
ATOM    109  F   UNL A   1      36.571  30.981  39.201  1.00  0.00    -0.200 F 
ATOM    110  C   UNL A   1      37.608  33.097  39.034  1.00  0.00     0.200 A 
ATOM    111  F   UNL A   1      38.656  35.204  38.820  1.00  0.00    -0.200 F 
ATOM    112  F   UNL A   1      37.038  33.482  40.184  1.00  0.00    -0.200 F 
ENDBRANCH  79 102
ENDBRANCH  53  54
ENDBRANCH  46  48
ENDBRANCH  45  46
ENDBRANCH  44  45
ENDBRANCH  43  44
ENDBRANCH  42  43
ENDBRANCH  41  42
ENDBRANCH  40  41
ENDBRANCH  39  40
ENDBRANCH   1  39
TORSDOF 27
ENDMDL
MODEL 2
REMARK VINA RESULT:      -8.9      2.276      7.517
REMARK SMILES CC(C)C[C@H](NC(=O)CNC(=O)[C@@H](NC(=O)OCc1ccccc1)C(C)C)C(=O)N[C@@H](C)C(=O)OCCOCCOC(=O)c1ccc(-c2c3nc(c(-c4c(F)c(F)c(F)c(F)c4F)c4ccc([nH]4)c(-c4c(F)c(F)c(F)c(F)c4F)c4nc(c(-c5c(F)c(F)c(F)c(F)c5F)c5ccc2[nH]5)C=C4)C=C3)cc1
REMARK SMILES IDX 33 1 34 2 31 3 32 4 30 5 28 6 29 7 5 9 4 10 2 11 1 12 3 13
REMARK SMILES IDX 6 14 7 15 8 17 9 18 10 19 11 20 12 22 13 23 14 24 15 25
REMARK SMILES IDX 16 27 17 28 18 29 19 30 20 31 24 32 21 33 23 34 22 35 25 36
REMARK SMILES IDX 26 37 27 38 35 39 36 40 37 41 38 42 39 43 40 44 41 45 42 46
REMARK SMILES IDX 43 47 44 48 45 49 106 50 46 51 105 52 47 53 48 54 49 55
REMARK SMILES IDX 99 56 50 57 104 58 98 59 100 60 51 61 103 62 97 63 96 64
REMARK SMILES IDX 52 66 84 67 64 68 83 69 65 70 68 71 82 72 101 73 66 74 67 75
REMARK SMILES IDX 81 77 102 78 69 79 53 80 54 81 62 82 55 83 56 84 60 85 63 86
REMARK SMILES IDX 57 87 58 88 61 89 59 90 85 91 86 92 94 93 87 94 88 95 92 96
REMARK SMILES IDX 95 97 89 98 90 99 93 100 91 101 70 102 71 103 79 104 72 105
REMARK SMILES IDX 73 106 77 107 80 108 74 109 75 110 78 111 76 112
REMARK H PARENT 30 8 6 16 10 21 14 26 100 65 68 76
REMARK Flexibility Score: inf
ROOT
ATOM      1  C   UNL A   1      44.858  25.474  25.073  1.00  0.00     0.328 C 
ATOM      2  O   UNL A   1      46.038  25.445  24.743  1.00  0.00    -0.250 OA
ENDROOT
BRANCH   1   3
ATOM      3  C   UNL A   1      44.257  26.610  25.918  1.00  0.00     0.189 C 
ATOM      4  C   UNL A   1      45.285  27.721  26.047  1.00  0.00     0.043 C 
BRANCH   3   5
ATOM      5  N   UNL A   1      43.778  26.209  27.234  1.00  0.00    -0.341 N 
ATOM      6  C   UNL A   1      42.554  25.789  27.645  1.00  0.00     0.243 C 
ATOM      7  O   UNL A   1      42.474  25.460  28.835  1.00  0.00    -0.273 OA
ATOM      8  H   UNL A   1      44.455  26.251  27.946  1.00  0.00     0.164 HD
BRANCH   6   9
ATOM      9  C   UNL A   1      41.336  25.549  26.695  1.00  0.00     0.171 C 
BRANCH   9  10
ATOM     10  C   UNL A   1      40.075  26.368  26.984  1.00  0.00     0.038 C 
BRANCH  10  11
ATOM     11  C   UNL A   1      40.236  27.759  27.593  1.00  0.00    -0.015 C 
ATOM     12  C   UNL A   1      40.599  28.857  26.606  1.00  0.00     0.007 C 
ATOM     13  C   UNL A   1      39.042  28.226  28.428  1.00  0.00     0.007 C 
ENDBRANCH  10  11
ENDBRANCH   9  10
BRANCH   9  14
ATOM     14  N   UNL A   1      41.078  24.139  26.337  1.00  0.00    -0.343 N 
ATOM     15  C   UNL A   1      40.146  23.169  26.470  1.00  0.00     0.240 C 
ATOM     16  H   UNL A   1      41.845  23.785  25.832  1.00  0.00     0.164 HD
ATOM     17  O   UNL A   1      40.499  22.083  25.980  1.00  0.00    -0.273 OA
BRANCH  15  18
ATOM     18  C   UNL A   1      38.692  23.268  27.001  1.00  0.00     0.216 C 
BRANCH  18  19
ATOM     19  N   UNL A   1      37.576  23.866  26.283  1.00  0.00    -0.345 N 
ATOM     20  C   UNL A   1      36.264  23.521  26.149  1.00  0.00     0.243 C 
ATOM     21  H   UNL A   1      37.818  24.687  25.796  1.00  0.00     0.164 HD
ATOM     22  O   UNL A   1      35.530  24.459  25.812  1.00  0.00    -0.273 OA
BRANCH  20  23
ATOM     23  C   UNL A   1      35.679  22.067  26.245  1.00  0.00     0.177 C 
BRANCH  23  24
ATOM     24  N   UNL A   1      34.658  21.870  27.261  1.00  0.00    -0.309 N 
ATOM     25  C   UNL A   1      33.470  22.462  27.486  1.00  0.00     0.408 C 
ATOM     26  H   UNL A   1      34.879  21.165  27.912  1.00  0.00     0.167 HD
ATOM     27  O   UNL A   1      32.954  22.394  28.594  1.00  0.00    -0.225 OA
BRANCH  25  28
ATOM     28  O   UNL A   1      32.916  22.978  26.379  1.00  0.00    -0.445 OA
BRANCH  28  29
ATOM     29  C   UNL A   1      31.495  23.118  26.456  1.00  0.00     0.270 C 
BRANCH  29  30
ATOM     30  C   UNL A   1      30.919  24.106  25.452  1.00  0.00    -0.011 A 
ATOM     31  C   UNL A   1      30.990  23.933  24.056  1.00  0.00     0.007 A 
ATOM     32  C   UNL A   1      30.201  25.209  25.930  1.00  0.00     0.007 A 
ATOM     33  C   UNL A   1      30.386  24.826  23.174  1.00  0.00     0.000 A 
ATOM     34  C   UNL A   1      29.591  26.105  25.048  1.00  0.00     0.000 A 
ATOM     35  C   UNL A   1      29.683  25.913  23.671  1.00  0.00     0.000 A 
ENDBRANCH  29  30
ENDBRANCH  28  29
ENDBRANCH  25  28
ENDBRANCH  23  24
BRANCH  23  36
ATOM     36  C   UNL A   1      35.486  21.277  24.927  1.00  0.00     0.015 C 
ATOM     37  C   UNL A   1      35.652  22.158  23.682  1.00  0.00     0.010 C 
ATOM     38  C   UNL A   1      36.534  20.151  24.823  1.00  0.00     0.010 C 
ENDBRANCH  23  36
ENDBRANCH  20  23
ENDBRANCH  18  19
ENDBRANCH  15  18
ENDBRANCH   9  14
ENDBRANCH   6   9
ENDBRANCH   3   5
ENDBRANCH   1   3
BRANCH   1  39
ATOM     39  O   UNL A   1      43.932  24.535  24.747  1.00  0.00    -0.462 OA
BRANCH  39  40
ATOM     40  C   UNL A   1      44.455  23.294  24.231  1.00  0.00     0.261 C 
BRANCH  40  41
ATOM     41  C   UNL A   1      44.435  22.246  25.349  1.00  0.00     0.202 C 
BRANCH  41  42
ATOM     42  O   UNL A   1      43.611  22.611  26.465  1.00  0.00    -0.374 OA
BRANCH  42  43
ATOM     43  C   UNL A   1      44.230  22.549  27.750  1.00  0.00     0.202 C 
BRANCH  43  44
ATOM     44  C   UNL A   1      45.526  23.348  27.863  1.00  0.00     0.261 C 
BRANCH  44  45
ATOM     45  O   UNL A   1      45.518  24.142  29.020  1.00  0.00    -0.460 OA
BRANCH  45  46
ATOM     46  C   UNL A   1      46.404  25.147  28.999  1.00  0.00     0.338 C 
ATOM     47  O   UNL A   1      47.325  25.373  28.244  1.00  0.00    -0.246 OA
BRANCH  46  48
ATOM     48  C   UNL A   1      45.867  26.033  30.010  1.00  0.00     0.060 A 
ATOM     49  C   UNL A   1      45.056  25.455  30.985  1.00  0.00     0.016 A 
ATOM     50  C   UNL A   1      46.299  27.365  30.055  1.00  0.00     0.016 A 
ATOM     51  C   UNL A   1      44.601  26.257  32.007  1.00  0.00     0.010 A 
ATOM     52  C   UNL A   1      45.856  28.162  31.087  1.00  0.00     0.010 A 
ATOM     53  C   UNL A   1      44.968  27.612  32.021  1.00  0.00    -0.014 A 
BRANCH  53  54
ATOM     54  C   UNL A   1      44.207  28.517  32.878  1.00  0.00     0.031 A 
ATOM     55  C   UNL A   1      44.732  28.735  34.260  1.00  0.00     0.074 A 
ATOM     56  C   UNL A   1      43.123  29.125  32.383  1.00  0.00     0.049 A 
ATOM     57  N   UNL A   1      44.280  29.513  35.201  1.00  0.00    -0.248 NA
ATOM     58  C   UNL A   1      45.932  27.963  34.637  1.00  0.00     0.031 C 
ATOM     59  C   UNL A   1      42.593  28.938  31.032  1.00  0.00     0.029 A 
ATOM     60  N   UNL A   1      42.281  30.026  32.961  1.00  0.00    -0.354 N 
ATOM     61  C   UNL A   1      45.136  29.324  36.275  1.00  0.00     0.074 A 
ATOM     62  C   UNL A   1      46.105  28.326  35.896  1.00  0.00     0.031 C 
ATOM     63  C   UNL A   1      41.511  29.717  30.881  1.00  0.00     0.029 A 
ATOM     64  C   UNL A   1      41.271  30.433  32.131  1.00  0.00     0.049 A 
ATOM     65  H   UNL A   1      42.388  30.352  33.884  1.00  0.00     0.167 HD
ATOM     66  C   UNL A   1      45.112  29.955  37.470  1.00  0.00     0.037 A 
ATOM     67  C   UNL A   1      40.271  31.295  32.381  1.00  0.00     0.037 A 
ATOM     68  C   UNL A   1      44.118  30.935  37.803  1.00  0.00     0.049 A 
ATOM     69  C   UNL A   1      40.246  31.956  33.731  1.00  0.00     0.074 A 
ATOM     70  C   UNL A   1      43.969  31.662  38.967  1.00  0.00     0.029 A 
ATOM     71  N   UNL A   1      43.088  31.316  36.949  1.00  0.00    -0.354 N 
ATOM     72  N   UNL A   1      41.077  31.812  34.739  1.00  0.00    -0.248 NA
ATOM     73  C   UNL A   1      39.156  32.903  33.979  1.00  0.00     0.031 C 
ATOM     74  C   UNL A   1      42.820  32.449  38.834  1.00  0.00     0.029 A 
ATOM     75  C   UNL A   1      42.281  32.252  37.568  1.00  0.00     0.049 A 
ATOM     76  H   UNL A   1      42.953  30.971  36.037  1.00  0.00     0.167 HD
ATOM     77  C   UNL A   1      40.625  32.663  35.736  1.00  0.00     0.074 A 
ATOM     78  C   UNL A   1      39.452  33.331  35.199  1.00  0.00     0.031 C 
ATOM     79  C   UNL A   1      41.123  32.879  36.980  1.00  0.00     0.037 A 
BRANCH  66  80
ATOM     80  C   UNL A   1      46.154  29.560  38.473  1.00  0.00     0.064 A 
ATOM     81  C   UNL A   1      47.368  30.255  38.594  1.00  0.00     0.173 A 
ATOM     82  C   UNL A   1      45.959  28.439  39.293  1.00  0.00     0.173 A 
ATOM     83  F   UNL A   1      47.620  31.316  37.810  1.00  0.00    -0.203 F 
ATOM     84  C   UNL A   1      48.361  29.822  39.471  1.00  0.00     0.198 A 
ATOM     85  C   UNL A   1      46.941  28.027  40.191  1.00  0.00     0.198 A 
ATOM     86  F   UNL A   1      44.823  27.730  39.210  1.00  0.00    -0.203 F 
ATOM     87  F   UNL A   1      49.537  30.461  39.518  1.00  0.00    -0.200 F 
ATOM     88  C   UNL A   1      48.144  28.711  40.271  1.00  0.00     0.200 A 
ATOM     89  F   UNL A   1      46.729  26.953  40.965  1.00  0.00    -0.200 F 
ATOM     90  F   UNL A   1      49.102  28.290  41.109  1.00  0.00    -0.200 F 
ENDBRANCH  66  80
BRANCH  67  91
ATOM     91  C   UNL A   1      39.271  31.586  31.327  1.00  0.00     0.064 A 
ATOM     92  C   UNL A   1      38.137  30.781  31.165  1.00  0.00     0.173 A 
ATOM     93  C   UNL A   1      39.399  32.708  30.493  1.00  0.00     0.173 A 
ATOM     94  F   UNL A   1      37.972  29.695  31.936  1.00  0.00    -0.203 F 
ATOM     95  C   UNL A   1      37.172  31.080  30.204  1.00  0.00     0.198 A 
ATOM     96  C   UNL A   1      38.424  33.019  29.548  1.00  0.00     0.198 A 
ATOM     97  F   UNL A   1      40.460  33.519  30.616  1.00  0.00    -0.203 F 
ATOM     98  F   UNL A   1      36.108  30.279  30.055  1.00  0.00    -0.200 F 
ATOM     99  C   UNL A   1      37.313  32.202  29.402  1.00  0.00     0.200 A 
ATOM    100  F   UNL A   1      38.554  34.115  28.789  1.00  0.00    -0.200 F 
ATOM    101  F   UNL A   1      36.378  32.497  28.488  1.00  0.00    -0.200 F 
ENDBRANCH  67  91
BRANCH  79 102
ATOM    102  C   UNL A   1      40.404  33.889  37.820  1.00  0.00     0.064 A 
ATOM    103  C   UNL A   1      39.362  33.515  38.678  1.00  0.00     0.173 A 
ATOM    104  C   UNL A   1      40.802  35.234  37.802  1.00  0.00     0.173 A 
ATOM    105  F   UNL A   1      38.941  32.241  38.717  1.00  0.00    -0.203 F 
ATOM    106  C   UNL A   1      38.723  34.460  39.473  1.00  0.00     0.198 A 
ATOM    107  C   UNL A   1      40.182  36.169  38.621  1.00  0.00     0.198 A 
ATOM    108  F   UNL A   1      41.803  35.632  37.003  1.00  0.00    -0.203 F 
ATOM    109  F   UNL A   1      37.696  34.094  40.253  1.00  0.00    -0.200 F 
ATOM    110  C   UNL A   1      39.139  35.784  39.449  1.00  0.00     0.200 A 
ATOM    111  F   UNL A   1      40.595  37.444  38.609  1.00  0.00    -0.200 F 
ATOM    112  F   UNL A   1      38.527  36.692  40.223  1.00  0.00    -0.200 F 
ENDBRANCH  79 102
ENDBRANCH  53  54
ENDBRANCH  46  48
ENDBRANCH  45  46
ENDBRANCH  44  45
ENDBRANCH  43  44
ENDBRANCH  42  43
ENDBRANCH  41  42
ENDBRANCH  40  41
ENDBRANCH  39  40
ENDBRANCH   1  39
TORSDOF 27
ENDMDL
MODEL 3
REMARK VINA RESULT:      -8.8      3.312      4.707
REMARK SMILES CC(C)C[C@H](NC(=O)CNC(=O)[C@@H](NC(=O)OCc1ccccc1)C(C)C)C(=O)N[C@@H](C)C(=O)OCCOCCOC(=O)c1ccc(-c2c3nc(c(-c4c(F)c(F)c(F)c(F)c4F)c4ccc([nH]4)c(-c4c(F)c(F)c(F)c(F)c4F)c4nc(c(-c5c(F)c(F)c(F)c(F)c5F)c5ccc2[nH]5)C=C4)C=C3)cc1
REMARK SMILES IDX 33 1 34 2 31 3 32 4 30 5 28 6 29 7 5 9 4 10 2 11 1 12 3 13
REMARK SMILES IDX 6 14 7 15 8 17 9 18 10 19 11 20 12 22 13 23 14 24 15 25
REMARK SMILES IDX 16 27 17 28 18 29 19 30 20 31 24 32 21 33 23 34 22 35 25 36
REMARK SMILES IDX 26 37 27 38 35 39 36 40 37 41 38 42 39 43 40 44 41 45 42 46
REMARK SMILES IDX 43 47 44 48 45 49 106 50 46 51 105 52 47 53 48 54 49 55
REMARK SMILES IDX 99 56 50 57 104 58 98 59 100 60 51 61 103 62 97 63 96 64
REMARK SMILES IDX 52 66 84 67 64 68 83 69 65 70 68 71 82 72 101 73 66 74 67 75
REMARK SMILES IDX 81 77 102 78 69 79 53 80 54 81 62 82 55 83 56 84 60 85 63 86
REMARK SMILES IDX 57 87 58 88 61 89 59 90 85 91 86 92 94 93 87 94 88 95 92 96
REMARK SMILES IDX 95 97 89 98 90 99 93 100 91 101 70 102 71 103 79 104 72 105
REMARK SMILES IDX 73 106 77 107 80 108 74 109 75 110 78 111 76 112
REMARK H PARENT 30 8 6 16 10 21 14 26 100 65 68 76
REMARK Flexibility Score: inf
ROOT
ATOM      1  C   UNL A   1      43.926  21.725  25.442  1.00  0.00     0.328 C 
ATOM      2  O   UNL A   1      43.591  20.799  24.714  1.00  0.00    -0.250 OA
ENDROOT
BRANCH   1   3
ATOM      3  C   UNL A   1      42.912  22.674  26.102  1.00  0.00     0.189 C 
ATOM      4  C   UNL A   1      43.654  23.884  26.645  1.00  0.00     0.043 C 
BRANCH   3   5
ATOM      5  N   UNL A   1      42.097  22.071  27.148  1.00  0.00    -0.341 N 
ATOM      6  C   UNL A   1      40.751  22.055  27.330  1.00  0.00     0.243 C 
ATOM      7  O   UNL A   1      40.351  21.398  28.298  1.00  0.00    -0.273 OA
ATOM      8  H   UNL A   1      42.608  21.595  27.842  1.00  0.00     0.164 HD
BRANCH   6   9
ATOM      9  C   UNL A   1      39.716  22.657  26.324  1.00  0.00     0.171 C 
BRANCH   9  10
ATOM     10  C   UNL A   1      39.210  24.068  26.632  1.00  0.00     0.038 C 
BRANCH  10  11
ATOM     11  C   UNL A   1      40.166  25.052  27.303  1.00  0.00    -0.015 C 
ATOM     12  C   UNL A   1      40.732  26.127  26.388  1.00  0.00     0.007 C 
ATOM     13  C   UNL A   1      39.604  25.723  28.558  1.00  0.00     0.007 C 
ENDBRANCH  10  11
ENDBRANCH   9  10
BRANCH   9  14
ATOM     14  N   UNL A   1      38.671  21.723  25.855  1.00  0.00    -0.343 N 
ATOM     15  C   UNL A   1      37.561  21.682  25.085  1.00  0.00     0.240 C 
ATOM     16  H   UNL A   1      38.840  20.829  26.230  1.00  0.00     0.164 HD
ATOM     17  O   UNL A   1      37.011  20.567  25.082  1.00  0.00    -0.273 OA
BRANCH  15  18
ATOM     18  C   UNL A   1      36.987  22.757  24.126  1.00  0.00     0.216 C 
BRANCH  18  19
ATOM     19  N   UNL A   1      36.126  23.862  24.524  1.00  0.00    -0.345 N 
ATOM     20  C   UNL A   1      34.953  23.924  25.216  1.00  0.00     0.243 C 
ATOM     21  H   UNL A   1      36.460  24.742  24.235  1.00  0.00     0.164 HD
ATOM     22  O   UNL A   1      34.722  25.035  25.712  1.00  0.00    -0.273 OA
BRANCH  20  23
ATOM     23  C   UNL A   1      33.869  22.792  25.295  1.00  0.00     0.177 C 
BRANCH  23  24
ATOM     24  N   UNL A   1      33.371  22.313  24.016  1.00  0.00    -0.309 N 
ATOM     25  C   UNL A   1      32.215  22.513  23.355  1.00  0.00     0.408 C 
ATOM     26  H   UNL A   1      34.004  21.728  23.539  1.00  0.00     0.167 HD
ATOM     27  O   UNL A   1      31.868  21.730  22.481  1.00  0.00    -0.225 OA
BRANCH  25  28
ATOM     28  O   UNL A   1      31.616  23.671  23.673  1.00  0.00    -0.445 OA
BRANCH  28  29
ATOM     29  C   UNL A   1      31.840  24.715  22.722  1.00  0.00     0.270 C 
BRANCH  29  30
ATOM     30  C   UNL A   1      32.374  26.001  23.337  1.00  0.00    -0.011 A 
ATOM     31  C   UNL A   1      33.458  26.728  22.807  1.00  0.00     0.007 A 
ATOM     32  C   UNL A   1      31.705  26.548  24.439  1.00  0.00     0.007 A 
ATOM     33  C   UNL A   1      33.868  27.940  23.360  1.00  0.00     0.000 A 
ATOM     34  C   UNL A   1      32.113  27.764  24.993  1.00  0.00     0.000 A 
ATOM     35  C   UNL A   1      33.193  28.461  24.454  1.00  0.00     0.000 A 
ENDBRANCH  29  30
ENDBRANCH  28  29
ENDBRANCH  25  28
ENDBRANCH  23  24
BRANCH  23  36
ATOM     36  C   UNL A   1      34.018  21.725  26.407  1.00  0.00     0.015 C 
ATOM     37  C   UNL A   1      33.329  22.136  27.715  1.00  0.00     0.010 C 
ATOM     38  C   UNL A   1      33.375  20.397  25.960  1.00  0.00     0.010 C 
ENDBRANCH  23  36
ENDBRANCH  20  23
ENDBRANCH  18  19
ENDBRANCH  15  18
ENDBRANCH   9  14
ENDBRANCH   6   9
ENDBRANCH   3   5
ENDBRANCH   1   3
BRANCH   1  39
ATOM     39  O   UNL A   1      45.207  22.038  25.770  1.00  0.00    -0.462 OA
BRANCH  39  40
ATOM     40  C   UNL A   1      46.227  21.446  24.940  1.00  0.00     0.261 C 
BRANCH  40  41
ATOM     41  C   UNL A   1      46.615  22.445  23.844  1.00  0.00     0.202 C 
BRANCH  41  42
ATOM     42  O   UNL A   1      46.336  23.810  24.186  1.00  0.00    -0.374 OA
BRANCH  42  43
ATOM     43  C   UNL A   1      47.419  24.550  24.751  1.00  0.00     0.202 C 
BRANCH  43  44
ATOM     44  C   UNL A   1      46.991  25.620  25.754  1.00  0.00     0.261 C 
BRANCH  44  45
ATOM     45  O   UNL A   1      45.802  26.238  25.339  1.00  0.00    -0.460 OA
BRANCH  45  46
ATOM     46  C   UNL A   1      45.963  27.496  24.906  1.00  0.00     0.338 C 
ATOM     47  O   UNL A   1      46.233  27.924  23.804  1.00  0.00    -0.246 OA
BRANCH  46  48
ATOM     48  C   UNL A   1      45.536  28.260  26.058  1.00  0.00     0.060 A 
ATOM     49  C   UNL A   1      46.507  29.029  26.696  1.00  0.00     0.016 A 
ATOM     50  C   UNL A   1      44.173  28.316  26.380  1.00  0.00     0.016 A 
ATOM     51  C   UNL A   1      46.113  29.833  27.741  1.00  0.00     0.010 A 
ATOM     52  C   UNL A   1      43.778  29.133  27.416  1.00  0.00     0.010 A 
ATOM     53  C   UNL A   1      44.761  29.840  28.120  1.00  0.00    -0.014 A 
BRANCH  53  54
ATOM     54  C   UNL A   1      44.420  30.396  29.426  1.00  0.00     0.031 A 
ATOM     55  C   UNL A   1      44.216  31.875  29.495  1.00  0.00     0.074 A 
ATOM     56  C   UNL A   1      44.271  29.571  30.467  1.00  0.00     0.049 A 
ATOM     57  N   UNL A   1      43.867  32.614  30.508  1.00  0.00    -0.248 NA
ATOM     58  C   UNL A   1      44.442  32.629  28.246  1.00  0.00     0.031 C 
ATOM     59  C   UNL A   1      44.454  28.119  30.426  1.00  0.00     0.029 A 
ATOM     60  N   UNL A   1      43.925  29.837  31.757  1.00  0.00    -0.354 N 
ATOM     61  C   UNL A   1      43.832  33.912  30.022  1.00  0.00     0.074 A 
ATOM     62  C   UNL A   1      44.241  33.875  28.639  1.00  0.00     0.031 C 
ATOM     63  C   UNL A   1      44.206  27.618  31.647  1.00  0.00     0.029 A 
ATOM     64  C   UNL A   1      43.870  28.718  32.545  1.00  0.00     0.049 A 
ATOM     65  H   UNL A   1      43.733  30.744  32.090  1.00  0.00     0.167 HD
ATOM     66  C   UNL A   1      43.470  35.033  30.684  1.00  0.00     0.037 A 
ATOM     67  C   UNL A   1      43.575  28.623  33.852  1.00  0.00     0.037 A 
ATOM     68  C   UNL A   1      43.080  35.017  32.065  1.00  0.00     0.049 A 
ATOM     69  C   UNL A   1      43.209  29.889  34.576  1.00  0.00     0.074 A 
ATOM     70  C   UNL A   1      42.681  36.067  32.867  1.00  0.00     0.029 A 
ATOM     71  N   UNL A   1      43.053  33.870  32.851  1.00  0.00    -0.354 N 
ATOM     72  N   UNL A   1      43.136  31.116  34.112  1.00  0.00    -0.248 NA
ATOM     73  C   UNL A   1      42.878  29.762  35.997  1.00  0.00     0.031 C 
ATOM     74  C   UNL A   1      42.457  35.560  34.153  1.00  0.00     0.029 A 
ATOM     75  C   UNL A   1      42.667  34.187  34.140  1.00  0.00     0.049 A 
ATOM     76  H   UNL A   1      43.276  32.964  32.537  1.00  0.00     0.167 HD
ATOM     77  C   UNL A   1      42.731  31.908  35.175  1.00  0.00     0.074 A 
ATOM     78  C   UNL A   1      42.560  31.013  36.306  1.00  0.00     0.031 C 
ATOM     79  C   UNL A   1      42.519  33.248  35.225  1.00  0.00     0.037 A 
BRANCH  66  80
ATOM     80  C   UNL A   1      43.527  36.324  29.925  1.00  0.00     0.064 A 
ATOM     81  C   UNL A   1      42.520  36.698  29.020  1.00  0.00     0.173 A 
ATOM     82  C   UNL A   1      44.628  37.181  30.068  1.00  0.00     0.173 A 
ATOM     83  F   UNL A   1      41.460  35.900  28.822  1.00  0.00    -0.203 F 
ATOM     84  C   UNL A   1      42.633  37.861  28.260  1.00  0.00     0.198 A 
ATOM     85  C   UNL A   1      44.722  38.358  29.328  1.00  0.00     0.198 A 
ATOM     86  F   UNL A   1      45.625  36.866  30.909  1.00  0.00    -0.203 F 
ATOM     87  F   UNL A   1      41.693  38.160  27.353  1.00  0.00    -0.200 F 
ATOM     88  C   UNL A   1      43.731  38.691  28.418  1.00  0.00     0.200 A 
ATOM     89  F   UNL A   1      45.785  39.160  29.484  1.00  0.00    -0.200 F 
ATOM     90  F   UNL A   1      43.842  39.805  27.682  1.00  0.00    -0.200 F 
ENDBRANCH  66  80
BRANCH  67  91
ATOM     91  C   UNL A   1      43.583  27.296  34.512  1.00  0.00     0.064 A 
ATOM     92  C   UNL A   1      42.404  26.555  34.661  1.00  0.00     0.173 A 
ATOM     93  C   UNL A   1      44.780  26.715  34.960  1.00  0.00     0.173 A 
ATOM     94  F   UNL A   1      41.235  27.070  34.252  1.00  0.00    -0.203 F 
ATOM     95  C   UNL A   1      42.419  25.288  35.241  1.00  0.00     0.198 A 
ATOM     96  C   UNL A   1      44.797  25.439  35.519  1.00  0.00     0.198 A 
ATOM     97  F   UNL A   1      45.939  27.377  34.828  1.00  0.00    -0.203 F 
ATOM     98  F   UNL A   1      41.273  24.610  35.392  1.00  0.00    -0.200 F 
ATOM     99  C   UNL A   1      43.615  24.728  35.662  1.00  0.00     0.200 A 
ATOM    100  F   UNL A   1      45.958  24.894  35.906  1.00  0.00    -0.200 F 
ATOM    101  F   UNL A   1      43.630  23.503  36.207  1.00  0.00    -0.200 F 
ENDBRANCH  67  91
BRANCH  79 102
ATOM    102  C   UNL A   1      42.064  33.803  36.539  1.00  0.00     0.064 A 
ATOM    103  C   UNL A   1      42.978  34.281  37.485  1.00  0.00     0.173 A 
ATOM    104  C   UNL A   1      40.694  33.904  36.825  1.00  0.00     0.173 A 
ATOM    105  F   UNL A   1      44.298  34.191  37.256  1.00  0.00    -0.203 F 
ATOM    106  C   UNL A   1      42.539  34.819  38.689  1.00  0.00     0.198 A 
ATOM    107  C   UNL A   1      40.258  34.472  38.016  1.00  0.00     0.198 A 
ATOM    108  F   UNL A   1      39.784  33.469  35.942  1.00  0.00    -0.203 F 
ATOM    109  F   UNL A   1      43.429  35.228  39.604  1.00  0.00    -0.200 F 
ATOM    110  C   UNL A   1      41.180  34.922  38.950  1.00  0.00     0.200 A 
ATOM    111  F   UNL A   1      38.945  34.585  38.260  1.00  0.00    -0.200 F 
ATOM    112  F   UNL A   1      40.758  35.449  40.107  1.00  0.00    -0.200 F 
ENDBRANCH  79 102
ENDBRANCH  53  54
ENDBRANCH  46  48
ENDBRANCH  45  46
ENDBRANCH  44  45
ENDBRANCH  43  44
ENDBRANCH  42  43
ENDBRANCH  41  42
ENDBRANCH  40  41
ENDBRANCH  39  40
ENDBRANCH   1  39
TORSDOF 27
ENDMDL
