MODEL 1
REMARK VINA RESULT:     -12.7      0.000      0.000
REMARK SMILES O=C(OCCOCCOC(=O)c1ccn(-c2cc(-c3ccncc3)nc(-c3ccccc3F)n2)n1)c1ccc(-c2c3nc(c(-c4c(F)c(F)c(F)c(F)c4F)c4ccc([nH]4)c(-c4c(F)c(F)c(F)c(F)c4F)c4nc(c(-c5c(F)c(F)c(F)c(F)c5F)c5ccc2[nH]5)C=C4)C=C3)cc1
REMARK SMILES IDX 6 1 5 2 4 3 3 4 2 5 1 6 36 7 37 8 98 9 38 10 97 11 39 12
REMARK SMILES IDX 40 13 41 14 91 15 42 16 96 17 90 18 92 19 43 20 95 21 89 22
REMARK SMILES IDX 88 23 44 25 76 26 56 27 75 28 57 29 60 30 74 31 93 32 58 33
REMARK SMILES IDX 59 34 73 36 94 37 61 38 45 39 46 40 54 41 47 42 48 43 52 44
REMARK SMILES IDX 55 45 49 46 50 47 53 48 51 49 77 50 78 51 86 52 79 53 80 54
REMARK SMILES IDX 84 55 87 56 81 57 82 58 85 59 83 60 62 61 63 62 71 63 64 64
REMARK SMILES IDX 65 65 69 66 72 67 66 68 67 69 70 70 68 71 7 72 8 73 9 74
REMARK SMILES IDX 10 75 11 76 12 77 13 78 35 79 14 80 15 81 16 82 17 83 34 84
REMARK SMILES IDX 18 85 26 86 25 87 19 88 20 89 24 90 21 91 23 92 22 93 27 94
REMARK SMILES IDX 28 95 32 96 29 97 31 98 33 99 30 100
REMARK H PARENT 92 24 60 35
REMARK Flexibility Score: inf
ROOT
ATOM      1  O   UNL A   1      32.634  36.361  29.963  1.00  0.00    -0.374 OA
ENDROOT
BRANCH   1   2
ATOM      2  C   UNL A   1      33.265  37.164  30.961  1.00  0.00     0.202 C 
BRANCH   2   3
ATOM      3  C   UNL A   1      32.973  36.777  32.409  1.00  0.00     0.261 C 
BRANCH   3   4
ATOM      4  O   UNL A   1      34.040  36.046  33.049  1.00  0.00    -0.460 OA
BRANCH   4   5
ATOM      5  C   UNL A   1      34.096  34.694  33.106  1.00  0.00     0.338 C 
ATOM      6  O   UNL A   1      33.106  34.006  32.877  1.00  0.00    -0.246 OA
BRANCH   5   7
ATOM      7  C   UNL A   1      35.443  34.076  33.095  1.00  0.00     0.060 A 
ATOM      8  C   UNL A   1      36.626  34.771  32.851  1.00  0.00     0.016 A 
ATOM      9  C   UNL A   1      35.481  32.682  33.245  1.00  0.00     0.016 A 
ATOM     10  C   UNL A   1      37.769  34.080  32.502  1.00  0.00     0.010 A 
ATOM     11  C   UNL A   1      36.646  31.986  32.974  1.00  0.00     0.010 A 
ATOM     12  C   UNL A   1      37.754  32.685  32.506  1.00  0.00    -0.014 A 
BRANCH  12  13
ATOM     13  C   UNL A   1      38.966  32.009  32.074  1.00  0.00     0.031 A 
ATOM     14  C   UNL A   1      39.985  31.799  33.141  1.00  0.00     0.074 A 
ATOM     15  C   UNL A   1      39.111  31.535  30.823  1.00  0.00     0.049 A 
ATOM     16  N   UNL A   1      41.230  32.155  33.157  1.00  0.00    -0.248 NA
ATOM     17  C   UNL A   1      39.516  31.193  34.400  1.00  0.00     0.031 C 
ATOM     18  C   UNL A   1      38.103  31.437  29.763  1.00  0.00     0.029 A 
ATOM     19  N   UNL A   1      40.194  30.930  30.270  1.00  0.00    -0.354 N 
ATOM     20  C   UNL A   1      41.743  31.689  34.366  1.00  0.00     0.074 A 
ATOM     21  C   UNL A   1      40.626  31.205  35.135  1.00  0.00     0.031 C 
ATOM     22  C   UNL A   1      38.552  30.601  28.801  1.00  0.00     0.029 A 
ATOM     23  C   UNL A   1      39.919  30.223  29.111  1.00  0.00     0.049 A 
ATOM     24  H   UNL A   1      41.097  30.989  30.659  1.00  0.00     0.167 HD
ATOM     25  C   UNL A   1      43.077  31.559  34.591  1.00  0.00     0.037 A 
ATOM     26  C   UNL A   1      40.736  29.319  28.518  1.00  0.00     0.037 A 
ATOM     27  C   UNL A   1      43.857  32.390  33.718  1.00  0.00     0.049 A 
ATOM     28  C   UNL A   1      42.113  29.569  29.016  1.00  0.00     0.074 A 
ATOM     29  C   UNL A   1      43.962  33.755  33.535  1.00  0.00     0.029 A 
ATOM     30  N   UNL A   1      44.437  31.825  32.611  1.00  0.00    -0.354 N 
ATOM     31  N   UNL A   1      42.810  30.635  28.740  1.00  0.00    -0.248 NA
ATOM     32  C   UNL A   1      42.552  28.819  30.184  1.00  0.00     0.031 C 
ATOM     33  C   UNL A   1      44.128  33.927  32.131  1.00  0.00     0.029 A 
ATOM     34  C   UNL A   1      44.164  32.657  31.554  1.00  0.00     0.049 A 
ATOM     35  H   UNL A   1      44.951  30.985  32.580  1.00  0.00     0.167 HD
ATOM     36  C   UNL A   1      43.502  30.918  29.908  1.00  0.00     0.074 A 
ATOM     37  C   UNL A   1      43.371  29.720  30.731  1.00  0.00     0.031 C 
ATOM     38  C   UNL A   1      43.880  32.193  30.217  1.00  0.00     0.037 A 
BRANCH  25  39
ATOM     39  C   UNL A   1      43.665  30.456  35.423  1.00  0.00     0.064 A 
ATOM     40  C   UNL A   1      44.168  30.672  36.726  1.00  0.00     0.173 A 
ATOM     41  C   UNL A   1      43.495  29.110  35.050  1.00  0.00     0.173 A 
ATOM     42  F   UNL A   1      44.250  31.900  37.254  1.00  0.00    -0.203 F 
ATOM     43  C   UNL A   1      44.507  29.625  37.579  1.00  0.00     0.198 A 
ATOM     44  C   UNL A   1      43.784  28.062  35.929  1.00  0.00     0.198 A 
ATOM     45  F   UNL A   1      42.976  28.795  33.853  1.00  0.00    -0.203 F 
ATOM     46  F   UNL A   1      44.973  29.899  38.805  1.00  0.00    -0.200 F 
ATOM     47  C   UNL A   1      44.293  28.320  37.190  1.00  0.00     0.200 A 
ATOM     48  F   UNL A   1      43.515  26.799  35.571  1.00  0.00    -0.200 F 
ATOM     49  F   UNL A   1      44.529  27.319  38.047  1.00  0.00    -0.200 F 
ENDBRANCH  25  39
BRANCH  26  50
ATOM     50  C   UNL A   1      40.345  28.043  27.869  1.00  0.00     0.064 A 
ATOM     51  C   UNL A   1      39.646  27.040  28.572  1.00  0.00     0.173 A 
ATOM     52  C   UNL A   1      40.901  27.668  26.636  1.00  0.00     0.173 A 
ATOM     53  F   UNL A   1      39.148  27.270  29.795  1.00  0.00    -0.203 F 
ATOM     54  C   UNL A   1      39.530  25.740  28.081  1.00  0.00     0.198 A 
ATOM     55  C   UNL A   1      40.792  26.360  26.150  1.00  0.00     0.198 A 
ATOM     56  F   UNL A   1      41.618  28.550  25.924  1.00  0.00    -0.203 F 
ATOM     57  F   UNL A   1      38.903  24.807  28.813  1.00  0.00    -0.200 F 
ATOM     58  C   UNL A   1      40.116  25.395  26.879  1.00  0.00     0.200 A 
ATOM     59  F   UNL A   1      41.396  26.022  25.002  1.00  0.00    -0.200 F 
ATOM     60  F   UNL A   1      40.068  24.128  26.446  1.00  0.00    -0.200 F 
ENDBRANCH  26  50
BRANCH  38  61
ATOM     61  C   UNL A   1      43.734  33.249  29.155  1.00  0.00     0.064 A 
ATOM     62  C   UNL A   1      44.840  33.542  28.346  1.00  0.00     0.173 A 
ATOM     63  C   UNL A   1      42.607  34.081  29.034  1.00  0.00     0.173 A 
ATOM     64  F   UNL A   1      45.964  32.818  28.459  1.00  0.00    -0.203 F 
ATOM     65  C   UNL A   1      44.823  34.618  27.461  1.00  0.00     0.198 A 
ATOM     66  C   UNL A   1      42.579  35.134  28.120  1.00  0.00     0.198 A 
ATOM     67  F   UNL A   1      41.550  33.934  29.841  1.00  0.00    -0.203 F 
ATOM     68  F   UNL A   1      45.920  34.909  26.750  1.00  0.00    -0.200 F 
ATOM     69  C   UNL A   1      43.691  35.407  27.343  1.00  0.00     0.200 A 
ATOM     70  F   UNL A   1      41.491  35.912  28.023  1.00  0.00    -0.200 F 
ATOM     71  F   UNL A   1      43.685  36.451  26.502  1.00  0.00    -0.200 F 
ENDBRANCH  38  61
ENDBRANCH  12  13
ENDBRANCH   5   7
ENDBRANCH   4   5
ENDBRANCH   3   4
ENDBRANCH   2   3
ENDBRANCH   1   2
BRANCH   1  72
ATOM     72  C   UNL A   1      33.521  35.661  29.077  1.00  0.00     0.202 C 
BRANCH  72  73
ATOM     73  C   UNL A   1      33.052  34.318  28.495  1.00  0.00     0.261 C 
BRANCH  73  74
ATOM     74  O   UNL A   1      34.150  33.532  28.011  1.00  0.00    -0.458 OA
BRANCH  74  75
ATOM     75  C   UNL A   1      34.396  32.381  28.725  1.00  0.00     0.358 C 
ATOM     76  O   UNL A   1      34.560  32.346  29.927  1.00  0.00    -0.244 OA
BRANCH  75  77
ATOM     77  C   UNL A   1      34.298  31.187  27.877  1.00  0.00     0.170 A 
ATOM     78  C   UNL A   1      35.070  30.004  27.950  1.00  0.00     0.058 A 
ATOM     79  N   UNL A   1      33.403  31.119  26.863  1.00  0.00    -0.159 NA
ATOM     80  C   UNL A   1      34.438  29.121  27.108  1.00  0.00     0.118 A 
ATOM     81  N   UNL A   1      33.430  29.816  26.490  1.00  0.00    -0.222 N 
BRANCH  81  82
ATOM     82  C   UNL A   1      32.411  29.256  25.684  1.00  0.00     0.158 A 
ATOM     83  C   UNL A   1      31.446  30.079  25.137  1.00  0.00     0.078 A 
ATOM     84  N   UNL A   1      32.476  27.925  25.470  1.00  0.00    -0.209 NA
ATOM     85  C   UNL A   1      30.550  29.454  24.289  1.00  0.00     0.077 A 
ATOM     86  C   UNL A   1      31.488  27.404  24.732  1.00  0.00     0.165 A 
ATOM     87  N   UNL A   1      30.527  28.114  24.123  1.00  0.00    -0.228 NA
BRANCH  85  88
ATOM     88  C   UNL A   1      29.615  30.185  23.425  1.00  0.00     0.003 A 
ATOM     89  C   UNL A   1      29.258  29.693  22.162  1.00  0.00     0.030 A 
ATOM     90  C   UNL A   1      28.969  31.344  23.875  1.00  0.00     0.030 A 
ATOM     91  C   UNL A   1      28.299  30.367  21.421  1.00  0.00     0.111 A 
ATOM     92  C   UNL A   1      28.031  31.954  23.057  1.00  0.00     0.111 A 
ATOM     93  N   UNL A   1      27.685  31.493  21.837  1.00  0.00    -0.265 NA
ENDBRANCH  85  88
BRANCH  86  94
ATOM     94  C   UNL A   1      31.419  25.956  24.662  1.00  0.00     0.055 A 
ATOM     95  C   UNL A   1      30.918  25.202  25.739  1.00  0.00     0.015 A 
ATOM     96  C   UNL A   1      31.870  25.271  23.532  1.00  0.00     0.134 A 
ATOM     97  C   UNL A   1      30.869  23.807  25.677  1.00  0.00     0.001 A 
ATOM     98  C   UNL A   1      31.832  23.879  23.466  1.00  0.00     0.040 A 
ATOM     99  F   UNL A   1      32.383  25.945  22.491  1.00  0.00    -0.206 F 
ATOM    100  C   UNL A   1      31.329  23.146  24.539  1.00  0.00     0.003 A 
ENDBRANCH  86  94
ENDBRANCH  81  82
ENDBRANCH  75  77
ENDBRANCH  74  75
ENDBRANCH  73  74
ENDBRANCH  72  73
ENDBRANCH   1  72
TORSDOF 17
ENDMDL
MODEL 2
REMARK VINA RESULT:     -12.5      5.251     10.314
REMARK SMILES O=C(OCCOCCOC(=O)c1ccn(-c2cc(-c3ccncc3)nc(-c3ccccc3F)n2)n1)c1ccc(-c2c3nc(c(-c4c(F)c(F)c(F)c(F)c4F)c4ccc([nH]4)c(-c4c(F)c(F)c(F)c(F)c4F)c4nc(c(-c5c(F)c(F)c(F)c(F)c5F)c5ccc2[nH]5)C=C4)C=C3)cc1
REMARK SMILES IDX 6 1 5 2 4 3 3 4 2 5 1 6 36 7 37 8 98 9 38 10 97 11 39 12
REMARK SMILES IDX 40 13 41 14 91 15 42 16 96 17 90 18 92 19 43 20 95 21 89 22
REMARK SMILES IDX 88 23 44 25 76 26 56 27 75 28 57 29 60 30 74 31 93 32 58 33
REMARK SMILES IDX 59 34 73 36 94 37 61 38 45 39 46 40 54 41 47 42 48 43 52 44
REMARK SMILES IDX 55 45 49 46 50 47 53 48 51 49 77 50 78 51 86 52 79 53 80 54
REMARK SMILES IDX 84 55 87 56 81 57 82 58 85 59 83 60 62 61 63 62 71 63 64 64
REMARK SMILES IDX 65 65 69 66 72 67 66 68 67 69 70 70 68 71 7 72 8 73 9 74
REMARK SMILES IDX 10 75 11 76 12 77 13 78 35 79 14 80 15 81 16 82 17 83 34 84
REMARK SMILES IDX 18 85 26 86 25 87 19 88 20 89 24 90 21 91 23 92 22 93 27 94
REMARK SMILES IDX 28 95 32 96 29 97 31 98 33 99 30 100
REMARK H PARENT 92 24 60 35
REMARK Flexibility Score: inf
ROOT
ATOM      1  O   UNL A   1      43.862  18.054  26.059  1.00  0.00    -0.374 OA
ENDROOT
BRANCH   1   2
ATOM      2  C   UNL A   1      44.313  18.677  24.856  1.00  0.00     0.202 C 
BRANCH   2   3
ATOM      3  C   UNL A   1      45.659  19.392  24.941  1.00  0.00     0.261 C 
BRANCH   3   4
ATOM      4  O   UNL A   1      45.573  20.759  25.394  1.00  0.00    -0.460 OA
BRANCH   4   5
ATOM      5  C   UNL A   1      45.274  21.802  24.584  1.00  0.00     0.338 C 
ATOM      6  O   UNL A   1      44.782  21.624  23.474  1.00  0.00    -0.246 OA
BRANCH   5   7
ATOM      7  C   UNL A   1      45.221  23.145  25.209  1.00  0.00     0.060 A 
ATOM      8  C   UNL A   1      45.937  23.514  26.345  1.00  0.00     0.016 A 
ATOM      9  C   UNL A   1      44.303  24.047  24.649  1.00  0.00     0.016 A 
ATOM     10  C   UNL A   1      45.562  24.634  27.059  1.00  0.00     0.010 A 
ATOM     11  C   UNL A   1      43.979  25.213  25.320  1.00  0.00     0.010 A 
ATOM     12  C   UNL A   1      44.539  25.447  26.572  1.00  0.00    -0.014 A 
BRANCH  12  13
ATOM     13  C   UNL A   1      44.146  26.580  27.393  1.00  0.00     0.031 A 
ATOM     14  C   UNL A   1      45.024  27.778  27.276  1.00  0.00     0.074 A 
ATOM     15  C   UNL A   1      43.022  26.568  28.133  1.00  0.00     0.049 A 
ATOM     16  N   UNL A   1      45.641  28.428  28.211  1.00  0.00    -0.248 NA
ATOM     17  C   UNL A   1      45.328  28.251  25.914  1.00  0.00     0.031 C 
ATOM     18  C   UNL A   1      41.944  25.575  28.136  1.00  0.00     0.029 A 
ATOM     19  N   UNL A   1      42.557  27.527  28.976  1.00  0.00    -0.354 N 
ATOM     20  C   UNL A   1      46.294  29.482  27.575  1.00  0.00     0.074 A 
ATOM     21  C   UNL A   1      46.159  29.262  26.158  1.00  0.00     0.031 C 
ATOM     22  C   UNL A   1      40.859  26.101  28.749  1.00  0.00     0.029 A 
ATOM     23  C   UNL A   1      41.214  27.399  29.294  1.00  0.00     0.049 A 
ATOM     24  H   UNL A   1      43.125  28.249  29.332  1.00  0.00     0.167 HD
ATOM     25  C   UNL A   1      46.749  30.571  28.248  1.00  0.00     0.037 A 
ATOM     26  C   UNL A   1      40.442  28.347  29.878  1.00  0.00     0.037 A 
ATOM     27  C   UNL A   1      46.949  30.301  29.643  1.00  0.00     0.049 A 
ATOM     28  C   UNL A   1      41.352  29.316  30.542  1.00  0.00     0.074 A 
ATOM     29  C   UNL A   1      47.779  29.449  30.345  1.00  0.00     0.029 A 
ATOM     30  N   UNL A   1      45.989  30.698  30.539  1.00  0.00    -0.354 N 
ATOM     31  N   UNL A   1      42.090  29.036  31.579  1.00  0.00    -0.248 NA
ATOM     32  C   UNL A   1      41.764  30.485  29.778  1.00  0.00     0.031 C 
ATOM     33  C   UNL A   1      46.995  28.991  31.443  1.00  0.00     0.029 A 
ATOM     34  C   UNL A   1      45.757  29.630  31.369  1.00  0.00     0.049 A 
ATOM     35  H   UNL A   1      45.552  31.580  30.579  1.00  0.00     0.167 HD
ATOM     36  C   UNL A   1      43.275  29.726  31.368  1.00  0.00     0.074 A 
ATOM     37  C   UNL A   1      42.983  30.667  30.291  1.00  0.00     0.031 C 
ATOM     38  C   UNL A   1      44.456  29.284  31.890  1.00  0.00     0.037 A 
BRANCH  25  39
ATOM     39  C   UNL A   1      46.738  31.957  27.669  1.00  0.00     0.064 A 
ATOM     40  C   UNL A   1      47.864  32.520  27.026  1.00  0.00     0.173 A 
ATOM     41  C   UNL A   1      45.528  32.654  27.503  1.00  0.00     0.173 A 
ATOM     42  F   UNL A   1      49.044  31.889  26.991  1.00  0.00    -0.203 F 
ATOM     43  C   UNL A   1      47.792  33.706  26.298  1.00  0.00     0.198 A 
ATOM     44  C   UNL A   1      45.448  33.814  26.727  1.00  0.00     0.198 A 
ATOM     45  F   UNL A   1      44.389  32.178  28.030  1.00  0.00    -0.203 F 
ATOM     46  F   UNL A   1      48.895  34.183  25.706  1.00  0.00    -0.200 F 
ATOM     47  C   UNL A   1      46.580  34.340  26.129  1.00  0.00     0.200 A 
ATOM     48  F   UNL A   1      44.258  34.391  26.512  1.00  0.00    -0.200 F 
ATOM     49  F   UNL A   1      46.497  35.427  25.350  1.00  0.00    -0.200 F 
ENDBRANCH  25  39
BRANCH  26  50
ATOM     50  C   UNL A   1      39.027  28.669  29.572  1.00  0.00     0.064 A 
ATOM     51  C   UNL A   1      38.623  29.075  28.283  1.00  0.00     0.173 A 
ATOM     52  C   UNL A   1      38.096  28.860  30.605  1.00  0.00     0.173 A 
ATOM     53  F   UNL A   1      39.465  29.011  27.242  1.00  0.00    -0.203 F 
ATOM     54  C   UNL A   1      37.377  29.655  28.048  1.00  0.00     0.198 A 
ATOM     55  C   UNL A   1      36.850  29.452  30.370  1.00  0.00     0.198 A 
ATOM     56  F   UNL A   1      38.417  28.542  31.867  1.00  0.00    -0.203 F 
ATOM     57  F   UNL A   1      37.062  30.075  26.814  1.00  0.00    -0.200 F 
ATOM     58  C   UNL A   1      36.497  29.859  29.093  1.00  0.00     0.200 A 
ATOM     59  F   UNL A   1      36.017  29.684  31.393  1.00  0.00    -0.200 F 
ATOM     60  F   UNL A   1      35.332  30.485  28.879  1.00  0.00    -0.200 F 
ENDBRANCH  26  50
BRANCH  38  61
ATOM     61  C   UNL A   1      44.408  28.161  32.890  1.00  0.00     0.064 A 
ATOM     62  C   UNL A   1      44.384  26.843  32.416  1.00  0.00     0.173 A 
ATOM     63  C   UNL A   1      44.214  28.354  34.269  1.00  0.00     0.173 A 
ATOM     64  F   UNL A   1      44.504  26.600  31.102  1.00  0.00    -0.203 F 
ATOM     65  C   UNL A   1      44.172  25.769  33.277  1.00  0.00     0.198 A 
ATOM     66  C   UNL A   1      44.041  27.275  35.135  1.00  0.00     0.198 A 
ATOM     67  F   UNL A   1      44.121  29.584  34.787  1.00  0.00    -0.203 F 
ATOM     68  F   UNL A   1      44.090  24.526  32.782  1.00  0.00    -0.200 F 
ATOM     69  C   UNL A   1      44.009  25.985  34.636  1.00  0.00     0.200 A 
ATOM     70  F   UNL A   1      43.860  27.487  36.447  1.00  0.00    -0.200 F 
ATOM     71  F   UNL A   1      43.789  24.950  35.459  1.00  0.00    -0.200 F 
ENDBRANCH  38  61
ENDBRANCH  12  13
ENDBRANCH   5   7
ENDBRANCH   4   5
ENDBRANCH   3   4
ENDBRANCH   2   3
ENDBRANCH   1   2
BRANCH   1  72
ATOM     72  C   UNL A   1      42.487  18.287  26.402  1.00  0.00     0.202 C 
BRANCH  72  73
ATOM     73  C   UNL A   1      42.138  19.582  27.151  1.00  0.00     0.261 C 
BRANCH  73  74
ATOM     74  O   UNL A   1      40.880  20.124  26.726  1.00  0.00    -0.458 OA
BRANCH  74  75
ATOM     75  C   UNL A   1      40.954  21.368  26.140  1.00  0.00     0.358 C 
ATOM     76  O   UNL A   1      41.907  21.765  25.503  1.00  0.00    -0.244 OA
BRANCH  75  77
ATOM     77  C   UNL A   1      39.688  22.099  26.264  1.00  0.00     0.170 A 
ATOM     78  C   UNL A   1      39.499  23.451  26.637  1.00  0.00     0.058 A 
ATOM     79  N   UNL A   1      38.501  21.491  26.032  1.00  0.00    -0.159 NA
ATOM     80  C   UNL A   1      38.175  23.705  26.374  1.00  0.00     0.118 A 
ATOM     81  N   UNL A   1      37.611  22.514  25.991  1.00  0.00    -0.222 N 
BRANCH  81  82
ATOM     82  C   UNL A   1      36.315  22.346  25.452  1.00  0.00     0.158 A 
ATOM     83  C   UNL A   1      35.534  23.457  25.198  1.00  0.00     0.078 A 
ATOM     84  N   UNL A   1      35.934  21.081  25.181  1.00  0.00    -0.209 NA
ATOM     85  C   UNL A   1      34.322  23.198  24.584  1.00  0.00     0.077 A 
ATOM     86  C   UNL A   1      34.693  20.934  24.701  1.00  0.00     0.165 A 
ATOM     87  N   UNL A   1      33.868  21.942  24.383  1.00  0.00    -0.228 NA
BRANCH  85  88
ATOM     88  C   UNL A   1      33.469  24.248  24.013  1.00  0.00     0.003 A 
ATOM     89  C   UNL A   1      33.896  25.582  23.962  1.00  0.00     0.030 A 
ATOM     90  C   UNL A   1      32.244  23.935  23.407  1.00  0.00     0.030 A 
ATOM     91  C   UNL A   1      33.098  26.522  23.328  1.00  0.00     0.111 A 
ATOM     92  C   UNL A   1      31.512  24.947  22.807  1.00  0.00     0.111 A 
ATOM     93  N   UNL A   1      31.909  26.235  22.759  1.00  0.00    -0.265 NA
ENDBRANCH  85  88
BRANCH  86  94
ATOM     94  C   UNL A   1      34.187  19.577  24.600  1.00  0.00     0.055 A 
ATOM     95  C   UNL A   1      32.805  19.323  24.535  1.00  0.00     0.015 A 
ATOM     96  C   UNL A   1      35.058  18.487  24.588  1.00  0.00     0.134 A 
ATOM     97  C   UNL A   1      32.319  18.015  24.455  1.00  0.00     0.001 A 
ATOM     98  C   UNL A   1      34.581  17.179  24.517  1.00  0.00     0.040 A 
ATOM     99  F   UNL A   1      36.384  18.678  24.677  1.00  0.00    -0.206 F 
ATOM    100  C   UNL A   1      33.209  16.943  24.448  1.00  0.00     0.003 A 
ENDBRANCH  86  94
ENDBRANCH  81  82
ENDBRANCH  75  77
ENDBRANCH  74  75
ENDBRANCH  73  74
ENDBRANCH  72  73
ENDBRANCH   1  72
TORSDOF 17
ENDMDL
MODEL 3
REMARK VINA RESULT:     -12.5      0.993      3.157
REMARK SMILES O=C(OCCOCCOC(=O)c1ccn(-c2cc(-c3ccncc3)nc(-c3ccccc3F)n2)n1)c1ccc(-c2c3nc(c(-c4c(F)c(F)c(F)c(F)c4F)c4ccc([nH]4)c(-c4c(F)c(F)c(F)c(F)c4F)c4nc(c(-c5c(F)c(F)c(F)c(F)c5F)c5ccc2[nH]5)C=C4)C=C3)cc1
REMARK SMILES IDX 6 1 5 2 4 3 3 4 2 5 1 6 36 7 37 8 98 9 38 10 97 11 39 12
REMARK SMILES IDX 40 13 41 14 91 15 42 16 96 17 90 18 92 19 43 20 95 21 89 22
REMARK SMILES IDX 88 23 44 25 76 26 56 27 75 28 57 29 60 30 74 31 93 32 58 33
REMARK SMILES IDX 59 34 73 36 94 37 61 38 45 39 46 40 54 41 47 42 48 43 52 44
REMARK SMILES IDX 55 45 49 46 50 47 53 48 51 49 77 50 78 51 86 52 79 53 80 54
REMARK SMILES IDX 84 55 87 56 81 57 82 58 85 59 83 60 62 61 63 62 71 63 64 64
REMARK SMILES IDX 65 65 69 66 72 67 66 68 67 69 70 70 68 71 7 72 8 73 9 74
REMARK SMILES IDX 10 75 11 76 12 77 13 78 35 79 14 80 15 81 16 82 17 83 34 84
REMARK SMILES IDX 18 85 26 86 25 87 19 88 20 89 24 90 21 91 23 92 22 93 27 94
REMARK SMILES IDX 28 95 32 96 29 97 31 98 33 99 30 100
REMARK H PARENT 92 24 60 35
REMARK Flexibility Score: inf
ROOT
ATOM      1  O   UNL A   1      32.583  36.575  30.585  1.00  0.00    -0.374 OA
ENDROOT
BRANCH   1   2
ATOM      2  C   UNL A   1      33.297  37.461  31.449  1.00  0.00     0.202 C 
BRANCH   2   3
ATOM      3  C   UNL A   1      33.465  36.992  32.891  1.00  0.00     0.261 C 
BRANCH   3   4
ATOM      4  O   UNL A   1      34.595  36.119  33.100  1.00  0.00    -0.460 OA
BRANCH   4   5
ATOM      5  C   UNL A   1      34.501  34.770  33.166  1.00  0.00     0.338 C 
ATOM      6  O   UNL A   1      33.453  34.191  32.895  1.00  0.00    -0.246 OA
BRANCH   5   7
ATOM      7  C   UNL A   1      35.771  34.009  33.220  1.00  0.00     0.060 A 
ATOM      8  C   UNL A   1      37.038  34.584  33.142  1.00  0.00     0.016 A 
ATOM      9  C   UNL A   1      35.650  32.611  33.254  1.00  0.00     0.016 A 
ATOM     10  C   UNL A   1      38.131  33.798  32.838  1.00  0.00     0.010 A 
ATOM     11  C   UNL A   1      36.757  31.812  33.028  1.00  0.00     0.010 A 
ATOM     12  C   UNL A   1      37.972  32.418  32.721  1.00  0.00    -0.014 A 
BRANCH  12  13
ATOM     13  C   UNL A   1      39.144  31.646  32.341  1.00  0.00     0.031 A 
ATOM     14  C   UNL A   1      40.047  31.278  33.468  1.00  0.00     0.074 A 
ATOM     15  C   UNL A   1      39.342  31.226  31.078  1.00  0.00     0.049 A 
ATOM     16  N   UNL A   1      41.316  31.504  33.599  1.00  0.00    -0.248 NA
ATOM     17  C   UNL A   1      39.422  30.657  34.648  1.00  0.00     0.031 C 
ATOM     18  C   UNL A   1      38.418  31.287  29.942  1.00  0.00     0.029 A 
ATOM     19  N   UNL A   1      40.403  30.543  30.573  1.00  0.00    -0.354 N 
ATOM     20  C   UNL A   1      41.682  30.925  34.812  1.00  0.00     0.074 A 
ATOM     21  C   UNL A   1      40.464  30.517  35.465  1.00  0.00     0.031 C 
ATOM     22  C   UNL A   1      38.860  30.461  28.967  1.00  0.00     0.029 A 
ATOM     23  C   UNL A   1      40.155  29.930  29.356  1.00  0.00     0.049 A 
ATOM     24  H   UNL A   1      41.273  30.490  31.032  1.00  0.00     0.167 HD
ATOM     25  C   UNL A   1      42.975  30.649  35.129  1.00  0.00     0.037 A 
ATOM     26  C   UNL A   1      40.925  28.980  28.773  1.00  0.00     0.037 A 
ATOM     27  C   UNL A   1      43.899  31.441  34.369  1.00  0.00     0.049 A 
ATOM     28  C   UNL A   1      42.275  29.063  29.387  1.00  0.00     0.074 A 
ATOM     29  C   UNL A   1      44.151  32.795  34.277  1.00  0.00     0.029 A 
ATOM     30  N   UNL A   1      44.510  30.879  33.276  1.00  0.00    -0.354 N 
ATOM     31  N   UNL A   1      43.093  30.065  29.229  1.00  0.00    -0.248 NA
ATOM     32  C   UNL A   1      42.544  28.212  30.538  1.00  0.00     0.031 C 
ATOM     33  C   UNL A   1      44.446  33.023  32.902  1.00  0.00     0.029 A 
ATOM     34  C   UNL A   1      44.405  31.789  32.254  1.00  0.00     0.049 A 
ATOM     35  H   UNL A   1      44.940  29.994  33.233  1.00  0.00     0.167 HD
ATOM     36  C   UNL A   1      43.712  30.215  30.461  1.00  0.00     0.074 A 
ATOM     37  C   UNL A   1      43.400  28.995  31.198  1.00  0.00     0.031 C 
ATOM     38  C   UNL A   1      44.186  31.427  30.873  1.00  0.00     0.037 A 
BRANCH  25  39
ATOM     39  C   UNL A   1      43.383  29.449  35.934  1.00  0.00     0.064 A 
ATOM     40  C   UNL A   1      43.212  28.126  35.467  1.00  0.00     0.173 A 
ATOM     41  C   UNL A   1      44.200  29.594  37.070  1.00  0.00     0.173 A 
ATOM     42  F   UNL A   1      42.573  27.862  34.320  1.00  0.00    -0.203 F 
ATOM     43  C   UNL A   1      43.786  27.029  36.105  1.00  0.00     0.198 A 
ATOM     44  C   UNL A   1      44.819  28.496  37.675  1.00  0.00     0.198 A 
ATOM     45  F   UNL A   1      44.469  30.812  37.566  1.00  0.00    -0.203 F 
ATOM     46  F   UNL A   1      43.590  25.800  35.606  1.00  0.00    -0.200 F 
ATOM     47  C   UNL A   1      44.608  27.215  37.195  1.00  0.00     0.200 A 
ATOM     48  F   UNL A   1      45.668  28.688  38.694  1.00  0.00    -0.200 F 
ATOM     49  F   UNL A   1      45.234  26.168  37.747  1.00  0.00    -0.200 F 
ENDBRANCH  25  39
BRANCH  26  50
ATOM     50  C   UNL A   1      40.467  27.787  28.020  1.00  0.00     0.064 A 
ATOM     51  C   UNL A   1      39.692  26.780  28.632  1.00  0.00     0.173 A 
ATOM     52  C   UNL A   1      41.020  27.473  26.769  1.00  0.00     0.173 A 
ATOM     53  F   UNL A   1      39.186  26.947  29.863  1.00  0.00    -0.203 F 
ATOM     54  C   UNL A   1      39.501  25.532  28.039  1.00  0.00     0.198 A 
ATOM     55  C   UNL A   1      40.837  26.217  26.181  1.00  0.00     0.198 A 
ATOM     56  F   UNL A   1      41.806  28.358  26.139  1.00  0.00    -0.203 F 
ATOM     57  F   UNL A   1      38.802  24.589  28.687  1.00  0.00    -0.200 F 
ATOM     58  C   UNL A   1      40.088  25.244  26.822  1.00  0.00     0.200 A 
ATOM     59  F   UNL A   1      41.440  25.929  25.019  1.00  0.00    -0.200 F 
ATOM     60  F   UNL A   1      39.967  24.020  26.291  1.00  0.00    -0.200 F 
ENDBRANCH  26  50
BRANCH  38  61
ATOM     61  C   UNL A   1      44.229  32.546  29.869  1.00  0.00     0.064 A 
ATOM     62  C   UNL A   1      43.088  33.344  29.706  1.00  0.00     0.173 A 
ATOM     63  C   UNL A   1      45.285  32.737  28.961  1.00  0.00     0.173 A 
ATOM     64  F   UNL A   1      42.026  33.166  30.507  1.00  0.00    -0.203 F 
ATOM     65  C   UNL A   1      43.005  34.284  28.682  1.00  0.00     0.198 A 
ATOM     66  C   UNL A   1      45.214  33.706  27.960  1.00  0.00     0.198 A 
ATOM     67  F   UNL A   1      46.365  31.948  28.983  1.00  0.00    -0.203 F 
ATOM     68  F   UNL A   1      41.875  34.984  28.514  1.00  0.00    -0.200 F 
ATOM     69  C   UNL A   1      44.069  34.470  27.816  1.00  0.00     0.200 A 
ATOM     70  F   UNL A   1      46.236  33.869  27.107  1.00  0.00    -0.200 F 
ATOM     71  F   UNL A   1      43.978  35.365  26.821  1.00  0.00    -0.200 F 
ENDBRANCH  38  61
ENDBRANCH  12  13
ENDBRANCH   5   7
ENDBRANCH   4   5
ENDBRANCH   3   4
ENDBRANCH   2   3
ENDBRANCH   1   2
BRANCH   1  72
ATOM     72  C   UNL A   1      33.359  35.967  29.540  1.00  0.00     0.202 C 
BRANCH  72  73
ATOM     73  C   UNL A   1      32.806  34.698  28.874  1.00  0.00     0.261 C 
BRANCH  73  74
ATOM     74  O   UNL A   1      33.844  33.917  28.266  1.00  0.00    -0.458 OA
BRANCH  74  75
ATOM     75  C   UNL A   1      34.200  32.785  28.963  1.00  0.00     0.358 C 
ATOM     76  O   UNL A   1      34.316  32.735  30.170  1.00  0.00    -0.244 OA
BRANCH  75  77
ATOM     77  C   UNL A   1      34.288  31.614  28.083  1.00  0.00     0.170 A 
ATOM     78  C   UNL A   1      35.277  30.602  28.080  1.00  0.00     0.058 A 
ATOM     79  N   UNL A   1      33.370  31.395  27.112  1.00  0.00    -0.159 NA
ATOM     80  C   UNL A   1      34.783  29.632  27.242  1.00  0.00     0.118 A 
ATOM     81  N   UNL A   1      33.627  30.131  26.697  1.00  0.00    -0.222 N 
BRANCH  81  82
ATOM     82  C   UNL A   1      32.694  29.401  25.924  1.00  0.00     0.158 A 
ATOM     83  C   UNL A   1      32.770  28.022  25.888  1.00  0.00     0.078 A 
ATOM     84  N   UNL A   1      31.746  30.120  25.288  1.00  0.00    -0.209 NA
ATOM     85  C   UNL A   1      31.759  27.394  25.184  1.00  0.00     0.077 A 
ATOM     86  C   UNL A   1      30.889  29.419  24.535  1.00  0.00     0.165 A 
ATOM     87  N   UNL A   1      30.849  28.081  24.460  1.00  0.00    -0.228 NA
BRANCH  85  88
ATOM     88  C   UNL A   1      31.523  25.946  25.233  1.00  0.00     0.003 A 
ATOM     89  C   UNL A   1      31.671  25.227  26.428  1.00  0.00     0.030 A 
ATOM     90  C   UNL A   1      31.042  25.252  24.115  1.00  0.00     0.030 A 
ATOM     91  C   UNL A   1      31.345  23.879  26.449  1.00  0.00     0.111 A 
ATOM     92  C   UNL A   1      30.753  23.902  24.232  1.00  0.00     0.111 A 
ATOM     93  N   UNL A   1      30.900  23.199  25.374  1.00  0.00    -0.265 NA
ENDBRANCH  85  88
BRANCH  86  94
ATOM     94  C   UNL A   1      29.996  30.181  23.681  1.00  0.00     0.055 A 
ATOM     95  C   UNL A   1      29.339  31.329  24.161  1.00  0.00     0.015 A 
ATOM     96  C   UNL A   1      29.748  29.781  22.367  1.00  0.00     0.134 A 
ATOM     97  C   UNL A   1      28.467  32.051  23.342  1.00  0.00     0.001 A 
ATOM     98  C   UNL A   1      28.872  30.491  21.547  1.00  0.00     0.040 A 
ATOM     99  F   UNL A   1      30.329  28.677  21.873  1.00  0.00    -0.206 F 
ATOM    100  C   UNL A   1      28.232  31.629  22.035  1.00  0.00     0.003 A 
ENDBRANCH  86  94
ENDBRANCH  81  82
ENDBRANCH  75  77
ENDBRANCH  74  75
ENDBRANCH  73  74
ENDBRANCH  72  73
ENDBRANCH   1  72
TORSDOF 17
ENDMDL
