MODEL 1
REMARK VINA RESULT:     -10.2      0.000      0.000
REMARK SMILES CC(C)[C@](C)(CC(=O)NC#N)C(=O)OCCOCCOC(=O)c1ccc(-c2c3nc(c(-c4c(F)c(F)c(F)c(F)c4F)c4ccc([nH]4)c(-c4c(F)c(F)c(F)c(F)c4F)c4nc(c(-c5c(F)c(F)c(F)c(F)c5F)c5ccc2[nH]5)C=C4)C=C3)cc1
REMARK SMILES IDX 16 1 15 2 14 3 12 4 13 5 4 6 5 7 2 8 1 9 3 10 6 11 7 12 8 13
REMARK SMILES IDX 9 14 10 16 11 17 17 18 18 19 19 20 20 21 21 22 22 23 23 24
REMARK SMILES IDX 24 25 85 26 25 27 84 28 26 29 27 30 28 31 78 32 29 33 83 34
REMARK SMILES IDX 77 35 79 36 30 37 82 38 76 39 75 40 31 42 63 43 43 44 62 45
REMARK SMILES IDX 44 46 47 47 61 48 80 49 45 50 46 51 60 53 81 54 48 55 32 56
REMARK SMILES IDX 33 57 41 58 34 59 35 60 39 61 42 62 36 63 37 64 40 65 38 66
REMARK SMILES IDX 64 67 65 68 73 69 66 70 67 71 71 72 74 73 68 74 69 75 72 76
REMARK SMILES IDX 70 77 49 78 50 79 58 80 51 81 52 82 56 83 59 84 53 85 54 86
REMARK SMILES IDX 57 87 55 88
REMARK H PARENT 9 15 79 41 47 52
REMARK Flexibility Score: inf
ROOT
ATOM      1  C   UNL A   1      33.486  28.391  25.445  1.00  0.00     0.202 C 
ENDROOT
BRANCH   1   2
ATOM      2  C   UNL A   1      32.465  27.249  25.373  1.00  0.00     0.261 C 
BRANCH   2   3
ATOM      3  O   UNL A   1      32.865  26.037  26.043  1.00  0.00    -0.463 OA
BRANCH   3   4
ATOM      4  C   UNL A   1      31.855  25.139  26.162  1.00  0.00     0.312 C 
ATOM      5  O   UNL A   1      30.736  25.436  26.575  1.00  0.00    -0.252 OA
BRANCH   4   6
ATOM      6  C   UNL A   1      32.218  23.686  25.806  1.00  0.00     0.076 C 
ATOM      7  C   UNL A   1      31.188  22.862  26.604  1.00  0.00     0.024 C 
BRANCH   6   8
ATOM      8  C   UNL A   1      33.706  23.540  26.387  1.00  0.00     0.000 C 
ATOM      9  C   UNL A   1      33.849  22.514  27.516  1.00  0.00     0.008 C 
ATOM     10  C   UNL A   1      34.807  23.279  25.344  1.00  0.00     0.008 C 
ENDBRANCH   6   8
BRANCH   6  11
ATOM     11  C   UNL A   1      32.185  23.279  24.304  1.00  0.00     0.119 C 
BRANCH  11  12
ATOM     12  C   UNL A   1      31.378  23.944  23.193  1.00  0.00     0.234 C 
ATOM     13  O   UNL A   1      30.159  23.749  23.126  1.00  0.00    -0.274 OA
ATOM     14  N   UNL A   1      31.878  24.880  22.351  1.00  0.00    -0.263 N 
ATOM     15  H   UNL A   1      31.198  25.179  21.705  1.00  0.00     0.182 HD
BRANCH  14  16
ATOM     16  C   UNL A   1      33.044  25.508  22.157  1.00  0.00     0.183 C 
ATOM     17  N   UNL A   1      34.017  26.106  22.003  1.00  0.00    -0.172 NA
ENDBRANCH  14  16
ENDBRANCH  11  12
ENDBRANCH   6  11
ENDBRANCH   4   6
ENDBRANCH   3   4
ENDBRANCH   2   3
ENDBRANCH   1   2
BRANCH   1  18
ATOM     18  O   UNL A   1      33.067  29.709  25.118  1.00  0.00    -0.374 OA
BRANCH  18  19
ATOM     19  C   UNL A   1      31.792  30.152  25.577  1.00  0.00     0.202 C 
BRANCH  19  20
ATOM     20  C   UNL A   1      31.730  31.390  26.479  1.00  0.00     0.261 C 
BRANCH  20  21
ATOM     21  O   UNL A   1      32.641  31.307  27.590  1.00  0.00    -0.460 OA
BRANCH  21  22
ATOM     22  C   UNL A   1      33.537  32.318  27.650  1.00  0.00     0.338 C 
ATOM     23  O   UNL A   1      33.303  33.516  27.642  1.00  0.00    -0.246 OA
BRANCH  22  24
ATOM     24  C   UNL A   1      34.884  31.807  27.949  1.00  0.00     0.060 A 
ATOM     25  C   UNL A   1      35.012  30.425  28.139  1.00  0.00     0.016 A 
ATOM     26  C   UNL A   1      35.951  32.664  28.213  1.00  0.00     0.016 A 
ATOM     27  C   UNL A   1      36.189  29.898  28.658  1.00  0.00     0.010 A 
ATOM     28  C   UNL A   1      37.134  32.133  28.742  1.00  0.00     0.010 A 
ATOM     29  C   UNL A   1      37.240  30.754  29.010  1.00  0.00    -0.014 A 
BRANCH  29  30
ATOM     30  C   UNL A   1      38.383  30.209  29.783  1.00  0.00     0.031 A 
ATOM     31  C   UNL A   1      38.580  30.639  31.212  1.00  0.00     0.074 A 
ATOM     32  C   UNL A   1      39.198  29.293  29.234  1.00  0.00     0.049 A 
ATOM     33  N   UNL A   1      39.519  30.301  32.060  1.00  0.00    -0.248 NA
ATOM     34  C   UNL A   1      37.586  31.575  31.760  1.00  0.00     0.031 C 
ATOM     35  C   UNL A   1      39.071  28.758  27.879  1.00  0.00     0.029 A 
ATOM     36  N   UNL A   1      40.295  28.649  29.749  1.00  0.00    -0.354 N 
ATOM     37  C   UNL A   1      39.238  30.992  33.231  1.00  0.00     0.074 A 
ATOM     38  C   UNL A   1      38.059  31.791  32.978  1.00  0.00     0.031 C 
ATOM     39  C   UNL A   1      40.054  27.868  27.668  1.00  0.00     0.029 A 
ATOM     40  C   UNL A   1      40.905  27.805  28.855  1.00  0.00     0.049 A 
ATOM     41  H   UNL A   1      40.614  28.781  30.672  1.00  0.00     0.167 HD
ATOM     42  C   UNL A   1      39.902  30.956  34.412  1.00  0.00     0.037 A 
ATOM     43  C   UNL A   1      42.037  27.085  28.973  1.00  0.00     0.037 A 
ATOM     44  C   UNL A   1      41.073  30.152  34.657  1.00  0.00     0.049 A 
ATOM     45  C   UNL A   1      42.804  27.130  30.271  1.00  0.00     0.074 A 
ATOM     46  C   UNL A   1      41.804  30.026  35.825  1.00  0.00     0.029 A 
ATOM     47  N   UNL A   1      41.691  29.347  33.711  1.00  0.00    -0.354 N 
ATOM     48  N   UNL A   1      42.519  27.765  31.382  1.00  0.00    -0.248 NA
ATOM     49  C   UNL A   1      44.049  26.353  30.330  1.00  0.00     0.031 C 
ATOM     50  C   UNL A   1      42.907  29.207  35.565  1.00  0.00     0.029 A 
ATOM     51  C   UNL A   1      42.817  28.752  34.259  1.00  0.00     0.049 A 
ATOM     52  H   UNL A   1      41.375  29.216  32.788  1.00  0.00     0.167 HD
ATOM     53  C   UNL A   1      43.526  27.437  32.281  1.00  0.00     0.074 A 
ATOM     54  C   UNL A   1      44.420  26.531  31.589  1.00  0.00     0.031 C 
ATOM     55  C   UNL A   1      43.695  27.845  33.563  1.00  0.00     0.037 A 
BRANCH  42  56
ATOM     56  C   UNL A   1      39.407  31.840  35.523  1.00  0.00     0.064 A 
ATOM     57  C   UNL A   1      39.813  33.176  35.651  1.00  0.00     0.173 A 
ATOM     58  C   UNL A   1      38.471  31.351  36.449  1.00  0.00     0.173 A 
ATOM     59  F   UNL A   1      40.712  33.694  34.800  1.00  0.00    -0.203 F 
ATOM     60  C   UNL A   1      39.324  33.980  36.679  1.00  0.00     0.198 A 
ATOM     61  C   UNL A   1      37.956  32.168  37.453  1.00  0.00     0.198 A 
ATOM     62  F   UNL A   1      38.041  30.082  36.371  1.00  0.00    -0.203 F 
ATOM     63  F   UNL A   1      39.764  35.239  36.811  1.00  0.00    -0.200 F 
ATOM     64  C   UNL A   1      38.389  33.478  37.572  1.00  0.00     0.200 A 
ATOM     65  F   UNL A   1      37.039  31.684  38.302  1.00  0.00    -0.200 F 
ATOM     66  F   UNL A   1      37.909  34.257  38.552  1.00  0.00    -0.200 F 
ENDBRANCH  42  56
BRANCH  43  67
ATOM     67  C   UNL A   1      42.528  26.272  27.828  1.00  0.00     0.064 A 
ATOM     68  C   UNL A   1      43.502  26.770  26.952  1.00  0.00     0.173 A 
ATOM     69  C   UNL A   1      42.011  24.994  27.569  1.00  0.00     0.173 A 
ATOM     70  F   UNL A   1      44.013  27.996  27.142  1.00  0.00    -0.203 F 
ATOM     71  C   UNL A   1      43.919  26.033  25.844  1.00  0.00     0.198 A 
ATOM     72  C   UNL A   1      42.457  24.242  26.484  1.00  0.00     0.198 A 
ATOM     73  F   UNL A   1      41.077  24.469  28.375  1.00  0.00    -0.203 F 
ATOM     74  F   UNL A   1      44.806  26.559  24.989  1.00  0.00    -0.200 F 
ATOM     75  C   UNL A   1      43.400  24.768  25.615  1.00  0.00     0.200 A 
ATOM     76  F   UNL A   1      41.965  23.014  26.277  1.00  0.00    -0.200 F 
ATOM     77  F   UNL A   1      43.802  24.059  24.551  1.00  0.00    -0.200 F 
ENDBRANCH  43  67
BRANCH  55  78
ATOM     78  C   UNL A   1      44.861  27.276  34.325  1.00  0.00     0.064 A 
ATOM     79  C   UNL A   1      44.776  26.057  35.014  1.00  0.00     0.173 A 
ATOM     80  C   UNL A   1      46.095  27.948  34.335  1.00  0.00     0.173 A 
ATOM     81  F   UNL A   1      43.619  25.380  35.049  1.00  0.00    -0.203 F 
ATOM     82  C   UNL A   1      45.870  25.551  35.713  1.00  0.00     0.198 A 
ATOM     83  C   UNL A   1      47.196  27.418  34.999  1.00  0.00     0.198 A 
ATOM     84  F   UNL A   1      46.236  29.113  33.685  1.00  0.00    -0.203 F 
ATOM     85  F   UNL A   1      45.747  24.415  36.414  1.00  0.00    -0.200 F 
ATOM     86  C   UNL A   1      47.081  26.227  35.697  1.00  0.00     0.200 A 
ATOM     87  F   UNL A   1      48.371  28.063  34.964  1.00  0.00    -0.200 F 
ATOM     88  F   UNL A   1      48.135  25.733  36.361  1.00  0.00    -0.200 F 
ENDBRANCH  55  78
ENDBRANCH  29  30
ENDBRANCH  22  24
ENDBRANCH  21  22
ENDBRANCH  20  21
ENDBRANCH  19  20
ENDBRANCH  18  19
ENDBRANCH   1  18
TORSDOF 18
ENDMDL
MODEL 2
REMARK VINA RESULT:     -10.2      1.608      7.923
REMARK SMILES CC(C)[C@](C)(CC(=O)NC#N)C(=O)OCCOCCOC(=O)c1ccc(-c2c3nc(c(-c4c(F)c(F)c(F)c(F)c4F)c4ccc([nH]4)c(-c4c(F)c(F)c(F)c(F)c4F)c4nc(c(-c5c(F)c(F)c(F)c(F)c5F)c5ccc2[nH]5)C=C4)C=C3)cc1
REMARK SMILES IDX 16 1 15 2 14 3 12 4 13 5 4 6 5 7 2 8 1 9 3 10 6 11 7 12 8 13
REMARK SMILES IDX 9 14 10 16 11 17 17 18 18 19 19 20 20 21 21 22 22 23 23 24
REMARK SMILES IDX 24 25 85 26 25 27 84 28 26 29 27 30 28 31 78 32 29 33 83 34
REMARK SMILES IDX 77 35 79 36 30 37 82 38 76 39 75 40 31 42 63 43 43 44 62 45
REMARK SMILES IDX 44 46 47 47 61 48 80 49 45 50 46 51 60 53 81 54 48 55 32 56
REMARK SMILES IDX 33 57 41 58 34 59 35 60 39 61 42 62 36 63 37 64 40 65 38 66
REMARK SMILES IDX 64 67 65 68 73 69 66 70 67 71 71 72 74 73 68 74 69 75 72 76
REMARK SMILES IDX 70 77 49 78 50 79 58 80 51 81 52 82 56 83 59 84 53 85 54 86
REMARK SMILES IDX 57 87 55 88
REMARK H PARENT 9 15 79 41 47 52
REMARK Flexibility Score: inf
ROOT
ATOM      1  C   UNL A   1      31.874  26.999  25.835  1.00  0.00     0.202 C 
ENDROOT
BRANCH   1   2
ATOM      2  C   UNL A   1      33.087  26.176  25.380  1.00  0.00     0.261 C 
BRANCH   2   3
ATOM      3  O   UNL A   1      33.272  24.933  26.084  1.00  0.00    -0.463 OA
BRANCH   3   4
ATOM      4  C   UNL A   1      33.201  23.849  25.271  1.00  0.00     0.312 C 
ATOM      5  O   UNL A   1      32.256  23.635  24.515  1.00  0.00    -0.252 OA
BRANCH   4   6
ATOM      6  C   UNL A   1      34.363  22.847  25.405  1.00  0.00     0.076 C 
ATOM      7  C   UNL A   1      34.406  22.559  26.918  1.00  0.00     0.024 C 
BRANCH   6   8
ATOM      8  C   UNL A   1      35.625  23.701  24.904  1.00  0.00     0.000 C 
ATOM      9  C   UNL A   1      36.814  23.702  25.870  1.00  0.00     0.008 C 
ATOM     10  C   UNL A   1      36.141  23.364  23.493  1.00  0.00     0.008 C 
ENDBRANCH   6   8
BRANCH   6  11
ATOM     11  C   UNL A   1      34.263  21.515  24.606  1.00  0.00     0.119 C 
BRANCH  11  12
ATOM     12  C   UNL A   1      35.045  20.231  24.864  1.00  0.00     0.234 C 
ATOM     13  O   UNL A   1      36.256  20.294  25.106  1.00  0.00    -0.274 OA
ATOM     14  N   UNL A   1      34.472  19.013  25.009  1.00  0.00    -0.263 N 
ATOM     15  H   UNL A   1      35.150  18.315  25.164  1.00  0.00     0.182 HD
BRANCH  14  16
ATOM     16  C   UNL A   1      33.236  18.496  24.998  1.00  0.00     0.183 C 
ATOM     17  N   UNL A   1      32.153  18.106  24.956  1.00  0.00    -0.172 NA
ENDBRANCH  14  16
ENDBRANCH  11  12
ENDBRANCH   6  11
ENDBRANCH   4   6
ENDBRANCH   3   4
ENDBRANCH   2   3
ENDBRANCH   1   2
BRANCH   1  18
ATOM     18  O   UNL A   1      32.086  28.307  26.348  1.00  0.00    -0.374 OA
BRANCH  18  19
ATOM     19  C   UNL A   1      31.736  29.424  25.534  1.00  0.00     0.202 C 
BRANCH  19  20
ATOM     20  C   UNL A   1      31.886  30.832  26.122  1.00  0.00     0.261 C 
BRANCH  20  21
ATOM     21  O   UNL A   1      32.614  30.835  27.363  1.00  0.00    -0.460 OA
BRANCH  21  22
ATOM     22  C   UNL A   1      33.433  31.899  27.523  1.00  0.00     0.338 C 
ATOM     23  O   UNL A   1      33.120  33.079  27.541  1.00  0.00    -0.246 OA
BRANCH  22  24
ATOM     24  C   UNL A   1      34.788  31.464  27.899  1.00  0.00     0.060 A 
ATOM     25  C   UNL A   1      34.956  30.111  28.218  1.00  0.00     0.016 A 
ATOM     26  C   UNL A   1      35.819  32.379  28.107  1.00  0.00     0.016 A 
ATOM     27  C   UNL A   1      36.135  29.675  28.811  1.00  0.00     0.010 A 
ATOM     28  C   UNL A   1      37.004  31.940  28.710  1.00  0.00     0.010 A 
ATOM     29  C   UNL A   1      37.148  30.596  29.106  1.00  0.00    -0.014 A 
BRANCH  29  30
ATOM     30  C   UNL A   1      38.288  30.164  29.953  1.00  0.00     0.031 A 
ATOM     31  C   UNL A   1      39.297  29.196  29.397  1.00  0.00     0.074 A 
ATOM     32  C   UNL A   1      38.453  30.681  31.183  1.00  0.00     0.049 A 
ATOM     33  N   UNL A   1      40.354  28.677  29.969  1.00  0.00    -0.248 NA
ATOM     34  C   UNL A   1      39.087  28.754  28.010  1.00  0.00     0.031 C 
ATOM     35  C   UNL A   1      37.573  31.670  31.805  1.00  0.00     0.029 A 
ATOM     36  N   UNL A   1      39.418  30.447  32.129  1.00  0.00    -0.354 N 
ATOM     37  C   UNL A   1      40.924  27.838  29.021  1.00  0.00     0.074 A 
ATOM     38  C   UNL A   1      40.081  27.894  27.846  1.00  0.00     0.031 C 
ATOM     39  C   UNL A   1      38.038  31.956  33.032  1.00  0.00     0.029 A 
ATOM     40  C   UNL A   1      39.220  31.138  33.298  1.00  0.00     0.049 A 
ATOM     41  H   UNL A   1      40.181  29.840  31.982  1.00  0.00     0.167 HD
ATOM     42  C   UNL A   1      42.053  27.094  29.121  1.00  0.00     0.037 A 
ATOM     43  C   UNL A   1      39.900  31.094  34.460  1.00  0.00     0.037 A 
ATOM     44  C   UNL A   1      42.889  27.049  30.294  1.00  0.00     0.049 A 
ATOM     45  C   UNL A   1      41.104  30.192  34.573  1.00  0.00     0.074 A 
ATOM     46  C   UNL A   1      44.065  26.348  30.488  1.00  0.00     0.029 A 
ATOM     47  N   UNL A   1      42.629  27.726  31.477  1.00  0.00    -0.354 N 
ATOM     48  N   UNL A   1      41.652  29.421  33.664  1.00  0.00    -0.248 NA
ATOM     49  C   UNL A   1      41.785  30.159  35.873  1.00  0.00     0.031 C 
ATOM     50  C   UNL A   1      44.475  26.537  31.812  1.00  0.00     0.029 A 
ATOM     51  C   UNL A   1      43.602  27.425  32.418  1.00  0.00     0.049 A 
ATOM     52  H   UNL A   1      41.866  28.330  31.627  1.00  0.00     0.167 HD
ATOM     53  C   UNL A   1      42.759  28.841  34.271  1.00  0.00     0.074 A 
ATOM     54  C   UNL A   1      42.814  29.364  35.620  1.00  0.00     0.031 C 
ATOM     55  C   UNL A   1      43.651  27.959  33.757  1.00  0.00     0.037 A 
BRANCH  42  56
ATOM     56  C   UNL A   1      42.433  26.233  27.949  1.00  0.00     0.064 A 
ATOM     57  C   UNL A   1      41.873  24.965  27.741  1.00  0.00     0.173 A 
ATOM     58  C   UNL A   1      43.341  26.711  26.990  1.00  0.00     0.173 A 
ATOM     59  F   UNL A   1      41.006  24.455  28.630  1.00  0.00    -0.203 F 
ATOM     60  C   UNL A   1      42.229  24.195  26.635  1.00  0.00     0.198 A 
ATOM     61  C   UNL A   1      43.666  25.954  25.867  1.00  0.00     0.198 A 
ATOM     62  F   UNL A   1      43.903  27.920  27.133  1.00  0.00    -0.203 F 
ATOM     63  F   UNL A   1      41.717  22.965  26.484  1.00  0.00    -0.200 F 
ATOM     64  C   UNL A   1      43.117  24.694  25.695  1.00  0.00     0.200 A 
ATOM     65  F   UNL A   1      44.510  26.448  24.950  1.00  0.00    -0.200 F 
ATOM     66  F   UNL A   1      43.447  23.958  24.625  1.00  0.00    -0.200 F 
ENDBRANCH  42  56
BRANCH  43  67
ATOM     67  C   UNL A   1      39.453  31.914  35.618  1.00  0.00     0.064 A 
ATOM     68  C   UNL A   1      38.493  31.433  36.518  1.00  0.00     0.173 A 
ATOM     69  C   UNL A   1      39.955  33.207  35.830  1.00  0.00     0.173 A 
ATOM     70  F   UNL A   1      37.965  30.212  36.346  1.00  0.00    -0.203 F 
ATOM     71  C   UNL A   1      38.030  32.224  37.569  1.00  0.00     0.198 A 
ATOM     72  C   UNL A   1      39.521  33.982  36.904  1.00  0.00     0.198 A 
ATOM     73  F   UNL A   1      40.877  33.716  35.000  1.00  0.00    -0.203 F 
ATOM     74  F   UNL A   1      37.067  31.762  38.377  1.00  0.00    -0.200 F 
ATOM     75  C   UNL A   1      38.549  33.494  37.764  1.00  0.00     0.200 A 
ATOM     76  F   UNL A   1      40.038  35.202  37.098  1.00  0.00    -0.200 F 
ATOM     77  F   UNL A   1      38.105  34.254  38.775  1.00  0.00    -0.200 F 
ENDBRANCH  43  67
BRANCH  55  78
ATOM     78  C   UNL A   1      44.797  27.539  34.636  1.00  0.00     0.064 A 
ATOM     79  C   UNL A   1      45.995  28.268  34.696  1.00  0.00     0.173 A 
ATOM     80  C   UNL A   1      44.680  26.407  35.458  1.00  0.00     0.173 A 
ATOM     81  F   UNL A   1      46.167  29.350  33.922  1.00  0.00    -0.203 F 
ATOM     82  C   UNL A   1      47.043  27.859  35.519  1.00  0.00     0.198 A 
ATOM     83  C   UNL A   1      45.712  26.026  36.309  1.00  0.00     0.198 A 
ATOM     84  F   UNL A   1      43.554  25.678  35.449  1.00  0.00    -0.203 F 
ATOM     85  F   UNL A   1      48.199  28.536  35.513  1.00  0.00    -0.200 F 
ATOM     86  C   UNL A   1      46.897  26.744  36.330  1.00  0.00     0.200 A 
ATOM     87  F   UNL A   1      45.561  24.960  37.108  1.00  0.00    -0.200 F 
ATOM     88  F   UNL A   1      47.902  26.358  37.129  1.00  0.00    -0.200 F 
ENDBRANCH  55  78
ENDBRANCH  29  30
ENDBRANCH  22  24
ENDBRANCH  21  22
ENDBRANCH  20  21
ENDBRANCH  19  20
ENDBRANCH  18  19
ENDBRANCH   1  18
TORSDOF 18
ENDMDL
MODEL 3
REMARK VINA RESULT:     -10.0      1.089      7.536
REMARK SMILES CC(C)[C@](C)(CC(=O)NC#N)C(=O)OCCOCCOC(=O)c1ccc(-c2c3nc(c(-c4c(F)c(F)c(F)c(F)c4F)c4ccc([nH]4)c(-c4c(F)c(F)c(F)c(F)c4F)c4nc(c(-c5c(F)c(F)c(F)c(F)c5F)c5ccc2[nH]5)C=C4)C=C3)cc1
REMARK SMILES IDX 16 1 15 2 14 3 12 4 13 5 4 6 5 7 2 8 1 9 3 10 6 11 7 12 8 13
REMARK SMILES IDX 9 14 10 16 11 17 17 18 18 19 19 20 20 21 21 22 22 23 23 24
REMARK SMILES IDX 24 25 85 26 25 27 84 28 26 29 27 30 28 31 78 32 29 33 83 34
REMARK SMILES IDX 77 35 79 36 30 37 82 38 76 39 75 40 31 42 63 43 43 44 62 45
REMARK SMILES IDX 44 46 47 47 61 48 80 49 45 50 46 51 60 53 81 54 48 55 32 56
REMARK SMILES IDX 33 57 41 58 34 59 35 60 39 61 42 62 36 63 37 64 40 65 38 66
REMARK SMILES IDX 64 67 65 68 73 69 66 70 67 71 71 72 74 73 68 74 69 75 72 76
REMARK SMILES IDX 70 77 49 78 50 79 58 80 51 81 52 82 56 83 59 84 53 85 54 86
REMARK SMILES IDX 57 87 55 88
REMARK H PARENT 9 15 79 41 47 52
REMARK Flexibility Score: inf
ROOT
ATOM      1  C   UNL A   1      32.761  27.720  25.748  1.00  0.00     0.202 C 
ENDROOT
BRANCH   1   2
ATOM      2  C   UNL A   1      33.242  26.528  24.911  1.00  0.00     0.261 C 
BRANCH   2   3
ATOM      3  O   UNL A   1      33.749  25.417  25.676  1.00  0.00    -0.463 OA
BRANCH   3   4
ATOM      4  C   UNL A   1      33.942  24.302  24.927  1.00  0.00     0.312 C 
ATOM      5  O   UNL A   1      34.688  24.269  23.950  1.00  0.00    -0.252 OA
BRANCH   4   6
ATOM      6  C   UNL A   1      33.106  23.077  25.339  1.00  0.00     0.076 C 
ATOM      7  C   UNL A   1      33.538  22.831  26.798  1.00  0.00     0.024 C 
BRANCH   6   8
ATOM      8  C   UNL A   1      33.632  21.937  24.340  1.00  0.00     0.000 C 
ATOM      9  C   UNL A   1      34.529  20.883  24.997  1.00  0.00     0.008 C 
ATOM     10  C   UNL A   1      32.548  21.216  23.519  1.00  0.00     0.008 C 
ENDBRANCH   6   8
BRANCH   6  11
ATOM     11  C   UNL A   1      31.557  23.197  25.250  1.00  0.00     0.119 C 
BRANCH  11  12
ATOM     12  C   UNL A   1      30.624  23.807  26.291  1.00  0.00     0.234 C 
ATOM     13  O   UNL A   1      30.611  23.350  27.440  1.00  0.00    -0.274 OA
ATOM     14  N   UNL A   1      29.908  24.939  26.094  1.00  0.00    -0.263 N 
ATOM     15  H   UNL A   1      29.366  25.163  26.885  1.00  0.00     0.182 HD
BRANCH  14  16
ATOM     16  C   UNL A   1      29.734  25.839  25.117  1.00  0.00     0.183 C 
ATOM     17  N   UNL A   1      29.642  26.592  24.250  1.00  0.00    -0.172 NA
ENDBRANCH  14  16
ENDBRANCH  11  12
ENDBRANCH   6  11
ENDBRANCH   4   6
ENDBRANCH   3   4
ENDBRANCH   2   3
ENDBRANCH   1   2
BRANCH   1  18
ATOM     18  O   UNL A   1      32.752  29.013  25.160  1.00  0.00    -0.374 OA
BRANCH  18  19
ATOM     19  C   UNL A   1      31.565  29.798  25.255  1.00  0.00     0.202 C 
BRANCH  19  20
ATOM     20  C   UNL A   1      31.603  31.079  26.095  1.00  0.00     0.261 C 
BRANCH  20  21
ATOM     21  O   UNL A   1      32.443  30.953  27.256  1.00  0.00    -0.460 OA
BRANCH  21  22
ATOM     22  C   UNL A   1      33.242  32.021  27.482  1.00  0.00     0.338 C 
ATOM     23  O   UNL A   1      32.909  33.193  27.547  1.00  0.00    -0.246 OA
BRANCH  22  24
ATOM     24  C   UNL A   1      34.595  31.590  27.869  1.00  0.00     0.060 A 
ATOM     25  C   UNL A   1      34.773  30.229  28.151  1.00  0.00     0.016 A 
ATOM     26  C   UNL A   1      35.612  32.509  28.120  1.00  0.00     0.016 A 
ATOM     27  C   UNL A   1      35.947  29.790  28.751  1.00  0.00     0.010 A 
ATOM     28  C   UNL A   1      36.792  32.066  28.730  1.00  0.00     0.010 A 
ATOM     29  C   UNL A   1      36.944  30.712  29.090  1.00  0.00    -0.014 A 
BRANCH  29  30
ATOM     30  C   UNL A   1      38.074  30.268  29.943  1.00  0.00     0.031 A 
ATOM     31  C   UNL A   1      39.101  29.324  29.378  1.00  0.00     0.074 A 
ATOM     32  C   UNL A   1      38.215  30.754  31.188  1.00  0.00     0.049 A 
ATOM     33  N   UNL A   1      40.153  28.799  29.953  1.00  0.00    -0.248 NA
ATOM     34  C   UNL A   1      38.917  28.917  27.977  1.00  0.00     0.031 C 
ATOM     35  C   UNL A   1      37.317  31.718  31.823  1.00  0.00     0.029 A 
ATOM     36  N   UNL A   1      39.168  30.504  32.143  1.00  0.00    -0.354 N 
ATOM     37  C   UNL A   1      40.746  27.990  28.993  1.00  0.00     0.074 A 
ATOM     38  C   UNL A   1      39.921  28.070  27.806  1.00  0.00     0.031 C 
ATOM     39  C   UNL A   1      37.760  31.976  33.064  1.00  0.00     0.029 A 
ATOM     40  C   UNL A   1      38.945  31.162  33.327  1.00  0.00     0.049 A 
ATOM     41  H   UNL A   1      39.938  29.907  31.993  1.00  0.00     0.167 HD
ATOM     42  C   UNL A   1      41.880  27.254  29.091  1.00  0.00     0.037 A 
ATOM     43  C   UNL A   1      39.608  31.093  34.498  1.00  0.00     0.037 A 
ATOM     44  C   UNL A   1      42.698  27.186  30.276  1.00  0.00     0.049 A 
ATOM     45  C   UNL A   1      40.817  30.199  34.606  1.00  0.00     0.074 A 
ATOM     46  C   UNL A   1      43.878  26.490  30.470  1.00  0.00     0.029 A 
ATOM     47  N   UNL A   1      42.413  27.828  31.472  1.00  0.00    -0.354 N 
ATOM     48  N   UNL A   1      41.387  29.457  33.687  1.00  0.00    -0.248 NA
ATOM     49  C   UNL A   1      41.478  30.138  35.916  1.00  0.00     0.031 C 
ATOM     50  C   UNL A   1      44.265  26.648  31.804  1.00  0.00     0.029 A 
ATOM     51  C   UNL A   1      43.374  27.512  32.420  1.00  0.00     0.049 A 
ATOM     52  H   UNL A   1      41.642  28.422  31.625  1.00  0.00     0.167 HD
ATOM     53  C   UNL A   1      42.489  28.871  34.295  1.00  0.00     0.074 A 
ATOM     54  C   UNL A   1      42.518  29.359  35.658  1.00  0.00     0.031 C 
ATOM     55  C   UNL A   1      43.397  28.011  33.773  1.00  0.00     0.037 A 
BRANCH  42  56
ATOM     56  C   UNL A   1      42.286  26.428  27.903  1.00  0.00     0.064 A 
ATOM     57  C   UNL A   1      43.223  26.881  26.963  1.00  0.00     0.173 A 
ATOM     58  C   UNL A   1      41.763  25.136  27.731  1.00  0.00     0.173 A 
ATOM     59  F   UNL A   1      43.750  28.111  27.074  1.00  0.00    -0.203 F 
ATOM     60  C   UNL A   1      43.598  26.087  25.881  1.00  0.00     0.198 A 
ATOM     61  C   UNL A   1      42.167  24.331  26.669  1.00  0.00     0.198 A 
ATOM     62  F   UNL A   1      40.868  24.646  28.602  1.00  0.00    -0.203 F 
ATOM     63  F   UNL A   1      44.458  26.562  24.969  1.00  0.00    -0.200 F 
ATOM     64  C   UNL A   1      43.077  24.810  25.741  1.00  0.00     0.200 A 
ATOM     65  F   UNL A   1      41.675  23.090  26.547  1.00  0.00    -0.200 F 
ATOM     66  F   UNL A   1      43.449  24.043  24.707  1.00  0.00    -0.200 F 
ENDBRANCH  42  56
BRANCH  43  67
ATOM     67  C   UNL A   1      39.135  31.878  35.670  1.00  0.00     0.064 A 
ATOM     68  C   UNL A   1      39.589  33.184  35.898  1.00  0.00     0.173 A 
ATOM     69  C   UNL A   1      38.243  31.327  36.602  1.00  0.00     0.173 A 
ATOM     70  F   UNL A   1      40.460  33.749  35.049  1.00  0.00    -0.203 F 
ATOM     71  C   UNL A   1      39.192  33.898  37.028  1.00  0.00     0.198 A 
ATOM     72  C   UNL A   1      37.817  32.055  37.711  1.00  0.00     0.198 A 
ATOM     73  F   UNL A   1      37.776  30.081  36.432  1.00  0.00    -0.203 F 
ATOM     74  F   UNL A   1      39.690  35.121  37.252  1.00  0.00    -0.200 F 
ATOM     75  C   UNL A   1      38.302  33.335  37.929  1.00  0.00     0.200 A 
ATOM     76  F   UNL A   1      36.943  31.513  38.569  1.00  0.00    -0.200 F 
ATOM     77  F   UNL A   1      37.920  34.022  39.014  1.00  0.00    -0.200 F 
ENDBRANCH  43  67
BRANCH  55  78
ATOM     78  C   UNL A   1      44.533  27.577  34.659  1.00  0.00     0.064 A 
ATOM     79  C   UNL A   1      44.484  26.389  35.404  1.00  0.00     0.173 A 
ATOM     80  C   UNL A   1      45.705  28.347  34.734  1.00  0.00     0.173 A 
ATOM     81  F   UNL A   1      43.384  25.622  35.381  1.00  0.00    -0.203 F 
ATOM     82  C   UNL A   1      45.549  26.009  36.218  1.00  0.00     0.198 A 
ATOM     83  C   UNL A   1      46.783  27.942  35.515  1.00  0.00     0.198 A 
ATOM     84  F   UNL A   1      45.812  29.487  34.035  1.00  0.00    -0.203 F 
ATOM     85  F   UNL A   1      45.454  24.902  36.968  1.00  0.00    -0.200 F 
ATOM     86  C   UNL A   1      46.700  26.780  36.265  1.00  0.00     0.200 A 
ATOM     87  F   UNL A   1      47.903  28.679  35.542  1.00  0.00    -0.200 F 
ATOM     88  F   UNL A   1      47.728  26.407  37.040  1.00  0.00    -0.200 F 
ENDBRANCH  55  78
ENDBRANCH  29  30
ENDBRANCH  22  24
ENDBRANCH  21  22
ENDBRANCH  20  21
ENDBRANCH  19  20
ENDBRANCH  18  19
ENDBRANCH   1  18
TORSDOF 18
ENDMDL
