MODEL 1
REMARK VINA RESULT:     -10.9      0.000      0.000
REMARK SMILES CCCCCn1c(SCC(=O)OCCOCCOC(=O)c2ccc(-c3c4nc(c(-c5c(F)c(F)c(F)c(F)c5F)c5ccc([nH]5)c(-c5c(F)c(F)c(F)c(F)c5F)c5nc(c(-c6c(F)c(F)c(F)c(F)c6F)c6ccc3[nH]6)C=C5)C=C4)cc2)nc2ccccc2c1=O
REMARK SMILES IDX 13 1 12 2 10 3 11 4 9 5 8 6 7 7 6 8 91 9 84 10 90 11 92 12
REMARK SMILES IDX 85 13 89 14 86 15 88 16 87 17 5 18 4 19 3 20 2 21 1 22 14 23
REMARK SMILES IDX 15 24 16 25 17 26 18 27 19 28 20 29 21 30 22 31 83 32 23 33
REMARK SMILES IDX 82 34 24 35 25 36 26 37 76 38 27 39 81 40 75 41 77 42 28 43
REMARK SMILES IDX 80 44 74 45 73 46 29 48 61 49 41 50 60 51 42 52 45 53 59 54
REMARK SMILES IDX 78 55 43 56 44 57 58 59 79 60 46 61 30 62 31 63 39 64 32 65
REMARK SMILES IDX 33 66 37 67 40 68 34 69 35 70 38 71 36 72 62 73 63 74 71 75
REMARK SMILES IDX 64 76 65 77 69 78 72 79 66 80 67 81 70 82 68 83 47 84 48 85
REMARK SMILES IDX 56 86 49 87 50 88 54 89 57 90 51 91 52 92 55 93 53 94
REMARK H PARENT 77 47 45 58
REMARK Flexibility Score: inf
ROOT
ATOM      1  C   UNL A   1      33.123  21.787  25.990  1.00  0.00     0.261 C 
ENDROOT
BRANCH   1   2
ATOM      2  O   UNL A   1      32.011  22.558  25.493  1.00  0.00    -0.463 OA
BRANCH   2   3
ATOM      3  C   UNL A   1      31.482  23.469  26.352  1.00  0.00     0.316 C 
ATOM      4  O   UNL A   1      31.188  23.234  27.520  1.00  0.00    -0.251 OA
BRANCH   3   5
ATOM      5  C   UNL A   1      31.194  24.809  25.726  1.00  0.00     0.200 C 
BRANCH   5   6
ATOM      6  S   UNL A   1      32.543  25.653  24.951  1.00  0.00    -0.076 SA
BRANCH   6   7
ATOM      7  C   UNL A   1      32.699  27.377  25.194  1.00  0.00     0.171 A 
ATOM      8  N   UNL A   1      31.810  28.392  24.864  1.00  0.00    -0.287 N 
ATOM      9  C   UNL A   1      31.895  29.622  25.548  1.00  0.00     0.262 A 
ATOM     10  N   UNL A   1      33.772  27.598  25.888  1.00  0.00    -0.224 NA
ATOM     11  C   UNL A   1      33.058  29.848  26.417  1.00  0.00     0.066 A 
ATOM     12  O   UNL A   1      31.030  30.496  25.501  1.00  0.00    -0.269 OA
ATOM     13  C   UNL A   1      34.008  28.843  26.461  1.00  0.00     0.079 A 
ATOM     14  C   UNL A   1      33.197  31.006  27.194  1.00  0.00     0.016 A 
ATOM     15  C   UNL A   1      35.158  29.031  27.231  1.00  0.00     0.029 A 
ATOM     16  C   UNL A   1      34.327  31.166  27.997  1.00  0.00     0.001 A 
ATOM     17  C   UNL A   1      35.320  30.188  27.997  1.00  0.00     0.002 A 
BRANCH   8  18
ATOM     18  C   UNL A   1      30.693  28.333  23.922  1.00  0.00     0.128 C 
BRANCH  18  19
ATOM     19  C   UNL A   1      30.857  29.180  22.647  1.00  0.00     0.022 C 
BRANCH  19  20
ATOM     20  C   UNL A   1      29.588  29.767  22.026  1.00  0.00     0.002 C 
BRANCH  20  21
ATOM     21  C   UNL A   1      28.533  30.330  22.977  1.00  0.00    -0.003 C 
ATOM     22  C   UNL A   1      27.271  29.491  23.118  1.00  0.00     0.004 C 
ENDBRANCH  20  21
ENDBRANCH  19  20
ENDBRANCH  18  19
ENDBRANCH   8  18
ENDBRANCH   6   7
ENDBRANCH   5   6
ENDBRANCH   3   5
ENDBRANCH   2   3
ENDBRANCH   1   2
BRANCH   1  23
ATOM     23  C   UNL A   1      33.327  20.482  25.215  1.00  0.00     0.202 C 
BRANCH  23  24
ATOM     24  O   UNL A   1      34.678  20.089  24.987  1.00  0.00    -0.374 OA
BRANCH  24  25
ATOM     25  C   UNL A   1      35.691  21.079  25.160  1.00  0.00     0.202 C 
BRANCH  25  26
ATOM     26  C   UNL A   1      37.134  20.595  25.002  1.00  0.00     0.261 C 
BRANCH  26  27
ATOM     27  O   UNL A   1      38.059  21.669  25.230  1.00  0.00    -0.460 OA
BRANCH  27  28
ATOM     28  C   UNL A   1      39.089  21.354  26.050  1.00  0.00     0.338 C 
ATOM     29  O   UNL A   1      39.644  20.278  26.175  1.00  0.00    -0.246 OA
BRANCH  28  30
ATOM     30  C   UNL A   1      39.621  22.597  26.628  1.00  0.00     0.060 A 
ATOM     31  C   UNL A   1      40.622  22.585  27.600  1.00  0.00     0.016 A 
ATOM     32  C   UNL A   1      39.108  23.804  26.134  1.00  0.00     0.016 A 
ATOM     33  C   UNL A   1      41.145  23.801  28.047  1.00  0.00     0.010 A 
ATOM     34  C   UNL A   1      39.620  25.012  26.592  1.00  0.00     0.010 A 
ATOM     35  C   UNL A   1      40.663  25.017  27.528  1.00  0.00    -0.014 A 
BRANCH  35  36
ATOM     36  C   UNL A   1      41.340  26.299  27.829  1.00  0.00     0.031 A 
ATOM     37  C   UNL A   1      40.627  27.405  28.542  1.00  0.00     0.074 A 
ATOM     38  C   UNL A   1      42.595  26.467  27.371  1.00  0.00     0.049 A 
ATOM     39  N   UNL A   1      41.060  28.603  28.843  1.00  0.00    -0.248 NA
ATOM     40  C   UNL A   1      39.245  27.139  28.970  1.00  0.00     0.031 C 
ATOM     41  C   UNL A   1      43.359  25.459  26.634  1.00  0.00     0.029 A 
ATOM     42  N   UNL A   1      43.444  27.541  27.445  1.00  0.00    -0.354 N 
ATOM     43  C   UNL A   1      40.018  29.225  29.516  1.00  0.00     0.074 A 
ATOM     44  C   UNL A   1      38.912  28.292  29.538  1.00  0.00     0.031 C 
ATOM     45  C   UNL A   1      44.571  25.955  26.338  1.00  0.00     0.029 A 
ATOM     46  C   UNL A   1      44.656  27.323  26.836  1.00  0.00     0.049 A 
ATOM     47  H   UNL A   1      43.207  28.386  27.891  1.00  0.00     0.167 HD
ATOM     48  C   UNL A   1      40.007  30.455  30.081  1.00  0.00     0.037 A 
ATOM     49  C   UNL A   1      45.715  28.142  26.696  1.00  0.00     0.037 A 
ATOM     50  C   UNL A   1      41.112  31.380  30.031  1.00  0.00     0.049 A 
ATOM     51  C   UNL A   1      45.642  29.526  27.279  1.00  0.00     0.074 A 
ATOM     52  C   UNL A   1      41.201  32.649  30.577  1.00  0.00     0.029 A 
ATOM     53  N   UNL A   1      42.320  31.134  29.393  1.00  0.00    -0.354 N 
ATOM     54  N   UNL A   1      44.673  30.085  27.962  1.00  0.00    -0.248 NA
ATOM     55  C   UNL A   1      46.810  30.393  27.073  1.00  0.00     0.031 C 
ATOM     56  C   UNL A   1      42.446  33.185  30.237  1.00  0.00     0.029 A 
ATOM     57  C   UNL A   1      43.152  32.234  29.519  1.00  0.00     0.049 A 
ATOM     58  H   UNL A   1      42.550  30.302  28.921  1.00  0.00     0.167 HD
ATOM     59  C   UNL A   1      45.124  31.354  28.295  1.00  0.00     0.074 A 
ATOM     60  C   UNL A   1      46.461  31.478  27.752  1.00  0.00     0.031 C 
ATOM     61  C   UNL A   1      44.486  32.330  28.984  1.00  0.00     0.037 A 
BRANCH  48  62
ATOM     62  C   UNL A   1      38.780  30.876  30.834  1.00  0.00     0.064 A 
ATOM     63  C   UNL A   1      38.652  30.616  32.207  1.00  0.00     0.173 A 
ATOM     64  C   UNL A   1      37.781  31.643  30.216  1.00  0.00     0.173 A 
ATOM     65  F   UNL A   1      39.577  29.882  32.843  1.00  0.00    -0.203 F 
ATOM     66  C   UNL A   1      37.571  31.107  32.933  1.00  0.00     0.198 A 
ATOM     67  C   UNL A   1      36.711  32.153  30.950  1.00  0.00     0.198 A 
ATOM     68  F   UNL A   1      37.858  31.929  28.908  1.00  0.00    -0.203 F 
ATOM     69  F   UNL A   1      37.463  30.832  34.240  1.00  0.00    -0.200 F 
ATOM     70  C   UNL A   1      36.608  31.885  32.307  1.00  0.00     0.200 A 
ATOM     71  F   UNL A   1      35.789  32.916  30.348  1.00  0.00    -0.200 F 
ATOM     72  F   UNL A   1      35.580  32.378  33.013  1.00  0.00    -0.200 F 
ENDBRANCH  48  62
BRANCH  49  73
ATOM     73  C   UNL A   1      46.943  27.662  26.013  1.00  0.00     0.064 A 
ATOM     74  C   UNL A   1      48.011  27.134  26.754  1.00  0.00     0.173 A 
ATOM     75  C   UNL A   1      47.082  27.718  24.619  1.00  0.00     0.173 A 
ATOM     76  F   UNL A   1      47.932  27.076  28.091  1.00  0.00    -0.203 F 
ATOM     77  C   UNL A   1      49.178  26.702  26.129  1.00  0.00     0.198 A 
ATOM     78  C   UNL A   1      48.239  27.258  23.992  1.00  0.00     0.198 A 
ATOM     79  F   UNL A   1      46.090  28.209  23.863  1.00  0.00    -0.203 F 
ATOM     80  F   UNL A   1      50.200  26.247  26.865  1.00  0.00    -0.200 F 
ATOM     81  C   UNL A   1      49.289  26.759  24.748  1.00  0.00     0.200 A 
ATOM     82  F   UNL A   1      48.338  27.301  22.656  1.00  0.00    -0.200 F 
ATOM     83  F   UNL A   1      50.412  26.341  24.146  1.00  0.00    -0.200 F 
ENDBRANCH  49  73
BRANCH  61  84
ATOM     84  C   UNL A   1      45.236  33.608  29.218  1.00  0.00     0.064 A 
ATOM     85  C   UNL A   1      45.136  34.688  28.328  1.00  0.00     0.173 A 
ATOM     86  C   UNL A   1      46.008  33.777  30.376  1.00  0.00     0.173 A 
ATOM     87  F   UNL A   1      44.421  34.570  27.200  1.00  0.00    -0.203 F 
ATOM     88  C   UNL A   1      45.798  35.885  28.583  1.00  0.00     0.198 A 
ATOM     89  C   UNL A   1      46.644  34.986  30.643  1.00  0.00     0.198 A 
ATOM     90  F   UNL A   1      46.128  32.777  31.262  1.00  0.00    -0.203 F 
ATOM     91  F   UNL A   1      45.720  36.891  27.700  1.00  0.00    -0.200 F 
ATOM     92  C   UNL A   1      46.542  36.037  29.743  1.00  0.00     0.200 A 
ATOM     93  F   UNL A   1      47.350  35.136  31.772  1.00  0.00    -0.200 F 
ATOM     94  F   UNL A   1      47.165  37.197  29.994  1.00  0.00    -0.200 F 
ENDBRANCH  61  84
ENDBRANCH  35  36
ENDBRANCH  28  30
ENDBRANCH  27  28
ENDBRANCH  26  27
ENDBRANCH  25  26
ENDBRANCH  24  25
ENDBRANCH  23  24
ENDBRANCH   1  23
TORSDOF 20
ENDMDL
MODEL 2
REMARK VINA RESULT:     -10.8      3.974      9.934
REMARK SMILES CCCCCn1c(SCC(=O)OCCOCCOC(=O)c2ccc(-c3c4nc(c(-c5c(F)c(F)c(F)c(F)c5F)c5ccc([nH]5)c(-c5c(F)c(F)c(F)c(F)c5F)c5nc(c(-c6c(F)c(F)c(F)c(F)c6F)c6ccc3[nH]6)C=C5)C=C4)cc2)nc2ccccc2c1=O
REMARK SMILES IDX 13 1 12 2 10 3 11 4 9 5 8 6 7 7 6 8 91 9 84 10 90 11 92 12
REMARK SMILES IDX 85 13 89 14 86 15 88 16 87 17 5 18 4 19 3 20 2 21 1 22 14 23
REMARK SMILES IDX 15 24 16 25 17 26 18 27 19 28 20 29 21 30 22 31 83 32 23 33
REMARK SMILES IDX 82 34 24 35 25 36 26 37 76 38 27 39 81 40 75 41 77 42 28 43
REMARK SMILES IDX 80 44 74 45 73 46 29 48 61 49 41 50 60 51 42 52 45 53 59 54
REMARK SMILES IDX 78 55 43 56 44 57 58 59 79 60 46 61 30 62 31 63 39 64 32 65
REMARK SMILES IDX 33 66 37 67 40 68 34 69 35 70 38 71 36 72 62 73 63 74 71 75
REMARK SMILES IDX 64 76 65 77 69 78 72 79 66 80 67 81 70 82 68 83 47 84 48 85
REMARK SMILES IDX 56 86 49 87 50 88 54 89 57 90 51 91 52 92 55 93 53 94
REMARK H PARENT 77 47 45 58
REMARK Flexibility Score: inf
ROOT
ATOM      1  C   UNL A   1      31.517  27.328  22.794  1.00  0.00     0.261 C 
ENDROOT
BRANCH   1   2
ATOM      2  O   UNL A   1      31.413  26.103  22.040  1.00  0.00    -0.463 OA
BRANCH   2   3
ATOM      3  C   UNL A   1      32.584  25.470  21.763  1.00  0.00     0.316 C 
ATOM      4  O   UNL A   1      33.272  25.683  20.770  1.00  0.00    -0.251 OA
BRANCH   3   5
ATOM      5  C   UNL A   1      32.947  24.392  22.752  1.00  0.00     0.200 C 
BRANCH   5   6
ATOM      6  S   UNL A   1      33.993  24.846  24.105  1.00  0.00    -0.076 SA
BRANCH   6   7
ATOM      7  C   UNL A   1      35.008  23.620  24.824  1.00  0.00     0.171 A 
ATOM      8  N   UNL A   1      34.935  22.238  24.698  1.00  0.00    -0.287 N 
ATOM      9  C   UNL A   1      36.089  21.468  24.954  1.00  0.00     0.262 A 
ATOM     10  N   UNL A   1      35.991  24.205  25.436  1.00  0.00    -0.224 NA
ATOM     11  C   UNL A   1      37.247  22.142  25.557  1.00  0.00     0.066 A 
ATOM     12  O   UNL A   1      36.202  20.279  24.657  1.00  0.00    -0.269 OA
ATOM     13  C   UNL A   1      37.096  23.481  25.868  1.00  0.00     0.079 A 
ATOM     14  C   UNL A   1      38.462  21.482  25.783  1.00  0.00     0.016 A 
ATOM     15  C   UNL A   1      38.149  24.155  26.491  1.00  0.00     0.029 A 
ATOM     16  C   UNL A   1      39.526  22.174  26.362  1.00  0.00     0.001 A 
ATOM     17  C   UNL A   1      39.362  23.506  26.739  1.00  0.00     0.002 A 
BRANCH   8  18
ATOM     18  C   UNL A   1      33.801  21.439  24.234  1.00  0.00     0.128 C 
BRANCH  18  19
ATOM     19  C   UNL A   1      32.825  20.975  25.331  1.00  0.00     0.022 C 
BRANCH  19  20
ATOM     20  C   UNL A   1      32.980  19.544  25.848  1.00  0.00     0.002 C 
BRANCH  20  21
ATOM     21  C   UNL A   1      33.055  18.424  24.812  1.00  0.00    -0.003 C 
ATOM     22  C   UNL A   1      32.497  17.082  25.265  1.00  0.00     0.004 C 
ENDBRANCH  20  21
ENDBRANCH  19  20
ENDBRANCH  18  19
ENDBRANCH   8  18
ENDBRANCH   6   7
ENDBRANCH   5   6
ENDBRANCH   3   5
ENDBRANCH   2   3
ENDBRANCH   1   2
BRANCH   1  23
ATOM     23  C   UNL A   1      31.026  27.173  24.237  1.00  0.00     0.202 C 
BRANCH  23  24
ATOM     24  O   UNL A   1      31.556  28.095  25.185  1.00  0.00    -0.374 OA
BRANCH  24  25
ATOM     25  C   UNL A   1      31.543  29.479  24.838  1.00  0.00     0.202 C 
BRANCH  25  26
ATOM     26  C   UNL A   1      31.781  30.460  25.988  1.00  0.00     0.261 C 
BRANCH  26  27
ATOM     27  O   UNL A   1      33.112  30.323  26.507  1.00  0.00    -0.460 OA
BRANCH  27  28
ATOM     28  C   UNL A   1      33.562  31.405  27.184  1.00  0.00     0.338 C 
ATOM     29  O   UNL A   1      32.945  32.411  27.482  1.00  0.00    -0.246 OA
BRANCH  28  30
ATOM     30  C   UNL A   1      34.888  31.090  27.737  1.00  0.00     0.060 A 
ATOM     31  C   UNL A   1      35.854  32.077  27.934  1.00  0.00     0.016 A 
ATOM     32  C   UNL A   1      35.133  29.759  28.096  1.00  0.00     0.016 A 
ATOM     33  C   UNL A   1      37.063  31.730  28.542  1.00  0.00     0.010 A 
ATOM     34  C   UNL A   1      36.343  29.413  28.687  1.00  0.00     0.010 A 
ATOM     35  C   UNL A   1      37.302  30.402  28.941  1.00  0.00    -0.014 A 
BRANCH  35  36
ATOM     36  C   UNL A   1      38.479  30.052  29.769  1.00  0.00     0.031 A 
ATOM     37  C   UNL A   1      39.527  29.107  29.269  1.00  0.00     0.074 A 
ATOM     38  C   UNL A   1      38.537  30.551  31.018  1.00  0.00     0.049 A 
ATOM     39  N   UNL A   1      40.594  28.663  29.883  1.00  0.00    -0.248 NA
ATOM     40  C   UNL A   1      39.356  28.586  27.904  1.00  0.00     0.031 C 
ATOM     41  C   UNL A   1      37.543  31.451  31.606  1.00  0.00     0.029 A 
ATOM     42  N   UNL A   1      39.456  30.369  32.019  1.00  0.00    -0.354 N 
ATOM     43  C   UNL A   1      41.236  27.833  28.976  1.00  0.00     0.074 A 
ATOM     44  C   UNL A   1      40.414  27.792  27.784  1.00  0.00     0.031 C 
ATOM     45  C   UNL A   1      37.914  31.756  32.860  1.00  0.00     0.029 A 
ATOM     46  C   UNL A   1      39.152  31.051  33.171  1.00  0.00     0.049 A 
ATOM     47  H   UNL A   1      40.255  29.803  31.920  1.00  0.00     0.167 HD
ATOM     48  C   UNL A   1      42.416  27.186  29.127  1.00  0.00     0.037 A 
ATOM     49  C   UNL A   1      39.803  31.097  34.349  1.00  0.00     0.037 A 
ATOM     50  C   UNL A   1      43.210  27.221  30.329  1.00  0.00     0.049 A 
ATOM     51  C   UNL A   1      41.076  30.313  34.503  1.00  0.00     0.074 A 
ATOM     52  C   UNL A   1      44.424  26.603  30.580  1.00  0.00     0.029 A 
ATOM     53  N   UNL A   1      42.866  27.909  31.484  1.00  0.00    -0.354 N 
ATOM     54  N   UNL A   1      41.704  29.574  33.620  1.00  0.00    -0.248 NA
ATOM     55  C   UNL A   1      41.734  30.369  35.815  1.00  0.00     0.031 C 
ATOM     56  C   UNL A   1      44.795  26.886  31.897  1.00  0.00     0.029 A 
ATOM     57  C   UNL A   1      43.837  27.718  32.453  1.00  0.00     0.049 A 
ATOM     58  H   UNL A   1      42.054  28.452  31.597  1.00  0.00     0.167 HD
ATOM     59  C   UNL A   1      42.843  29.104  34.257  1.00  0.00     0.074 A 
ATOM     60  C   UNL A   1      42.829  29.653  35.597  1.00  0.00     0.031 C 
ATOM     61  C   UNL A   1      43.811  28.287  33.777  1.00  0.00     0.037 A 
BRANCH  48  62
ATOM     62  C   UNL A   1      42.950  26.407  27.960  1.00  0.00     0.064 A 
ATOM     63  C   UNL A   1      42.616  25.056  27.784  1.00  0.00     0.173 A 
ATOM     64  C   UNL A   1      43.698  27.036  26.954  1.00  0.00     0.173 A 
ATOM     65  F   UNL A   1      41.907  24.408  28.720  1.00  0.00    -0.203 F 
ATOM     66  C   UNL A   1      43.013  24.363  26.643  1.00  0.00     0.198 A 
ATOM     67  C   UNL A   1      44.074  26.346  25.803  1.00  0.00     0.198 A 
ATOM     68  F   UNL A   1      44.036  28.329  27.069  1.00  0.00    -0.203 F 
ATOM     69  F   UNL A   1      42.695  23.068  26.504  1.00  0.00    -0.200 F 
ATOM     70  C   UNL A   1      43.731  25.011  25.649  1.00  0.00     0.200 A 
ATOM     71  F   UNL A   1      44.755  26.977  24.837  1.00  0.00    -0.200 F 
ATOM     72  F   UNL A   1      44.090  24.349  24.540  1.00  0.00    -0.200 F 
ENDBRANCH  48  62
BRANCH  49  73
ATOM     73  C   UNL A   1      39.285  31.943  35.455  1.00  0.00     0.064 A 
ATOM     74  C   UNL A   1      39.631  33.300  35.535  1.00  0.00     0.173 A 
ATOM     75  C   UNL A   1      38.445  31.424  36.449  1.00  0.00     0.173 A 
ATOM     76  F   UNL A   1      40.446  33.837  34.616  1.00  0.00    -0.203 F 
ATOM     77  C   UNL A   1      39.172  34.100  36.579  1.00  0.00     0.198 A 
ATOM     78  C   UNL A   1      37.963  32.232  37.478  1.00  0.00     0.198 A 
ATOM     79  F   UNL A   1      38.080  30.134  36.417  1.00  0.00    -0.203 F 
ATOM     80  F   UNL A   1      39.556  35.380  36.657  1.00  0.00    -0.200 F 
ATOM     81  C   UNL A   1      38.334  33.566  37.547  1.00  0.00     0.200 A 
ATOM     82  F   UNL A   1      37.141  31.718  38.402  1.00  0.00    -0.200 F 
ATOM     83  F   UNL A   1      37.891  34.337  38.550  1.00  0.00    -0.200 F 
ENDBRANCH  49  73
BRANCH  61  84
ATOM     84  C   UNL A   1      44.952  27.960  34.694  1.00  0.00     0.064 A 
ATOM     85  C   UNL A   1      44.923  26.832  35.526  1.00  0.00     0.173 A 
ATOM     86  C   UNL A   1      46.113  28.748  34.691  1.00  0.00     0.173 A 
ATOM     87  F   UNL A   1      43.829  26.057  35.574  1.00  0.00    -0.203 F 
ATOM     88  C   UNL A   1      46.009  26.514  36.335  1.00  0.00     0.198 A 
ATOM     89  C   UNL A   1      47.209  28.409  35.479  1.00  0.00     0.198 A 
ATOM     90  F   UNL A   1      46.194  29.833  33.906  1.00  0.00    -0.203 F 
ATOM     91  F   UNL A   1      45.944  25.453  37.151  1.00  0.00    -0.200 F 
ATOM     92  C   UNL A   1      47.154  27.296  36.304  1.00  0.00     0.200 A 
ATOM     93  F   UNL A   1      48.321  29.157  35.436  1.00  0.00    -0.200 F 
ATOM     94  F   UNL A   1      48.205  26.978  37.072  1.00  0.00    -0.200 F 
ENDBRANCH  61  84
ENDBRANCH  35  36
ENDBRANCH  28  30
ENDBRANCH  27  28
ENDBRANCH  26  27
ENDBRANCH  25  26
ENDBRANCH  24  25
ENDBRANCH  23  24
ENDBRANCH   1  23
TORSDOF 20
ENDMDL
MODEL 3
REMARK VINA RESULT:     -10.6      4.131     10.137
REMARK SMILES CCCCCn1c(SCC(=O)OCCOCCOC(=O)c2ccc(-c3c4nc(c(-c5c(F)c(F)c(F)c(F)c5F)c5ccc([nH]5)c(-c5c(F)c(F)c(F)c(F)c5F)c5nc(c(-c6c(F)c(F)c(F)c(F)c6F)c6ccc3[nH]6)C=C5)C=C4)cc2)nc2ccccc2c1=O
REMARK SMILES IDX 13 1 12 2 10 3 11 4 9 5 8 6 7 7 6 8 91 9 84 10 90 11 92 12
REMARK SMILES IDX 85 13 89 14 86 15 88 16 87 17 5 18 4 19 3 20 2 21 1 22 14 23
REMARK SMILES IDX 15 24 16 25 17 26 18 27 19 28 20 29 21 30 22 31 83 32 23 33
REMARK SMILES IDX 82 34 24 35 25 36 26 37 76 38 27 39 81 40 75 41 77 42 28 43
REMARK SMILES IDX 80 44 74 45 73 46 29 48 61 49 41 50 60 51 42 52 45 53 59 54
REMARK SMILES IDX 78 55 43 56 44 57 58 59 79 60 46 61 30 62 31 63 39 64 32 65
REMARK SMILES IDX 33 66 37 67 40 68 34 69 35 70 38 71 36 72 62 73 63 74 71 75
REMARK SMILES IDX 64 76 65 77 69 78 72 79 66 80 67 81 70 82 68 83 47 84 48 85
REMARK SMILES IDX 56 86 49 87 50 88 54 89 57 90 51 91 52 92 55 93 53 94
REMARK H PARENT 77 47 45 58
REMARK Flexibility Score: inf
ROOT
ATOM      1  C   UNL A   1      33.691  28.081  23.142  1.00  0.00     0.261 C 
ENDROOT
BRANCH   1   2
ATOM      2  O   UNL A   1      33.394  27.094  22.134  1.00  0.00    -0.463 OA
BRANCH   2   3
ATOM      3  C   UNL A   1      33.333  25.804  22.560  1.00  0.00     0.316 C 
ATOM      4  O   UNL A   1      34.138  24.931  22.249  1.00  0.00    -0.251 OA
BRANCH   3   5
ATOM      5  C   UNL A   1      32.122  25.491  23.400  1.00  0.00     0.200 C 
BRANCH   5   6
ATOM      6  S   UNL A   1      31.435  23.865  23.266  1.00  0.00    -0.076 SA
BRANCH   6   7
ATOM      7  C   UNL A   1      32.311  22.528  23.972  1.00  0.00     0.171 A 
ATOM      8  N   UNL A   1      32.974  22.462  25.192  1.00  0.00    -0.287 N 
ATOM      9  C   UNL A   1      33.200  21.199  25.777  1.00  0.00     0.262 A 
ATOM     10  N   UNL A   1      32.147  21.486  23.218  1.00  0.00    -0.224 NA
ATOM     11  C   UNL A   1      32.923  20.005  24.966  1.00  0.00     0.066 A 
ATOM     12  O   UNL A   1      33.565  21.036  26.940  1.00  0.00    -0.269 OA
ATOM     13  C   UNL A   1      32.501  20.218  23.666  1.00  0.00     0.079 A 
ATOM     14  C   UNL A   1      33.046  18.707  25.480  1.00  0.00     0.016 A 
ATOM     15  C   UNL A   1      32.275  19.116  22.838  1.00  0.00     0.029 A 
ATOM     16  C   UNL A   1      32.773  17.612  24.661  1.00  0.00     0.001 A 
ATOM     17  C   UNL A   1      32.411  17.815  23.331  1.00  0.00     0.002 A 
BRANCH   8  18
ATOM     18  C   UNL A   1      33.417  23.574  26.032  1.00  0.00     0.128 C 
BRANCH  18  19
ATOM     19  C   UNL A   1      34.807  24.145  25.696  1.00  0.00     0.022 C 
BRANCH  19  20
ATOM     20  C   UNL A   1      36.025  23.330  26.134  1.00  0.00     0.002 C 
BRANCH  20  21
ATOM     21  C   UNL A   1      37.396  23.993  26.018  1.00  0.00    -0.003 C 
ATOM     22  C   UNL A   1      38.586  23.051  26.140  1.00  0.00     0.004 C 
ENDBRANCH  20  21
ENDBRANCH  19  20
ENDBRANCH  18  19
ENDBRANCH   8  18
ENDBRANCH   6   7
ENDBRANCH   5   6
ENDBRANCH   3   5
ENDBRANCH   2   3
ENDBRANCH   1   2
BRANCH   1  23
ATOM     23  C   UNL A   1      32.438  28.812  23.634  1.00  0.00     0.202 C 
BRANCH  23  24
ATOM     24  O   UNL A   1      32.593  29.608  24.807  1.00  0.00    -0.374 OA
BRANCH  24  25
ATOM     25  C   UNL A   1      31.415  30.172  25.382  1.00  0.00     0.202 C 
BRANCH  25  26
ATOM     26  C   UNL A   1      31.638  31.199  26.494  1.00  0.00     0.261 C 
BRANCH  26  27
ATOM     27  O   UNL A   1      32.849  30.917  27.211  1.00  0.00    -0.460 OA
BRANCH  27  28
ATOM     28  C   UNL A   1      33.574  32.013  27.534  1.00  0.00     0.338 C 
ATOM     29  O   UNL A   1      33.190  33.164  27.627  1.00  0.00    -0.246 OA
BRANCH  28  30
ATOM     30  C   UNL A   1      34.897  31.574  28.003  1.00  0.00     0.060 A 
ATOM     31  C   UNL A   1      35.939  32.479  28.213  1.00  0.00     0.016 A 
ATOM     32  C   UNL A   1      35.063  30.209  28.269  1.00  0.00     0.016 A 
ATOM     33  C   UNL A   1      37.146  32.012  28.740  1.00  0.00     0.010 A 
ATOM     34  C   UNL A   1      36.270  29.745  28.779  1.00  0.00     0.010 A 
ATOM     35  C   UNL A   1      37.307  30.648  29.047  1.00  0.00    -0.014 A 
BRANCH  35  36
ATOM     36  C   UNL A   1      38.491  30.167  29.794  1.00  0.00     0.031 A 
ATOM     37  C   UNL A   1      39.418  29.149  29.208  1.00  0.00     0.074 A 
ATOM     38  C   UNL A   1      38.663  30.618  31.051  1.00  0.00     0.049 A 
ATOM     39  N   UNL A   1      40.473  28.591  29.747  1.00  0.00    -0.248 NA
ATOM     40  C   UNL A   1      39.125  28.690  27.842  1.00  0.00     0.031 C 
ATOM     41  C   UNL A   1      37.790  31.583  31.721  1.00  0.00     0.029 A 
ATOM     42  N   UNL A   1      39.616  30.321  31.991  1.00  0.00    -0.354 N 
ATOM     43  C   UNL A   1      40.985  27.736  28.781  1.00  0.00     0.074 A 
ATOM     44  C   UNL A   1      40.098  27.809  27.639  1.00  0.00     0.031 C 
ATOM     45  C   UNL A   1      38.257  31.813  32.959  1.00  0.00     0.029 A 
ATOM     46  C   UNL A   1      39.440  30.990  33.178  1.00  0.00     0.049 A 
ATOM     47  H   UNL A   1      40.353  29.689  31.831  1.00  0.00     0.167 HD
ATOM     48  C   UNL A   1      42.107  26.981  28.845  1.00  0.00     0.037 A 
ATOM     49  C   UNL A   1      40.157  30.938  34.316  1.00  0.00     0.037 A 
ATOM     50  C   UNL A   1      42.966  26.905  30.000  1.00  0.00     0.049 A 
ATOM     51  C   UNL A   1      41.359  30.038  34.374  1.00  0.00     0.074 A 
ATOM     52  C   UNL A   1      44.130  26.173  30.162  1.00  0.00     0.029 A 
ATOM     53  N   UNL A   1      42.752  27.583  31.191  1.00  0.00    -0.354 N 
ATOM     54  N   UNL A   1      41.867  29.276  33.436  1.00  0.00    -0.248 NA
ATOM     55  C   UNL A   1      42.091  29.992  35.647  1.00  0.00     0.031 C 
ATOM     56  C   UNL A   1      44.598  26.378  31.463  1.00  0.00     0.029 A 
ATOM     57  C   UNL A   1      43.753  27.274  32.097  1.00  0.00     0.049 A 
ATOM     58  H   UNL A   1      42.000  28.193  31.366  1.00  0.00     0.167 HD
ATOM     59  C   UNL A   1      42.992  28.684  33.993  1.00  0.00     0.074 A 
ATOM     60  C   UNL A   1      43.103  29.188  35.346  1.00  0.00     0.031 C 
ATOM     61  C   UNL A   1      43.853  27.800  33.435  1.00  0.00     0.037 A 
BRANCH  48  62
ATOM     62  C   UNL A   1      42.501  26.196  27.629  1.00  0.00     0.064 A 
ATOM     63  C   UNL A   1      43.470  26.685  26.740  1.00  0.00     0.173 A 
ATOM     64  C   UNL A   1      42.001  24.904  27.410  1.00  0.00     0.173 A 
ATOM     65  F   UNL A   1      43.975  27.917  26.902  1.00  0.00    -0.203 F 
ATOM     66  C   UNL A   1      43.923  25.909  25.676  1.00  0.00     0.198 A 
ATOM     67  C   UNL A   1      42.474  24.121  26.358  1.00  0.00     0.198 A 
ATOM     68  F   UNL A   1      41.080  24.385  28.236  1.00  0.00    -0.203 F 
ATOM     69  F   UNL A   1      44.839  26.403  24.831  1.00  0.00    -0.200 F 
ATOM     70  C   UNL A   1      43.434  24.624  25.493  1.00  0.00     0.200 A 
ATOM     71  F   UNL A   1      42.011  22.875  26.191  1.00  0.00    -0.200 F 
ATOM     72  F   UNL A   1      43.891  23.869  24.484  1.00  0.00    -0.200 F 
ENDBRANCH  48  62
BRANCH  49  73
ATOM     73  C   UNL A   1      39.781  31.791  35.473  1.00  0.00     0.064 A 
ATOM     74  C   UNL A   1      40.445  33.004  35.709  1.00  0.00     0.173 A 
ATOM     75  C   UNL A   1      38.764  31.419  36.364  1.00  0.00     0.173 A 
ATOM     76  F   UNL A   1      41.436  33.393  34.895  1.00  0.00    -0.203 F 
ATOM     77  C   UNL A   1      40.119  33.802  36.804  1.00  0.00     0.198 A 
ATOM     78  C   UNL A   1      38.420  32.233  37.442  1.00  0.00     0.198 A 
ATOM     79  F   UNL A   1      38.095  30.272  36.182  1.00  0.00    -0.203 F 
ATOM     80  F   UNL A   1      40.801  34.932  37.031  1.00  0.00    -0.200 F 
ATOM     81  C   UNL A   1      39.103  33.418  37.666  1.00  0.00     0.200 A 
ATOM     82  F   UNL A   1      37.427  31.867  38.265  1.00  0.00    -0.200 F 
ATOM     83  F   UNL A   1      38.788  34.188  38.717  1.00  0.00    -0.200 F 
ENDBRANCH  49  73
BRANCH  61  84
ATOM     84  C   UNL A   1      45.009  27.342  34.274  1.00  0.00     0.064 A 
ATOM     85  C   UNL A   1      44.918  26.201  35.084  1.00  0.00     0.173 A 
ATOM     86  C   UNL A   1      46.238  28.014  34.216  1.00  0.00     0.173 A 
ATOM     87  F   UNL A   1      43.759  25.534  35.183  1.00  0.00    -0.203 F 
ATOM     88  C   UNL A   1      46.014  25.760  35.820  1.00  0.00     0.198 A 
ATOM     89  C   UNL A   1      47.341  27.552  34.930  1.00  0.00     0.198 A 
ATOM     90  F   UNL A   1      46.378  29.106  33.450  1.00  0.00    -0.203 F 
ATOM     91  F   UNL A   1      45.893  24.689  36.618  1.00  0.00    -0.200 F 
ATOM     92  C   UNL A   1      47.225  26.429  35.735  1.00  0.00     0.200 A 
ATOM     93  F   UNL A   1      48.515  28.190  34.834  1.00  0.00    -0.200 F 
ATOM     94  F   UNL A   1      48.283  25.991  36.432  1.00  0.00    -0.200 F 
ENDBRANCH  61  84
ENDBRANCH  35  36
ENDBRANCH  28  30
ENDBRANCH  27  28
ENDBRANCH  26  27
ENDBRANCH  25  26
ENDBRANCH  24  25
ENDBRANCH  23  24
ENDBRANCH   1  23
TORSDOF 20
ENDMDL
