MODEL 1
REMARK VINA RESULT:     -11.2      0.000      0.000
REMARK SMILES Cc1ccc(N[C@H](CC(=O)c2ccccc2)C(=O)OCCOCCOC(=O)c2ccc(-c3c4nc(c(-c5c(F)c(F)c(F)c(F)c5F)c5ccc([nH]5)c(-c5c(F)c(F)c(F)c(F)c5F)c5nc(c(-c6c(F)c(F)c(F)c(F)c6F)c6ccc3[nH]6)C=C5)C=C4)cc2)cc1Cl
REMARK SMILES IDX 21 1 20 2 19 3 17 4 18 5 7 6 6 7 5 9 1 10 2 11 3 12 92 13
REMARK SMILES IDX 4 14 91 15 93 16 8 17 9 18 10 19 11 20 12 21 16 22 13 23
REMARK SMILES IDX 15 24 14 25 22 26 23 27 24 28 25 29 26 30 27 31 28 32 29 33
REMARK SMILES IDX 90 34 30 35 89 36 31 37 32 38 33 39 83 40 34 41 88 42 82 43
REMARK SMILES IDX 84 44 35 45 87 46 81 47 80 48 36 50 68 51 48 52 67 53 49 54
REMARK SMILES IDX 52 55 66 56 85 57 50 58 51 59 65 61 86 62 53 63 37 64 38 65
REMARK SMILES IDX 46 66 39 67 40 68 44 69 47 70 41 71 42 72 45 73 43 74 69 75
REMARK SMILES IDX 70 76 78 77 71 78 72 79 76 80 79 81 73 82 74 83 77 84 75 85
REMARK SMILES IDX 54 86 55 87 63 88 56 89 57 90 61 91 64 92 58 93 59 94 62 95
REMARK SMILES IDX 60 96
REMARK H PARENT 6 8 84 49 52 60
REMARK Flexibility Score: inf
ROOT
ATOM      1  C   UNL A   1      35.440  21.145  24.923  1.00  0.00     0.202 C 
ENDROOT
BRANCH   1   2
ATOM      2  C   UNL A   1      34.294  20.131  24.882  1.00  0.00     0.261 C 
BRANCH   2   3
ATOM      3  O   UNL A   1      33.023  20.745  25.168  1.00  0.00    -0.462 OA
BRANCH   3   4
ATOM      4  C   UNL A   1      32.390  21.328  24.111  1.00  0.00     0.329 C 
ATOM      5  O   UNL A   1      32.295  20.834  22.992  1.00  0.00    -0.250 OA
BRANCH   4   6
ATOM      6  C   UNL A   1      31.905  22.763  24.420  1.00  0.00     0.197 C 
BRANCH   6   7
ATOM      7  N   UNL A   1      31.922  23.508  23.140  1.00  0.00    -0.372 N 
ATOM      8  H   UNL A   1      32.079  22.986  22.320  1.00  0.00     0.161 HD
BRANCH   7   9
ATOM      9  C   UNL A   1      31.737  24.871  22.993  1.00  0.00     0.036 A 
ATOM     10  C   UNL A   1      31.027  29.142  22.639  1.00  0.00     0.046 C 
ATOM     11  C   UNL A   1      31.286  27.666  22.725  1.00  0.00    -0.032 A 
ATOM     12  C   UNL A   1      30.246  26.801  23.087  1.00  0.00     0.007 A 
ATOM     13  C   UNL A   1      32.552  27.116  22.505  1.00  0.00     0.046 A 
ATOM     14  C   UNL A   1      30.474  25.425  23.222  1.00  0.00     0.026 A 
ATOM     15  C   UNL A   1      32.764  25.738  22.624  1.00  0.00     0.046 A 
ATOM     16  Cl  UNL A   1      33.913  28.100  22.088  1.00  0.00    -0.084 Cl
ENDBRANCH   7   9
ENDBRANCH   6   7
BRANCH   6  17
ATOM     17  C   UNL A   1      32.668  23.379  25.591  1.00  0.00     0.118 C 
BRANCH  17  18
ATOM     18  C   UNL A   1      31.963  24.430  26.445  1.00  0.00     0.165 C 
ATOM     19  O   UNL A   1      31.177  24.083  27.328  1.00  0.00    -0.294 OA
BRANCH  18  20
ATOM     20  C   UNL A   1      32.298  25.870  26.365  1.00  0.00     0.018 A 
ATOM     21  C   UNL A   1      31.275  26.800  26.579  1.00  0.00     0.012 A 
ATOM     22  C   UNL A   1      33.572  26.312  25.999  1.00  0.00     0.012 A 
ATOM     23  C   UNL A   1      31.551  28.168  26.516  1.00  0.00     0.001 A 
ATOM     24  C   UNL A   1      33.848  27.680  25.955  1.00  0.00     0.001 A 
ATOM     25  C   UNL A   1      32.843  28.606  26.224  1.00  0.00     0.000 A 
ENDBRANCH  18  20
ENDBRANCH  17  18
ENDBRANCH   6  17
ENDBRANCH   4   6
ENDBRANCH   3   4
ENDBRANCH   2   3
ENDBRANCH   1   2
BRANCH   1  26
ATOM     26  O   UNL A   1      36.624  20.744  25.608  1.00  0.00    -0.374 OA
BRANCH  26  27
ATOM     27  C   UNL A   1      37.730  20.304  24.824  1.00  0.00     0.202 C 
BRANCH  27  28
ATOM     28  C   UNL A   1      38.892  19.638  25.578  1.00  0.00     0.261 C 
BRANCH  28  29
ATOM     29  O   UNL A   1      40.074  20.459  25.636  1.00  0.00    -0.460 OA
BRANCH  29  30
ATOM     30  C   UNL A   1      40.705  20.453  26.836  1.00  0.00     0.338 C 
ATOM     31  O   UNL A   1      41.195  19.492  27.413  1.00  0.00    -0.246 OA
BRANCH  30  32
ATOM     32  C   UNL A   1      40.899  21.828  27.331  1.00  0.00     0.060 A 
ATOM     33  C   UNL A   1      40.291  22.862  26.608  1.00  0.00     0.016 A 
ATOM     34  C   UNL A   1      41.744  22.116  28.403  1.00  0.00     0.016 A 
ATOM     35  C   UNL A   1      40.566  24.191  26.922  1.00  0.00     0.010 A 
ATOM     36  C   UNL A   1      42.028  23.453  28.712  1.00  0.00     0.010 A 
ATOM     37  C   UNL A   1      41.469  24.496  27.950  1.00  0.00    -0.014 A 
BRANCH  37  38
ATOM     38  C   UNL A   1      41.935  25.896  28.111  1.00  0.00     0.031 A 
ATOM     39  C   UNL A   1      43.276  26.291  27.553  1.00  0.00     0.074 A 
ATOM     40  C   UNL A   1      41.154  26.821  28.697  1.00  0.00     0.049 A 
ATOM     41  N   UNL A   1      43.881  27.452  27.586  1.00  0.00    -0.248 NA
ATOM     42  C   UNL A   1      44.033  25.237  26.860  1.00  0.00     0.031 C 
ATOM     43  C   UNL A   1      39.820  26.577  29.241  1.00  0.00     0.029 A 
ATOM     44  N   UNL A   1      41.375  28.156  28.934  1.00  0.00    -0.354 N 
ATOM     45  C   UNL A   1      45.084  27.270  26.914  1.00  0.00     0.074 A 
ATOM     46  C   UNL A   1      45.139  25.879  26.515  1.00  0.00     0.031 C 
ATOM     47  C   UNL A   1      39.346  27.721  29.763  1.00  0.00     0.029 A 
ATOM     48  C   UNL A   1      40.353  28.770  29.613  1.00  0.00     0.049 A 
ATOM     49  H   UNL A   1      42.191  28.626  28.643  1.00  0.00     0.167 HD
ATOM     50  C   UNL A   1      46.047  28.181  26.642  1.00  0.00     0.037 A 
ATOM     51  C   UNL A   1      40.254  30.031  30.080  1.00  0.00     0.037 A 
ATOM     52  C   UNL A   1      46.000  29.562  27.043  1.00  0.00     0.049 A 
ATOM     53  C   UNL A   1      41.373  31.008  29.827  1.00  0.00     0.074 A 
ATOM     54  C   UNL A   1      46.934  30.558  26.821  1.00  0.00     0.029 A 
ATOM     55  N   UNL A   1      44.959  30.141  27.753  1.00  0.00    -0.354 N 
ATOM     56  N   UNL A   1      42.499  30.829  29.180  1.00  0.00    -0.248 NA
ATOM     57  C   UNL A   1      41.203  32.366  30.365  1.00  0.00     0.031 C 
ATOM     58  C   UNL A   1      46.477  31.732  27.431  1.00  0.00     0.029 A 
ATOM     59  C   UNL A   1      45.236  31.478  27.991  1.00  0.00     0.049 A 
ATOM     60  H   UNL A   1      44.144  29.673  28.043  1.00  0.00     0.167 HD
ATOM     61  C   UNL A   1      43.157  32.052  29.213  1.00  0.00     0.074 A 
ATOM     62  C   UNL A   1      42.298  32.971  29.929  1.00  0.00     0.031 C 
ATOM     63  C   UNL A   1      44.367  32.383  28.697  1.00  0.00     0.037 A 
BRANCH  50  64
ATOM     64  C   UNL A   1      47.250  27.709  25.879  1.00  0.00     0.064 A 
ATOM     65  C   UNL A   1      47.261  27.682  24.476  1.00  0.00     0.173 A 
ATOM     66  C   UNL A   1      48.417  27.323  26.555  1.00  0.00     0.173 A 
ATOM     67  F   UNL A   1      46.166  28.028  23.785  1.00  0.00    -0.203 F 
ATOM     68  C   UNL A   1      48.393  27.268  23.779  1.00  0.00     0.198 A 
ATOM     69  C   UNL A   1      49.554  26.935  25.853  1.00  0.00     0.198 A 
ATOM     70  F   UNL A   1      48.457  27.337  27.896  1.00  0.00    -0.203 F 
ATOM     71  F   UNL A   1      48.370  27.214  22.440  1.00  0.00    -0.200 F 
ATOM     72  C   UNL A   1      49.541  26.902  24.467  1.00  0.00     0.200 A 
ATOM     73  F   UNL A   1      50.666  26.592  26.519  1.00  0.00    -0.200 F 
ATOM     74  F   UNL A   1      50.631  26.513  23.794  1.00  0.00    -0.200 F 
ENDBRANCH  50  64
BRANCH  51  75
ATOM     75  C   UNL A   1      39.057  30.440  30.860  1.00  0.00     0.064 A 
ATOM     76  C   UNL A   1      37.952  31.039  30.240  1.00  0.00     0.173 A 
ATOM     77  C   UNL A   1      39.010  30.268  32.252  1.00  0.00     0.173 A 
ATOM     78  F   UNL A   1      37.962  31.252  28.915  1.00  0.00    -0.203 F 
ATOM     79  C   UNL A   1      36.856  31.471  30.984  1.00  0.00     0.198 A 
ATOM     80  C   UNL A   1      37.901  30.672  32.991  1.00  0.00     0.198 A 
ATOM     81  F   UNL A   1      40.043  29.702  32.894  1.00  0.00    -0.203 F 
ATOM     82  F   UNL A   1      35.836  32.087  30.373  1.00  0.00    -0.200 F 
ATOM     83  C   UNL A   1      36.829  31.282  32.358  1.00  0.00     0.200 A 
ATOM     84  F   UNL A   1      37.875  30.479  34.317  1.00  0.00    -0.200 F 
ATOM     85  F   UNL A   1      35.775  31.698  33.073  1.00  0.00    -0.200 F 
ENDBRANCH  51  75
BRANCH  63  86
ATOM     86  C   UNL A   1      44.820  33.805  28.857  1.00  0.00     0.064 A 
ATOM     87  C   UNL A   1      44.495  34.791  27.914  1.00  0.00     0.173 A 
ATOM     88  C   UNL A   1      45.552  34.195  29.989  1.00  0.00     0.173 A 
ATOM     89  F   UNL A   1      43.808  34.467  26.808  1.00  0.00    -0.203 F 
ATOM     90  C   UNL A   1      44.905  36.111  28.088  1.00  0.00     0.198 A 
ATOM     91  C   UNL A   1      45.938  35.519  30.173  1.00  0.00     0.198 A 
ATOM     92  F   UNL A   1      45.883  33.291  30.924  1.00  0.00    -0.203 F 
ATOM     93  F   UNL A   1      44.620  37.028  27.153  1.00  0.00    -0.200 F 
ATOM     94  C   UNL A   1      45.621  36.475  29.219  1.00  0.00     0.200 A 
ATOM     95  F   UNL A   1      46.618  35.872  31.273  1.00  0.00    -0.200 F 
ATOM     96  F   UNL A   1      46.009  37.747  29.388  1.00  0.00    -0.200 F 
ENDBRANCH  63  86
ENDBRANCH  37  38
ENDBRANCH  30  32
ENDBRANCH  29  30
ENDBRANCH  28  29
ENDBRANCH  27  28
ENDBRANCH  26  27
ENDBRANCH   1  26
TORSDOF 19
ENDMDL
MODEL 2
REMARK VINA RESULT:     -11.1      1.641      2.556
REMARK SMILES Cc1ccc(N[C@H](CC(=O)c2ccccc2)C(=O)OCCOCCOC(=O)c2ccc(-c3c4nc(c(-c5c(F)c(F)c(F)c(F)c5F)c5ccc([nH]5)c(-c5c(F)c(F)c(F)c(F)c5F)c5nc(c(-c6c(F)c(F)c(F)c(F)c6F)c6ccc3[nH]6)C=C5)C=C4)cc2)cc1Cl
REMARK SMILES IDX 21 1 20 2 19 3 17 4 18 5 7 6 6 7 5 9 1 10 2 11 3 12 92 13
REMARK SMILES IDX 4 14 91 15 93 16 8 17 9 18 10 19 11 20 12 21 16 22 13 23
REMARK SMILES IDX 15 24 14 25 22 26 23 27 24 28 25 29 26 30 27 31 28 32 29 33
REMARK SMILES IDX 90 34 30 35 89 36 31 37 32 38 33 39 83 40 34 41 88 42 82 43
REMARK SMILES IDX 84 44 35 45 87 46 81 47 80 48 36 50 68 51 48 52 67 53 49 54
REMARK SMILES IDX 52 55 66 56 85 57 50 58 51 59 65 61 86 62 53 63 37 64 38 65
REMARK SMILES IDX 46 66 39 67 40 68 44 69 47 70 41 71 42 72 45 73 43 74 69 75
REMARK SMILES IDX 70 76 78 77 71 78 72 79 76 80 79 81 73 82 74 83 77 84 75 85
REMARK SMILES IDX 54 86 55 87 63 88 56 89 57 90 61 91 64 92 58 93 59 94 62 95
REMARK SMILES IDX 60 96
REMARK H PARENT 6 8 84 49 52 60
REMARK Flexibility Score: inf
ROOT
ATOM      1  C   UNL A   1      35.775  20.182  25.008  1.00  0.00     0.202 C 
ENDROOT
BRANCH   1   2
ATOM      2  C   UNL A   1      34.635  21.131  24.633  1.00  0.00     0.261 C 
BRANCH   2   3
ATOM      3  O   UNL A   1      35.035  22.512  24.720  1.00  0.00    -0.462 OA
BRANCH   3   4
ATOM      4  C   UNL A   1      35.111  23.187  23.538  1.00  0.00     0.329 C 
ATOM      5  O   UNL A   1      35.960  22.994  22.673  1.00  0.00    -0.250 OA
BRANCH   4   6
ATOM      6  C   UNL A   1      34.084  24.339  23.439  1.00  0.00     0.197 C 
BRANCH   6   7
ATOM      7  N   UNL A   1      33.365  24.386  24.734  1.00  0.00    -0.372 N 
ATOM      8  H   UNL A   1      33.149  23.524  25.157  1.00  0.00     0.161 HD
BRANCH   7   9
ATOM      9  C   UNL A   1      32.970  25.532  25.400  1.00  0.00     0.036 A 
ATOM     10  C   UNL A   1      31.603  29.042  27.563  1.00  0.00     0.046 C 
ATOM     11  C   UNL A   1      32.087  27.852  26.787  1.00  0.00    -0.032 A 
ATOM     12  C   UNL A   1      31.199  26.813  26.487  1.00  0.00     0.007 A 
ATOM     13  C   UNL A   1      33.421  27.714  26.390  1.00  0.00     0.046 A 
ATOM     14  C   UNL A   1      31.638  25.670  25.807  1.00  0.00     0.026 A 
ATOM     15  C   UNL A   1      33.845  26.576  25.694  1.00  0.00     0.046 A 
ATOM     16  Cl  UNL A   1      34.607  28.923  26.741  1.00  0.00    -0.084 Cl
ENDBRANCH   7   9
ENDBRANCH   6   7
BRANCH   6  17
ATOM     17  C   UNL A   1      33.232  24.232  22.177  1.00  0.00     0.118 C 
BRANCH  17  18
ATOM     18  C   UNL A   1      32.921  25.509  21.399  1.00  0.00     0.165 C 
ATOM     19  O   UNL A   1      33.029  25.528  20.172  1.00  0.00    -0.294 OA
BRANCH  18  20
ATOM     20  C   UNL A   1      32.340  26.708  22.046  1.00  0.00     0.018 A 
ATOM     21  C   UNL A   1      33.194  27.771  22.357  1.00  0.00     0.012 A 
ATOM     22  C   UNL A   1      30.997  26.762  22.427  1.00  0.00     0.012 A 
ATOM     23  C   UNL A   1      32.683  28.921  22.964  1.00  0.00     0.001 A 
ATOM     24  C   UNL A   1      30.487  27.920  23.015  1.00  0.00     0.001 A 
ATOM     25  C   UNL A   1      31.326  29.002  23.274  1.00  0.00     0.000 A 
ENDBRANCH  18  20
ENDBRANCH  17  18
ENDBRANCH   6  17
ENDBRANCH   4   6
ENDBRANCH   3   4
ENDBRANCH   2   3
ENDBRANCH   1   2
BRANCH   1  26
ATOM     26  O   UNL A   1      37.051  20.460  24.435  1.00  0.00    -0.374 OA
BRANCH  26  27
ATOM     27  C   UNL A   1      38.146  20.677  25.322  1.00  0.00     0.202 C 
BRANCH  27  28
ATOM     28  C   UNL A   1      39.210  19.570  25.392  1.00  0.00     0.261 C 
BRANCH  28  29
ATOM     29  O   UNL A   1      40.070  19.684  26.541  1.00  0.00    -0.460 OA
BRANCH  29  30
ATOM     30  C   UNL A   1      41.393  19.562  26.268  1.00  0.00     0.338 C 
ATOM     31  O   UNL A   1      41.966  18.599  25.779  1.00  0.00    -0.246 OA
BRANCH  30  32
ATOM     32  C   UNL A   1      42.090  20.843  26.483  1.00  0.00     0.060 A 
ATOM     33  C   UNL A   1      42.326  21.231  27.808  1.00  0.00     0.016 A 
ATOM     34  C   UNL A   1      42.403  21.701  25.428  1.00  0.00     0.016 A 
ATOM     35  C   UNL A   1      42.829  22.500  28.087  1.00  0.00     0.010 A 
ATOM     36  C   UNL A   1      42.901  22.981  25.710  1.00  0.00     0.010 A 
ATOM     37  C   UNL A   1      43.081  23.399  27.042  1.00  0.00    -0.014 A 
BRANCH  37  38
ATOM     38  C   UNL A   1      43.383  24.817  27.364  1.00  0.00     0.031 A 
ATOM     39  C   UNL A   1      44.764  25.351  27.094  1.00  0.00     0.074 A 
ATOM     40  C   UNL A   1      42.428  25.636  27.839  1.00  0.00     0.049 A 
ATOM     41  N   UNL A   1      45.248  26.549  27.305  1.00  0.00    -0.248 NA
ATOM     42  C   UNL A   1      45.727  24.408  26.504  1.00  0.00     0.031 C 
ATOM     43  C   UNL A   1      41.043  25.253  28.104  1.00  0.00     0.029 A 
ATOM     44  N   UNL A   1      42.483  26.964  28.185  1.00  0.00    -0.354 N 
ATOM     45  C   UNL A   1      46.565  26.506  26.866  1.00  0.00     0.074 A 
ATOM     46  C   UNL A   1      46.816  25.156  26.411  1.00  0.00     0.031 C 
ATOM     47  C   UNL A   1      40.381  26.319  28.587  1.00  0.00     0.029 A 
ATOM     48  C   UNL A   1      41.303  27.450  28.688  1.00  0.00     0.049 A 
ATOM     49  H   UNL A   1      43.293  27.515  28.081  1.00  0.00     0.167 HD
ATOM     50  C   UNL A   1      47.478  27.506  26.832  1.00  0.00     0.037 A 
ATOM     51  C   UNL A   1      41.007  28.663  29.195  1.00  0.00     0.037 A 
ATOM     52  C   UNL A   1      47.236  28.848  27.290  1.00  0.00     0.049 A 
ATOM     53  C   UNL A   1      42.063  29.739  29.213  1.00  0.00     0.074 A 
ATOM     54  C   UNL A   1      48.104  29.926  27.305  1.00  0.00     0.029 A 
ATOM     55  N   UNL A   1      46.034  29.295  27.818  1.00  0.00    -0.354 N 
ATOM     56  N   UNL A   1      43.301  29.692  28.785  1.00  0.00    -0.248 NA
ATOM     57  C   UNL A   1      41.677  31.040  29.781  1.00  0.00     0.031 C 
ATOM     58  C   UNL A   1      47.439  31.016  27.878  1.00  0.00     0.029 A 
ATOM     59  C   UNL A   1      46.144  30.629  28.177  1.00  0.00     0.049 A 
ATOM     60  H   UNL A   1      45.224  28.746  27.922  1.00  0.00     0.167 HD
ATOM     61  C   UNL A   1      43.831  30.957  29.008  1.00  0.00     0.074 A 
ATOM     62  C   UNL A   1      42.776  31.755  29.595  1.00  0.00     0.031 C 
ATOM     63  C   UNL A   1      45.081  31.414  28.751  1.00  0.00     0.037 A 
BRANCH  50  64
ATOM     64  C   UNL A   1      48.839  27.181  26.289  1.00  0.00     0.064 A 
ATOM     65  C   UNL A   1      49.122  27.282  24.918  1.00  0.00     0.173 A 
ATOM     66  C   UNL A   1      49.881  26.809  27.151  1.00  0.00     0.173 A 
ATOM     67  F   UNL A   1      48.155  27.621  24.053  1.00  0.00    -0.203 F 
ATOM     68  C   UNL A   1      50.396  27.005  24.429  1.00  0.00     0.198 A 
ATOM     69  C   UNL A   1      51.159  26.558  26.661  1.00  0.00     0.198 A 
ATOM     70  F   UNL A   1      49.662  26.703  28.470  1.00  0.00    -0.203 F 
ATOM     71  F   UNL A   1      50.635  27.072  23.112  1.00  0.00    -0.200 F 
ATOM     72  C   UNL A   1      51.415  26.650  25.301  1.00  0.00     0.200 A 
ATOM     73  F   UNL A   1      52.146  26.227  27.506  1.00  0.00    -0.200 F 
ATOM     74  F   UNL A   1      52.642  26.393  24.829  1.00  0.00    -0.200 F 
ENDBRANCH  50  64
BRANCH  51  75
ATOM     75  C   UNL A   1      39.655  28.925  29.753  1.00  0.00     0.064 A 
ATOM     76  C   UNL A   1      38.644  29.506  28.974  1.00  0.00     0.173 A 
ATOM     77  C   UNL A   1      39.357  28.627  31.091  1.00  0.00     0.173 A 
ATOM     78  F   UNL A   1      38.889  29.835  27.697  1.00  0.00    -0.203 F 
ATOM     79  C   UNL A   1      37.396  29.799  29.519  1.00  0.00     0.198 A 
ATOM     80  C   UNL A   1      38.099  28.893  31.627  1.00  0.00     0.198 A 
ATOM     81  F   UNL A   1      40.290  28.074  31.879  1.00  0.00    -0.203 F 
ATOM     82  F   UNL A   1      36.465  30.401  28.767  1.00  0.00    -0.200 F 
ATOM     83  C   UNL A   1      37.122  29.487  30.842  1.00  0.00     0.200 A 
ATOM     84  F   UNL A   1      37.836  28.582  32.903  1.00  0.00    -0.200 F 
ATOM     85  F   UNL A   1      35.921  29.770  31.365  1.00  0.00    -0.200 F 
ENDBRANCH  51  75
BRANCH  63  86
ATOM     86  C   UNL A   1      45.370  32.852  29.070  1.00  0.00     0.064 A 
ATOM     87  C   UNL A   1      45.098  33.878  28.154  1.00  0.00     0.173 A 
ATOM     88  C   UNL A   1      45.884  33.212  30.326  1.00  0.00     0.173 A 
ATOM     89  F   UNL A   1      44.619  33.585  26.936  1.00  0.00    -0.203 F 
ATOM     90  C   UNL A   1      45.352  35.210  28.474  1.00  0.00     0.198 A 
ATOM     91  C   UNL A   1      46.111  34.545  30.653  1.00  0.00     0.198 A 
ATOM     92  F   UNL A   1      46.154  32.269  31.241  1.00  0.00    -0.203 F 
ATOM     93  F   UNL A   1      45.126  36.170  27.567  1.00  0.00    -0.200 F 
ATOM     94  C   UNL A   1      45.852  35.543  29.724  1.00  0.00     0.200 A 
ATOM     95  F   UNL A   1      46.582  34.866  31.865  1.00  0.00    -0.200 F 
ATOM     96  F   UNL A   1      46.090  36.825  30.033  1.00  0.00    -0.200 F 
ENDBRANCH  63  86
ENDBRANCH  37  38
ENDBRANCH  30  32
ENDBRANCH  29  30
ENDBRANCH  28  29
ENDBRANCH  27  28
ENDBRANCH  26  27
ENDBRANCH   1  26
TORSDOF 19
ENDMDL
MODEL 3
REMARK VINA RESULT:     -11.0      1.192      2.547
REMARK SMILES Cc1ccc(N[C@H](CC(=O)c2ccccc2)C(=O)OCCOCCOC(=O)c2ccc(-c3c4nc(c(-c5c(F)c(F)c(F)c(F)c5F)c5ccc([nH]5)c(-c5c(F)c(F)c(F)c(F)c5F)c5nc(c(-c6c(F)c(F)c(F)c(F)c6F)c6ccc3[nH]6)C=C5)C=C4)cc2)cc1Cl
REMARK SMILES IDX 21 1 20 2 19 3 17 4 18 5 7 6 6 7 5 9 1 10 2 11 3 12 92 13
REMARK SMILES IDX 4 14 91 15 93 16 8 17 9 18 10 19 11 20 12 21 16 22 13 23
REMARK SMILES IDX 15 24 14 25 22 26 23 27 24 28 25 29 26 30 27 31 28 32 29 33
REMARK SMILES IDX 90 34 30 35 89 36 31 37 32 38 33 39 83 40 34 41 88 42 82 43
REMARK SMILES IDX 84 44 35 45 87 46 81 47 80 48 36 50 68 51 48 52 67 53 49 54
REMARK SMILES IDX 52 55 66 56 85 57 50 58 51 59 65 61 86 62 53 63 37 64 38 65
REMARK SMILES IDX 46 66 39 67 40 68 44 69 47 70 41 71 42 72 45 73 43 74 69 75
REMARK SMILES IDX 70 76 78 77 71 78 72 79 76 80 79 81 73 82 74 83 77 84 75 85
REMARK SMILES IDX 54 86 55 87 63 88 56 89 57 90 61 91 64 92 58 93 59 94 62 95
REMARK SMILES IDX 60 96
REMARK H PARENT 6 8 84 49 52 60
REMARK Flexibility Score: inf
ROOT
ATOM      1  C   UNL A   1      36.795  20.717  24.918  1.00  0.00     0.202 C 
ENDROOT
BRANCH   1   2
ATOM      2  C   UNL A   1      35.370  21.277  24.920  1.00  0.00     0.261 C 
BRANCH   2   3
ATOM      3  O   UNL A   1      35.359  22.716  24.845  1.00  0.00    -0.462 OA
BRANCH   3   4
ATOM      4  C   UNL A   1      35.299  23.248  23.592  1.00  0.00     0.329 C 
ATOM      5  O   UNL A   1      36.075  22.983  22.679  1.00  0.00    -0.250 OA
BRANCH   4   6
ATOM      6  C   UNL A   1      34.217  24.345  23.458  1.00  0.00     0.197 C 
BRANCH   6   7
ATOM      7  N   UNL A   1      33.454  24.353  24.727  1.00  0.00    -0.372 N 
ATOM      8  H   UNL A   1      33.232  23.479  25.123  1.00  0.00     0.161 HD
BRANCH   7   9
ATOM      9  C   UNL A   1      33.025  25.479  25.407  1.00  0.00     0.036 A 
ATOM     10  C   UNL A   1      31.548  28.924  27.603  1.00  0.00     0.046 C 
ATOM     11  C   UNL A   1      32.072  27.757  26.817  1.00  0.00    -0.032 A 
ATOM     12  C   UNL A   1      31.200  26.731  26.436  1.00  0.00     0.007 A 
ATOM     13  C   UNL A   1      33.425  27.627  26.489  1.00  0.00     0.046 A 
ATOM     14  C   UNL A   1      31.674  25.609  25.745  1.00  0.00     0.026 A 
ATOM     15  C   UNL A   1      33.885  26.510  25.782  1.00  0.00     0.046 A 
ATOM     16  Cl  UNL A   1      34.593  28.820  26.943  1.00  0.00    -0.084 Cl
ENDBRANCH   7   9
ENDBRANCH   6   7
BRANCH   6  17
ATOM     17  C   UNL A   1      33.413  24.193  22.168  1.00  0.00     0.118 C 
BRANCH  17  18
ATOM     18  C   UNL A   1      33.037  25.454  21.394  1.00  0.00     0.165 C 
ATOM     19  O   UNL A   1      33.009  25.440  20.162  1.00  0.00    -0.294 OA
BRANCH  18  20
ATOM     20  C   UNL A   1      32.547  26.679  22.067  1.00  0.00     0.018 A 
ATOM     21  C   UNL A   1      31.174  26.795  22.313  1.00  0.00     0.012 A 
ATOM     22  C   UNL A   1      33.399  27.743  22.376  1.00  0.00     0.012 A 
ATOM     23  C   UNL A   1      30.673  27.933  22.949  1.00  0.00     0.001 A 
ATOM     24  C   UNL A   1      32.897  28.870  23.029  1.00  0.00     0.001 A 
ATOM     25  C   UNL A   1      31.538  28.961  23.325  1.00  0.00     0.000 A 
ENDBRANCH  18  20
ENDBRANCH  17  18
ENDBRANCH   6  17
ENDBRANCH   4   6
ENDBRANCH   3   4
ENDBRANCH   2   3
ENDBRANCH   1   2
BRANCH   1  26
ATOM     26  O   UNL A   1      36.922  19.297  24.929  1.00  0.00    -0.374 OA
BRANCH  26  27
ATOM     27  C   UNL A   1      38.164  18.743  25.357  1.00  0.00     0.202 C 
BRANCH  27  28
ATOM     28  C   UNL A   1      39.376  19.688  25.370  1.00  0.00     0.261 C 
BRANCH  28  29
ATOM     29  O   UNL A   1      39.662  20.223  26.676  1.00  0.00    -0.460 OA
BRANCH  29  30
ATOM     30  C   UNL A   1      40.969  20.507  26.893  1.00  0.00     0.338 C 
ATOM     31  O   UNL A   1      41.938  19.813  26.616  1.00  0.00    -0.246 OA
BRANCH  30  32
ATOM     32  C   UNL A   1      41.129  21.890  27.379  1.00  0.00     0.060 A 
ATOM     33  C   UNL A   1      40.513  22.906  26.638  1.00  0.00     0.016 A 
ATOM     34  C   UNL A   1      41.953  22.203  28.462  1.00  0.00     0.016 A 
ATOM     35  C   UNL A   1      40.758  24.243  26.944  1.00  0.00     0.010 A 
ATOM     36  C   UNL A   1      42.206  23.548  28.763  1.00  0.00     0.010 A 
ATOM     37  C   UNL A   1      41.640  24.573  27.983  1.00  0.00    -0.014 A 
BRANCH  37  38
ATOM     38  C   UNL A   1      42.076  25.984  28.139  1.00  0.00     0.031 A 
ATOM     39  C   UNL A   1      43.409  26.403  27.581  1.00  0.00     0.074 A 
ATOM     40  C   UNL A   1      41.276  26.895  28.721  1.00  0.00     0.049 A 
ATOM     41  N   UNL A   1      43.991  27.576  27.610  1.00  0.00    -0.248 NA
ATOM     42  C   UNL A   1      44.189  25.362  26.893  1.00  0.00     0.031 C 
ATOM     43  C   UNL A   1      39.947  26.625  29.264  1.00  0.00     0.029 A 
ATOM     44  N   UNL A   1      41.470  28.234  28.952  1.00  0.00    -0.354 N 
ATOM     45  C   UNL A   1      45.197  27.416  26.939  1.00  0.00     0.074 A 
ATOM     46  C   UNL A   1      45.282  26.026  26.546  1.00  0.00     0.031 C 
ATOM     47  C   UNL A   1      39.448  27.761  29.781  1.00  0.00     0.029 A 
ATOM     48  C   UNL A   1      40.435  28.831  29.628  1.00  0.00     0.049 A 
ATOM     49  H   UNL A   1      42.275  28.721  28.660  1.00  0.00     0.167 HD
ATOM     50  C   UNL A   1      46.142  28.346  26.664  1.00  0.00     0.037 A 
ATOM     51  C   UNL A   1      40.309  30.090  30.090  1.00  0.00     0.037 A 
ATOM     52  C   UNL A   1      46.066  29.728  27.060  1.00  0.00     0.049 A 
ATOM     53  C   UNL A   1      41.408  31.089  29.834  1.00  0.00     0.074 A 
ATOM     54  C   UNL A   1      46.980  30.742  26.835  1.00  0.00     0.029 A 
ATOM     55  N   UNL A   1      45.013  30.288  27.766  1.00  0.00    -0.354 N 
ATOM     56  N   UNL A   1      42.538  30.931  29.189  1.00  0.00    -0.248 NA
ATOM     57  C   UNL A   1      41.210  32.446  30.366  1.00  0.00     0.031 C 
ATOM     58  C   UNL A   1      46.498  31.908  27.439  1.00  0.00     0.029 A 
ATOM     59  C   UNL A   1      45.263  31.631  28.000  1.00  0.00     0.049 A 
ATOM     60  H   UNL A   1      44.207  29.804  28.058  1.00  0.00     0.167 HD
ATOM     61  C   UNL A   1      43.171  32.168  29.217  1.00  0.00     0.074 A 
ATOM     62  C   UNL A   1      42.292  33.071  29.928  1.00  0.00     0.031 C 
ATOM     63  C   UNL A   1      44.374  32.521  28.701  1.00  0.00     0.037 A 
BRANCH  50  64
ATOM     64  C   UNL A   1      47.355  27.896  25.905  1.00  0.00     0.064 A 
ATOM     65  C   UNL A   1      48.544  27.552  26.565  1.00  0.00     0.173 A 
ATOM     66  C   UNL A   1      47.315  27.764  24.509  1.00  0.00     0.173 A 
ATOM     67  F   UNL A   1      48.637  27.674  27.897  1.00  0.00    -0.203 F 
ATOM     68  C   UNL A   1      49.656  27.109  25.852  1.00  0.00     0.198 A 
ATOM     69  C   UNL A   1      48.419  27.296  23.803  1.00  0.00     0.198 A 
ATOM     70  F   UNL A   1      46.199  28.076  23.833  1.00  0.00    -0.203 F 
ATOM     71  F   UNL A   1      50.793  26.821  26.499  1.00  0.00    -0.200 F 
ATOM     72  C   UNL A   1      49.590  26.975  24.473  1.00  0.00     0.200 A 
ATOM     73  F   UNL A   1      48.350  27.156  22.471  1.00  0.00    -0.200 F 
ATOM     74  F   UNL A   1      50.657  26.540  23.790  1.00  0.00    -0.200 F 
ENDBRANCH  50  64
BRANCH  51  75
ATOM     75  C   UNL A   1      39.103  30.478  30.867  1.00  0.00     0.064 A 
ATOM     76  C   UNL A   1      37.978  31.031  30.240  1.00  0.00     0.173 A 
ATOM     77  C   UNL A   1      39.067  30.332  32.262  1.00  0.00     0.173 A 
ATOM     78  F   UNL A   1      37.976  31.217  28.912  1.00  0.00    -0.203 F 
ATOM     79  C   UNL A   1      36.872  31.443  30.981  1.00  0.00     0.198 A 
ATOM     80  C   UNL A   1      37.949  30.717  32.999  1.00  0.00     0.198 A 
ATOM     81  F   UNL A   1      40.119  29.812  32.910  1.00  0.00    -0.203 F 
ATOM     82  F   UNL A   1      35.830  32.016  30.362  1.00  0.00    -0.200 F 
ATOM     83  C   UNL A   1      36.856  31.280  32.358  1.00  0.00     0.200 A 
ATOM     84  F   UNL A   1      37.934  30.550  34.328  1.00  0.00    -0.200 F 
ATOM     85  F   UNL A   1      35.793  31.678  33.070  1.00  0.00    -0.200 F 
ENDBRANCH  51  75
BRANCH  63  86
ATOM     86  C   UNL A   1      44.798  33.953  28.855  1.00  0.00     0.064 A 
ATOM     87  C   UNL A   1      45.580  34.376  29.939  1.00  0.00     0.173 A 
ATOM     88  C   UNL A   1      44.454  34.905  27.882  1.00  0.00     0.173 A 
ATOM     89  F   UNL A   1      45.923  33.508  30.903  1.00  0.00    -0.203 F 
ATOM     90  C   UNL A   1      45.983  35.704  30.057  1.00  0.00     0.198 A 
ATOM     91  C   UNL A   1      44.881  36.225  27.988  1.00  0.00     0.198 A 
ATOM     92  F   UNL A   1      43.713  34.550  26.821  1.00  0.00    -0.203 F 
ATOM     93  F   UNL A   1      46.693  36.096  31.123  1.00  0.00    -0.200 F 
ATOM     94  C   UNL A   1      45.638  36.625  29.079  1.00  0.00     0.200 A 
ATOM     95  F   UNL A   1      44.558  37.111  27.036  1.00  0.00    -0.200 F 
ATOM     96  F   UNL A   1      46.033  37.902  29.189  1.00  0.00    -0.200 F 
ENDBRANCH  63  86
ENDBRANCH  37  38
ENDBRANCH  30  32
ENDBRANCH  29  30
ENDBRANCH  28  29
ENDBRANCH  27  28
ENDBRANCH  26  27
ENDBRANCH   1  26
TORSDOF 19
ENDMDL
