MODEL 1
REMARK VINA RESULT:     -11.9      0.000      0.000
REMARK SMILES Cc1c(Cl)ccc2c1C=C(C(=O)OCCOCCOC(=O)c1ccc(-c3c4nc(c(-c5c(F)c(F)c(F)c(F)c5F)c5ccc([nH]5)c(-c5c(F)c(F)c(F)c(F)c5F)c5nc(c(-c6c(F)c(F)c(F)c(F)c6F)c6ccc3[nH]6)C=C5)C=C4)cc1)[C@@H](C(F)(F)F)O2
REMARK SMILES IDX 17 1 16 2 15 3 14 4 13 5 11 6 12 7 10 8 1 9 2 10 3 11 8 12
REMARK SMILES IDX 4 13 5 14 7 15 9 16 6 17 90 18 85 19 86 20 87 21 88 22 89 23
REMARK SMILES IDX 18 24 19 25 20 26 21 27 22 28 23 29 84 30 24 31 83 32 25 33
REMARK SMILES IDX 26 34 27 35 77 36 28 37 82 38 76 39 78 40 29 41 81 42 75 43
REMARK SMILES IDX 74 44 30 46 62 47 42 48 61 49 43 50 46 51 60 52 79 53 44 54
REMARK SMILES IDX 45 55 59 57 80 58 47 59 31 60 32 61 40 62 33 63 34 64 38 65
REMARK SMILES IDX 41 66 35 67 36 68 39 69 37 70 63 71 64 72 72 73 65 74 66 75
REMARK SMILES IDX 70 76 73 77 67 78 68 79 71 80 69 81 48 82 49 83 57 84 50 85
REMARK SMILES IDX 51 86 55 87 58 88 52 89 53 90 56 91 54 92
REMARK H PARENT 78 45 46 56
REMARK Flexibility Score: inf
ROOT
ATOM      1  C   UNL A   1      32.571  29.011  24.994  1.00  0.00     0.202 C 
ENDROOT
BRANCH   1   2
ATOM      2  O   UNL A   1      33.357  29.333  23.844  1.00  0.00    -0.374 OA
BRANCH   2   3
ATOM      3  C   UNL A   1      33.713  28.270  22.966  1.00  0.00     0.202 C 
BRANCH   3   4
ATOM      4  C   UNL A   1      33.125  26.896  23.294  1.00  0.00     0.261 C 
BRANCH   4   5
ATOM      5  O   UNL A   1      33.998  26.138  24.147  1.00  0.00    -0.460 OA
BRANCH   5   6
ATOM      6  C   UNL A   1      33.361  25.296  24.995  1.00  0.00     0.338 C 
ATOM      7  O   UNL A   1      32.304  25.498  25.573  1.00  0.00    -0.246 OA
BRANCH   6   8
ATOM      8  C   UNL A   1      34.070  24.005  25.046  1.00  0.00     0.087 C 
ATOM      9  C   UNL A   1      38.110  24.077  26.497  1.00  0.00     0.047 C 
ATOM     10  C   UNL A   1      37.502  22.845  25.870  1.00  0.00    -0.021 A 
ATOM     11  C   UNL A   1      38.249  21.665  25.685  1.00  0.00     0.044 A 
ATOM     12  C   UNL A   1      36.141  22.847  25.469  1.00  0.00     0.022 A 
ATOM     13  Cl  UNL A   1      39.928  21.553  26.086  1.00  0.00    -0.084 Cl
ATOM     14  C   UNL A   1      37.657  20.519  25.148  1.00  0.00     0.024 A 
ATOM     15  C   UNL A   1      35.551  21.677  24.969  1.00  0.00     0.128 A 
ATOM     16  C   UNL A   1      35.329  24.058  25.499  1.00  0.00     0.027 C 
ATOM     17  C   UNL A   1      36.308  20.519  24.811  1.00  0.00     0.048 A 
ATOM     18  O   UNL A   1      34.237  21.564  24.613  1.00  0.00    -0.475 OA
ATOM     19  C   UNL A   1      33.396  22.748  24.585  1.00  0.00     0.316 C 
BRANCH  19  20
ATOM     20  C   UNL A   1      32.796  22.874  23.177  1.00  0.00     0.430 C 
ATOM     21  F   UNL A   1      33.616  23.576  22.357  1.00  0.00    -0.167 F 
ATOM     22  F   UNL A   1      32.617  21.664  22.595  1.00  0.00    -0.167 F 
ATOM     23  F   UNL A   1      31.598  23.501  23.186  1.00  0.00    -0.167 F 
ENDBRANCH  19  20
ENDBRANCH   6   8
ENDBRANCH   5   6
ENDBRANCH   4   5
ENDBRANCH   3   4
ENDBRANCH   2   3
ENDBRANCH   1   2
BRANCH   1  24
ATOM     24  C   UNL A   1      31.997  30.191  25.787  1.00  0.00     0.261 C 
BRANCH  24  25
ATOM     25  O   UNL A   1      32.602  30.297  27.091  1.00  0.00    -0.460 OA
BRANCH  25  26
ATOM     26  C   UNL A   1      33.331  31.417  27.292  1.00  0.00     0.338 C 
ATOM     27  O   UNL A   1      32.943  32.578  27.267  1.00  0.00    -0.246 OA
BRANCH  26  28
ATOM     28  C   UNL A   1      34.690  31.061  27.727  1.00  0.00     0.060 A 
ATOM     29  C   UNL A   1      34.959  29.715  28.003  1.00  0.00     0.016 A 
ATOM     30  C   UNL A   1      35.639  32.050  27.993  1.00  0.00     0.016 A 
ATOM     31  C   UNL A   1      36.167  29.355  28.595  1.00  0.00     0.010 A 
ATOM     32  C   UNL A   1      36.843  31.689  28.606  1.00  0.00     0.010 A 
ATOM     33  C   UNL A   1      37.091  30.348  28.946  1.00  0.00    -0.014 A 
BRANCH  33  34
ATOM     34  C   UNL A   1      38.219  30.001  29.840  1.00  0.00     0.031 A 
ATOM     35  C   UNL A   1      39.280  29.065  29.332  1.00  0.00     0.074 A 
ATOM     36  C   UNL A   1      38.319  30.539  31.068  1.00  0.00     0.049 A 
ATOM     37  N   UNL A   1      40.347  28.611  29.937  1.00  0.00    -0.248 NA
ATOM     38  C   UNL A   1      39.118  28.580  27.951  1.00  0.00     0.031 C 
ATOM     39  C   UNL A   1      37.383  31.499  31.646  1.00  0.00     0.029 A 
ATOM     40  N   UNL A   1      39.260  30.348  32.047  1.00  0.00    -0.354 N 
ATOM     41  C   UNL A   1      40.989  27.801  29.009  1.00  0.00     0.074 A 
ATOM     42  C   UNL A   1      40.176  27.795  27.812  1.00  0.00     0.031 C 
ATOM     43  C   UNL A   1      37.793  31.811  32.887  1.00  0.00     0.029 A 
ATOM     44  C   UNL A   1      39.003  31.051  33.198  1.00  0.00     0.049 A 
ATOM     45  H   UNL A   1      40.044  29.764  31.936  1.00  0.00     0.167 HD
ATOM     46  C   UNL A   1      42.157  27.132  29.142  1.00  0.00     0.037 A 
ATOM     47  C   UNL A   1      39.665  31.063  34.371  1.00  0.00     0.037 A 
ATOM     48  C   UNL A   1      42.955  27.126  30.337  1.00  0.00     0.049 A 
ATOM     49  C   UNL A   1      40.906  30.223  34.529  1.00  0.00     0.074 A 
ATOM     50  C   UNL A   1      44.155  26.476  30.570  1.00  0.00     0.029 A 
ATOM     51  N   UNL A   1      42.627  27.797  31.506  1.00  0.00    -0.354 N 
ATOM     52  N   UNL A   1      41.513  29.469  33.646  1.00  0.00    -0.248 NA
ATOM     53  C   UNL A   1      41.551  30.234  35.851  1.00  0.00     0.031 C 
ATOM     54  C   UNL A   1      44.530  26.717  31.896  1.00  0.00     0.029 A 
ATOM     55  C   UNL A   1      43.588  27.554  32.474  1.00  0.00     0.049 A 
ATOM     56  H   UNL A   1      41.830  28.361  31.629  1.00  0.00     0.167 HD
ATOM     57  C   UNL A   1      42.619  28.934  34.293  1.00  0.00     0.074 A 
ATOM     58  C   UNL A   1      42.607  29.458  35.644  1.00  0.00     0.031 C 
ATOM     59  C   UNL A   1      43.560  28.086  33.812  1.00  0.00     0.037 A 
BRANCH  46  60
ATOM     60  C   UNL A   1      42.640  26.338  27.965  1.00  0.00     0.064 A 
ATOM     61  C   UNL A   1      43.470  26.911  26.990  1.00  0.00     0.173 A 
ATOM     62  C   UNL A   1      42.312  24.981  27.837  1.00  0.00     0.173 A 
ATOM     63  F   UNL A   1      43.798  28.209  27.060  1.00  0.00    -0.203 F 
ATOM     64  C   UNL A   1      43.944  26.154  25.922  1.00  0.00     0.198 A 
ATOM     65  C   UNL A   1      42.807  24.222  26.781  1.00  0.00     0.198 A 
ATOM     66  F   UNL A   1      41.522  24.389  28.745  1.00  0.00    -0.203 F 
ATOM     67  F   UNL A   1      44.711  26.728  24.984  1.00  0.00    -0.200 F 
ATOM     68  C   UNL A   1      43.620  24.809  25.823  1.00  0.00     0.200 A 
ATOM     69  F   UNL A   1      42.501  22.921  26.692  1.00  0.00    -0.200 F 
ATOM     70  F   UNL A   1      44.087  24.080  24.800  1.00  0.00    -0.200 F 
ENDBRANCH  46  60
BRANCH  47  71
ATOM     71  C   UNL A   1      39.165  31.900  35.491  1.00  0.00     0.064 A 
ATOM     72  C   UNL A   1      38.327  31.360  36.475  1.00  0.00     0.173 A 
ATOM     73  C   UNL A   1      39.517  33.254  35.602  1.00  0.00     0.173 A 
ATOM     74  F   UNL A   1      37.942  30.078  36.397  1.00  0.00    -0.203 F 
ATOM     75  C   UNL A   1      37.854  32.144  37.526  1.00  0.00     0.198 A 
ATOM     76  C   UNL A   1      39.062  34.031  36.665  1.00  0.00     0.198 A 
ATOM     77  F   UNL A   1      40.312  33.818  34.681  1.00  0.00    -0.203 F 
ATOM     78  F   UNL A   1      37.027  31.613  38.437  1.00  0.00    -0.200 F 
ATOM     79  C   UNL A   1      38.228  33.477  37.624  1.00  0.00     0.200 A 
ATOM     80  F   UNL A   1      39.433  35.315  36.759  1.00  0.00    -0.200 F 
ATOM     81  F   UNL A   1      37.778  34.228  38.637  1.00  0.00    -0.200 F 
ENDBRANCH  47  71
BRANCH  59  82
ATOM     82  C   UNL A   1      44.668  27.676  34.738  1.00  0.00     0.064 A 
ATOM     83  C   UNL A   1      45.826  28.454  34.877  1.00  0.00     0.173 A 
ATOM     84  C   UNL A   1      44.533  26.542  35.552  1.00  0.00     0.173 A 
ATOM     85  F   UNL A   1      46.006  29.541  34.111  1.00  0.00    -0.203 F 
ATOM     86  C   UNL A   1      46.816  28.103  35.791  1.00  0.00     0.198 A 
ATOM     87  C   UNL A   1      45.512  26.209  36.483  1.00  0.00     0.198 A 
ATOM     88  F   UNL A   1      43.439  25.771  35.462  1.00  0.00    -0.203 F 
ATOM     89  F   UNL A   1      47.928  28.845  35.889  1.00  0.00    -0.200 F 
ATOM     90  C   UNL A   1      46.653  26.988  36.601  1.00  0.00     0.200 A 
ATOM     91  F   UNL A   1      45.347  25.141  37.275  1.00  0.00    -0.200 F 
ATOM     92  F   UNL A   1      47.599  26.664  37.494  1.00  0.00    -0.200 F 
ENDBRANCH  59  82
ENDBRANCH  33  34
ENDBRANCH  26  28
ENDBRANCH  25  26
ENDBRANCH  24  25
ENDBRANCH   1  24
TORSDOF 15
ENDMDL
MODEL 2
REMARK VINA RESULT:     -11.9      0.630      1.789
REMARK SMILES Cc1c(Cl)ccc2c1C=C(C(=O)OCCOCCOC(=O)c1ccc(-c3c4nc(c(-c5c(F)c(F)c(F)c(F)c5F)c5ccc([nH]5)c(-c5c(F)c(F)c(F)c(F)c5F)c5nc(c(-c6c(F)c(F)c(F)c(F)c6F)c6ccc3[nH]6)C=C5)C=C4)cc1)[C@@H](C(F)(F)F)O2
REMARK SMILES IDX 17 1 16 2 15 3 14 4 13 5 11 6 12 7 10 8 1 9 2 10 3 11 8 12
REMARK SMILES IDX 4 13 5 14 7 15 9 16 6 17 90 18 85 19 86 20 87 21 88 22 89 23
REMARK SMILES IDX 18 24 19 25 20 26 21 27 22 28 23 29 84 30 24 31 83 32 25 33
REMARK SMILES IDX 26 34 27 35 77 36 28 37 82 38 76 39 78 40 29 41 81 42 75 43
REMARK SMILES IDX 74 44 30 46 62 47 42 48 61 49 43 50 46 51 60 52 79 53 44 54
REMARK SMILES IDX 45 55 59 57 80 58 47 59 31 60 32 61 40 62 33 63 34 64 38 65
REMARK SMILES IDX 41 66 35 67 36 68 39 69 37 70 63 71 64 72 72 73 65 74 66 75
REMARK SMILES IDX 70 76 73 77 67 78 68 79 71 80 69 81 48 82 49 83 57 84 50 85
REMARK SMILES IDX 51 86 55 87 58 88 52 89 53 90 56 91 54 92
REMARK H PARENT 78 45 46 56
REMARK Flexibility Score: inf
ROOT
ATOM      1  C   UNL A   1      31.726  29.429  25.377  1.00  0.00     0.202 C 
ENDROOT
BRANCH   1   2
ATOM      2  O   UNL A   1      32.337  28.393  26.150  1.00  0.00    -0.374 OA
BRANCH   2   3
ATOM      3  C   UNL A   1      31.523  27.292  26.542  1.00  0.00     0.202 C 
BRANCH   3   4
ATOM      4  C   UNL A   1      32.159  25.905  26.426  1.00  0.00     0.261 C 
BRANCH   4   5
ATOM      5  O   UNL A   1      32.156  25.434  25.069  1.00  0.00    -0.460 OA
BRANCH   5   6
ATOM      6  C   UNL A   1      33.369  25.438  24.470  1.00  0.00     0.338 C 
ATOM      7  O   UNL A   1      33.925  26.392  23.946  1.00  0.00    -0.246 OA
BRANCH   6   8
ATOM      8  C   UNL A   1      34.017  24.125  24.638  1.00  0.00     0.087 C 
ATOM      9  C   UNL A   1      37.992  24.127  26.261  1.00  0.00     0.047 C 
ATOM     10  C   UNL A   1      37.357  22.882  25.690  1.00  0.00    -0.021 A 
ATOM     11  C   UNL A   1      38.058  21.662  25.616  1.00  0.00     0.044 A 
ATOM     12  C   UNL A   1      36.015  22.913  25.229  1.00  0.00     0.022 A 
ATOM     13  Cl  UNL A   1      39.712  21.508  26.098  1.00  0.00    -0.084 Cl
ATOM     14  C   UNL A   1      37.438  20.508  25.130  1.00  0.00     0.024 A 
ATOM     15  C   UNL A   1      35.395  21.738  24.781  1.00  0.00     0.128 A 
ATOM     16  C   UNL A   1      35.257  24.157  25.142  1.00  0.00     0.027 C 
ATOM     17  C   UNL A   1      36.106  20.541  24.733  1.00  0.00     0.048 A 
ATOM     18  O   UNL A   1      34.093  21.656  24.375  1.00  0.00    -0.475 OA
ATOM     19  C   UNL A   1      33.307  22.869  24.231  1.00  0.00     0.316 C 
BRANCH  19  20
ATOM     20  C   UNL A   1      32.773  22.925  22.792  1.00  0.00     0.430 C 
ATOM     21  F   UNL A   1      33.625  23.597  21.980  1.00  0.00    -0.167 F 
ATOM     22  F   UNL A   1      32.632  21.688  22.259  1.00  0.00    -0.167 F 
ATOM     23  F   UNL A   1      31.572  23.539  22.717  1.00  0.00    -0.167 F 
ENDBRANCH  19  20
ENDBRANCH   6   8
ENDBRANCH   5   6
ENDBRANCH   4   5
ENDBRANCH   3   4
ENDBRANCH   2   3
ENDBRANCH   1   2
BRANCH   1  24
ATOM     24  C   UNL A   1      31.713  30.832  25.995  1.00  0.00     0.261 C 
BRANCH  24  25
ATOM     25  O   UNL A   1      32.428  30.867  27.246  1.00  0.00    -0.460 OA
BRANCH  25  26
ATOM     26  C   UNL A   1      33.214  31.952  27.424  1.00  0.00     0.338 C 
ATOM     27  O   UNL A   1      32.879  33.130  27.410  1.00  0.00    -0.246 OA
BRANCH  26  28
ATOM     28  C   UNL A   1      34.567  31.534  27.816  1.00  0.00     0.060 A 
ATOM     29  C   UNL A   1      34.779  30.179  28.101  1.00  0.00     0.016 A 
ATOM     30  C   UNL A   1      35.573  32.477  28.037  1.00  0.00     0.016 A 
ATOM     31  C   UNL A   1      35.988  29.766  28.655  1.00  0.00     0.010 A 
ATOM     32  C   UNL A   1      36.778  32.063  28.613  1.00  0.00     0.010 A 
ATOM     33  C   UNL A   1      36.972  30.715  28.961  1.00  0.00    -0.014 A 
BRANCH  33  34
ATOM     34  C   UNL A   1      38.112  30.323  29.821  1.00  0.00     0.031 A 
ATOM     35  C   UNL A   1      39.154  29.398  29.256  1.00  0.00     0.074 A 
ATOM     36  C   UNL A   1      38.238  30.810  31.066  1.00  0.00     0.049 A 
ATOM     37  N   UNL A   1      40.227  28.911  29.824  1.00  0.00    -0.248 NA
ATOM     38  C   UNL A   1      38.963  28.970  27.860  1.00  0.00     0.031 C 
ATOM     39  C   UNL A   1      37.322  31.755  31.699  1.00  0.00     0.029 A 
ATOM     40  N   UNL A   1      39.195  30.572  32.020  1.00  0.00    -0.354 N 
ATOM     41  C   UNL A   1      40.845  28.132  28.853  1.00  0.00     0.074 A 
ATOM     42  C   UNL A   1      40.010  28.182  27.672  1.00  0.00     0.031 C 
ATOM     43  C   UNL A   1      37.758  32.013  32.944  1.00  0.00     0.029 A 
ATOM     44  C   UNL A   1      38.966  31.231  33.202  1.00  0.00     0.049 A 
ATOM     45  H   UNL A   1      39.971  29.986  31.872  1.00  0.00     0.167 HD
ATOM     46  C   UNL A   1      42.008  27.448  28.938  1.00  0.00     0.037 A 
ATOM     47  C   UNL A   1      39.648  31.190  34.363  1.00  0.00     0.037 A 
ATOM     48  C   UNL A   1      42.827  27.387  30.118  1.00  0.00     0.049 A 
ATOM     49  C   UNL A   1      40.883  30.333  34.466  1.00  0.00     0.074 A 
ATOM     50  C   UNL A   1      44.024  26.717  30.303  1.00  0.00     0.029 A 
ATOM     51  N   UNL A   1      42.527  28.014  31.317  1.00  0.00    -0.354 N 
ATOM     52  N   UNL A   1      41.467  29.609  33.542  1.00  0.00    -0.248 NA
ATOM     53  C   UNL A   1      41.552  30.285  35.774  1.00  0.00     0.031 C 
ATOM     54  C   UNL A   1      44.425  26.902  31.630  1.00  0.00     0.029 A 
ATOM     55  C   UNL A   1      43.502  27.723  32.258  1.00  0.00     0.049 A 
ATOM     56  H   UNL A   1      41.737  28.579  31.478  1.00  0.00     0.167 HD
ATOM     57  C   UNL A   1      42.579  29.039  34.147  1.00  0.00     0.074 A 
ATOM     58  C   UNL A   1      42.596  29.509  35.518  1.00  0.00     0.031 C 
ATOM     59  C   UNL A   1      43.502  28.202  33.617  1.00  0.00     0.037 A 
BRANCH  46  60
ATOM     60  C   UNL A   1      42.462  26.697  27.722  1.00  0.00     0.064 A 
ATOM     61  C   UNL A   1      43.334  27.279  26.789  1.00  0.00     0.173 A 
ATOM     62  C   UNL A   1      42.063  25.370  27.513  1.00  0.00     0.173 A 
ATOM     63  F   UNL A   1      43.732  28.550  26.937  1.00  0.00    -0.203 F 
ATOM     64  C   UNL A   1      43.780  26.558  25.684  1.00  0.00     0.198 A 
ATOM     65  C   UNL A   1      42.529  24.645  26.420  1.00  0.00     0.198 A 
ATOM     66  F   UNL A   1      41.231  24.770  28.378  1.00  0.00    -0.203 F 
ATOM     67  F   UNL A   1      44.589  27.142  24.788  1.00  0.00    -0.200 F 
ATOM     68  C   UNL A   1      43.386  25.241  25.504  1.00  0.00     0.200 A 
ATOM     69  F   UNL A   1      42.155  23.370  26.253  1.00  0.00    -0.200 F 
ATOM     70  F   UNL A   1      43.825  24.547  24.447  1.00  0.00    -0.200 F 
ENDBRANCH  46  60
BRANCH  47  71
ATOM     71  C   UNL A   1      39.176  31.986  35.524  1.00  0.00     0.064 A 
ATOM     72  C   UNL A   1      39.522  33.337  35.659  1.00  0.00     0.173 A 
ATOM     73  C   UNL A   1      38.368  31.415  36.519  1.00  0.00     0.173 A 
ATOM     74  F   UNL A   1      40.314  33.919  34.748  1.00  0.00    -0.203 F 
ATOM     75  C   UNL A   1      39.083  34.086  36.749  1.00  0.00     0.198 A 
ATOM     76  C   UNL A   1      37.910  32.170  37.596  1.00  0.00     0.198 A 
ATOM     77  F   UNL A   1      38.015  30.123  36.437  1.00  0.00    -0.203 F 
ATOM     78  F   UNL A   1      39.454  35.368  36.873  1.00  0.00    -0.200 F 
ATOM     79  C   UNL A   1      38.271  33.504  37.713  1.00  0.00     0.200 A 
ATOM     80  F   UNL A   1      37.121  31.606  38.520  1.00  0.00    -0.200 F 
ATOM     81  F   UNL A   1      37.844  34.226  38.757  1.00  0.00    -0.200 F 
ENDBRANCH  47  71
BRANCH  59  82
ATOM     82  C   UNL A   1      44.623  27.746  34.505  1.00  0.00     0.064 A 
ATOM     83  C   UNL A   1      44.502  26.597  35.298  1.00  0.00     0.173 A 
ATOM     84  C   UNL A   1      45.855  28.417  34.497  1.00  0.00     0.173 A 
ATOM     85  F   UNL A   1      43.340  25.928  35.348  1.00  0.00    -0.203 F 
ATOM     86  C   UNL A   1      45.574  26.142  36.063  1.00  0.00     0.198 A 
ATOM     87  C   UNL A   1      46.931  27.944  35.242  1.00  0.00     0.198 A 
ATOM     88  F   UNL A   1      46.022  29.516  33.747  1.00  0.00    -0.203 F 
ATOM     89  F   UNL A   1      45.429  25.057  36.837  1.00  0.00    -0.200 F 
ATOM     90  C   UNL A   1      46.789  26.809  36.025  1.00  0.00     0.200 A 
ATOM     91  F   UNL A   1      48.110  28.581  35.194  1.00  0.00    -0.200 F 
ATOM     92  F   UNL A   1      47.825  26.358  36.748  1.00  0.00    -0.200 F 
ENDBRANCH  59  82
ENDBRANCH  33  34
ENDBRANCH  26  28
ENDBRANCH  25  26
ENDBRANCH  24  25
ENDBRANCH   1  24
TORSDOF 15
ENDMDL
MODEL 3
REMARK VINA RESULT:     -11.9      3.094      7.843
REMARK SMILES Cc1c(Cl)ccc2c1C=C(C(=O)OCCOCCOC(=O)c1ccc(-c3c4nc(c(-c5c(F)c(F)c(F)c(F)c5F)c5ccc([nH]5)c(-c5c(F)c(F)c(F)c(F)c5F)c5nc(c(-c6c(F)c(F)c(F)c(F)c6F)c6ccc3[nH]6)C=C5)C=C4)cc1)[C@@H](C(F)(F)F)O2
REMARK SMILES IDX 17 1 16 2 15 3 14 4 13 5 11 6 12 7 10 8 1 9 2 10 3 11 8 12
REMARK SMILES IDX 4 13 5 14 7 15 9 16 6 17 90 18 85 19 86 20 87 21 88 22 89 23
REMARK SMILES IDX 18 24 19 25 20 26 21 27 22 28 23 29 84 30 24 31 83 32 25 33
REMARK SMILES IDX 26 34 27 35 77 36 28 37 82 38 76 39 78 40 29 41 81 42 75 43
REMARK SMILES IDX 74 44 30 46 62 47 42 48 61 49 43 50 46 51 60 52 79 53 44 54
REMARK SMILES IDX 45 55 59 57 80 58 47 59 31 60 32 61 40 62 33 63 34 64 38 65
REMARK SMILES IDX 41 66 35 67 36 68 39 69 37 70 63 71 64 72 72 73 65 74 66 75
REMARK SMILES IDX 70 76 73 77 67 78 68 79 71 80 69 81 48 82 49 83 57 84 50 85
REMARK SMILES IDX 51 86 55 87 58 88 52 89 53 90 56 91 54 92
REMARK H PARENT 78 45 46 56
REMARK Flexibility Score: inf
ROOT
ATOM      1  C   UNL A   1      41.724  21.357  26.514  1.00  0.00     0.202 C 
ENDROOT
BRANCH   1   2
ATOM      2  O   UNL A   1      40.563  21.542  25.700  1.00  0.00    -0.374 OA
BRANCH   2   3
ATOM      3  C   UNL A   1      39.416  22.129  26.307  1.00  0.00     0.202 C 
BRANCH   3   4
ATOM      4  C   UNL A   1      38.062  21.748  25.704  1.00  0.00     0.261 C 
BRANCH   4   5
ATOM      5  O   UNL A   1      37.201  22.890  25.575  1.00  0.00    -0.460 OA
BRANCH   5   6
ATOM      6  C   UNL A   1      36.526  22.953  24.404  1.00  0.00     0.338 C 
ATOM      7  O   UNL A   1      36.964  22.707  23.290  1.00  0.00    -0.246 OA
BRANCH   6   8
ATOM      8  C   UNL A   1      35.106  23.256  24.658  1.00  0.00     0.087 C 
ATOM      9  C   UNL A   1      34.179  27.259  25.902  1.00  0.00     0.047 C 
ATOM     10  C   UNL A   1      33.152  26.152  25.924  1.00  0.00    -0.021 A 
ATOM     11  C   UNL A   1      31.844  26.366  26.401  1.00  0.00     0.044 A 
ATOM     12  C   UNL A   1      33.485  24.861  25.437  1.00  0.00     0.022 A 
ATOM     13  Cl  UNL A   1      31.331  27.878  27.066  1.00  0.00    -0.084 Cl
ATOM     14  C   UNL A   1      30.892  25.343  26.368  1.00  0.00     0.024 A 
ATOM     15  C   UNL A   1      32.508  23.857  25.373  1.00  0.00     0.128 A 
ATOM     16  C   UNL A   1      34.847  24.510  25.048  1.00  0.00     0.027 C 
ATOM     17  C   UNL A   1      31.218  24.099  25.837  1.00  0.00     0.048 A 
ATOM     18  O   UNL A   1      32.718  22.605  24.867  1.00  0.00    -0.475 OA
ATOM     19  C   UNL A   1      34.062  22.191  24.505  1.00  0.00     0.316 C 
BRANCH  19  20
ATOM     20  C   UNL A   1      34.394  20.912  25.287  1.00  0.00     0.430 C 
ATOM     21  F   UNL A   1      34.884  21.204  26.517  1.00  0.00    -0.167 F 
ATOM     22  F   UNL A   1      33.298  20.142  25.484  1.00  0.00    -0.167 F 
ATOM     23  F   UNL A   1      35.315  20.152  24.654  1.00  0.00    -0.167 F 
ENDBRANCH  19  20
ENDBRANCH   6   8
ENDBRANCH   5   6
ENDBRANCH   4   5
ENDBRANCH   3   4
ENDBRANCH   2   3
ENDBRANCH   1   2
BRANCH   1  24
ATOM     24  C   UNL A   1      42.963  22.180  26.141  1.00  0.00     0.261 C 
BRANCH  24  25
ATOM     25  O   UNL A   1      42.663  23.161  25.128  1.00  0.00    -0.460 OA
BRANCH  25  26
ATOM     26  C   UNL A   1      43.409  24.287  25.186  1.00  0.00     0.338 C 
ATOM     27  O   UNL A   1      44.445  24.530  24.582  1.00  0.00    -0.246 OA
BRANCH  26  28
ATOM     28  C   UNL A   1      42.713  25.310  25.980  1.00  0.00     0.060 A 
ATOM     29  C   UNL A   1      43.413  26.479  26.304  1.00  0.00     0.016 A 
ATOM     30  C   UNL A   1      41.447  25.064  26.514  1.00  0.00     0.016 A 
ATOM     31  C   UNL A   1      42.868  27.388  27.206  1.00  0.00     0.010 A 
ATOM     32  C   UNL A   1      40.910  25.968  27.435  1.00  0.00     0.010 A 
ATOM     33  C   UNL A   1      41.637  27.110  27.815  1.00  0.00    -0.014 A 
BRANCH  33  34
ATOM     34  C   UNL A   1      41.212  27.911  28.985  1.00  0.00     0.031 A 
ATOM     35  C   UNL A   1      41.999  27.795  30.261  1.00  0.00     0.074 A 
ATOM     36  C   UNL A   1      40.169  28.754  28.904  1.00  0.00     0.049 A 
ATOM     37  N   UNL A   1      41.806  28.387  31.412  1.00  0.00    -0.248 NA
ATOM     38  C   UNL A   1      43.164  26.896  30.233  1.00  0.00     0.031 C 
ATOM     39  C   UNL A   1      39.368  28.990  27.706  1.00  0.00     0.029 A 
ATOM     40  N   UNL A   1      39.608  29.567  29.855  1.00  0.00    -0.354 N 
ATOM     41  C   UNL A   1      42.831  27.943  32.238  1.00  0.00     0.074 A 
ATOM     42  C   UNL A   1      43.623  27.006  31.470  1.00  0.00     0.031 C 
ATOM     43  C   UNL A   1      38.409  29.887  27.996  1.00  0.00     0.029 A 
ATOM     44  C   UNL A   1      38.515  30.264  29.404  1.00  0.00     0.049 A 
ATOM     45  H   UNL A   1      39.955  29.644  30.772  1.00  0.00     0.167 HD
ATOM     46  C   UNL A   1      43.093  28.295  33.518  1.00  0.00     0.037 A 
ATOM     47  C   UNL A   1      37.687  31.098  30.063  1.00  0.00     0.037 A 
ATOM     48  C   UNL A   1      42.295  29.213  34.284  1.00  0.00     0.049 A 
ATOM     49  C   UNL A   1      37.938  31.391  31.520  1.00  0.00     0.074 A 
ATOM     50  C   UNL A   1      42.478  29.632  35.590  1.00  0.00     0.029 A 
ATOM     51  N   UNL A   1      41.156  29.848  33.813  1.00  0.00    -0.354 N 
ATOM     52  N   UNL A   1      38.914  30.976  32.291  1.00  0.00    -0.248 NA
ATOM     53  C   UNL A   1      36.968  32.263  32.199  1.00  0.00     0.031 C 
ATOM     54  C   UNL A   1      41.422  30.486  35.924  1.00  0.00     0.029 A 
ATOM     55  C   UNL A   1      40.608  30.635  34.813  1.00  0.00     0.049 A 
ATOM     56  H   UNL A   1      40.790  29.752  32.904  1.00  0.00     0.167 HD
ATOM     57  C   UNL A   1      38.690  31.552  33.535  1.00  0.00     0.074 A 
ATOM     58  C   UNL A   1      37.489  32.354  33.415  1.00  0.00     0.031 C 
ATOM     59  C   UNL A   1      39.413  31.428  34.674  1.00  0.00     0.037 A 
BRANCH  46  60
ATOM     60  C   UNL A   1      44.288  27.675  34.177  1.00  0.00     0.064 A 
ATOM     61  C   UNL A   1      44.196  26.444  34.844  1.00  0.00     0.173 A 
ATOM     62  C   UNL A   1      45.545  28.291  34.099  1.00  0.00     0.173 A 
ATOM     63  F   UNL A   1      43.013  25.824  34.959  1.00  0.00    -0.203 F 
ATOM     64  C   UNL A   1      45.321  25.859  35.419  1.00  0.00     0.198 A 
ATOM     65  C   UNL A   1      46.671  27.691  34.655  1.00  0.00     0.198 A 
ATOM     66  F   UNL A   1      45.683  29.468  33.471  1.00  0.00    -0.203 F 
ATOM     67  F   UNL A   1      45.207  24.697  36.079  1.00  0.00    -0.200 F 
ATOM     68  C   UNL A   1      46.558  26.477  35.317  1.00  0.00     0.200 A 
ATOM     69  F   UNL A   1      47.867  28.285  34.547  1.00  0.00    -0.200 F 
ATOM     70  F   UNL A   1      47.641  25.906  35.861  1.00  0.00    -0.200 F 
ENDBRANCH  46  60
BRANCH  47  71
ATOM     71  C   UNL A   1      36.542  31.717  29.349  1.00  0.00     0.064 A 
ATOM     72  C   UNL A   1      35.445  30.946  28.943  1.00  0.00     0.173 A 
ATOM     73  C   UNL A   1      36.520  33.090  29.061  1.00  0.00     0.173 A 
ATOM     74  F   UNL A   1      35.433  29.626  29.173  1.00  0.00    -0.203 F 
ATOM     75  C   UNL A   1      34.370  31.524  28.270  1.00  0.00     0.198 A 
ATOM     76  C   UNL A   1      35.435  33.671  28.409  1.00  0.00     0.198 A 
ATOM     77  F   UNL A   1      37.550  33.869  29.424  1.00  0.00    -0.203 F 
ATOM     78  F   UNL A   1      33.347  30.760  27.864  1.00  0.00    -0.200 F 
ATOM     79  C   UNL A   1      34.362  32.888  28.010  1.00  0.00     0.200 A 
ATOM     80  F   UNL A   1      35.429  34.989  28.167  1.00  0.00    -0.200 F 
ATOM     81  F   UNL A   1      33.326  33.444  27.369  1.00  0.00    -0.200 F 
ENDBRANCH  47  71
BRANCH  59  82
ATOM     82  C   UNL A   1      38.946  32.183  35.883  1.00  0.00     0.064 A 
ATOM     83  C   UNL A   1      38.189  31.560  36.885  1.00  0.00     0.173 A 
ATOM     84  C   UNL A   1      39.329  33.519  36.080  1.00  0.00     0.173 A 
ATOM     85  F   UNL A   1      37.789  30.288  36.736  1.00  0.00    -0.203 F 
ATOM     86  C   UNL A   1      37.823  32.251  38.037  1.00  0.00     0.198 A 
ATOM     87  C   UNL A   1      38.984  34.198  37.244  1.00  0.00     0.198 A 
ATOM     88  F   UNL A   1      40.061  34.156  35.154  1.00  0.00    -0.203 F 
ATOM     89  F   UNL A   1      37.075  31.645  38.971  1.00  0.00    -0.200 F 
ATOM     90  C   UNL A   1      38.230  33.565  38.221  1.00  0.00     0.200 A 
ATOM     91  F   UNL A   1      39.390  35.462  37.427  1.00  0.00    -0.200 F 
ATOM     92  F   UNL A   1      37.892  34.222  39.339  1.00  0.00    -0.200 F 
ENDBRANCH  59  82
ENDBRANCH  33  34
ENDBRANCH  26  28
ENDBRANCH  25  26
ENDBRANCH  24  25
ENDBRANCH   1  24
TORSDOF 15
ENDMDL
