MODEL 1
REMARK VINA RESULT:     -12.5      0.000      0.000
REMARK SMILES COC(=O)c1cccc(NC(=O)[C@@H]2[C@@H]3CC[C@@H](C3)[C@@H]2C(=O)OCCOCCOC(=O)c2ccc(-c3c4nc(c(-c5c(F)c(F)c(F)c(F)c5F)c5ccc([nH]5)c(-c5c(F)c(F)c(F)c(F)c5F)c5nc(c(-c6c(F)c(F)c(F)c(F)c6F)c6ccc3[nH]6)C=C5)C=C4)cc2)c1
REMARK SMILES IDX 24 1 23 2 22 3 20 4 21 5 19 6 13 7 14 8 15 9 18 10 17 11
REMARK SMILES IDX 16 12 11 13 10 14 12 16 9 17 5 18 6 19 94 20 7 21 8 22 3 23
REMARK SMILES IDX 4 24 2 25 1 26 25 27 26 28 27 29 28 30 29 31 30 32 31 33
REMARK SMILES IDX 32 34 93 35 33 36 92 37 34 38 35 39 36 40 86 41 37 42 91 43
REMARK SMILES IDX 85 44 87 45 38 46 90 47 84 48 83 49 39 51 71 52 51 53 70 54
REMARK SMILES IDX 52 55 55 56 69 57 88 58 53 59 54 60 68 62 89 63 56 64 40 65
REMARK SMILES IDX 41 66 49 67 42 68 43 69 47 70 50 71 44 72 45 73 48 74 46 75
REMARK SMILES IDX 72 76 73 77 81 78 74 79 75 80 79 81 82 82 76 83 77 84 80 85
REMARK SMILES IDX 78 86 57 87 58 88 66 89 59 90 60 91 64 92 67 93 61 94 62 95
REMARK SMILES IDX 65 96 63 97
REMARK H PARENT 10 15 87 50 55 61
REMARK Flexibility Score: inf
ROOT
ATOM      1  C   UNL A   1      32.556  27.529  25.347  1.00  0.00     0.202 C 
ENDROOT
BRANCH   1   2
ATOM      2  C   UNL A   1      32.287  26.432  24.317  1.00  0.00     0.261 C 
BRANCH   2   3
ATOM      3  O   UNL A   1      32.592  25.124  24.840  1.00  0.00    -0.463 OA
BRANCH   3   4
ATOM      4  C   UNL A   1      32.498  24.101  23.962  1.00  0.00     0.310 C 
ATOM      5  O   UNL A   1      31.463  23.759  23.397  1.00  0.00    -0.252 OA
BRANCH   4   6
ATOM      6  C   UNL A   1      33.808  23.385  23.692  1.00  0.00     0.115 C 
ATOM      7  C   UNL A   1      34.059  21.962  24.238  1.00  0.00     0.096 C 
ATOM      8  C   UNL A   1      35.575  22.020  24.617  1.00  0.00     0.003 C 
ATOM      9  C   UNL A   1      35.871  22.800  25.897  1.00  0.00     0.005 C 
ATOM     10  C   UNL A   1      36.115  23.037  23.592  1.00  0.00     0.009 C 
ATOM     11  C   UNL A   1      35.119  24.124  24.019  1.00  0.00     0.004 C 
ATOM     12  C   UNL A   1      35.396  24.207  25.536  1.00  0.00     0.005 C 
BRANCH   7  13
ATOM     13  C   UNL A   1      33.056  21.512  25.288  1.00  0.00     0.228 C 
ATOM     14  N   UNL A   1      32.534  20.251  25.304  1.00  0.00    -0.326 N 
ATOM     15  H   UNL A   1      31.841  20.141  25.994  1.00  0.00     0.169 HD
ATOM     16  O   UNL A   1      32.659  22.267  26.180  1.00  0.00    -0.274 OA
BRANCH  14  17
ATOM     17  C   UNL A   1      32.751  19.071  24.569  1.00  0.00     0.042 A 
ATOM     18  C   UNL A   1      33.766  16.856  24.580  1.00  0.00     0.062 A 
ATOM     19  C   UNL A   1      33.505  16.714  23.217  1.00  0.00     0.016 A 
ATOM     20  C   UNL A   1      33.381  18.023  25.257  1.00  0.00     0.041 A 
ATOM     21  C   UNL A   1      32.812  17.713  22.549  1.00  0.00     0.003 A 
ATOM     22  C   UNL A   1      32.432  18.874  23.226  1.00  0.00     0.026 A 
BRANCH  18  23
ATOM     23  C   UNL A   1      34.486  15.761  25.257  1.00  0.00     0.337 C 
ATOM     24  O   UNL A   1      35.640  15.860  25.652  1.00  0.00    -0.246 OA
BRANCH  23  25
ATOM     25  O   UNL A   1      33.718  14.647  25.277  1.00  0.00    -0.465 OA
ATOM     26  C   UNL A   1      32.405  14.877  25.789  1.00  0.00     0.282 C 
ENDBRANCH  23  25
ENDBRANCH  18  23
ENDBRANCH  14  17
ENDBRANCH   7  13
ENDBRANCH   4   6
ENDBRANCH   3   4
ENDBRANCH   2   3
ENDBRANCH   1   2
BRANCH   1  27
ATOM     27  O   UNL A   1      32.596  28.865  24.851  1.00  0.00    -0.374 OA
BRANCH  27  28
ATOM     28  C   UNL A   1      31.414  29.650  24.992  1.00  0.00     0.202 C 
BRANCH  28  29
ATOM     29  C   UNL A   1      31.491  30.818  25.985  1.00  0.00     0.261 C 
BRANCH  29  30
ATOM     30  O   UNL A   1      32.545  30.643  26.952  1.00  0.00    -0.460 OA
BRANCH  30  31
ATOM     31  C   UNL A   1      33.254  31.758  27.243  1.00  0.00     0.338 C 
ATOM     32  O   UNL A   1      32.851  32.912  27.242  1.00  0.00    -0.246 OA
BRANCH  31  33
ATOM     33  C   UNL A   1      34.586  31.395  27.769  1.00  0.00     0.060 A 
ATOM     34  C   UNL A   1      34.789  30.057  28.137  1.00  0.00     0.016 A 
ATOM     35  C   UNL A   1      35.593  32.342  27.967  1.00  0.00     0.016 A 
ATOM     36  C   UNL A   1      35.979  29.671  28.750  1.00  0.00     0.010 A 
ATOM     37  C   UNL A   1      36.785  31.952  28.594  1.00  0.00     0.010 A 
ATOM     38  C   UNL A   1      36.970  30.624  29.018  1.00  0.00    -0.014 A 
BRANCH  38  39
ATOM     39  C   UNL A   1      38.137  30.254  29.860  1.00  0.00     0.031 A 
ATOM     40  C   UNL A   1      39.157  29.294  29.313  1.00  0.00     0.074 A 
ATOM     41  C   UNL A   1      38.307  30.790  31.081  1.00  0.00     0.049 A 
ATOM     42  N   UNL A   1      40.220  28.792  29.890  1.00  0.00    -0.248 NA
ATOM     43  C   UNL A   1      38.954  28.842  27.928  1.00  0.00     0.031 C 
ATOM     44  C   UNL A   1      37.421  31.771  31.702  1.00  0.00     0.029 A 
ATOM     45  N   UNL A   1      39.285  30.574  32.021  1.00  0.00    -0.354 N 
ATOM     46  C   UNL A   1      40.807  27.962  28.943  1.00  0.00     0.074 A 
ATOM     47  C   UNL A   1      39.970  28.007  27.763  1.00  0.00     0.031 C 
ATOM     48  C   UNL A   1      37.888  32.065  32.928  1.00  0.00     0.029 A 
ATOM     49  C   UNL A   1      39.081  31.260  33.193  1.00  0.00     0.049 A 
ATOM     50  H   UNL A   1      40.058  29.984  31.870  1.00  0.00     0.167 HD
ATOM     51  C   UNL A   1      41.945  27.235  29.046  1.00  0.00     0.037 A 
ATOM     52  C   UNL A   1      39.758  31.216  34.357  1.00  0.00     0.037 A 
ATOM     53  C   UNL A   1      42.779  27.192  30.220  1.00  0.00     0.049 A 
ATOM     54  C   UNL A   1      40.962  30.317  34.482  1.00  0.00     0.074 A 
ATOM     55  C   UNL A   1      43.965  26.506  30.409  1.00  0.00     0.029 A 
ATOM     56  N   UNL A   1      42.507  27.856  31.406  1.00  0.00    -0.354 N 
ATOM     57  N   UNL A   1      41.525  29.555  33.577  1.00  0.00    -0.248 NA
ATOM     58  C   UNL A   1      41.621  30.266  35.797  1.00  0.00     0.031 C 
ATOM     59  C   UNL A   1      44.380  26.706  31.729  1.00  0.00     0.029 A 
ATOM     60  C   UNL A   1      43.483  27.563  32.346  1.00  0.00     0.049 A 
ATOM     61  H   UNL A   1      41.735  28.448  31.558  1.00  0.00     0.167 HD
ATOM     62  C   UNL A   1      42.611  28.954  34.201  1.00  0.00     0.074 A 
ATOM     63  C   UNL A   1      42.639  29.451  35.560  1.00  0.00     0.031 C 
ATOM     64  C   UNL A   1      43.502  28.067  33.695  1.00  0.00     0.037 A 
BRANCH  51  65
ATOM     65  C   UNL A   1      42.345  26.397  27.868  1.00  0.00     0.064 A 
ATOM     66  C   UNL A   1      41.849  25.098  27.683  1.00  0.00     0.173 A 
ATOM     67  C   UNL A   1      43.197  26.920  26.882  1.00  0.00     0.173 A 
ATOM     68  F   UNL A   1      41.039  24.548  28.601  1.00  0.00    -0.203 F 
ATOM     69  C   UNL A   1      42.210  24.345  26.568  1.00  0.00     0.198 A 
ATOM     70  C   UNL A   1      43.532  26.176  25.755  1.00  0.00     0.198 A 
ATOM     71  F   UNL A   1      43.693  28.160  27.007  1.00  0.00    -0.203 F 
ATOM     72  F   UNL A   1      41.756  23.092  26.433  1.00  0.00    -0.200 F 
ATOM     73  C   UNL A   1      43.044  24.888  25.602  1.00  0.00     0.200 A 
ATOM     74  F   UNL A   1      44.326  26.707  24.816  1.00  0.00    -0.200 F 
ATOM     75  F   UNL A   1      43.381  24.166  24.524  1.00  0.00    -0.200 F 
ENDBRANCH  51  65
BRANCH  52  76
ATOM     76  C   UNL A   1      39.296  32.023  35.518  1.00  0.00     0.064 A 
ATOM     77  C   UNL A   1      38.453  31.473  36.494  1.00  0.00     0.173 A 
ATOM     78  C   UNL A   1      39.667  33.368  35.662  1.00  0.00     0.173 A 
ATOM     79  F   UNL A   1      38.048  30.200  36.386  1.00  0.00    -0.203 F 
ATOM     80  C   UNL A   1      37.987  32.241  37.559  1.00  0.00     0.198 A 
ATOM     81  C   UNL A   1      39.225  34.127  36.743  1.00  0.00     0.198 A 
ATOM     82  F   UNL A   1      40.467  33.946  34.752  1.00  0.00    -0.203 F 
ATOM     83  F   UNL A   1      37.145  31.705  38.451  1.00  0.00    -0.200 F 
ATOM     84  C   UNL A   1      38.379  33.566  37.686  1.00  0.00     0.200 A 
ATOM     85  F   UNL A   1      39.617  35.403  36.868  1.00  0.00    -0.200 F 
ATOM     86  F   UNL A   1      37.935  34.303  38.712  1.00  0.00    -0.200 F 
ENDBRANCH  52  76
BRANCH  64  87
ATOM     87  C   UNL A   1      44.601  27.589  34.601  1.00  0.00     0.064 A 
ATOM     88  C   UNL A   1      44.497  26.381  35.306  1.00  0.00     0.173 A 
ATOM     89  C   UNL A   1      45.797  28.315  34.715  1.00  0.00     0.173 A 
ATOM     90  F   UNL A   1      43.369  25.658  35.243  1.00  0.00    -0.203 F 
ATOM     91  C   UNL A   1      45.543  25.926  36.104  1.00  0.00     0.198 A 
ATOM     92  C   UNL A   1      46.852  27.842  35.490  1.00  0.00     0.198 A 
ATOM     93  F   UNL A   1      45.951  29.472  34.056  1.00  0.00    -0.203 F 
ATOM     94  F   UNL A   1      45.407  24.788  36.799  1.00  0.00    -0.200 F 
ATOM     95  C   UNL A   1      46.722  26.651  36.188  1.00  0.00     0.200 A 
ATOM     96  F   UNL A   1      47.996  28.536  35.558  1.00  0.00    -0.200 F 
ATOM     97  F   UNL A   1      47.734  26.203  36.945  1.00  0.00    -0.200 F 
ENDBRANCH  64  87
ENDBRANCH  38  39
ENDBRANCH  31  33
ENDBRANCH  30  31
ENDBRANCH  29  30
ENDBRANCH  28  29
ENDBRANCH  27  28
ENDBRANCH   1  27
TORSDOF 18
ENDMDL
MODEL 2
REMARK VINA RESULT:     -12.1      4.739     10.112
REMARK SMILES COC(=O)c1cccc(NC(=O)[C@@H]2[C@@H]3CC[C@@H](C3)[C@@H]2C(=O)OCCOCCOC(=O)c2ccc(-c3c4nc(c(-c5c(F)c(F)c(F)c(F)c5F)c5ccc([nH]5)c(-c5c(F)c(F)c(F)c(F)c5F)c5nc(c(-c6c(F)c(F)c(F)c(F)c6F)c6ccc3[nH]6)C=C5)C=C4)cc2)c1
REMARK SMILES IDX 24 1 23 2 22 3 20 4 21 5 19 6 13 7 14 8 15 9 18 10 17 11
REMARK SMILES IDX 16 12 11 13 10 14 12 16 9 17 5 18 6 19 94 20 7 21 8 22 3 23
REMARK SMILES IDX 4 24 2 25 1 26 25 27 26 28 27 29 28 30 29 31 30 32 31 33
REMARK SMILES IDX 32 34 93 35 33 36 92 37 34 38 35 39 36 40 86 41 37 42 91 43
REMARK SMILES IDX 85 44 87 45 38 46 90 47 84 48 83 49 39 51 71 52 51 53 70 54
REMARK SMILES IDX 52 55 55 56 69 57 88 58 53 59 54 60 68 62 89 63 56 64 40 65
REMARK SMILES IDX 41 66 49 67 42 68 43 69 47 70 50 71 44 72 45 73 48 74 46 75
REMARK SMILES IDX 72 76 73 77 81 78 74 79 75 80 79 81 82 82 76 83 77 84 80 85
REMARK SMILES IDX 78 86 57 87 58 88 66 89 59 90 60 91 64 92 67 93 61 94 62 95
REMARK SMILES IDX 65 96 63 97
REMARK H PARENT 10 15 87 50 55 61
REMARK Flexibility Score: inf
ROOT
ATOM      1  C   UNL A   1      37.436  22.813  24.971  1.00  0.00     0.202 C 
ENDROOT
BRANCH   1   2
ATOM      2  C   UNL A   1      36.743  23.667  26.034  1.00  0.00     0.261 C 
BRANCH   2   3
ATOM      3  O   UNL A   1      35.328  23.399  26.092  1.00  0.00    -0.463 OA
BRANCH   3   4
ATOM      4  C   UNL A   1      34.529  24.322  25.513  1.00  0.00     0.310 C 
ATOM      5  O   UNL A   1      34.598  25.531  25.715  1.00  0.00    -0.252 OA
BRANCH   4   6
ATOM      6  C   UNL A   1      33.512  23.751  24.543  1.00  0.00     0.115 C 
ATOM      7  C   UNL A   1      32.008  23.728  24.897  1.00  0.00     0.096 C 
ATOM      8  C   UNL A   1      31.548  22.365  24.283  1.00  0.00     0.003 C 
ATOM      9  C   UNL A   1      31.979  21.139  25.086  1.00  0.00     0.005 C 
ATOM     10  C   UNL A   1      32.516  22.217  23.091  1.00  0.00     0.009 C 
ATOM     11  C   UNL A   1      33.761  22.340  23.978  1.00  0.00     0.004 C 
ATOM     12  C   UNL A   1      33.504  21.225  25.016  1.00  0.00     0.005 C 
BRANCH   7  13
ATOM     13  C   UNL A   1      31.708  24.012  26.359  1.00  0.00     0.228 C 
ATOM     14  N   UNL A   1      31.468  25.274  26.823  1.00  0.00    -0.326 N 
ATOM     15  H   UNL A   1      31.372  25.301  27.802  1.00  0.00     0.169 HD
ATOM     16  O   UNL A   1      31.669  23.116  27.206  1.00  0.00    -0.274 OA
BRANCH  14  17
ATOM     17  C   UNL A   1      31.327  26.543  26.233  1.00  0.00     0.042 A 
ATOM     18  C   UNL A   1      30.522  27.779  24.293  1.00  0.00     0.062 A 
ATOM     19  C   UNL A   1      31.139  28.940  24.759  1.00  0.00     0.016 A 
ATOM     20  C   UNL A   1      30.604  26.588  25.031  1.00  0.00     0.041 A 
ATOM     21  C   UNL A   1      31.787  28.922  25.985  1.00  0.00     0.003 A 
ATOM     22  C   UNL A   1      31.869  27.734  26.716  1.00  0.00     0.026 A 
BRANCH  18  23
ATOM     23  C   UNL A   1      29.826  27.846  22.995  1.00  0.00     0.337 C 
ATOM     24  O   UNL A   1      30.405  27.798  21.919  1.00  0.00    -0.246 OA
BRANCH  23  25
ATOM     25  O   UNL A   1      28.504  28.061  23.192  1.00  0.00    -0.465 OA
ATOM     26  C   UNL A   1      28.049  29.304  22.655  1.00  0.00     0.282 C 
ENDBRANCH  23  25
ENDBRANCH  18  23
ENDBRANCH  14  17
ENDBRANCH   7  13
ENDBRANCH   4   6
ENDBRANCH   3   4
ENDBRANCH   2   3
ENDBRANCH   1   2
BRANCH   1  27
ATOM     27  O   UNL A   1      37.027  21.450  24.892  1.00  0.00    -0.374 OA
BRANCH  27  28
ATOM     28  C   UNL A   1      38.037  20.454  25.049  1.00  0.00     0.202 C 
BRANCH  28  29
ATOM     29  C   UNL A   1      39.349  20.918  25.696  1.00  0.00     0.261 C 
BRANCH  29  30
ATOM     30  O   UNL A   1      39.994  19.865  26.439  1.00  0.00    -0.460 OA
BRANCH  30  31
ATOM     31  C   UNL A   1      41.307  19.686  26.167  1.00  0.00     0.338 C 
ATOM     32  O   UNL A   1      41.819  18.743  25.580  1.00  0.00    -0.246 OA
BRANCH  31  33
ATOM     33  C   UNL A   1      42.071  20.903  26.510  1.00  0.00     0.060 A 
ATOM     34  C   UNL A   1      42.176  21.233  27.869  1.00  0.00     0.016 A 
ATOM     35  C   UNL A   1      42.613  21.743  25.536  1.00  0.00     0.016 A 
ATOM     36  C   UNL A   1      42.780  22.428  28.256  1.00  0.00     0.010 A 
ATOM     37  C   UNL A   1      43.209  22.950  25.927  1.00  0.00     0.010 A 
ATOM     38  C   UNL A   1      43.265  23.314  27.285  1.00  0.00    -0.014 A 
BRANCH  38  39
ATOM     39  C   UNL A   1      43.707  24.674  27.687  1.00  0.00     0.031 A 
ATOM     40  C   UNL A   1      42.670  25.710  28.020  1.00  0.00     0.074 A 
ATOM     41  C   UNL A   1      45.013  24.976  27.789  1.00  0.00     0.049 A 
ATOM     42  N   UNL A   1      42.825  26.970  28.342  1.00  0.00    -0.248 NA
ATOM     43  C   UNL A   1      41.267  25.266  27.992  1.00  0.00     0.031 C 
ATOM     44  C   UNL A   1      46.113  24.047  27.548  1.00  0.00     0.029 A 
ATOM     45  N   UNL A   1      45.633  26.157  28.116  1.00  0.00    -0.354 N 
ATOM     46  C   UNL A   1      41.545  27.469  28.546  1.00  0.00     0.074 A 
ATOM     47  C   UNL A   1      40.622  26.385  28.288  1.00  0.00     0.031 C 
ATOM     48  C   UNL A   1      47.278  24.697  27.722  1.00  0.00     0.029 A 
ATOM     49  C   UNL A   1      47.002  26.097  28.045  1.00  0.00     0.049 A 
ATOM     50  H   UNL A   1      45.142  26.970  28.376  1.00  0.00     0.167 HD
ATOM     51  C   UNL A   1      41.174  28.716  28.921  1.00  0.00     0.037 A 
ATOM     52  C   UNL A   1      47.925  27.068  28.188  1.00  0.00     0.037 A 
ATOM     53  C   UNL A   1      42.092  29.795  29.179  1.00  0.00     0.049 A 
ATOM     54  C   UNL A   1      47.481  28.475  28.502  1.00  0.00     0.074 A 
ATOM     55  C   UNL A   1      41.813  31.086  29.590  1.00  0.00     0.029 A 
ATOM     56  N   UNL A   1      43.469  29.709  29.039  1.00  0.00    -0.354 N 
ATOM     57  N   UNL A   1      46.272  28.933  28.718  1.00  0.00    -0.248 NA
ATOM     58  C   UNL A   1      48.531  29.502  28.584  1.00  0.00     0.031 C 
ATOM     59  C   UNL A   1      43.014  31.798  29.643  1.00  0.00     0.029 A 
ATOM     60  C   UNL A   1      44.049  30.937  29.318  1.00  0.00     0.049 A 
ATOM     61  H   UNL A   1      43.962  28.897  28.781  1.00  0.00     0.167 HD
ATOM     62  C   UNL A   1      46.417  30.289  28.982  1.00  0.00     0.074 A 
ATOM     63  C   UNL A   1      47.833  30.579  28.916  1.00  0.00     0.031 C 
ATOM     64  C   UNL A   1      45.462  31.212  29.252  1.00  0.00     0.037 A 
BRANCH  51  65
ATOM     65  C   UNL A   1      39.705  28.998  29.048  1.00  0.00     0.064 A 
ATOM     66  C   UNL A   1      38.931  29.391  27.946  1.00  0.00     0.173 A 
ATOM     67  C   UNL A   1      39.054  28.821  30.278  1.00  0.00     0.173 A 
ATOM     68  F   UNL A   1      39.508  29.583  26.749  1.00  0.00    -0.203 F 
ATOM     69  C   UNL A   1      37.563  29.620  28.077  1.00  0.00     0.198 A 
ATOM     70  C   UNL A   1      37.682  29.024  30.399  1.00  0.00     0.198 A 
ATOM     71  F   UNL A   1      39.746  28.440  31.362  1.00  0.00    -0.203 F 
ATOM     72  F   UNL A   1      36.851  30.034  27.020  1.00  0.00    -0.200 F 
ATOM     73  C   UNL A   1      36.939  29.428  29.301  1.00  0.00     0.200 A 
ATOM     74  F   UNL A   1      37.078  28.824  31.579  1.00  0.00    -0.200 F 
ATOM     75  F   UNL A   1      35.621  29.639  29.423  1.00  0.00    -0.200 F 
ENDBRANCH  51  65
BRANCH  52  76
ATOM     76  C   UNL A   1      49.368  26.758  28.001  1.00  0.00     0.064 A 
ATOM     77  C   UNL A   1      50.190  26.446  29.093  1.00  0.00     0.173 A 
ATOM     78  C   UNL A   1      49.959  26.793  26.729  1.00  0.00     0.173 A 
ATOM     79  F   UNL A   1      49.679  26.428  30.331  1.00  0.00    -0.203 F 
ATOM     80  C   UNL A   1      51.550  26.196  28.921  1.00  0.00     0.198 A 
ATOM     81  C   UNL A   1      51.312  26.513  26.555  1.00  0.00     0.198 A 
ATOM     82  F   UNL A   1      49.218  27.093  25.652  1.00  0.00    -0.203 F 
ATOM     83  F   UNL A   1      52.323  25.947  29.986  1.00  0.00    -0.200 F 
ATOM     84  C   UNL A   1      52.109  26.223  27.651  1.00  0.00     0.200 A 
ATOM     85  F   UNL A   1      51.844  26.527  25.325  1.00  0.00    -0.200 F 
ATOM     86  F   UNL A   1      53.415  25.978  27.486  1.00  0.00    -0.200 F 
ENDBRANCH  52  76
BRANCH  64  87
ATOM     87  C   UNL A   1      45.909  32.621  29.520  1.00  0.00     0.064 A 
ATOM     88  C   UNL A   1      45.981  33.576  28.494  1.00  0.00     0.173 A 
ATOM     89  C   UNL A   1      46.209  33.037  30.826  1.00  0.00     0.173 A 
ATOM     90  F   UNL A   1      45.720  33.225  27.226  1.00  0.00    -0.203 F 
ATOM     91  C   UNL A   1      46.350  34.890  28.765  1.00  0.00     0.198 A 
ATOM     92  C   UNL A   1      46.549  34.360  31.097  1.00  0.00     0.198 A 
ATOM     93  F   UNL A   1      46.149  32.166  31.844  1.00  0.00    -0.203 F 
ATOM     94  F   UNL A   1      46.449  35.776  27.764  1.00  0.00    -0.200 F 
ATOM     95  C   UNL A   1      46.625  35.283  30.067  1.00  0.00     0.200 A 
ATOM     96  F   UNL A   1      46.800  34.741  32.358  1.00  0.00    -0.200 F 
ATOM     97  F   UNL A   1      46.966  36.553  30.326  1.00  0.00    -0.200 F 
ENDBRANCH  64  87
ENDBRANCH  38  39
ENDBRANCH  31  33
ENDBRANCH  30  31
ENDBRANCH  29  30
ENDBRANCH  28  29
ENDBRANCH  27  28
ENDBRANCH   1  27
TORSDOF 18
ENDMDL
MODEL 3
REMARK VINA RESULT:     -12.1      1.913      7.730
REMARK SMILES COC(=O)c1cccc(NC(=O)[C@@H]2[C@@H]3CC[C@@H](C3)[C@@H]2C(=O)OCCOCCOC(=O)c2ccc(-c3c4nc(c(-c5c(F)c(F)c(F)c(F)c5F)c5ccc([nH]5)c(-c5c(F)c(F)c(F)c(F)c5F)c5nc(c(-c6c(F)c(F)c(F)c(F)c6F)c6ccc3[nH]6)C=C5)C=C4)cc2)c1
REMARK SMILES IDX 24 1 23 2 22 3 20 4 21 5 19 6 13 7 14 8 15 9 18 10 17 11
REMARK SMILES IDX 16 12 11 13 10 14 12 16 9 17 5 18 6 19 94 20 7 21 8 22 3 23
REMARK SMILES IDX 4 24 2 25 1 26 25 27 26 28 27 29 28 30 29 31 30 32 31 33
REMARK SMILES IDX 32 34 93 35 33 36 92 37 34 38 35 39 36 40 86 41 37 42 91 43
REMARK SMILES IDX 85 44 87 45 38 46 90 47 84 48 83 49 39 51 71 52 51 53 70 54
REMARK SMILES IDX 52 55 55 56 69 57 88 58 53 59 54 60 68 62 89 63 56 64 40 65
REMARK SMILES IDX 41 66 49 67 42 68 43 69 47 70 50 71 44 72 45 73 48 74 46 75
REMARK SMILES IDX 72 76 73 77 81 78 74 79 75 80 79 81 82 82 76 83 77 84 80 85
REMARK SMILES IDX 78 86 57 87 58 88 66 89 59 90 60 91 64 92 67 93 61 94 62 95
REMARK SMILES IDX 65 96 63 97
REMARK H PARENT 10 15 87 50 55 61
REMARK Flexibility Score: inf
ROOT
ATOM      1  C   UNL A   1      33.457  30.354  26.877  1.00  0.00     0.202 C 
ENDROOT
BRANCH   1   2
ATOM      2  C   UNL A   1      33.767  28.858  26.821  1.00  0.00     0.261 C 
BRANCH   2   3
ATOM      3  O   UNL A   1      33.622  28.335  25.485  1.00  0.00    -0.463 OA
BRANCH   3   4
ATOM      4  C   UNL A   1      33.341  27.016  25.396  1.00  0.00     0.310 C 
ATOM      5  O   UNL A   1      34.088  26.117  25.773  1.00  0.00    -0.252 OA
BRANCH   4   6
ATOM      6  C   UNL A   1      31.984  26.703  24.795  1.00  0.00     0.115 C 
ATOM      7  C   UNL A   1      31.869  25.922  23.468  1.00  0.00     0.096 C 
ATOM      8  C   UNL A   1      30.654  26.626  22.778  1.00  0.00     0.003 C 
ATOM      9  C   UNL A   1      30.976  28.002  22.196  1.00  0.00     0.005 C 
ATOM     10  C   UNL A   1      29.822  27.077  23.996  1.00  0.00     0.009 C 
ATOM     11  C   UNL A   1      30.989  27.863  24.609  1.00  0.00     0.004 C 
ATOM     12  C   UNL A   1      31.370  28.797  23.440  1.00  0.00     0.005 C 
BRANCH   7  13
ATOM     13  C   UNL A   1      33.176  25.798  22.702  1.00  0.00     0.228 C 
ATOM     14  N   UNL A   1      33.965  24.687  22.781  1.00  0.00    -0.326 N 
ATOM     15  H   UNL A   1      34.813  24.794  22.294  1.00  0.00     0.169 HD
ATOM     16  O   UNL A   1      33.594  26.699  21.971  1.00  0.00    -0.274 OA
BRANCH  14  17
ATOM     17  C   UNL A   1      33.854  23.426  23.395  1.00  0.00     0.042 A 
ATOM     18  C   UNL A   1      35.055  21.625  24.514  1.00  0.00     0.062 A 
ATOM     19  C   UNL A   1      33.920  20.816  24.460  1.00  0.00     0.016 A 
ATOM     20  C   UNL A   1      35.021  22.929  23.996  1.00  0.00     0.041 A 
ATOM     21  C   UNL A   1      32.741  21.330  23.940  1.00  0.00     0.003 A 
ATOM     22  C   UNL A   1      32.711  22.627  23.423  1.00  0.00     0.026 A 
BRANCH  18  23
ATOM     23  C   UNL A   1      36.281  21.047  25.095  1.00  0.00     0.337 C 
ATOM     24  O   UNL A   1      36.575  19.863  25.001  1.00  0.00    -0.246 OA
BRANCH  23  25
ATOM     25  O   UNL A   1      36.946  21.991  25.801  1.00  0.00    -0.465 OA
ATOM     26  C   UNL A   1      38.365  21.838  25.750  1.00  0.00     0.282 C 
ENDBRANCH  23  25
ENDBRANCH  18  23
ENDBRANCH  14  17
ENDBRANCH   7  13
ENDBRANCH   4   6
ENDBRANCH   3   4
ENDBRANCH   2   3
ENDBRANCH   1   2
BRANCH   1  27
ATOM     27  O   UNL A   1      32.229  30.768  26.283  1.00  0.00    -0.374 OA
BRANCH  27  28
ATOM     28  C   UNL A   1      31.547  31.865  26.888  1.00  0.00     0.202 C 
BRANCH  28  29
ATOM     29  C   UNL A   1      32.284  33.211  26.871  1.00  0.00     0.261 C 
BRANCH  29  30
ATOM     30  O   UNL A   1      32.326  33.828  28.173  1.00  0.00    -0.460 OA
BRANCH  30  31
ATOM     31  C   UNL A   1      33.428  34.573  28.425  1.00  0.00     0.338 C 
ATOM     32  O   UNL A   1      33.491  35.791  28.518  1.00  0.00    -0.246 OA
BRANCH  31  33
ATOM     33  C   UNL A   1      34.567  33.700  28.774  1.00  0.00     0.060 A 
ATOM     34  C   UNL A   1      34.281  32.521  29.476  1.00  0.00     0.016 A 
ATOM     35  C   UNL A   1      35.889  34.050  28.492  1.00  0.00     0.016 A 
ATOM     36  C   UNL A   1      35.316  31.712  29.942  1.00  0.00     0.010 A 
ATOM     37  C   UNL A   1      36.928  33.242  28.971  1.00  0.00     0.010 A 
ATOM     38  C   UNL A   1      36.649  32.088  29.726  1.00  0.00    -0.014 A 
BRANCH  38  39
ATOM     39  C   UNL A   1      37.740  31.345  30.406  1.00  0.00     0.031 A 
ATOM     40  C   UNL A   1      38.045  31.649  31.847  1.00  0.00     0.074 A 
ATOM     41  C   UNL A   1      38.430  30.386  29.763  1.00  0.00     0.049 A 
ATOM     42  N   UNL A   1      38.983  31.164  32.620  1.00  0.00    -0.248 NA
ATOM     43  C   UNL A   1      37.170  32.631  32.507  1.00  0.00     0.031 C 
ATOM     44  C   UNL A   1      38.196  29.959  28.387  1.00  0.00     0.029 A 
ATOM     45  N   UNL A   1      39.477  29.604  30.186  1.00  0.00    -0.354 N 
ATOM     46  C   UNL A   1      38.817  31.784  33.851  1.00  0.00     0.074 A 
ATOM     47  C   UNL A   1      37.705  32.700  33.718  1.00  0.00     0.031 C 
ATOM     48  C   UNL A   1      39.083  28.999  28.071  1.00  0.00     0.029 A 
ATOM     49  C   UNL A   1      39.973  28.776  29.211  1.00  0.00     0.049 A 
ATOM     50  H   UNL A   1      39.837  29.634  31.103  1.00  0.00     0.167 HD
ATOM     51  C   UNL A   1      39.524  31.601  34.992  1.00  0.00     0.037 A 
ATOM     52  C   UNL A   1      41.045  27.959  29.225  1.00  0.00     0.037 A 
ATOM     53  C   UNL A   1      40.631  30.688  35.125  1.00  0.00     0.049 A 
ATOM     54  C   UNL A   1      41.881  27.851  30.475  1.00  0.00     0.074 A 
ATOM     55  C   UNL A   1      41.391  30.414  36.248  1.00  0.00     0.029 A 
ATOM     56  N   UNL A   1      41.140  29.910  34.097  1.00  0.00    -0.354 N 
ATOM     57  N   UNL A   1      41.704  28.421  31.642  1.00  0.00    -0.248 NA
ATOM     58  C   UNL A   1      43.073  26.992  30.407  1.00  0.00     0.031 C 
ATOM     59  C   UNL A   1      42.397  29.514  35.885  1.00  0.00     0.029 A 
ATOM     60  C   UNL A   1      42.231  29.184  34.550  1.00  0.00     0.049 A 
ATOM     61  H   UNL A   1      40.779  29.877  33.181  1.00  0.00     0.167 HD
ATOM     62  C   UNL A   1      42.742  27.974  32.449  1.00  0.00     0.074 A 
ATOM     63  C   UNL A   1      43.539  27.073  31.645  1.00  0.00     0.031 C 
ATOM     64  C   UNL A   1      43.014  28.287  33.740  1.00  0.00     0.037 A 
BRANCH  51  65
ATOM     65  C   UNL A   1      39.145  32.426  36.186  1.00  0.00     0.064 A 
ATOM     66  C   UNL A   1      38.254  31.951  37.160  1.00  0.00     0.173 A 
ATOM     67  C   UNL A   1      39.722  33.690  36.386  1.00  0.00     0.173 A 
ATOM     68  F   UNL A   1      37.668  30.753  37.011  1.00  0.00    -0.203 F 
ATOM     69  C   UNL A   1      37.937  32.721  38.277  1.00  0.00     0.198 A 
ATOM     70  C   UNL A   1      39.424  34.444  37.517  1.00  0.00     0.198 A 
ATOM     71  F   UNL A   1      40.585  34.189  35.488  1.00  0.00    -0.203 F 
ATOM     72  F   UNL A   1      37.052  32.263  39.173  1.00  0.00    -0.200 F 
ATOM     73  C   UNL A   1      38.528  33.962  38.458  1.00  0.00     0.200 A 
ATOM     74  F   UNL A   1      40.007  35.637  37.697  1.00  0.00    -0.200 F 
ATOM     75  F   UNL A   1      38.229  34.697  39.538  1.00  0.00    -0.200 F 
ENDBRANCH  51  65
BRANCH  52  76
ATOM     76  C   UNL A   1      41.417  27.199  28.001  1.00  0.00     0.064 A 
ATOM     77  C   UNL A   1      40.991  25.877  27.811  1.00  0.00     0.173 A 
ATOM     78  C   UNL A   1      42.229  27.771  27.010  1.00  0.00     0.173 A 
ATOM     79  F   UNL A   1      40.238  25.277  28.742  1.00  0.00    -0.203 F 
ATOM     80  C   UNL A   1      41.375  25.153  26.684  1.00  0.00     0.198 A 
ATOM     81  C   UNL A   1      42.587  27.056  25.870  1.00  0.00     0.198 A 
ATOM     82  F   UNL A   1      42.670  29.031  27.147  1.00  0.00    -0.203 F 
ATOM     83  F   UNL A   1      40.993  23.876  26.549  1.00  0.00    -0.200 F 
ATOM     84  C   UNL A   1      42.167  25.745  25.711  1.00  0.00     0.200 A 
ATOM     85  F   UNL A   1      43.342  27.637  24.927  1.00  0.00    -0.200 F 
ATOM     86  F   UNL A   1      42.532  25.050  24.626  1.00  0.00    -0.200 F 
ENDBRANCH  52  76
BRANCH  64  87
ATOM     87  C   UNL A   1      44.207  27.634  34.379  1.00  0.00     0.064 A 
ATOM     88  C   UNL A   1      45.456  28.272  34.422  1.00  0.00     0.173 A 
ATOM     89  C   UNL A   1      44.085  26.387  35.010  1.00  0.00     0.173 A 
ATOM     90  F   UNL A   1      45.629  29.459  33.820  1.00  0.00    -0.203 F 
ATOM     91  C   UNL A   1      46.541  27.678  35.060  1.00  0.00     0.198 A 
ATOM     92  C   UNL A   1      45.165  25.810  35.672  1.00  0.00     0.198 A 
ATOM     93  F   UNL A   1      42.911  25.739  35.004  1.00  0.00    -0.203 F 
ATOM     94  F   UNL A   1      47.734  28.288  35.056  1.00  0.00    -0.200 F 
ATOM     95  C   UNL A   1      46.392  26.453  35.693  1.00  0.00     0.200 A 
ATOM     96  F   UNL A   1      45.015  24.633  36.296  1.00  0.00    -0.200 F 
ATOM     97  F   UNL A   1      47.435  25.890  36.319  1.00  0.00    -0.200 F 
ENDBRANCH  64  87
ENDBRANCH  38  39
ENDBRANCH  31  33
ENDBRANCH  30  31
ENDBRANCH  29  30
ENDBRANCH  28  29
ENDBRANCH  27  28
ENDBRANCH   1  27
TORSDOF 18
ENDMDL
