MODEL 1
REMARK VINA RESULT:     -14.2      0.000      0.000
REMARK SMILES [NH3+][C@H](CS[C@@H]1CC(=O)N(c2ccc3ccccc3c2)C1=O)C(=O)OCCOCCOC(=O)c1ccc(-c2c3nc(c(-c4c(F)c(F)c(F)c(F)c4F)c4ccc([nH]4)c(-c4c(F)c(F)c(F)c(F)c4F)c4nc(c(-c5c(F)c(F)c(F)c(F)c5F)c5ccc2[nH]5)C=C4)C=C3)cc1
REMARK SMILES IDX 26 1 25 2 24 3 22 4 23 5 2 6 1 7 3 11 4 12 5 13 6 14 20 15
REMARK SMILES IDX 7 16 9 17 21 18 8 19 10 20 11 21 19 22 12 23 18 24 13 25
REMARK SMILES IDX 17 26 14 27 16 28 15 29 27 30 28 31 29 32 30 33 31 34 32 35
REMARK SMILES IDX 33 36 34 37 95 38 35 39 94 40 36 41 37 42 38 43 88 44 39 45
REMARK SMILES IDX 93 46 87 47 89 48 40 49 92 50 86 51 85 52 41 54 73 55 53 56
REMARK SMILES IDX 72 57 54 58 57 59 71 60 90 61 55 62 56 63 70 65 91 66 58 67
REMARK SMILES IDX 42 68 43 69 51 70 44 71 45 72 49 73 52 74 46 75 47 76 50 77
REMARK SMILES IDX 48 78 74 79 75 80 83 81 76 82 77 83 81 84 84 85 78 86 79 87
REMARK SMILES IDX 82 88 80 89 59 90 60 91 68 92 61 93 62 94 66 95 69 96 63 97
REMARK SMILES IDX 64 98 67 99 65 100
REMARK H PARENT 1 8 1 9 1 10 89 53 57 64
REMARK Flexibility Score: inf
ROOT
ATOM      1  C   UNL A   1      31.987  31.401  26.820  1.00  0.00     0.202 C 
ENDROOT
BRANCH   1   2
ATOM      2  C   UNL A   1      31.997  30.076  25.876  1.00  0.00     0.261 C 
BRANCH   2   3
ATOM      3  O   UNL A   1      30.827  29.906  25.021  1.00  0.00    -0.459 OA
BRANCH   3   4
ATOM      4  C   UNL A   1      30.822  28.994  24.022  1.00  0.00     0.365 C 
ATOM      5  O   UNL A   1      29.988  28.099  23.950  1.00  0.00    -0.245 OA
BRANCH   4   6
ATOM      6  C   UNL A   1      31.831  29.328  22.871  1.00  0.00     0.301 C 
BRANCH   6   7
ATOM      7  N   UNL A   1      31.118  29.707  21.626  1.00  0.00    -0.345 N 
ATOM      8  H   UNL A   1      31.510  29.191  20.838  1.00  0.00     0.345 HD
ATOM      9  H   UNL A   1      31.226  30.708  21.464  1.00  0.00     0.345 HD
ATOM     10  H   UNL A   1      30.128  29.483  21.720  1.00  0.00     0.345 HD
ENDBRANCH   6   7
BRANCH   6  11
ATOM     11  C   UNL A   1      33.080  28.461  22.530  1.00  0.00     0.147 C 
BRANCH  11  12
ATOM     12  S   UNL A   1      33.972  27.384  23.712  1.00  0.00    -0.141 SA
BRANCH  12  13
ATOM     13  C   UNL A   1      32.861  25.869  23.789  1.00  0.00     0.146 C 
ATOM     14  C   UNL A   1      32.088  25.550  25.670  1.00  0.00     0.125 C 
ATOM     15  C   UNL A   1      33.138  23.946  23.087  1.00  0.00     0.247 C 
ATOM     16  C   UNL A   1      32.098  23.578  25.931  1.00  0.00     0.235 C 
ATOM     17  N   UNL A   1      32.769  22.860  24.474  1.00  0.00    -0.250 N 
ATOM     18  O   UNL A   1      33.392  23.497  21.984  1.00  0.00    -0.273 OA
ATOM     19  O   UNL A   1      31.823  22.989  26.966  1.00  0.00    -0.274 OA
BRANCH  17  20
ATOM     20  C   UNL A   1      33.413  21.587  24.630  1.00  0.00     0.052 A 
ATOM     21  C   UNL A   1      34.743  21.453  25.005  1.00  0.00     0.027 A 
ATOM     22  C   UNL A   1      32.726  20.428  24.219  1.00  0.00     0.035 A 
ATOM     23  C   UNL A   1      35.344  20.173  25.001  1.00  0.00     0.011 A 
ATOM     24  C   UNL A   1      33.291  19.152  24.232  1.00  0.00    -0.016 A 
ATOM     25  C   UNL A   1      34.628  19.008  24.626  1.00  0.00    -0.018 A 
ATOM     26  C   UNL A   1      32.527  18.038  23.844  1.00  0.00     0.009 A 
ATOM     27  C   UNL A   1      35.175  17.708  24.616  1.00  0.00     0.009 A 
ATOM     28  C   UNL A   1      33.079  16.764  23.850  1.00  0.00     0.001 A 
ATOM     29  C   UNL A   1      34.405  16.598  24.236  1.00  0.00     0.001 A 
ENDBRANCH  17  20
ENDBRANCH  12  13
ENDBRANCH  11  12
ENDBRANCH   6  11
ENDBRANCH   4   6
ENDBRANCH   3   4
ENDBRANCH   2   3
ENDBRANCH   1   2
BRANCH   1  30
ATOM     30  O   UNL A   1      33.278  31.936  27.586  1.00  0.00    -0.374 OA
BRANCH  30  31
ATOM     31  C   UNL A   1      34.124  33.491  28.597  1.00  0.00     0.202 C 
BRANCH  31  32
ATOM     32  C   UNL A   1      34.421  33.611  30.342  1.00  0.00     0.261 C 
BRANCH  32  33
ATOM     33  O   UNL A   1      34.436  32.328  31.023  1.00  0.00    -0.460 OA
BRANCH  33  34
ATOM     34  C   UNL A   1      35.381  31.982  31.923  1.00  0.00     0.338 C 
ATOM     35  O   UNL A   1      35.507  32.421  33.050  1.00  0.00    -0.246 OA
BRANCH  34  36
ATOM     36  C   UNL A   1      36.233  30.901  31.337  1.00  0.00     0.060 A 
ATOM     37  C   UNL A   1      37.050  30.099  32.156  1.00  0.00     0.016 A 
ATOM     38  C   UNL A   1      36.346  30.782  29.953  1.00  0.00     0.016 A 
ATOM     39  C   UNL A   1      38.030  29.264  31.618  1.00  0.00     0.010 A 
ATOM     40  C   UNL A   1      37.342  29.958  29.405  1.00  0.00     0.010 A 
ATOM     41  C   UNL A   1      38.235  29.258  30.240  1.00  0.00    -0.014 A 
BRANCH  41  42
ATOM     42  C   UNL A   1      39.546  28.810  29.704  1.00  0.00     0.031 A 
ATOM     43  C   UNL A   1      40.663  29.823  29.673  1.00  0.00     0.074 A 
ATOM     44  C   UNL A   1      39.756  27.553  29.281  1.00  0.00     0.049 A 
ATOM     45  N   UNL A   1      41.847  29.750  29.120  1.00  0.00    -0.248 NA
ATOM     46  C   UNL A   1      40.399  31.102  30.355  1.00  0.00     0.031 C 
ATOM     47  C   UNL A   1      38.786  26.464  29.352  1.00  0.00     0.029 A 
ATOM     48  N   UNL A   1      40.858  26.987  28.689  1.00  0.00    -0.354 N 
ATOM     49  C   UNL A   1      42.446  30.984  29.352  1.00  0.00     0.074 A 
ATOM     50  C   UNL A   1      41.499  31.788  30.089  1.00  0.00     0.031 C 
ATOM     51  C   UNL A   1      39.325  25.364  28.796  1.00  0.00     0.029 A 
ATOM     52  C   UNL A   1      40.660  25.688  28.293  1.00  0.00     0.049 A 
ATOM     53  H   UNL A   1      41.708  27.468  28.562  1.00  0.00     0.167 HD
ATOM     54  C   UNL A   1      43.676  31.409  28.972  1.00  0.00     0.037 A 
ATOM     55  C   UNL A   1      41.457  24.873  27.573  1.00  0.00     0.037 A 
ATOM     56  C   UNL A   1      44.612  30.591  28.247  1.00  0.00     0.049 A 
ATOM     57  C   UNL A   1      42.798  25.384  27.111  1.00  0.00     0.074 A 
ATOM     58  C   UNL A   1      45.884  30.911  27.809  1.00  0.00     0.029 A 
ATOM     59  N   UNL A   1      44.369  29.283  27.853  1.00  0.00    -0.354 N 
ATOM     60  N   UNL A   1      43.352  26.558  27.306  1.00  0.00    -0.248 NA
ATOM     61  C   UNL A   1      43.627  24.456  26.330  1.00  0.00     0.031 C 
ATOM     62  C   UNL A   1      46.390  29.814  27.105  1.00  0.00     0.029 A 
ATOM     63  C   UNL A   1      45.461  28.787  27.161  1.00  0.00     0.049 A 
ATOM     64  H   UNL A   1      43.543  28.780  28.039  1.00  0.00     0.167 HD
ATOM     65  C   UNL A   1      44.604  26.497  26.707  1.00  0.00     0.074 A 
ATOM     66  C   UNL A   1      44.732  25.166  26.149  1.00  0.00     0.031 C 
ATOM     67  C   UNL A   1      45.565  27.453  26.626  1.00  0.00     0.037 A 
BRANCH  54  68
ATOM     68  C   UNL A   1      44.049  32.831  29.286  1.00  0.00     0.064 A 
ATOM     69  C   UNL A   1      43.919  33.865  28.346  1.00  0.00     0.173 A 
ATOM     70  C   UNL A   1      44.538  33.166  30.560  1.00  0.00     0.173 A 
ATOM     71  F   UNL A   1      43.473  33.600  27.109  1.00  0.00    -0.203 F 
ATOM     72  C   UNL A   1      44.292  35.171  28.659  1.00  0.00     0.198 A 
ATOM     73  C   UNL A   1      44.877  34.478  30.879  1.00  0.00     0.198 A 
ATOM     74  F   UNL A   1      44.681  32.219  31.500  1.00  0.00    -0.203 F 
ATOM     75  F   UNL A   1      44.209  36.131  27.727  1.00  0.00    -0.200 F 
ATOM     76  C   UNL A   1      44.764  35.478  29.926  1.00  0.00     0.200 A 
ATOM     77  F   UNL A   1      45.320  34.774  32.109  1.00  0.00    -0.200 F 
ATOM     78  F   UNL A   1      45.116  36.735  30.227  1.00  0.00    -0.200 F 
ENDBRANCH  54  68
BRANCH  55  79
ATOM     79  C   UNL A   1      41.004  23.495  27.236  1.00  0.00     0.064 A 
ATOM     80  C   UNL A   1      39.947  23.279  26.341  1.00  0.00     0.173 A 
ATOM     81  C   UNL A   1      41.615  22.365  27.802  1.00  0.00     0.173 A 
ATOM     82  F   UNL A   1      39.309  24.326  25.796  1.00  0.00    -0.203 F 
ATOM     83  C   UNL A   1      39.510  21.992  26.034  1.00  0.00     0.198 A 
ATOM     84  C   UNL A   1      41.199  21.077  27.469  1.00  0.00     0.198 A 
ATOM     85  F   UNL A   1      42.627  22.511  28.669  1.00  0.00    -0.203 F 
ATOM     86  F   UNL A   1      38.470  21.819  25.208  1.00  0.00    -0.200 F 
ATOM     87  C   UNL A   1      40.144  20.891  26.590  1.00  0.00     0.200 A 
ATOM     88  F   UNL A   1      41.822  20.015  28.000  1.00  0.00    -0.200 F 
ATOM     89  F   UNL A   1      39.732  19.653  26.285  1.00  0.00    -0.200 F 
ENDBRANCH  55  79
BRANCH  67  90
ATOM     90  C   UNL A   1      46.857  27.068  25.963  1.00  0.00     0.064 A 
ATOM     91  C   UNL A   1      47.123  27.374  24.621  1.00  0.00     0.173 A 
ATOM     92  C   UNL A   1      47.851  26.398  26.693  1.00  0.00     0.173 A 
ATOM     93  F   UNL A   1      46.201  28.003  23.876  1.00  0.00    -0.203 F 
ATOM     94  C   UNL A   1      48.320  26.987  24.023  1.00  0.00     0.198 A 
ATOM     95  C   UNL A   1      49.061  26.045  26.103  1.00  0.00     0.198 A 
ATOM     96  F   UNL A   1      47.652  26.092  27.984  1.00  0.00    -0.203 F 
ATOM     97  F   UNL A   1      48.527  27.234  22.722  1.00  0.00    -0.200 F 
ATOM     98  C   UNL A   1      49.290  26.329  24.765  1.00  0.00     0.200 A 
ATOM     99  F   UNL A   1      50.002  25.423  26.826  1.00  0.00    -0.200 F 
ATOM    100  F   UNL A   1      50.440  25.958  24.188  1.00  0.00    -0.200 F 
ENDBRANCH  67  90
ENDBRANCH  41  42
ENDBRANCH  34  36
ENDBRANCH  33  34
ENDBRANCH  32  33
ENDBRANCH  31  32
ENDBRANCH  30  31
ENDBRANCH   1  30
TORSDOF 19
ENDMDL
MODEL 2
REMARK VINA RESULT:     -14.0      4.956     10.774
REMARK SMILES [NH3+][C@H](CS[C@@H]1CC(=O)N(c2ccc3ccccc3c2)C1=O)C(=O)OCCOCCOC(=O)c1ccc(-c2c3nc(c(-c4c(F)c(F)c(F)c(F)c4F)c4ccc([nH]4)c(-c4c(F)c(F)c(F)c(F)c4F)c4nc(c(-c5c(F)c(F)c(F)c(F)c5F)c5ccc2[nH]5)C=C4)C=C3)cc1
REMARK SMILES IDX 26 1 25 2 24 3 22 4 23 5 2 6 1 7 3 11 4 12 5 13 6 14 20 15
REMARK SMILES IDX 7 16 9 17 21 18 8 19 10 20 11 21 19 22 12 23 18 24 13 25
REMARK SMILES IDX 17 26 14 27 16 28 15 29 27 30 28 31 29 32 30 33 31 34 32 35
REMARK SMILES IDX 33 36 34 37 95 38 35 39 94 40 36 41 37 42 38 43 88 44 39 45
REMARK SMILES IDX 93 46 87 47 89 48 40 49 92 50 86 51 85 52 41 54 73 55 53 56
REMARK SMILES IDX 72 57 54 58 57 59 71 60 90 61 55 62 56 63 70 65 91 66 58 67
REMARK SMILES IDX 42 68 43 69 51 70 44 71 45 72 49 73 52 74 46 75 47 76 50 77
REMARK SMILES IDX 48 78 74 79 75 80 83 81 76 82 77 83 81 84 84 85 78 86 79 87
REMARK SMILES IDX 82 88 80 89 59 90 60 91 68 92 61 93 62 94 66 95 69 96 63 97
REMARK SMILES IDX 64 98 67 99 65 100
REMARK H PARENT 1 8 1 9 1 10 89 53 57 64
REMARK Flexibility Score: inf
ROOT
ATOM      1  C   UNL A   1      40.656  19.616  26.110  1.00  0.00     0.202 C 
ENDROOT
BRANCH   1   2
ATOM      2  C   UNL A   1      40.144  21.009  26.776  1.00  0.00     0.261 C 
BRANCH   2   3
ATOM      3  O   UNL A   1      39.570  21.976  25.846  1.00  0.00    -0.459 OA
BRANCH   3   4
ATOM      4  C   UNL A   1      38.263  21.920  25.504  1.00  0.00     0.365 C 
ATOM      5  O   UNL A   1      37.725  20.888  25.120  1.00  0.00    -0.245 OA
BRANCH   4   6
ATOM      6  C   UNL A   1      37.471  23.226  25.855  1.00  0.00     0.301 C 
BRANCH   6   7
ATOM      7  N   UNL A   1      38.143  23.983  26.939  1.00  0.00    -0.345 N 
ATOM      8  H   UNL A   1      39.124  23.708  26.990  1.00  0.00     0.345 HD
ATOM      9  H   UNL A   1      37.688  23.780  27.829  1.00  0.00     0.345 HD
ATOM     10  H   UNL A   1      38.081  24.982  26.746  1.00  0.00     0.345 HD
ENDBRANCH   6   7
BRANCH   6  11
ATOM     11  C   UNL A   1      35.926  23.284  26.039  1.00  0.00     0.147 C 
BRANCH  11  12
ATOM     12  S   UNL A   1      34.800  21.841  25.976  1.00  0.00    -0.141 SA
BRANCH  12  13
ATOM     13  C   UNL A   1      33.405  22.471  24.884  1.00  0.00     0.146 C 
ATOM     14  C   UNL A   1      34.022  22.865  22.960  1.00  0.00     0.125 C 
ATOM     15  C   UNL A   1      31.985  23.937  25.208  1.00  0.00     0.247 C 
ATOM     16  C   UNL A   1      33.050  24.510  22.408  1.00  0.00     0.235 C 
ATOM     17  N   UNL A   1      32.050  25.009  23.764  1.00  0.00    -0.250 N 
ATOM     18  O   UNL A   1      31.153  24.102  26.081  1.00  0.00    -0.273 OA
ATOM     19  O   UNL A   1      33.227  25.135  21.372  1.00  0.00    -0.274 OA
BRANCH  17  20
ATOM     20  C   UNL A   1      31.739  26.407  23.846  1.00  0.00     0.052 A 
ATOM     21  C   UNL A   1      32.509  27.312  24.564  1.00  0.00     0.027 A 
ATOM     22  C   UNL A   1      30.510  26.857  23.325  1.00  0.00     0.035 A 
ATOM     23  C   UNL A   1      32.061  28.645  24.713  1.00  0.00     0.011 A 
ATOM     24  C   UNL A   1      30.061  28.174  23.438  1.00  0.00    -0.016 A 
ATOM     25  C   UNL A   1      30.842  29.096  24.147  1.00  0.00    -0.018 A 
ATOM     26  C   UNL A   1      28.840  28.556  22.855  1.00  0.00     0.009 A 
ATOM     27  C   UNL A   1      30.356  30.416  24.255  1.00  0.00     0.009 A 
ATOM     28  C   UNL A   1      28.382  29.862  22.963  1.00  0.00     0.001 A 
ATOM     29  C   UNL A   1      29.140  30.793  23.665  1.00  0.00     0.001 A 
ENDBRANCH  17  20
ENDBRANCH  12  13
ENDBRANCH  11  12
ENDBRANCH   6  11
ENDBRANCH   4   6
ENDBRANCH   3   4
ENDBRANCH   2   3
ENDBRANCH   1   2
BRANCH   1  30
ATOM     30  O   UNL A   1      42.108  19.430  25.482  1.00  0.00    -0.374 OA
BRANCH  30  31
ATOM     31  C   UNL A   1      43.920  20.291  25.123  1.00  0.00     0.202 C 
BRANCH  31  32
ATOM     32  C   UNL A   1      44.527  21.836  25.751  1.00  0.00     0.261 C 
BRANCH  32  33
ATOM     33  O   UNL A   1      43.540  22.902  25.736  1.00  0.00    -0.460 OA
BRANCH  33  34
ATOM     34  C   UNL A   1      43.801  24.142  25.269  1.00  0.00     0.338 C 
ATOM     35  O   UNL A   1      44.623  24.441  24.423  1.00  0.00    -0.246 OA
BRANCH  34  36
ATOM     36  C   UNL A   1      42.859  25.109  25.913  1.00  0.00     0.060 A 
ATOM     37  C   UNL A   1      43.018  26.497  25.742  1.00  0.00     0.016 A 
ATOM     38  C   UNL A   1      41.908  24.648  26.821  1.00  0.00     0.016 A 
ATOM     39  C   UNL A   1      42.316  27.415  26.524  1.00  0.00     0.010 A 
ATOM     40  C   UNL A   1      41.212  25.566  27.624  1.00  0.00     0.010 A 
ATOM     41  C   UNL A   1      41.473  26.946  27.529  1.00  0.00    -0.014 A 
BRANCH  41  42
ATOM     42  C   UNL A   1      41.136  27.839  28.667  1.00  0.00     0.031 A 
ATOM     43  C   UNL A   1      41.988  27.734  29.906  1.00  0.00     0.074 A 
ATOM     44  C   UNL A   1      40.130  28.729  28.606  1.00  0.00     0.049 A 
ATOM     45  N   UNL A   1      41.823  28.273  31.088  1.00  0.00    -0.248 NA
ATOM     46  C   UNL A   1      43.192  26.891  29.796  1.00  0.00     0.031 C 
ATOM     47  C   UNL A   1      39.301  28.990  27.434  1.00  0.00     0.029 A 
ATOM     48  N   UNL A   1      39.627  29.566  29.571  1.00  0.00    -0.354 N 
ATOM     49  C   UNL A   1      42.875  27.800  31.866  1.00  0.00     0.074 A 
ATOM     50  C   UNL A   1      43.669  26.930  31.030  1.00  0.00     0.031 C 
ATOM     51  C   UNL A   1      38.370  29.905  27.754  1.00  0.00     0.029 A 
ATOM     52  C   UNL A   1      38.513  30.260  29.166  1.00  0.00     0.049 A 
ATOM     53  H   UNL A   1      40.027  29.661  30.466  1.00  0.00     0.167 HD
ATOM     54  C   UNL A   1      43.146  28.065  33.167  1.00  0.00     0.037 A 
ATOM     55  C   UNL A   1      37.688  31.057  29.872  1.00  0.00     0.037 A 
ATOM     56  C   UNL A   1      42.350  28.944  33.983  1.00  0.00     0.049 A 
ATOM     57  C   UNL A   1      37.974  31.293  31.334  1.00  0.00     0.074 A 
ATOM     58  C   UNL A   1      42.526  29.288  35.311  1.00  0.00     0.029 A 
ATOM     59  N   UNL A   1      41.222  29.618  33.539  1.00  0.00    -0.354 N 
ATOM     60  N   UNL A   1      38.951  30.826  32.076  1.00  0.00    -0.248 NA
ATOM     61  C   UNL A   1      37.043  32.171  32.058  1.00  0.00     0.031 C 
ATOM     62  C   UNL A   1      41.473  30.130  35.685  1.00  0.00     0.029 A 
ATOM     63  C   UNL A   1      40.679  30.363  34.573  1.00  0.00     0.049 A 
ATOM     64  H   UNL A   1      40.860  29.574  32.624  1.00  0.00     0.167 HD
ATOM     65  C   UNL A   1      38.774  31.378  33.338  1.00  0.00     0.074 A 
ATOM     66  C   UNL A   1      37.601  32.225  33.259  1.00  0.00     0.031 C 
ATOM     67  C   UNL A   1      39.516  31.207  34.462  1.00  0.00     0.037 A 
BRANCH  54  68
ATOM     68  C   UNL A   1      44.312  27.354  33.794  1.00  0.00     0.064 A 
ATOM     69  C   UNL A   1      45.599  27.914  33.833  1.00  0.00     0.173 A 
ATOM     70  C   UNL A   1      44.135  26.089  34.378  1.00  0.00     0.173 A 
ATOM     71  F   UNL A   1      45.830  29.112  33.276  1.00  0.00    -0.203 F 
ATOM     72  C   UNL A   1      46.666  27.223  34.403  1.00  0.00     0.198 A 
ATOM     73  C   UNL A   1      45.197  25.416  34.978  1.00  0.00     0.198 A 
ATOM     74  F   UNL A   1      42.926  25.505  34.374  1.00  0.00    -0.203 F 
ATOM     75  F   UNL A   1      47.896  27.755  34.381  1.00  0.00    -0.200 F 
ATOM     76  C   UNL A   1      46.463  25.979  34.981  1.00  0.00     0.200 A 
ATOM     77  F   UNL A   1      44.994  24.220  35.548  1.00  0.00    -0.200 F 
ATOM     78  F   UNL A   1      47.489  25.319  35.536  1.00  0.00    -0.200 F 
ENDBRANCH  54  68
BRANCH  55  79
ATOM     79  C   UNL A   1      36.508  31.682  29.211  1.00  0.00     0.064 A 
ATOM     80  C   UNL A   1      36.467  33.061  28.960  1.00  0.00     0.173 A 
ATOM     81  C   UNL A   1      35.398  30.918  28.821  1.00  0.00     0.173 A 
ATOM     82  F   UNL A   1      37.489  33.841  29.341  1.00  0.00    -0.203 F 
ATOM     83  C   UNL A   1      35.359  33.652  28.355  1.00  0.00     0.198 A 
ATOM     84  C   UNL A   1      34.305  31.505  28.187  1.00  0.00     0.198 A 
ATOM     85  F   UNL A   1      35.380  29.596  29.042  1.00  0.00    -0.203 F 
ATOM     86  F   UNL A   1      35.330  34.978  28.166  1.00  0.00    -0.200 F 
ATOM     87  C   UNL A   1      34.282  32.872  27.960  1.00  0.00     0.200 A 
ATOM     88  F   UNL A   1      33.272  30.745  27.796  1.00  0.00    -0.200 F 
ATOM     89  F   UNL A   1      33.223  33.439  27.367  1.00  0.00    -0.200 F 
ENDBRANCH  55  79
BRANCH  67  90
ATOM     90  C   UNL A   1      39.112  31.997  35.675  1.00  0.00     0.064 A 
ATOM     91  C   UNL A   1      38.290  31.456  36.673  1.00  0.00     0.173 A 
ATOM     92  C   UNL A   1      39.574  33.311  35.844  1.00  0.00     0.173 A 
ATOM     93  F   UNL A   1      37.812  30.208  36.553  1.00  0.00    -0.203 F 
ATOM     94  C   UNL A   1      37.912  32.217  37.778  1.00  0.00     0.198 A 
ATOM     95  C   UNL A   1      39.223  34.056  36.966  1.00  0.00     0.198 A 
ATOM     96  F   UNL A   1      40.373  33.872  34.923  1.00  0.00    -0.203 F 
ATOM     97  F   UNL A   1      37.075  31.702  38.688  1.00  0.00    -0.200 F 
ATOM     98  C   UNL A   1      38.383  33.513  37.926  1.00  0.00     0.200 A 
ATOM     99  F   UNL A   1      39.693  35.302  37.115  1.00  0.00    -0.200 F 
ATOM    100  F   UNL A   1      38.018  34.243  38.988  1.00  0.00    -0.200 F 
ENDBRANCH  67  90
ENDBRANCH  41  42
ENDBRANCH  34  36
ENDBRANCH  33  34
ENDBRANCH  32  33
ENDBRANCH  31  32
ENDBRANCH  30  31
ENDBRANCH   1  30
TORSDOF 19
ENDMDL
MODEL 3
REMARK VINA RESULT:     -13.5      4.964     10.704
REMARK SMILES [NH3+][C@H](CS[C@@H]1CC(=O)N(c2ccc3ccccc3c2)C1=O)C(=O)OCCOCCOC(=O)c1ccc(-c2c3nc(c(-c4c(F)c(F)c(F)c(F)c4F)c4ccc([nH]4)c(-c4c(F)c(F)c(F)c(F)c4F)c4nc(c(-c5c(F)c(F)c(F)c(F)c5F)c5ccc2[nH]5)C=C4)C=C3)cc1
REMARK SMILES IDX 26 1 25 2 24 3 22 4 23 5 2 6 1 7 3 11 4 12 5 13 6 14 20 15
REMARK SMILES IDX 7 16 9 17 21 18 8 19 10 20 11 21 19 22 12 23 18 24 13 25
REMARK SMILES IDX 17 26 14 27 16 28 15 29 27 30 28 31 29 32 30 33 31 34 32 35
REMARK SMILES IDX 33 36 34 37 95 38 35 39 94 40 36 41 37 42 38 43 88 44 39 45
REMARK SMILES IDX 93 46 87 47 89 48 40 49 92 50 86 51 85 52 41 54 73 55 53 56
REMARK SMILES IDX 72 57 54 58 57 59 71 60 90 61 55 62 56 63 70 65 91 66 58 67
REMARK SMILES IDX 42 68 43 69 51 70 44 71 45 72 49 73 52 74 46 75 47 76 50 77
REMARK SMILES IDX 48 78 74 79 75 80 83 81 76 82 77 83 81 84 84 85 78 86 79 87
REMARK SMILES IDX 82 88 80 89 59 90 60 91 68 92 61 93 62 94 66 95 69 96 63 97
REMARK SMILES IDX 64 98 67 99 65 100
REMARK H PARENT 1 8 1 9 1 10 89 53 57 64
REMARK Flexibility Score: inf
ROOT
ATOM      1  C   UNL A   1      38.541  19.852  25.315  1.00  0.00     0.202 C 
ENDROOT
BRANCH   1   2
ATOM      2  C   UNL A   1      38.227  21.443  25.445  1.00  0.00     0.261 C 
BRANCH   2   3
ATOM      3  O   UNL A   1      37.035  21.907  24.743  1.00  0.00    -0.459 OA
BRANCH   3   4
ATOM      4  C   UNL A   1      35.806  21.460  25.090  1.00  0.00     0.365 C 
ATOM      5  O   UNL A   1      35.491  20.278  25.022  1.00  0.00    -0.245 OA
BRANCH   4   6
ATOM      6  C   UNL A   1      34.921  22.551  25.785  1.00  0.00     0.301 C 
BRANCH   6   7
ATOM      7  N   UNL A   1      35.266  22.684  27.222  1.00  0.00    -0.345 N 
ATOM      8  H   UNL A   1      36.259  22.897  27.315  1.00  0.00     0.345 HD
ATOM      9  H   UNL A   1      35.059  21.810  27.704  1.00  0.00     0.345 HD
ATOM     10  H   UNL A   1      34.717  23.438  27.634  1.00  0.00     0.345 HD
ENDBRANCH   6   7
BRANCH   6  11
ATOM     11  C   UNL A   1      33.381  22.675  25.589  1.00  0.00     0.147 C 
BRANCH  11  12
ATOM     12  S   UNL A   1      32.379  21.670  24.433  1.00  0.00    -0.141 SA
BRANCH  12  13
ATOM     13  C   UNL A   1      31.886  22.933  23.130  1.00  0.00     0.146 C 
ATOM     14  C   UNL A   1      33.512  23.762  22.178  1.00  0.00     0.125 C 
ATOM     15  C   UNL A   1      30.558  24.514  23.207  1.00  0.00     0.247 C 
ATOM     16  C   UNL A   1      33.060  25.680  21.908  1.00  0.00     0.235 C 
ATOM     17  N   UNL A   1      31.462  25.943  22.592  1.00  0.00    -0.250 N 
ATOM     18  O   UNL A   1      29.375  24.587  23.484  1.00  0.00    -0.273 OA
ATOM     19  O   UNL A   1      33.813  26.542  21.479  1.00  0.00    -0.274 OA
BRANCH  17  20
ATOM     20  C   UNL A   1      31.176  27.274  23.049  1.00  0.00     0.052 A 
ATOM     21  C   UNL A   1      31.658  27.780  24.248  1.00  0.00     0.027 A 
ATOM     22  C   UNL A   1      30.229  28.040  22.344  1.00  0.00     0.035 A 
ATOM     23  C   UNL A   1      31.218  29.047  24.696  1.00  0.00     0.011 A 
ATOM     24  C   UNL A   1      29.801  29.304  22.754  1.00  0.00    -0.016 A 
ATOM     25  C   UNL A   1      30.296  29.828  23.955  1.00  0.00    -0.018 A 
ATOM     26  C   UNL A   1      28.880  30.025  21.973  1.00  0.00     0.009 A 
ATOM     27  C   UNL A   1      29.835  31.102  24.350  1.00  0.00     0.009 A 
ATOM     28  C   UNL A   1      28.445  31.282  22.373  1.00  0.00     0.001 A 
ATOM     29  C   UNL A   1      28.922  31.821  23.563  1.00  0.00     0.001 A 
ENDBRANCH  17  20
ENDBRANCH  12  13
ENDBRANCH  11  12
ENDBRANCH   6  11
ENDBRANCH   4   6
ENDBRANCH   3   4
ENDBRANCH   2   3
ENDBRANCH   1   2
BRANCH   1  30
ATOM     30  O   UNL A   1      39.991  19.228  25.533  1.00  0.00    -0.374 OA
BRANCH  30  31
ATOM     31  C   UNL A   1      41.960  19.606  25.896  1.00  0.00     0.202 C 
BRANCH  31  32
ATOM     32  C   UNL A   1      42.691  21.142  26.402  1.00  0.00     0.261 C 
BRANCH  32  33
ATOM     33  O   UNL A   1      42.002  22.315  25.890  1.00  0.00    -0.460 OA
BRANCH  33  34
ATOM     34  C   UNL A   1      42.648  23.416  25.451  1.00  0.00     0.338 C 
ATOM     35  O   UNL A   1      43.612  23.445  24.708  1.00  0.00    -0.246 OA
BRANCH  34  36
ATOM     36  C   UNL A   1      41.944  24.629  25.972  1.00  0.00     0.060 A 
ATOM     37  C   UNL A   1      42.512  25.909  25.837  1.00  0.00     0.016 A 
ATOM     38  C   UNL A   1      40.790  24.483  26.739  1.00  0.00     0.016 A 
ATOM     39  C   UNL A   1      42.004  27.011  26.526  1.00  0.00     0.010 A 
ATOM     40  C   UNL A   1      40.285  25.583  27.450  1.00  0.00     0.010 A 
ATOM     41  C   UNL A   1      40.938  26.829  27.404  1.00  0.00    -0.014 A 
BRANCH  41  42
ATOM     42  C   UNL A   1      40.722  27.814  28.495  1.00  0.00     0.031 A 
ATOM     43  C   UNL A   1      41.649  27.747  29.682  1.00  0.00     0.074 A 
ATOM     44  C   UNL A   1      39.760  28.750  28.436  1.00  0.00     0.049 A 
ATOM     45  N   UNL A   1      41.591  28.373  30.830  1.00  0.00    -0.248 NA
ATOM     46  C   UNL A   1      42.800  26.836  29.556  1.00  0.00     0.031 C 
ATOM     47  C   UNL A   1      38.868  28.976  27.302  1.00  0.00     0.029 A 
ATOM     48  N   UNL A   1      39.364  29.677  29.369  1.00  0.00    -0.354 N 
ATOM     49  C   UNL A   1      42.668  27.898  31.572  1.00  0.00     0.074 A 
ATOM     50  C   UNL A   1      43.361  26.932  30.751  1.00  0.00     0.031 C 
ATOM     51  C   UNL A   1      38.007  29.960  27.616  1.00  0.00     0.029 A 
ATOM     52  C   UNL A   1      38.261  30.400  28.987  1.00  0.00     0.049 A 
ATOM     53  H   UNL A   1      39.828  29.810  30.227  1.00  0.00     0.167 HD
ATOM     54  C   UNL A   1      43.038  28.234  32.831  1.00  0.00     0.037 A 
ATOM     55  C   UNL A   1      37.525  31.287  29.686  1.00  0.00     0.037 A 
ATOM     56  C   UNL A   1      42.343  29.208  33.632  1.00  0.00     0.049 A 
ATOM     57  C   UNL A   1      37.920  31.605  31.106  1.00  0.00     0.074 A 
ATOM     58  C   UNL A   1      42.624  29.631  34.918  1.00  0.00     0.029 A 
ATOM     59  N   UNL A   1      41.222  29.910  33.214  1.00  0.00    -0.354 N 
ATOM     60  N   UNL A   1      38.920  31.137  31.816  1.00  0.00    -0.248 NA
ATOM     61  C   UNL A   1      37.084  32.578  31.824  1.00  0.00     0.031 C 
ATOM     62  C   UNL A   1      41.641  30.551  35.298  1.00  0.00     0.029 A 
ATOM     63  C   UNL A   1      40.787  30.751  34.225  1.00  0.00     0.049 A 
ATOM     64  H   UNL A   1      40.798  29.825  32.329  1.00  0.00     0.167 HD
ATOM     65  C   UNL A   1      38.856  31.782  33.044  1.00  0.00     0.074 A 
ATOM     66  C   UNL A   1      37.723  32.683  32.980  1.00  0.00     0.031 C 
ATOM     67  C   UNL A   1      39.662  31.647  34.129  1.00  0.00     0.037 A 
BRANCH  54  68
ATOM     68  C   UNL A   1      44.208  27.505  33.432  1.00  0.00     0.064 A 
ATOM     69  C   UNL A   1      44.056  26.313  34.157  1.00  0.00     0.173 A 
ATOM     70  C   UNL A   1      45.509  28.008  33.269  1.00  0.00     0.173 A 
ATOM     71  F   UNL A   1      42.835  25.796  34.358  1.00  0.00    -0.203 F 
ATOM     72  C   UNL A   1      45.156  25.669  34.720  1.00  0.00     0.198 A 
ATOM     73  C   UNL A   1      46.610  27.343  33.804  1.00  0.00     0.198 A 
ATOM     74  F   UNL A   1      45.716  29.143  32.582  1.00  0.00    -0.203 F 
ATOM     75  F   UNL A   1      44.980  24.561  35.453  1.00  0.00    -0.200 F 
ATOM     76  C   UNL A   1      46.433  26.181  34.537  1.00  0.00     0.200 A 
ATOM     77  F   UNL A   1      47.843  27.832  33.614  1.00  0.00    -0.200 F 
ATOM     78  F   UNL A   1      47.491  25.557  35.073  1.00  0.00    -0.200 F 
ENDBRANCH  54  68
BRANCH  55  79
ATOM     79  C   UNL A   1      36.337  31.929  29.059  1.00  0.00     0.064 A 
ATOM     80  C   UNL A   1      35.198  31.178  28.732  1.00  0.00     0.173 A 
ATOM     81  C   UNL A   1      36.313  33.302  28.769  1.00  0.00     0.173 A 
ATOM     82  F   UNL A   1      35.180  29.857  28.961  1.00  0.00    -0.203 F 
ATOM     83  C   UNL A   1      34.089  31.771  28.133  1.00  0.00     0.198 A 
ATOM     84  C   UNL A   1      35.191  33.900  28.198  1.00  0.00     0.198 A 
ATOM     85  F   UNL A   1      37.377  34.067  29.053  1.00  0.00    -0.203 F 
ATOM     86  F   UNL A   1      33.032  31.021  27.794  1.00  0.00    -0.200 F 
ATOM     87  C   UNL A   1      34.082  33.134  27.875  1.00  0.00     0.200 A 
ATOM     88  F   UNL A   1      35.185  35.219  27.962  1.00  0.00    -0.200 F 
ATOM     89  F   UNL A   1      33.011  33.706  27.309  1.00  0.00    -0.200 F 
ENDBRANCH  55  79
BRANCH  67  90
ATOM     90  C   UNL A   1      39.379  32.538  35.305  1.00  0.00     0.064 A 
ATOM     91  C   UNL A   1      38.552  32.132  36.362  1.00  0.00     0.173 A 
ATOM     92  C   UNL A   1      39.965  33.811  35.380  1.00  0.00     0.173 A 
ATOM     93  F   UNL A   1      37.960  30.929  36.333  1.00  0.00    -0.203 F 
ATOM     94  C   UNL A   1      38.289  32.985  37.431  1.00  0.00     0.198 A 
ATOM     95  C   UNL A   1      39.728  34.647  36.467  1.00  0.00     0.198 A 
ATOM     96  F   UNL A   1      40.774  34.243  34.401  1.00  0.00    -0.203 F 
ATOM     97  F   UNL A   1      37.446  32.601  38.399  1.00  0.00    -0.200 F 
ATOM     98  C   UNL A   1      38.881  34.238  37.486  1.00  0.00     0.200 A 
ATOM     99  F   UNL A   1      40.314  35.851  36.525  1.00  0.00    -0.200 F 
ATOM    100  F   UNL A   1      38.626  35.057  38.515  1.00  0.00    -0.200 F 
ENDBRANCH  67  90
ENDBRANCH  41  42
ENDBRANCH  34  36
ENDBRANCH  33  34
ENDBRANCH  32  33
ENDBRANCH  31  32
ENDBRANCH  30  31
ENDBRANCH   1  30
TORSDOF 19
ENDMDL
