MODEL 1
REMARK VINA RESULT:     -11.7      0.000      0.000
REMARK SMILES CCNC(=O)N1CC[C@H](Cc2cccc(C(=O)OCCOCCOC(=O)c3ccc(-c4c5nc(c(-c6c(F)c(F)c(F)c(F)c6F)c6ccc([nH]6)c(-c6c(F)c(F)c(F)c(F)c6F)c6nc(c(-c7c(F)c(F)c(F)c(F)c7F)c7ccc4[nH]7)C=C6)C=C5)cc3)c2)C1
REMARK SMILES IDX 20 1 19 2 18 3 16 4 17 5 15 6 11 7 12 8 90 9 13 10 14 11
REMARK SMILES IDX 10 12 9 13 6 14 7 15 91 16 8 17 4 18 3 19 5 21 2 22 1 23
REMARK SMILES IDX 21 24 22 25 23 26 24 27 25 28 26 29 27 30 28 31 89 32 29 33
REMARK SMILES IDX 88 34 30 35 31 36 32 37 82 38 33 39 87 40 81 41 83 42 34 43
REMARK SMILES IDX 86 44 80 45 79 46 35 48 67 49 47 50 66 51 48 52 51 53 65 54
REMARK SMILES IDX 84 55 49 56 50 57 64 59 85 60 52 61 36 62 37 63 45 64 38 65
REMARK SMILES IDX 39 66 43 67 46 68 40 69 41 70 44 71 42 72 68 73 69 74 77 75
REMARK SMILES IDX 70 76 71 77 75 78 78 79 72 80 73 81 76 82 74 83 53 84 54 85
REMARK SMILES IDX 62 86 55 87 56 88 60 89 63 90 57 91 58 92 61 93 59 94
REMARK H PARENT 3 20 83 47 51 58
REMARK Flexibility Score: inf
ROOT
ATOM      1  C   UNL A   1      30.680  28.346  23.490  1.00  0.00     0.202 C 
ENDROOT
BRANCH   1   2
ATOM      2  C   UNL A   1      31.286  27.593  22.301  1.00  0.00     0.261 C 
BRANCH   2   3
ATOM      3  O   UNL A   1      31.732  26.288  22.701  1.00  0.00    -0.460 OA
BRANCH   3   4
ATOM      4  C   UNL A   1      33.045  26.032  22.489  1.00  0.00     0.338 C 
ATOM      5  O   UNL A   1      33.747  26.490  21.599  1.00  0.00    -0.246 OA
BRANCH   4   6
ATOM      6  C   UNL A   1      33.581  25.218  23.604  1.00  0.00     0.060 A 
ATOM      7  C   UNL A   1      34.523  23.166  24.501  1.00  0.00    -0.047 A 
ATOM      8  C   UNL A   1      34.594  23.772  25.764  1.00  0.00     0.004 A 
ATOM      9  C   UNL A   1      33.961  23.883  23.433  1.00  0.00     0.019 A 
ATOM     10  C   UNL A   1      34.172  25.090  25.946  1.00  0.00     0.001 A 
ATOM     11  C   UNL A   1      33.685  25.819  24.864  1.00  0.00     0.016 A 
BRANCH   7  12
ATOM     12  C   UNL A   1      35.105  21.784  24.294  1.00  0.00     0.041 C 
BRANCH  12  13
ATOM     13  C   UNL A   1      34.216  20.665  24.855  1.00  0.00     0.015 C 
ATOM     14  N   UNL A   1      33.694  18.486  24.094  1.00  0.00    -0.325 N 
ATOM     15  C   UNL A   1      32.439  19.150  24.381  1.00  0.00     0.121 C 
ATOM     16  C   UNL A   1      34.801  19.260  24.625  1.00  0.00     0.125 C 
ATOM     17  C   UNL A   1      32.820  20.600  24.199  1.00  0.00     0.027 C 
BRANCH  14  18
ATOM     18  C   UNL A   1      33.883  17.248  23.572  1.00  0.00     0.317 C 
ATOM     19  N   UNL A   1      34.108  16.210  24.416  1.00  0.00    -0.338 N 
ATOM     20  H   UNL A   1      34.708  15.503  24.085  1.00  0.00     0.165 HD
ATOM     21  O   UNL A   1      33.810  17.022  22.365  1.00  0.00    -0.249 OA
BRANCH  19  22
ATOM     22  C   UNL A   1      33.565  16.018  25.751  1.00  0.00     0.114 C 
ATOM     23  C   UNL A   1      32.332  15.132  25.719  1.00  0.00     0.027 C 
ENDBRANCH  19  22
ENDBRANCH  14  18
ENDBRANCH  12  13
ENDBRANCH   7  12
ENDBRANCH   4   6
ENDBRANCH   3   4
ENDBRANCH   2   3
ENDBRANCH   1   2
BRANCH   1  24
ATOM     24  O   UNL A   1      31.405  28.268  24.718  1.00  0.00    -0.374 OA
BRANCH  24  25
ATOM     25  C   UNL A   1      32.321  29.326  25.004  1.00  0.00     0.202 C 
BRANCH  25  26
ATOM     26  C   UNL A   1      31.799  30.460  25.893  1.00  0.00     0.261 C 
BRANCH  26  27
ATOM     27  O   UNL A   1      32.491  30.519  27.153  1.00  0.00    -0.460 OA
BRANCH  27  28
ATOM     28  C   UNL A   1      33.285  31.603  27.312  1.00  0.00     0.338 C 
ATOM     29  O   UNL A   1      32.957  32.779  27.260  1.00  0.00    -0.246 OA
BRANCH  28  30
ATOM     30  C   UNL A   1      34.632  31.181  27.735  1.00  0.00     0.060 A 
ATOM     31  C   UNL A   1      34.835  29.817  27.978  1.00  0.00     0.016 A 
ATOM     32  C   UNL A   1      35.654  32.104  27.966  1.00  0.00     0.016 A 
ATOM     33  C   UNL A   1      36.046  29.374  28.502  1.00  0.00     0.010 A 
ATOM     34  C   UNL A   1      36.869  31.659  28.499  1.00  0.00     0.010 A 
ATOM     35  C   UNL A   1      37.056  30.298  28.802  1.00  0.00    -0.014 A 
BRANCH  35  36
ATOM     36  C   UNL A   1      38.251  29.855  29.562  1.00  0.00     0.031 A 
ATOM     37  C   UNL A   1      38.466  30.380  30.954  1.00  0.00     0.074 A 
ATOM     38  C   UNL A   1      39.116  28.974  29.031  1.00  0.00     0.049 A 
ATOM     39  N   UNL A   1      39.453  30.156  31.785  1.00  0.00    -0.248 NA
ATOM     40  C   UNL A   1      37.430  31.282  31.480  1.00  0.00     0.031 C 
ATOM     41  C   UNL A   1      38.992  28.365  27.708  1.00  0.00     0.029 A 
ATOM     42  N   UNL A   1      40.273  28.443  29.541  1.00  0.00    -0.354 N 
ATOM     43  C   UNL A   1      39.160  30.891  32.925  1.00  0.00     0.074 A 
ATOM     44  C   UNL A   1      37.922  31.595  32.671  1.00  0.00     0.031 C 
ATOM     45  C   UNL A   1      40.042  27.549  27.506  1.00  0.00     0.029 A 
ATOM     46  C   UNL A   1      40.923  27.605  28.671  1.00  0.00     0.049 A 
ATOM     47  H   UNL A   1      40.607  28.645  30.445  1.00  0.00     0.167 HD
ATOM     48  C   UNL A   1      39.857  30.965  34.086  1.00  0.00     0.037 A 
ATOM     49  C   UNL A   1      42.107  26.973  28.793  1.00  0.00     0.037 A 
ATOM     50  C   UNL A   1      41.088  30.262  34.337  1.00  0.00     0.049 A 
ATOM     51  C   UNL A   1      42.899  27.128  30.066  1.00  0.00     0.074 A 
ATOM     52  C   UNL A   1      41.858  30.254  35.486  1.00  0.00     0.029 A 
ATOM     53  N   UNL A   1      41.732  29.446  33.419  1.00  0.00    -0.354 N 
ATOM     54  N   UNL A   1      42.602  27.802  31.150  1.00  0.00    -0.248 NA
ATOM     55  C   UNL A   1      44.190  26.430  30.132  1.00  0.00     0.031 C 
ATOM     56  C   UNL A   1      42.996  29.476  35.246  1.00  0.00     0.029 A 
ATOM     57  C   UNL A   1      42.906  28.952  33.967  1.00  0.00     0.049 A 
ATOM     58  H   UNL A   1      41.404  29.247  32.512  1.00  0.00     0.167 HD
ATOM     59  C   UNL A   1      43.650  27.585  32.036  1.00  0.00     0.074 A 
ATOM     60  C   UNL A   1      44.585  26.706  31.366  1.00  0.00     0.031 C 
ATOM     61  C   UNL A   1      43.822  28.070  33.291  1.00  0.00     0.037 A 
BRANCH  48  62
ATOM     62  C   UNL A   1      39.317  31.858  35.164  1.00  0.00     0.064 A 
ATOM     63  C   UNL A   1      38.499  31.364  36.193  1.00  0.00     0.173 A 
ATOM     64  C   UNL A   1      39.649  33.221  35.189  1.00  0.00     0.173 A 
ATOM     65  F   UNL A   1      38.141  30.071  36.207  1.00  0.00    -0.203 F 
ATOM     66  C   UNL A   1      38.014  32.206  37.190  1.00  0.00     0.198 A 
ATOM     67  C   UNL A   1      39.188  34.054  36.204  1.00  0.00     0.198 A 
ATOM     68  F   UNL A   1      40.431  33.744  34.232  1.00  0.00    -0.203 F 
ATOM     69  F   UNL A   1      37.198  31.721  38.135  1.00  0.00    -0.200 F 
ATOM     70  C   UNL A   1      38.365  33.548  37.200  1.00  0.00     0.200 A 
ATOM     71  F   UNL A   1      39.537  35.348  36.219  1.00  0.00    -0.200 F 
ATOM     72  F   UNL A   1      37.904  34.355  38.165  1.00  0.00    -0.200 F 
ENDBRANCH  48  62
BRANCH  49  73
ATOM     73  C   UNL A   1      42.624  26.141  27.675  1.00  0.00     0.064 A 
ATOM     74  C   UNL A   1      42.239  24.801  27.532  1.00  0.00     0.173 A 
ATOM     75  C   UNL A   1      43.530  26.663  26.739  1.00  0.00     0.173 A 
ATOM     76  F   UNL A   1      41.395  24.250  28.416  1.00  0.00    -0.203 F 
ATOM     77  C   UNL A   1      42.754  24.010  26.506  1.00  0.00     0.198 A 
ATOM     78  C   UNL A   1      44.020  25.880  25.697  1.00  0.00     0.198 A 
ATOM     79  F   UNL A   1      43.931  27.939  26.832  1.00  0.00    -0.203 F 
ATOM     80  F   UNL A   1      42.406  22.719  26.421  1.00  0.00    -0.200 F 
ATOM     81  C   UNL A   1      43.639  24.552  25.586  1.00  0.00     0.200 A 
ATOM     82  F   UNL A   1      44.865  26.411  24.803  1.00  0.00    -0.200 F 
ATOM     83  F   UNL A   1      44.131  23.792  24.599  1.00  0.00    -0.200 F 
ENDBRANCH  49  73
BRANCH  61  84
ATOM     84  C   UNL A   1      45.047  27.627  34.041  1.00  0.00     0.064 A 
ATOM     85  C   UNL A   1      46.246  28.353  33.991  1.00  0.00     0.173 A 
ATOM     86  C   UNL A   1      45.005  26.483  34.853  1.00  0.00     0.173 A 
ATOM     87  F   UNL A   1      46.342  29.445  33.219  1.00  0.00    -0.203 F 
ATOM     88  C   UNL A   1      47.366  27.934  34.706  1.00  0.00     0.198 A 
ATOM     89  C   UNL A   1      46.116  26.086  35.591  1.00  0.00     0.198 A 
ATOM     90  F   UNL A   1      43.881  25.757  34.943  1.00  0.00    -0.203 F 
ATOM     91  F   UNL A   1      48.516  28.616  34.605  1.00  0.00    -0.200 F 
ATOM     92  C   UNL A   1      47.298  26.806  35.510  1.00  0.00     0.200 A 
ATOM     93  F   UNL A   1      46.044  25.004  36.379  1.00  0.00    -0.200 F 
ATOM     94  F   UNL A   1      48.375  26.410  36.203  1.00  0.00    -0.200 F 
ENDBRANCH  61  84
ENDBRANCH  35  36
ENDBRANCH  28  30
ENDBRANCH  27  28
ENDBRANCH  26  27
ENDBRANCH  25  26
ENDBRANCH  24  25
ENDBRANCH   1  24
TORSDOF 18
ENDMDL
MODEL 2
REMARK VINA RESULT:     -11.4      3.621      8.835
REMARK SMILES CCNC(=O)N1CC[C@H](Cc2cccc(C(=O)OCCOCCOC(=O)c3ccc(-c4c5nc(c(-c6c(F)c(F)c(F)c(F)c6F)c6ccc([nH]6)c(-c6c(F)c(F)c(F)c(F)c6F)c6nc(c(-c7c(F)c(F)c(F)c(F)c7F)c7ccc4[nH]7)C=C6)C=C5)cc3)c2)C1
REMARK SMILES IDX 20 1 19 2 18 3 16 4 17 5 15 6 11 7 12 8 90 9 13 10 14 11
REMARK SMILES IDX 10 12 9 13 6 14 7 15 91 16 8 17 4 18 3 19 5 21 2 22 1 23
REMARK SMILES IDX 21 24 22 25 23 26 24 27 25 28 26 29 27 30 28 31 89 32 29 33
REMARK SMILES IDX 88 34 30 35 31 36 32 37 82 38 33 39 87 40 81 41 83 42 34 43
REMARK SMILES IDX 86 44 80 45 79 46 35 48 67 49 47 50 66 51 48 52 51 53 65 54
REMARK SMILES IDX 84 55 49 56 50 57 64 59 85 60 52 61 36 62 37 63 45 64 38 65
REMARK SMILES IDX 39 66 43 67 46 68 40 69 41 70 44 71 42 72 68 73 69 74 77 75
REMARK SMILES IDX 70 76 71 77 75 78 78 79 72 80 73 81 76 82 74 83 53 84 54 85
REMARK SMILES IDX 62 86 55 87 56 88 60 89 63 90 57 91 58 92 61 93 59 94
REMARK H PARENT 3 20 83 47 51 58
REMARK Flexibility Score: inf
ROOT
ATOM      1  C   UNL A   1      44.042  19.717  25.362  1.00  0.00     0.202 C 
ENDROOT
BRANCH   1   2
ATOM      2  C   UNL A   1      42.612  19.491  25.863  1.00  0.00     0.261 C 
BRANCH   2   3
ATOM      3  O   UNL A   1      41.952  20.745  26.094  1.00  0.00    -0.460 OA
BRANCH   3   4
ATOM      4  C   UNL A   1      40.972  20.724  27.028  1.00  0.00     0.338 C 
ATOM      5  O   UNL A   1      40.893  19.974  27.992  1.00  0.00    -0.246 OA
BRANCH   4   6
ATOM      6  C   UNL A   1      40.056  21.868  26.816  1.00  0.00     0.060 A 
ATOM      7  C   UNL A   1      38.051  22.863  25.870  1.00  0.00    -0.047 A 
ATOM      8  C   UNL A   1      38.382  24.076  26.491  1.00  0.00     0.004 A 
ATOM      9  C   UNL A   1      38.928  21.774  25.995  1.00  0.00     0.019 A 
ATOM     10  C   UNL A   1      39.532  24.184  27.274  1.00  0.00     0.001 A 
ATOM     11  C   UNL A   1      40.358  23.077  27.453  1.00  0.00     0.016 A 
BRANCH   7  12
ATOM     12  C   UNL A   1      36.735  22.726  25.135  1.00  0.00     0.041 C 
BRANCH  12  13
ATOM     13  C   UNL A   1      35.838  21.617  25.706  1.00  0.00     0.015 C 
ATOM     14  N   UNL A   1      33.693  20.813  25.112  1.00  0.00    -0.325 N 
ATOM     15  C   UNL A   1      33.668  21.084  26.534  1.00  0.00     0.121 C 
ATOM     16  C   UNL A   1      35.058  20.856  24.619  1.00  0.00     0.125 C 
ATOM     17  C   UNL A   1      34.740  22.142  26.656  1.00  0.00     0.027 C 
BRANCH  14  18
ATOM     18  C   UNL A   1      32.670  20.400  24.323  1.00  0.00     0.317 C 
ATOM     19  N   UNL A   1      32.561  19.081  24.028  1.00  0.00    -0.338 N 
ATOM     20  H   UNL A   1      32.201  18.862  23.139  1.00  0.00     0.165 HD
ATOM     21  O   UNL A   1      31.807  21.171  23.903  1.00  0.00    -0.249 OA
BRANCH  19  22
ATOM     22  C   UNL A   1      32.913  17.951  24.874  1.00  0.00     0.114 C 
ATOM     23  C   UNL A   1      34.167  17.259  24.367  1.00  0.00     0.027 C 
ENDBRANCH  19  22
ENDBRANCH  14  18
ENDBRANCH  12  13
ENDBRANCH   7  12
ENDBRANCH   4   6
ENDBRANCH   3   4
ENDBRANCH   2   3
ENDBRANCH   1   2
BRANCH   1  24
ATOM     24  O   UNL A   1      44.175  20.478  24.161  1.00  0.00    -0.374 OA
BRANCH  24  25
ATOM     25  C   UNL A   1      44.937  21.684  24.234  1.00  0.00     0.202 C 
BRANCH  25  26
ATOM     26  C   UNL A   1      44.144  22.982  24.420  1.00  0.00     0.261 C 
BRANCH  26  27
ATOM     27  O   UNL A   1      44.993  24.084  24.789  1.00  0.00    -0.460 OA
BRANCH  27  28
ATOM     28  C   UNL A   1      45.443  24.049  26.064  1.00  0.00     0.338 C 
ATOM     29  O   UNL A   1      46.475  23.540  26.476  1.00  0.00    -0.246 OA
BRANCH  28  30
ATOM     30  C   UNL A   1      44.580  24.878  26.924  1.00  0.00     0.060 A 
ATOM     31  C   UNL A   1      44.772  26.265  26.886  1.00  0.00     0.016 A 
ATOM     32  C   UNL A   1      43.656  24.312  27.806  1.00  0.00     0.016 A 
ATOM     33  C   UNL A   1      44.077  27.090  27.766  1.00  0.00     0.010 A 
ATOM     34  C   UNL A   1      42.964  25.142  28.695  1.00  0.00     0.010 A 
ATOM     35  C   UNL A   1      43.198  26.529  28.703  1.00  0.00    -0.014 A 
BRANCH  35  36
ATOM     36  C   UNL A   1      42.635  27.380  29.779  1.00  0.00     0.031 A 
ATOM     37  C   UNL A   1      43.323  27.419  31.115  1.00  0.00     0.074 A 
ATOM     38  C   UNL A   1      41.542  28.132  29.560  1.00  0.00     0.049 A 
ATOM     39  N   UNL A   1      42.990  28.063  32.205  1.00  0.00    -0.248 NA
ATOM     40  C   UNL A   1      44.553  26.622  31.240  1.00  0.00     0.031 C 
ATOM     41  C   UNL A   1      40.812  28.208  28.296  1.00  0.00     0.029 A 
ATOM     42  N   UNL A   1      40.854  28.970  30.400  1.00  0.00    -0.354 N 
ATOM     43  C   UNL A   1      43.962  27.745  33.143  1.00  0.00     0.074 A 
ATOM     44  C   UNL A   1      44.880  26.826  32.508  1.00  0.00     0.031 C 
ATOM     45  C   UNL A   1      39.768  29.042  28.448  1.00  0.00     0.029 A 
ATOM     46  C   UNL A   1      39.741  29.530  29.825  1.00  0.00     0.049 A 
ATOM     47  H   UNL A   1      41.132  29.152  31.327  1.00  0.00     0.167 HD
ATOM     48  C   UNL A   1      44.083  28.189  34.418  1.00  0.00     0.037 A 
ATOM     49  C   UNL A   1      38.796  30.329  30.359  1.00  0.00     0.037 A 
ATOM     50  C   UNL A   1      43.169  29.106  35.047  1.00  0.00     0.049 A 
ATOM     51  C   UNL A   1      38.914  30.751  31.801  1.00  0.00     0.074 A 
ATOM     52  C   UNL A   1      43.216  29.632  36.326  1.00  0.00     0.029 A 
ATOM     53  N   UNL A   1      42.034  29.628  34.443  1.00  0.00    -0.354 N 
ATOM     54  N   UNL A   1      39.851  30.469  32.673  1.00  0.00    -0.248 NA
ATOM     55  C   UNL A   1      37.843  31.607  32.330  1.00  0.00     0.031 C 
ATOM     56  C   UNL A   1      42.083  30.430  36.514  1.00  0.00     0.029 A 
ATOM     57  C   UNL A   1      41.359  30.448  35.332  1.00  0.00     0.049 A 
ATOM     58  H   UNL A   1      41.752  29.443  33.518  1.00  0.00     0.167 HD
ATOM     59  C   UNL A   1      39.501  31.135  33.841  1.00  0.00     0.074 A 
ATOM     60  C   UNL A   1      38.271  31.846  33.562  1.00  0.00     0.031 C 
ATOM     61  C   UNL A   1      40.140  31.157  35.037  1.00  0.00     0.037 A 
BRANCH  48  62
ATOM     62  C   UNL A   1      45.234  27.667  35.228  1.00  0.00     0.064 A 
ATOM     63  C   UNL A   1      46.483  28.308  35.235  1.00  0.00     0.173 A 
ATOM     64  C   UNL A   1      45.076  26.531  36.035  1.00  0.00     0.173 A 
ATOM     65  F   UNL A   1      46.690  29.390  34.471  1.00  0.00    -0.203 F 
ATOM     66  C   UNL A   1      47.537  27.814  36.000  1.00  0.00     0.198 A 
ATOM     67  C   UNL A   1      46.123  26.057  36.822  1.00  0.00     0.198 A 
ATOM     68  F   UNL A   1      43.901  25.883  36.068  1.00  0.00    -0.203 F 
ATOM     69  F   UNL A   1      48.734  28.415  35.955  1.00  0.00    -0.200 F 
ATOM     70  C   UNL A   1      47.354  26.695  36.798  1.00  0.00     0.200 A 
ATOM     71  F   UNL A   1      45.941  24.982  37.601  1.00  0.00    -0.200 F 
ATOM     72  F   UNL A   1      48.367  26.226  37.539  1.00  0.00    -0.200 F 
ENDBRANCH  48  62
BRANCH  49  73
ATOM     73  C   UNL A   1      37.647  30.777  29.530  1.00  0.00     0.064 A 
ATOM     74  C   UNL A   1      37.551  32.101  29.080  1.00  0.00     0.173 A 
ATOM     75  C   UNL A   1      36.611  29.895  29.186  1.00  0.00     0.173 A 
ATOM     76  F   UNL A   1      38.503  32.988  29.404  1.00  0.00    -0.203 F 
ATOM     77  C   UNL A   1      36.454  32.530  28.336  1.00  0.00     0.198 A 
ATOM     78  C   UNL A   1      35.530  30.318  28.416  1.00  0.00     0.198 A 
ATOM     79  F   UNL A   1      36.654  28.618  29.592  1.00  0.00    -0.203 F 
ATOM     80  F   UNL A   1      36.364  33.814  27.959  1.00  0.00    -0.200 F 
ATOM     81  C   UNL A   1      35.448  31.637  27.998  1.00  0.00     0.200 A 
ATOM     82  F   UNL A   1      34.567  29.448  28.082  1.00  0.00    -0.200 F 
ATOM     83  F   UNL A   1      34.395  32.050  27.280  1.00  0.00    -0.200 F 
ENDBRANCH  49  73
BRANCH  61  84
ATOM     84  C   UNL A   1      39.547  32.009  36.123  1.00  0.00     0.064 A 
ATOM     85  C   UNL A   1      40.024  33.300  36.393  1.00  0.00     0.173 A 
ATOM     86  C   UNL A   1      38.459  31.540  36.877  1.00  0.00     0.173 A 
ATOM     87  F   UNL A   1      41.071  33.789  35.711  1.00  0.00    -0.203 F 
ATOM     88  C   UNL A   1      39.449  34.080  37.394  1.00  0.00     0.198 A 
ATOM     89  C   UNL A   1      37.868  32.335  37.854  1.00  0.00     0.198 A 
ATOM     90  F   UNL A   1      37.959  30.316  36.654  1.00  0.00    -0.203 F 
ATOM     91  F   UNL A   1      39.954  35.292  37.667  1.00  0.00    -0.200 F 
ATOM     92  C   UNL A   1      38.369  33.600  38.118  1.00  0.00     0.200 A 
ATOM     93  F   UNL A   1      36.814  31.875  38.543  1.00  0.00    -0.200 F 
ATOM     94  F   UNL A   1      37.813  34.356  39.076  1.00  0.00    -0.200 F 
ENDBRANCH  61  84
ENDBRANCH  35  36
ENDBRANCH  28  30
ENDBRANCH  27  28
ENDBRANCH  26  27
ENDBRANCH  25  26
ENDBRANCH  24  25
ENDBRANCH   1  24
TORSDOF 18
ENDMDL
MODEL 3
REMARK VINA RESULT:     -11.3      1.915      2.761
REMARK SMILES CCNC(=O)N1CC[C@H](Cc2cccc(C(=O)OCCOCCOC(=O)c3ccc(-c4c5nc(c(-c6c(F)c(F)c(F)c(F)c6F)c6ccc([nH]6)c(-c6c(F)c(F)c(F)c(F)c6F)c6nc(c(-c7c(F)c(F)c(F)c(F)c7F)c7ccc4[nH]7)C=C6)C=C5)cc3)c2)C1
REMARK SMILES IDX 20 1 19 2 18 3 16 4 17 5 15 6 11 7 12 8 90 9 13 10 14 11
REMARK SMILES IDX 10 12 9 13 6 14 7 15 91 16 8 17 4 18 3 19 5 21 2 22 1 23
REMARK SMILES IDX 21 24 22 25 23 26 24 27 25 28 26 29 27 30 28 31 89 32 29 33
REMARK SMILES IDX 88 34 30 35 31 36 32 37 82 38 33 39 87 40 81 41 83 42 34 43
REMARK SMILES IDX 86 44 80 45 79 46 35 48 67 49 47 50 66 51 48 52 51 53 65 54
REMARK SMILES IDX 84 55 49 56 50 57 64 59 85 60 52 61 36 62 37 63 45 64 38 65
REMARK SMILES IDX 39 66 43 67 46 68 40 69 41 70 44 71 42 72 68 73 69 74 77 75
REMARK SMILES IDX 70 76 71 77 75 78 78 79 72 80 73 81 76 82 74 83 53 84 54 85
REMARK SMILES IDX 62 86 55 87 56 88 60 89 63 90 57 91 58 92 61 93 59 94
REMARK H PARENT 3 20 83 47 51 58
REMARK Flexibility Score: inf
ROOT
ATOM      1  C   UNL A   1      30.231  29.491  23.560  1.00  0.00     0.202 C 
ENDROOT
BRANCH   1   2
ATOM      2  C   UNL A   1      30.531  28.635  22.325  1.00  0.00     0.261 C 
BRANCH   2   3
ATOM      3  O   UNL A   1      30.521  27.239  22.660  1.00  0.00    -0.460 OA
BRANCH   3   4
ATOM      4  C   UNL A   1      31.393  26.468  21.967  1.00  0.00     0.338 C 
ATOM      5  O   UNL A   1      31.432  26.314  20.755  1.00  0.00    -0.246 OA
BRANCH   4   6
ATOM      6  C   UNL A   1      32.429  25.941  22.885  1.00  0.00     0.060 A 
ATOM      7  C   UNL A   1      33.564  24.111  24.012  1.00  0.00    -0.047 A 
ATOM      8  C   UNL A   1      34.426  25.041  24.613  1.00  0.00     0.004 A 
ATOM      9  C   UNL A   1      32.529  24.579  23.187  1.00  0.00     0.019 A 
ATOM     10  C   UNL A   1      34.298  26.405  24.347  1.00  0.00     0.001 A 
ATOM     11  C   UNL A   1      33.315  26.853  23.469  1.00  0.00     0.016 A 
BRANCH   7  12
ATOM     12  C   UNL A   1      33.799  22.629  24.207  1.00  0.00     0.041 C 
BRANCH  12  13
ATOM     13  C   UNL A   1      33.148  22.078  25.484  1.00  0.00     0.015 C 
ATOM     14  N   UNL A   1      31.227  22.708  26.713  1.00  0.00    -0.325 N 
ATOM     15  C   UNL A   1      32.324  22.620  27.653  1.00  0.00     0.121 C 
ATOM     16  C   UNL A   1      31.610  22.123  25.441  1.00  0.00     0.125 C 
ATOM     17  C   UNL A   1      33.510  22.879  26.754  1.00  0.00     0.027 C 
BRANCH  14  18
ATOM     18  C   UNL A   1      29.950  23.100  26.955  1.00  0.00     0.317 C 
ATOM     19  N   UNL A   1      29.629  24.410  26.815  1.00  0.00    -0.338 N 
ATOM     20  H   UNL A   1      28.942  24.758  27.428  1.00  0.00     0.165 HD
ATOM     21  O   UNL A   1      29.060  22.303  27.250  1.00  0.00    -0.249 OA
BRANCH  19  22
ATOM     22  C   UNL A   1      30.180  25.362  25.863  1.00  0.00     0.114 C 
ATOM     23  C   UNL A   1      31.322  26.151  26.479  1.00  0.00     0.027 C 
ENDBRANCH  19  22
ENDBRANCH  14  18
ENDBRANCH  12  13
ENDBRANCH   7  12
ENDBRANCH   4   6
ENDBRANCH   3   4
ENDBRANCH   2   3
ENDBRANCH   1   2
BRANCH   1  24
ATOM     24  O   UNL A   1      30.856  29.079  24.776  1.00  0.00    -0.374 OA
BRANCH  24  25
ATOM     25  C   UNL A   1      32.014  29.802  25.192  1.00  0.00     0.202 C 
BRANCH  25  26
ATOM     26  C   UNL A   1      31.792  30.913  26.225  1.00  0.00     0.261 C 
BRANCH  26  27
ATOM     27  O   UNL A   1      32.685  30.792  27.347  1.00  0.00    -0.460 OA
BRANCH  27  28
ATOM     28  C   UNL A   1      33.499  31.856  27.538  1.00  0.00     0.338 C 
ATOM     29  O   UNL A   1      33.192  33.040  27.521  1.00  0.00    -0.246 OA
BRANCH  28  30
ATOM     30  C   UNL A   1      34.837  31.398  27.949  1.00  0.00     0.060 A 
ATOM     31  C   UNL A   1      34.997  30.033  28.220  1.00  0.00     0.016 A 
ATOM     32  C   UNL A   1      35.895  32.289  28.141  1.00  0.00     0.016 A 
ATOM     33  C   UNL A   1      36.201  29.560  28.734  1.00  0.00     0.010 A 
ATOM     34  C   UNL A   1      37.102  31.814  28.663  1.00  0.00     0.010 A 
ATOM     35  C   UNL A   1      37.248  30.455  28.996  1.00  0.00    -0.014 A 
BRANCH  35  36
ATOM     36  C   UNL A   1      38.439  29.988  29.746  1.00  0.00     0.031 A 
ATOM     37  C   UNL A   1      38.669  30.497  31.142  1.00  0.00     0.074 A 
ATOM     38  C   UNL A   1      39.289  29.099  29.203  1.00  0.00     0.049 A 
ATOM     39  N   UNL A   1      39.656  30.251  31.966  1.00  0.00    -0.248 NA
ATOM     40  C   UNL A   1      37.648  31.410  31.681  1.00  0.00     0.031 C 
ATOM     41  C   UNL A   1      39.150  28.504  27.875  1.00  0.00     0.029 A 
ATOM     42  N   UNL A   1      40.441  28.547  29.703  1.00  0.00    -0.354 N 
ATOM     43  C   UNL A   1      39.379  30.981  33.114  1.00  0.00     0.074 A 
ATOM     44  C   UNL A   1      38.150  31.704  32.871  1.00  0.00     0.031 C 
ATOM     45  C   UNL A   1      40.187  27.675  27.661  1.00  0.00     0.029 A 
ATOM     46  C   UNL A   1      41.075  27.708  28.822  1.00  0.00     0.049 A 
ATOM     47  H   UNL A   1      40.781  28.737  30.607  1.00  0.00     0.167 HD
ATOM     48  C   UNL A   1      40.082  31.033  34.271  1.00  0.00     0.037 A 
ATOM     49  C   UNL A   1      42.250  27.058  28.932  1.00  0.00     0.037 A 
ATOM     50  C   UNL A   1      41.304  30.311  34.511  1.00  0.00     0.049 A 
ATOM     51  C   UNL A   1      43.049  27.190  30.203  1.00  0.00     0.074 A 
ATOM     52  C   UNL A   1      42.079  30.281  35.656  1.00  0.00     0.029 A 
ATOM     53  N   UNL A   1      41.932  29.494  33.582  1.00  0.00    -0.354 N 
ATOM     54  N   UNL A   1      42.767  27.858  31.295  1.00  0.00    -0.248 NA
ATOM     55  C   UNL A   1      44.331  26.472  30.256  1.00  0.00     0.031 C 
ATOM     56  C   UNL A   1      43.204  29.489  35.403  1.00  0.00     0.029 A 
ATOM     57  C   UNL A   1      43.101  28.978  34.120  1.00  0.00     0.049 A 
ATOM     58  H   UNL A   1      41.597  29.308  32.675  1.00  0.00     0.167 HD
ATOM     59  C   UNL A   1      43.816  27.618  32.174  1.00  0.00     0.074 A 
ATOM     60  C   UNL A   1      44.736  26.732  31.492  1.00  0.00     0.031 C 
ATOM     61  C   UNL A   1      44.001  28.089  33.432  1.00  0.00     0.037 A 
BRANCH  48  62
ATOM     62  C   UNL A   1      39.560  31.925  35.361  1.00  0.00     0.064 A 
ATOM     63  C   UNL A   1      38.643  31.462  36.317  1.00  0.00     0.173 A 
ATOM     64  C   UNL A   1      40.008  33.249  35.469  1.00  0.00     0.173 A 
ATOM     65  F   UNL A   1      38.172  30.208  36.250  1.00  0.00    -0.203 F 
ATOM     66  C   UNL A   1      38.176  32.302  37.326  1.00  0.00     0.198 A 
ATOM     67  C   UNL A   1      39.563  34.076  36.497  1.00  0.00     0.198 A 
ATOM     68  F   UNL A   1      40.889  33.740  34.583  1.00  0.00    -0.203 F 
ATOM     69  F   UNL A   1      37.265  31.852  38.201  1.00  0.00    -0.200 F 
ATOM     70  C   UNL A   1      38.642  33.604  37.420  1.00  0.00     0.200 A 
ATOM     71  F   UNL A   1      40.024  35.331  36.593  1.00  0.00    -0.200 F 
ATOM     72  F   UNL A   1      38.198  34.408  38.396  1.00  0.00    -0.200 F 
ENDBRANCH  48  62
BRANCH  49  73
ATOM     73  C   UNL A   1      42.749  26.228  27.805  1.00  0.00     0.064 A 
ATOM     74  C   UNL A   1      42.391  24.879  27.684  1.00  0.00     0.173 A 
ATOM     75  C   UNL A   1      43.612  26.763  26.836  1.00  0.00     0.173 A 
ATOM     76  F   UNL A   1      41.589  24.316  28.600  1.00  0.00    -0.203 F 
ATOM     77  C   UNL A   1      42.891  24.092  26.649  1.00  0.00     0.198 A 
ATOM     78  C   UNL A   1      44.087  25.983  25.785  1.00  0.00     0.198 A 
ATOM     79  F   UNL A   1      43.986  28.049  26.906  1.00  0.00    -0.203 F 
ATOM     80  F   UNL A   1      42.570  22.792  26.584  1.00  0.00    -0.200 F 
ATOM     81  C   UNL A   1      43.732  24.645  25.696  1.00  0.00     0.200 A 
ATOM     82  F   UNL A   1      44.890  26.526  24.859  1.00  0.00    -0.200 F 
ATOM     83  F   UNL A   1      44.210  23.889  24.699  1.00  0.00    -0.200 F 
ENDBRANCH  49  73
BRANCH  61  84
ATOM     84  C   UNL A   1      45.223  27.622  34.172  1.00  0.00     0.064 A 
ATOM     85  C   UNL A   1      45.220  26.443  34.932  1.00  0.00     0.173 A 
ATOM     86  C   UNL A   1      46.423  28.344  34.086  1.00  0.00     0.173 A 
ATOM     87  F   UNL A   1      44.094  25.724  35.059  1.00  0.00    -0.203 F 
ATOM     88  C   UNL A   1      46.367  26.019  35.599  1.00  0.00     0.198 A 
ATOM     89  C   UNL A   1      47.576  27.900  34.727  1.00  0.00     0.198 A 
ATOM     90  F   UNL A   1      46.482  29.474  33.366  1.00  0.00    -0.203 F 
ATOM     91  F   UNL A   1      46.328  24.915  36.359  1.00  0.00    -0.200 F 
ATOM     92  C   UNL A   1      47.544  26.743  35.490  1.00  0.00     0.200 A 
ATOM     93  F   UNL A   1      48.717  28.593  34.608  1.00  0.00    -0.200 F 
ATOM     94  F   UNL A   1      48.649  26.328  36.126  1.00  0.00    -0.200 F 
ENDBRANCH  61  84
ENDBRANCH  35  36
ENDBRANCH  28  30
ENDBRANCH  27  28
ENDBRANCH  26  27
ENDBRANCH  25  26
ENDBRANCH  24  25
ENDBRANCH   1  24
TORSDOF 18
ENDMDL
