MODEL 1
REMARK VINA RESULT:     -12.5      0.000      0.000
REMARK SMILES Cc1c(CC(=O)OCCOCCOC(=O)c2ccc(-c3c4nc(c(-c5c(F)c(F)c(F)c(F)c5F)c5ccc([nH]5)c(-c5c(F)c(F)c(F)c(F)c5F)c5nc(c(-c6c(F)c(F)c(F)c(F)c6F)c6ccc3[nH]6)C=C5)C=C4)cc2)c2cc(O)ccc2n1C(=O)c1ccc(Cl)cc1
REMARK SMILES IDX 9 1 8 2 7 3 5 4 6 5 4 6 3 7 1 8 2 9 86 10 79 11 85 12 80 13
REMARK SMILES IDX 84 14 81 15 83 16 87 17 88 18 89 19 90 20 95 21 91 22 94 23
REMARK SMILES IDX 92 24 93 25 82 26 10 28 11 29 12 30 13 31 14 32 15 33 16 34
REMARK SMILES IDX 17 35 78 36 18 37 77 38 19 39 20 40 21 41 71 42 22 43 76 44
REMARK SMILES IDX 70 45 72 46 23 47 75 48 69 49 68 50 24 52 56 53 36 54 55 55
REMARK SMILES IDX 37 56 40 57 54 58 73 59 38 60 39 61 53 63 74 64 41 65 25 66
REMARK SMILES IDX 26 67 34 68 27 69 28 70 32 71 35 72 29 73 30 74 33 75 31 76
REMARK SMILES IDX 57 77 58 78 66 79 59 80 60 81 64 82 67 83 61 84 62 85 65 86
REMARK SMILES IDX 63 87 42 88 43 89 51 90 44 91 45 92 49 93 52 94 46 95 47 96
REMARK SMILES IDX 50 97 48 98
REMARK H PARENT 82 27 72 51 40 62
REMARK Flexibility Score: inf
ROOT
ATOM      1  C   UNL A   1      32.765  28.444  24.004  1.00  0.00     0.202 C 
ENDROOT
BRANCH   1   2
ATOM      2  C   UNL A   1      33.353  27.050  24.270  1.00  0.00     0.261 C 
BRANCH   2   3
ATOM      3  O   UNL A   1      32.661  25.971  23.614  1.00  0.00    -0.463 OA
BRANCH   3   4
ATOM      4  C   UNL A   1      33.391  25.330  22.663  1.00  0.00     0.310 C 
ATOM      5  O   UNL A   1      33.980  25.906  21.749  1.00  0.00    -0.252 OA
BRANCH   4   6
ATOM      6  C   UNL A   1      33.471  23.825  22.786  1.00  0.00     0.160 C 
BRANCH   6   7
ATOM      7  C   UNL A   1      34.280  23.198  23.893  1.00  0.00    -0.008 A 
ATOM      8  C   UNL A   1      36.560  22.936  22.688  1.00  0.00     0.065 C 
ATOM      9  C   UNL A   1      35.618  22.834  23.850  1.00  0.00     0.028 A 
ATOM     10  N   UNL A   1      36.026  22.382  25.118  1.00  0.00    -0.280 N 
ATOM     11  C   UNL A   1      33.843  22.995  25.238  1.00  0.00     0.008 A 
ATOM     12  C   UNL A   1      34.904  22.441  25.966  1.00  0.00     0.057 A 
ATOM     13  C   UNL A   1      32.613  23.234  25.896  1.00  0.00     0.056 A 
ATOM     14  C   UNL A   1      34.710  22.083  27.321  1.00  0.00     0.031 A 
ATOM     15  C   UNL A   1      32.413  22.765  27.190  1.00  0.00     0.116 A 
ATOM     16  C   UNL A   1      33.447  22.202  27.906  1.00  0.00     0.048 A 
BRANCH  10  17
ATOM     17  C   UNL A   1      37.350  21.979  25.468  1.00  0.00     0.262 C 
ATOM     18  O   UNL A   1      37.752  20.870  25.118  1.00  0.00    -0.268 OA
BRANCH  17  19
ATOM     19  C   UNL A   1      38.334  22.800  26.195  1.00  0.00     0.040 A 
ATOM     20  C   UNL A   1      39.527  22.233  26.656  1.00  0.00     0.015 A 
ATOM     21  C   UNL A   1      38.052  24.153  26.411  1.00  0.00     0.015 A 
ATOM     22  C   UNL A   1      40.398  23.010  27.425  1.00  0.00     0.021 A 
ATOM     23  C   UNL A   1      38.937  24.928  27.164  1.00  0.00     0.021 A 
ATOM     24  C   UNL A   1      40.093  24.348  27.686  1.00  0.00     0.041 A 
ATOM     25  Cl  UNL A   1      41.144  25.284  28.675  1.00  0.00    -0.084 Cl
ENDBRANCH  17  19
ENDBRANCH  10  17
BRANCH  15  26
ATOM     26  O   UNL A   1      31.147  22.806  27.693  1.00  0.00    -0.508 OA
ATOM     27  H   UNL A   1      30.745  23.630  27.884  1.00  0.00     0.293 HD
ENDBRANCH  15  26
ENDBRANCH   6   7
ENDBRANCH   4   6
ENDBRANCH   3   4
ENDBRANCH   2   3
ENDBRANCH   1   2
BRANCH   1  28
ATOM     28  O   UNL A   1      33.159  29.561  24.786  1.00  0.00    -0.374 OA
BRANCH  28  29
ATOM     29  C   UNL A   1      32.386  29.849  25.947  1.00  0.00     0.202 C 
BRANCH  29  30
ATOM     30  C   UNL A   1      33.014  30.679  27.084  1.00  0.00     0.261 C 
BRANCH  30  31
ATOM     31  O   UNL A   1      34.395  30.385  27.289  1.00  0.00    -0.460 OA
BRANCH  31  32
ATOM     32  C   UNL A   1      35.125  31.429  27.773  1.00  0.00     0.338 C 
ATOM     33  O   UNL A   1      34.758  32.559  28.000  1.00  0.00    -0.246 OA
BRANCH  32  34
ATOM     34  C   UNL A   1      36.304  30.777  28.367  1.00  0.00     0.060 A 
ATOM     35  C   UNL A   1      37.313  31.556  28.939  1.00  0.00     0.016 A 
ATOM     36  C   UNL A   1      36.534  29.455  27.952  1.00  0.00     0.016 A 
ATOM     37  C   UNL A   1      38.598  31.039  28.984  1.00  0.00     0.010 A 
ATOM     38  C   UNL A   1      37.827  28.953  27.977  1.00  0.00     0.010 A 
ATOM     39  C   UNL A   1      38.862  29.765  28.446  1.00  0.00    -0.014 A 
BRANCH  39  40
ATOM     40  C   UNL A   1      40.211  29.228  28.616  1.00  0.00     0.031 A 
ATOM     41  C   UNL A   1      40.479  28.877  30.040  1.00  0.00     0.074 A 
ATOM     42  C   UNL A   1      41.080  28.939  27.626  1.00  0.00     0.049 A 
ATOM     43  N   UNL A   1      41.390  29.348  30.827  1.00  0.00    -0.248 NA
ATOM     44  C   UNL A   1      39.495  28.006  30.708  1.00  0.00     0.031 C 
ATOM     45  C   UNL A   1      40.857  28.955  26.181  1.00  0.00     0.029 A 
ATOM     46  N   UNL A   1      42.362  28.477  27.721  1.00  0.00    -0.354 N 
ATOM     47  C   UNL A   1      41.185  28.718  32.052  1.00  0.00     0.074 A 
ATOM     48  C   UNL A   1      39.926  28.031  31.966  1.00  0.00     0.031 C 
ATOM     49  C   UNL A   1      41.881  28.332  25.552  1.00  0.00     0.029 A 
ATOM     50  C   UNL A   1      42.886  27.972  26.534  1.00  0.00     0.049 A 
ATOM     51  H   UNL A   1      42.874  28.499  28.562  1.00  0.00     0.167 HD
ATOM     52  C   UNL A   1      42.169  28.627  32.984  1.00  0.00     0.037 A 
ATOM     53  C   UNL A   1      44.025  27.245  26.400  1.00  0.00     0.037 A 
ATOM     54  C   UNL A   1      43.198  29.605  32.764  1.00  0.00     0.049 A 
ATOM     55  C   UNL A   1      44.844  27.497  27.608  1.00  0.00     0.074 A 
ATOM     56  C   UNL A   1      43.272  30.979  32.838  1.00  0.00     0.029 A 
ATOM     57  N   UNL A   1      44.301  29.204  32.058  1.00  0.00    -0.354 N 
ATOM     58  N   UNL A   1      45.394  28.641  27.898  1.00  0.00    -0.248 NA
ATOM     59  C   UNL A   1      44.716  26.562  28.715  1.00  0.00     0.031 C 
ATOM     60  C   UNL A   1      44.174  31.364  31.802  1.00  0.00     0.029 A 
ATOM     61  C   UNL A   1      44.634  30.202  31.181  1.00  0.00     0.049 A 
ATOM     62  H   UNL A   1      44.773  28.346  32.164  1.00  0.00     0.167 HD
ATOM     63  C   UNL A   1      45.291  28.739  29.275  1.00  0.00     0.074 A 
ATOM     64  C   UNL A   1      44.963  27.392  29.730  1.00  0.00     0.031 C 
ATOM     65  C   UNL A   1      45.209  29.959  29.878  1.00  0.00     0.037 A 
BRANCH  52  66
ATOM     66  C   UNL A   1      42.365  27.420  33.867  1.00  0.00     0.064 A 
ATOM     67  C   UNL A   1      41.945  27.465  35.209  1.00  0.00     0.173 A 
ATOM     68  C   UNL A   1      43.200  26.331  33.527  1.00  0.00     0.173 A 
ATOM     69  F   UNL A   1      41.183  28.475  35.653  1.00  0.00    -0.203 F 
ATOM     70  C   UNL A   1      42.369  26.518  36.146  1.00  0.00     0.198 A 
ATOM     71  C   UNL A   1      43.573  25.358  34.449  1.00  0.00     0.198 A 
ATOM     72  F   UNL A   1      43.778  26.225  32.325  1.00  0.00    -0.203 F 
ATOM     73  F   UNL A   1      42.038  26.665  37.437  1.00  0.00    -0.200 F 
ATOM     74  C   UNL A   1      43.182  25.465  35.766  1.00  0.00     0.200 A 
ATOM     75  F   UNL A   1      44.382  24.361  34.064  1.00  0.00    -0.200 F 
ATOM     76  F   UNL A   1      43.631  24.586  36.672  1.00  0.00    -0.200 F 
ENDBRANCH  52  66
BRANCH  53  77
ATOM     77  C   UNL A   1      44.273  26.053  25.543  1.00  0.00     0.064 A 
ATOM     78  C   UNL A   1      45.587  25.700  25.176  1.00  0.00     0.173 A 
ATOM     79  C   UNL A   1      43.291  25.062  25.360  1.00  0.00     0.173 A 
ATOM     80  F   UNL A   1      46.591  26.573  25.348  1.00  0.00    -0.203 F 
ATOM     81  C   UNL A   1      45.905  24.416  24.719  1.00  0.00     0.198 A 
ATOM     82  C   UNL A   1      43.609  23.783  24.896  1.00  0.00     0.198 A 
ATOM     83  F   UNL A   1      42.020  25.274  25.729  1.00  0.00    -0.203 F 
ATOM     84  F   UNL A   1      47.182  24.093  24.468  1.00  0.00    -0.200 F 
ATOM     85  C   UNL A   1      44.919  23.453  24.598  1.00  0.00     0.200 A 
ATOM     86  F   UNL A   1      42.652  22.849  24.816  1.00  0.00    -0.200 F 
ATOM     87  F   UNL A   1      45.234  22.200  24.242  1.00  0.00    -0.200 F 
ENDBRANCH  53  77
BRANCH  65  88
ATOM     88  C   UNL A   1      45.535  31.166  29.043  1.00  0.00     0.064 A 
ATOM     89  C   UNL A   1      46.833  31.676  28.864  1.00  0.00     0.173 A 
ATOM     90  C   UNL A   1      44.506  31.743  28.287  1.00  0.00     0.173 A 
ATOM     91  F   UNL A   1      47.884  31.120  29.482  1.00  0.00    -0.203 F 
ATOM     92  C   UNL A   1      47.079  32.735  27.991  1.00  0.00     0.198 A 
ATOM     93  C   UNL A   1      44.761  32.775  27.389  1.00  0.00     0.198 A 
ATOM     94  F   UNL A   1      43.256  31.265  28.382  1.00  0.00    -0.203 F 
ATOM     95  F   UNL A   1      48.326  33.208  27.840  1.00  0.00    -0.200 F 
ATOM     96  C   UNL A   1      46.045  33.276  27.246  1.00  0.00     0.200 A 
ATOM     97  F   UNL A   1      43.765  33.262  26.636  1.00  0.00    -0.200 F 
ATOM     98  F   UNL A   1      46.288  34.261  26.370  1.00  0.00    -0.200 F 
ENDBRANCH  65  88
ENDBRANCH  39  40
ENDBRANCH  32  34
ENDBRANCH  31  32
ENDBRANCH  30  31
ENDBRANCH  29  30
ENDBRANCH  28  29
ENDBRANCH   1  28
TORSDOF 18
ENDMDL
MODEL 2
REMARK VINA RESULT:     -12.4      1.311      2.095
REMARK SMILES Cc1c(CC(=O)OCCOCCOC(=O)c2ccc(-c3c4nc(c(-c5c(F)c(F)c(F)c(F)c5F)c5ccc([nH]5)c(-c5c(F)c(F)c(F)c(F)c5F)c5nc(c(-c6c(F)c(F)c(F)c(F)c6F)c6ccc3[nH]6)C=C5)C=C4)cc2)c2cc(O)ccc2n1C(=O)c1ccc(Cl)cc1
REMARK SMILES IDX 9 1 8 2 7 3 5 4 6 5 4 6 3 7 1 8 2 9 86 10 79 11 85 12 80 13
REMARK SMILES IDX 84 14 81 15 83 16 87 17 88 18 89 19 90 20 95 21 91 22 94 23
REMARK SMILES IDX 92 24 93 25 82 26 10 28 11 29 12 30 13 31 14 32 15 33 16 34
REMARK SMILES IDX 17 35 78 36 18 37 77 38 19 39 20 40 21 41 71 42 22 43 76 44
REMARK SMILES IDX 70 45 72 46 23 47 75 48 69 49 68 50 24 52 56 53 36 54 55 55
REMARK SMILES IDX 37 56 40 57 54 58 73 59 38 60 39 61 53 63 74 64 41 65 25 66
REMARK SMILES IDX 26 67 34 68 27 69 28 70 32 71 35 72 29 73 30 74 33 75 31 76
REMARK SMILES IDX 57 77 58 78 66 79 59 80 60 81 64 82 67 83 61 84 62 85 65 86
REMARK SMILES IDX 63 87 42 88 43 89 51 90 44 91 45 92 49 93 52 94 46 95 47 96
REMARK SMILES IDX 50 97 48 98
REMARK H PARENT 82 27 72 51 40 62
REMARK Flexibility Score: inf
ROOT
ATOM      1  C   UNL A   1      31.423  27.613  25.666  1.00  0.00     0.202 C 
ENDROOT
BRANCH   1   2
ATOM      2  C   UNL A   1      30.696  26.290  25.952  1.00  0.00     0.261 C 
BRANCH   2   3
ATOM      3  O   UNL A   1      31.464  25.332  26.703  1.00  0.00    -0.463 OA
BRANCH   3   4
ATOM      4  C   UNL A   1      31.104  24.037  26.499  1.00  0.00     0.310 C 
ATOM      5  O   UNL A   1      30.568  23.333  27.355  1.00  0.00    -0.252 OA
BRANCH   4   6
ATOM      6  C   UNL A   1      31.380  23.477  25.122  1.00  0.00     0.160 C 
BRANCH   6   7
ATOM      7  C   UNL A   1      32.718  22.855  24.811  1.00  0.00    -0.008 A 
ATOM      8  C   UNL A   1      34.111  24.993  24.359  1.00  0.00     0.065 C 
ATOM      9  C   UNL A   1      33.897  23.517  24.501  1.00  0.00     0.028 A 
ATOM     10  N   UNL A   1      34.944  22.585  24.383  1.00  0.00    -0.280 N 
ATOM     11  C   UNL A   1      33.042  21.468  24.919  1.00  0.00     0.008 A 
ATOM     12  C   UNL A   1      34.396  21.307  24.599  1.00  0.00     0.057 A 
ATOM     13  C   UNL A   1      32.278  20.326  25.259  1.00  0.00     0.056 A 
ATOM     14  C   UNL A   1      34.956  20.008  24.568  1.00  0.00     0.031 A 
ATOM     15  C   UNL A   1      32.821  19.054  25.106  1.00  0.00     0.116 A 
ATOM     16  C   UNL A   1      34.148  18.888  24.773  1.00  0.00     0.048 A 
BRANCH  10  17
ATOM     17  C   UNL A   1      36.313  22.903  24.129  1.00  0.00     0.262 C 
ATOM     18  O   UNL A   1      36.644  23.268  23.001  1.00  0.00    -0.268 OA
BRANCH  17  19
ATOM     19  C   UNL A   1      37.399  22.879  25.123  1.00  0.00     0.040 A 
ATOM     20  C   UNL A   1      37.667  24.007  25.907  1.00  0.00     0.015 A 
ATOM     21  C   UNL A   1      38.151  21.709  25.269  1.00  0.00     0.015 A 
ATOM     22  C   UNL A   1      38.763  23.989  26.774  1.00  0.00     0.021 A 
ATOM     23  C   UNL A   1      39.234  21.693  26.152  1.00  0.00     0.021 A 
ATOM     24  C   UNL A   1      39.548  22.839  26.882  1.00  0.00     0.041 A 
ATOM     25  Cl  UNL A   1      40.925  22.841  27.913  1.00  0.00    -0.084 Cl
ENDBRANCH  17  19
ENDBRANCH  10  17
BRANCH  15  26
ATOM     26  O   UNL A   1      31.981  17.986  25.216  1.00  0.00    -0.508 OA
ATOM     27  H   UNL A   1      32.070  17.259  24.633  1.00  0.00     0.293 HD
ENDBRANCH  15  26
ENDBRANCH   6   7
ENDBRANCH   4   6
ENDBRANCH   3   4
ENDBRANCH   2   3
ENDBRANCH   1   2
BRANCH   1  28
ATOM     28  O   UNL A   1      32.238  28.223  26.654  1.00  0.00    -0.374 OA
BRANCH  28  29
ATOM     29  C   UNL A   1      33.236  29.135  26.204  1.00  0.00     0.202 C 
BRANCH  29  30
ATOM     30  C   UNL A   1      33.328  30.531  26.850  1.00  0.00     0.261 C 
BRANCH  30  31
ATOM     31  O   UNL A   1      34.238  30.575  27.949  1.00  0.00    -0.460 OA
BRANCH  31  32
ATOM     32  C   UNL A   1      35.216  31.516  27.830  1.00  0.00     0.338 C 
ATOM     33  O   UNL A   1      35.095  32.705  27.648  1.00  0.00    -0.246 OA
BRANCH  32  34
ATOM     34  C   UNL A   1      36.399  30.854  28.405  1.00  0.00     0.060 A 
ATOM     35  C   UNL A   1      37.429  31.625  28.950  1.00  0.00     0.016 A 
ATOM     36  C   UNL A   1      36.605  29.526  27.996  1.00  0.00     0.016 A 
ATOM     37  C   UNL A   1      38.708  31.093  28.974  1.00  0.00     0.010 A 
ATOM     38  C   UNL A   1      37.893  29.009  27.999  1.00  0.00     0.010 A 
ATOM     39  C   UNL A   1      38.946  29.811  28.441  1.00  0.00    -0.014 A 
BRANCH  39  40
ATOM     40  C   UNL A   1      40.292  29.260  28.589  1.00  0.00     0.031 A 
ATOM     41  C   UNL A   1      40.617  29.000  30.020  1.00  0.00     0.074 A 
ATOM     42  C   UNL A   1      41.111  28.888  27.583  1.00  0.00     0.049 A 
ATOM     43  N   UNL A   1      41.570  29.503  30.733  1.00  0.00    -0.248 NA
ATOM     44  C   UNL A   1      39.649  28.195  30.787  1.00  0.00     0.031 C 
ATOM     45  C   UNL A   1      40.825  28.812  26.152  1.00  0.00     0.029 A 
ATOM     46  N   UNL A   1      42.388  28.407  27.654  1.00  0.00    -0.354 N 
ATOM     47  C   UNL A   1      41.409  28.961  32.006  1.00  0.00     0.074 A 
ATOM     48  C   UNL A   1      40.136  28.296  32.021  1.00  0.00     0.031 C 
ATOM     49  C   UNL A   1      41.809  28.128  25.523  1.00  0.00     0.029 A 
ATOM     50  C   UNL A   1      42.849  27.814  26.483  1.00  0.00     0.049 A 
ATOM     51  H   UNL A   1      42.936  28.475  28.469  1.00  0.00     0.167 HD
ATOM     52  C   UNL A   1      42.432  28.912  32.899  1.00  0.00     0.037 A 
ATOM     53  C   UNL A   1      43.969  27.056  26.349  1.00  0.00     0.037 A 
ATOM     54  C   UNL A   1      43.466  29.852  32.568  1.00  0.00     0.049 A 
ATOM     55  C   UNL A   1      44.845  27.371  27.501  1.00  0.00     0.074 A 
ATOM     56  C   UNL A   1      43.568  31.227  32.546  1.00  0.00     0.029 A 
ATOM     57  N   UNL A   1      44.530  29.382  31.844  1.00  0.00    -0.354 N 
ATOM     58  N   UNL A   1      45.427  28.521  27.689  1.00  0.00    -0.248 NA
ATOM     59  C   UNL A   1      44.750  26.516  28.673  1.00  0.00     0.031 C 
ATOM     60  C   UNL A   1      44.430  31.523  31.449  1.00  0.00     0.029 A 
ATOM     61  C   UNL A   1      44.841  30.313  30.888  1.00  0.00     0.049 A 
ATOM     62  H   UNL A   1      44.991  28.524  31.988  1.00  0.00     0.167 HD
ATOM     63  C   UNL A   1      45.387  28.713  29.059  1.00  0.00     0.074 A 
ATOM     64  C   UNL A   1      45.056  27.406  29.618  1.00  0.00     0.031 C 
ATOM     65  C   UNL A   1      45.353  29.972  29.582  1.00  0.00     0.037 A 
BRANCH  52  66
ATOM     66  C   UNL A   1      42.646  27.764  33.852  1.00  0.00     0.064 A 
ATOM     67  C   UNL A   1      43.239  26.576  33.386  1.00  0.00     0.173 A 
ATOM     68  C   UNL A   1      42.037  27.681  35.125  1.00  0.00     0.173 A 
ATOM     69  F   UNL A   1      43.811  26.527  32.174  1.00  0.00    -0.203 F 
ATOM     70  C   UNL A   1      43.183  25.387  34.120  1.00  0.00     0.198 A 
ATOM     71  C   UNL A   1      42.034  26.510  35.878  1.00  0.00     0.198 A 
ATOM     72  F   UNL A   1      41.326  28.690  35.642  1.00  0.00    -0.203 F 
ATOM     73  F   UNL A   1      43.661  24.254  33.587  1.00  0.00    -0.200 F 
ATOM     74  C   UNL A   1      42.582  25.355  35.365  1.00  0.00     0.200 A 
ATOM     75  F   UNL A   1      41.422  26.496  37.071  1.00  0.00    -0.200 F 
ATOM     76  F   UNL A   1      42.482  24.206  36.047  1.00  0.00    -0.200 F 
ENDBRANCH  52  66
BRANCH  53  77
ATOM     77  C   UNL A   1      44.158  25.805  25.565  1.00  0.00     0.064 A 
ATOM     78  C   UNL A   1      45.445  25.414  25.146  1.00  0.00     0.173 A 
ATOM     79  C   UNL A   1      43.160  24.813  25.511  1.00  0.00     0.173 A 
ATOM     80  F   UNL A   1      46.463  26.286  25.196  1.00  0.00    -0.203 F 
ATOM     81  C   UNL A   1      45.728  24.098  24.762  1.00  0.00     0.198 A 
ATOM     82  C   UNL A   1      43.443  23.502  25.120  1.00  0.00     0.198 A 
ATOM     83  F   UNL A   1      41.916  25.064  25.939  1.00  0.00    -0.203 F 
ATOM     84  F   UNL A   1      46.985  23.745  24.459  1.00  0.00    -0.200 F 
ATOM     85  C   UNL A   1      44.730  23.139  24.769  1.00  0.00     0.200 A 
ATOM     86  F   UNL A   1      42.477  22.574  25.163  1.00  0.00    -0.200 F 
ATOM     87  F   UNL A   1      45.016  21.861  24.483  1.00  0.00    -0.200 F 
ENDBRANCH  53  77
BRANCH  65  88
ATOM     88  C   UNL A   1      45.663  31.113  28.653  1.00  0.00     0.064 A 
ATOM     89  C   UNL A   1      46.963  31.546  28.339  1.00  0.00     0.173 A 
ATOM     90  C   UNL A   1      44.601  31.699  27.952  1.00  0.00     0.173 A 
ATOM     91  F   UNL A   1      48.036  30.973  28.901  1.00  0.00    -0.203 F 
ATOM     92  C   UNL A   1      47.183  32.542  27.389  1.00  0.00     0.198 A 
ATOM     93  C   UNL A   1      44.827  32.667  26.977  1.00  0.00     0.198 A 
ATOM     94  F   UNL A   1      43.343  31.291  28.176  1.00  0.00    -0.203 F 
ATOM     95  F   UNL A   1      48.433  32.942  27.109  1.00  0.00    -0.200 F 
ATOM     96  C   UNL A   1      46.115  33.094  26.701  1.00  0.00     0.200 A 
ATOM     97  F   UNL A   1      43.794  33.162  26.281  1.00  0.00    -0.200 F 
ATOM     98  F   UNL A   1      46.329  34.016  25.751  1.00  0.00    -0.200 F 
ENDBRANCH  65  88
ENDBRANCH  39  40
ENDBRANCH  32  34
ENDBRANCH  31  32
ENDBRANCH  30  31
ENDBRANCH  29  30
ENDBRANCH  28  29
ENDBRANCH   1  28
TORSDOF 18
ENDMDL
MODEL 3
REMARK VINA RESULT:     -12.1      3.518      9.358
REMARK SMILES Cc1c(CC(=O)OCCOCCOC(=O)c2ccc(-c3c4nc(c(-c5c(F)c(F)c(F)c(F)c5F)c5ccc([nH]5)c(-c5c(F)c(F)c(F)c(F)c5F)c5nc(c(-c6c(F)c(F)c(F)c(F)c6F)c6ccc3[nH]6)C=C5)C=C4)cc2)c2cc(O)ccc2n1C(=O)c1ccc(Cl)cc1
REMARK SMILES IDX 9 1 8 2 7 3 5 4 6 5 4 6 3 7 1 8 2 9 86 10 79 11 85 12 80 13
REMARK SMILES IDX 84 14 81 15 83 16 87 17 88 18 89 19 90 20 95 21 91 22 94 23
REMARK SMILES IDX 92 24 93 25 82 26 10 28 11 29 12 30 13 31 14 32 15 33 16 34
REMARK SMILES IDX 17 35 78 36 18 37 77 38 19 39 20 40 21 41 71 42 22 43 76 44
REMARK SMILES IDX 70 45 72 46 23 47 75 48 69 49 68 50 24 52 56 53 36 54 55 55
REMARK SMILES IDX 37 56 40 57 54 58 73 59 38 60 39 61 53 63 74 64 41 65 25 66
REMARK SMILES IDX 26 67 34 68 27 69 28 70 32 71 35 72 29 73 30 74 33 75 31 76
REMARK SMILES IDX 57 77 58 78 66 79 59 80 60 81 64 82 67 83 61 84 62 85 65 86
REMARK SMILES IDX 63 87 42 88 43 89 51 90 44 91 45 92 49 93 52 94 46 95 47 96
REMARK SMILES IDX 50 97 48 98
REMARK H PARENT 82 27 72 51 40 62
REMARK Flexibility Score: inf
ROOT
ATOM      1  C   UNL A   1      36.745  22.293  24.364  1.00  0.00     0.202 C 
ENDROOT
BRANCH   1   2
ATOM      2  C   UNL A   1      35.358  21.725  24.702  1.00  0.00     0.261 C 
BRANCH   2   3
ATOM      3  O   UNL A   1      34.267  22.640  24.492  1.00  0.00    -0.463 OA
BRANCH   3   4
ATOM      4  C   UNL A   1      34.282  23.731  25.303  1.00  0.00     0.310 C 
ATOM      5  O   UNL A   1      34.236  23.671  26.531  1.00  0.00    -0.252 OA
BRANCH   4   6
ATOM      6  C   UNL A   1      34.384  25.073  24.613  1.00  0.00     0.160 C 
BRANCH   6   7
ATOM      7  C   UNL A   1      33.226  26.038  24.661  1.00  0.00    -0.008 A 
ATOM      8  C   UNL A   1      31.650  24.934  22.925  1.00  0.00     0.065 C 
ATOM      9  C   UNL A   1      32.041  25.962  23.943  1.00  0.00     0.028 A 
ATOM     10  N   UNL A   1      31.177  26.994  24.349  1.00  0.00    -0.280 N 
ATOM     11  C   UNL A   1      33.088  27.135  25.565  1.00  0.00     0.008 A 
ATOM     12  C   UNL A   1      31.851  27.749  25.326  1.00  0.00     0.057 A 
ATOM     13  C   UNL A   1      33.930  27.664  26.572  1.00  0.00     0.056 A 
ATOM     14  C   UNL A   1      31.495  28.910  26.051  1.00  0.00     0.031 A 
ATOM     15  C   UNL A   1      33.610  28.871  27.186  1.00  0.00     0.116 A 
ATOM     16  C   UNL A   1      32.403  29.490  26.941  1.00  0.00     0.048 A 
BRANCH  10  17
ATOM     17  C   UNL A   1      29.846  27.196  23.871  1.00  0.00     0.262 C 
ATOM     18  O   UNL A   1      28.973  26.379  24.165  1.00  0.00    -0.268 OA
BRANCH  17  19
ATOM     19  C   UNL A   1      29.385  28.342  23.070  1.00  0.00     0.040 A 
ATOM     20  C   UNL A   1      30.291  29.074  22.294  1.00  0.00     0.015 A 
ATOM     21  C   UNL A   1      28.028  28.682  23.099  1.00  0.00     0.015 A 
ATOM     22  C   UNL A   1      29.846  30.214  21.620  1.00  0.00     0.021 A 
ATOM     23  C   UNL A   1      27.587  29.812  22.407  1.00  0.00     0.021 A 
ATOM     24  C   UNL A   1      28.501  30.584  21.690  1.00  0.00     0.041 A 
ATOM     25  Cl  UNL A   1      27.969  32.017  20.900  1.00  0.00    -0.084 Cl
ENDBRANCH  17  19
ENDBRANCH  10  17
BRANCH  15  26
ATOM     26  O   UNL A   1      34.558  29.458  27.969  1.00  0.00    -0.508 OA
ATOM     27  H   UNL A   1      35.327  29.824  27.579  1.00  0.00     0.293 HD
ENDBRANCH  15  26
ENDBRANCH   6   7
ENDBRANCH   4   6
ENDBRANCH   3   4
ENDBRANCH   2   3
ENDBRANCH   1   2
BRANCH   1  28
ATOM     28  O   UNL A   1      37.745  22.413  25.364  1.00  0.00    -0.374 OA
BRANCH  28  29
ATOM     29  C   UNL A   1      38.566  21.274  25.605  1.00  0.00     0.202 C 
BRANCH  29  30
ATOM     30  C   UNL A   1      39.876  21.443  26.399  1.00  0.00     0.261 C 
BRANCH  30  31
ATOM     31  O   UNL A   1      40.271  22.807  26.535  1.00  0.00    -0.460 OA
BRANCH  31  32
ATOM     32  C   UNL A   1      41.568  23.052  26.199  1.00  0.00     0.338 C 
ATOM     33  O   UNL A   1      42.286  22.412  25.466  1.00  0.00    -0.246 OA
BRANCH  32  34
ATOM     34  C   UNL A   1      41.753  24.469  26.555  1.00  0.00     0.060 A 
ATOM     35  C   UNL A   1      42.560  24.811  27.643  1.00  0.00     0.016 A 
ATOM     36  C   UNL A   1      40.786  25.350  26.044  1.00  0.00     0.016 A 
ATOM     37  C   UNL A   1      42.309  26.005  28.299  1.00  0.00     0.010 A 
ATOM     38  C   UNL A   1      40.522  26.532  26.722  1.00  0.00     0.010 A 
ATOM     39  C   UNL A   1      41.250  26.831  27.874  1.00  0.00    -0.014 A 
BRANCH  39  40
ATOM     40  C   UNL A   1      41.099  28.126  28.537  1.00  0.00     0.031 A 
ATOM     41  C   UNL A   1      42.158  29.082  28.106  1.00  0.00     0.074 A 
ATOM     42  C   UNL A   1      40.072  28.496  29.329  1.00  0.00     0.049 A 
ATOM     43  N   UNL A   1      43.050  29.674  28.829  1.00  0.00    -0.248 NA
ATOM     44  C   UNL A   1      42.336  29.269  26.654  1.00  0.00     0.031 C 
ATOM     45  C   UNL A   1      38.828  27.779  29.608  1.00  0.00     0.029 A 
ATOM     46  N   UNL A   1      39.894  29.669  30.005  1.00  0.00    -0.354 N 
ATOM     47  C   UNL A   1      43.813  30.427  27.939  1.00  0.00     0.074 A 
ATOM     48  C   UNL A   1      43.433  30.021  26.614  1.00  0.00     0.031 C 
ATOM     49  C   UNL A   1      37.948  28.608  30.215  1.00  0.00     0.029 A 
ATOM     50  C   UNL A   1      38.599  29.878  30.471  1.00  0.00     0.049 A 
ATOM     51  H   UNL A   1      40.623  30.314  30.151  1.00  0.00     0.167 HD
ATOM     52  C   UNL A   1      44.553  31.489  28.350  1.00  0.00     0.037 A 
ATOM     53  C   UNL A   1      38.094  31.042  30.957  1.00  0.00     0.037 A 
ATOM     54  C   UNL A   1      44.815  31.436  29.761  1.00  0.00     0.049 A 
ATOM     55  C   UNL A   1      39.248  31.881  31.357  1.00  0.00     0.074 A 
ATOM     56  C   UNL A   1      45.553  30.617  30.588  1.00  0.00     0.029 A 
ATOM     57  N   UNL A   1      43.974  32.142  30.580  1.00  0.00    -0.354 N 
ATOM     58  N   UNL A   1      40.048  31.606  32.346  1.00  0.00    -0.248 NA
ATOM     59  C   UNL A   1      39.755  32.836  30.385  1.00  0.00     0.031 C 
ATOM     60  C   UNL A   1      44.818  30.552  31.808  1.00  0.00     0.029 A 
ATOM     61  C   UNL A   1      43.693  31.368  31.675  1.00  0.00     0.049 A 
ATOM     62  H   UNL A   1      43.632  33.050  30.411  1.00  0.00     0.167 HD
ATOM     63  C   UNL A   1      41.298  32.009  31.907  1.00  0.00     0.074 A 
ATOM     64  C   UNL A   1      41.040  32.850  30.742  1.00  0.00     0.031 C 
ATOM     65  C   UNL A   1      42.425  31.395  32.365  1.00  0.00     0.037 A 
BRANCH  52  66
ATOM     66  C   UNL A   1      44.722  32.746  27.535  1.00  0.00     0.064 A 
ATOM     67  C   UNL A   1      45.888  32.926  26.767  1.00  0.00     0.173 A 
ATOM     68  C   UNL A   1      43.920  33.898  27.700  1.00  0.00     0.173 A 
ATOM     69  F   UNL A   1      46.744  31.910  26.578  1.00  0.00    -0.203 F 
ATOM     70  C   UNL A   1      46.243  34.174  26.247  1.00  0.00     0.198 A 
ATOM     71  C   UNL A   1      44.248  35.127  27.133  1.00  0.00     0.198 A 
ATOM     72  F   UNL A   1      42.852  33.913  28.506  1.00  0.00    -0.203 F 
ATOM     73  F   UNL A   1      47.419  34.322  25.621  1.00  0.00    -0.200 F 
ATOM     74  C   UNL A   1      45.424  35.273  26.430  1.00  0.00     0.200 A 
ATOM     75  F   UNL A   1      43.451  36.184  27.344  1.00  0.00    -0.200 F 
ATOM     76  F   UNL A   1      45.788  36.480  25.977  1.00  0.00    -0.200 F 
ENDBRANCH  52  66
BRANCH  53  77
ATOM     77  C   UNL A   1      36.756  31.648  30.717  1.00  0.00     0.064 A 
ATOM     78  C   UNL A   1      35.921  31.985  31.801  1.00  0.00     0.173 A 
ATOM     79  C   UNL A   1      36.418  32.217  29.474  1.00  0.00     0.173 A 
ATOM     80  F   UNL A   1      36.189  31.514  33.028  1.00  0.00    -0.203 F 
ATOM     81  C   UNL A   1      34.859  32.885  31.662  1.00  0.00     0.198 A 
ATOM     82  C   UNL A   1      35.352  33.110  29.336  1.00  0.00     0.198 A 
ATOM     83  F   UNL A   1      37.178  32.007  28.391  1.00  0.00    -0.203 F 
ATOM     84  F   UNL A   1      34.146  33.250  32.737  1.00  0.00    -0.200 F 
ATOM     85  C   UNL A   1      34.588  33.462  30.433  1.00  0.00     0.200 A 
ATOM     86  F   UNL A   1      35.120  33.687  28.149  1.00  0.00    -0.200 F 
ATOM     87  F   UNL A   1      33.625  34.387  30.315  1.00  0.00    -0.200 F 
ENDBRANCH  53  77
BRANCH  65  88
ATOM     88  C   UNL A   1      42.284  30.496  33.563  1.00  0.00     0.064 A 
ATOM     89  C   UNL A   1      42.313  30.944  34.895  1.00  0.00     0.173 A 
ATOM     90  C   UNL A   1      41.969  29.149  33.342  1.00  0.00     0.173 A 
ATOM     91  F   UNL A   1      42.518  32.236  35.185  1.00  0.00    -0.203 F 
ATOM     92  C   UNL A   1      42.070  30.072  35.956  1.00  0.00     0.198 A 
ATOM     93  C   UNL A   1      41.690  28.290  34.402  1.00  0.00     0.198 A 
ATOM     94  F   UNL A   1      41.880  28.678  32.089  1.00  0.00    -0.203 F 
ATOM     95  F   UNL A   1      42.108  30.521  37.220  1.00  0.00    -0.200 F 
ATOM     96  C   UNL A   1      41.748  28.748  35.707  1.00  0.00     0.200 A 
ATOM     97  F   UNL A   1      41.332  27.022  34.152  1.00  0.00    -0.200 F 
ATOM     98  F   UNL A   1      41.464  27.920  36.723  1.00  0.00    -0.200 F 
ENDBRANCH  65  88
ENDBRANCH  39  40
ENDBRANCH  32  34
ENDBRANCH  31  32
ENDBRANCH  30  31
ENDBRANCH  29  30
ENDBRANCH  28  29
ENDBRANCH   1  28
TORSDOF 18
ENDMDL
