MODEL 1
REMARK VINA RESULT:     -11.9      0.000      0.000
REMARK SMILES COc1cc2c(cc1OC)[C@H](C(=O)OCCOCCOC(=O)c1ccc(-c3c4nc(c(-c5c(F)c(F)c(F)c(F)c5F)c5ccc([nH]5)c(-c5c(F)c(F)c(F)c(F)c5F)c5nc(c(-c6c(F)c(F)c(F)c(F)c6F)c6ccc3[nH]6)C=C5)C=C4)cc1)[C@@H](c1ccc(SC)cc1)N(C)C2=O
REMARK SMILES IDX 17 1 16 2 15 3 14 4 12 5 13 6 11 7 3 8 4 9 8 10 5 11 7 12
REMARK SMILES IDX 6 13 97 14 95 15 98 16 86 17 96 18 2 19 1 20 9 21 10 22
REMARK SMILES IDX 87 23 88 24 94 25 89 26 93 27 90 28 91 29 92 30 18 31 19 32
REMARK SMILES IDX 20 33 21 34 22 35 23 36 24 37 85 38 25 39 84 40 26 41 27 42
REMARK SMILES IDX 28 43 78 44 29 45 83 46 77 47 79 48 30 49 82 50 76 51 75 52
REMARK SMILES IDX 31 54 63 55 43 56 62 57 44 58 47 59 61 60 80 61 45 62 46 63
REMARK SMILES IDX 60 65 81 66 48 67 32 68 33 69 41 70 34 71 35 72 39 73 42 74
REMARK SMILES IDX 36 75 37 76 40 77 38 78 64 79 65 80 73 81 66 82 67 83 71 84
REMARK SMILES IDX 74 85 68 86 69 87 72 88 70 89 49 90 50 91 58 92 51 93 52 94
REMARK SMILES IDX 56 95 59 96 53 97 54 98 57 99 55 100
REMARK H PARENT 79 53 47 64
REMARK Flexibility Score: inf
ROOT
ATOM      1  O   UNL A   1      32.255  30.819  26.316  1.00  0.00    -0.374 OA
ENDROOT
BRANCH   1   2
ATOM      2  C   UNL A   1      31.954  29.578  26.961  1.00  0.00     0.202 C 
BRANCH   2   3
ATOM      3  C   UNL A   1      33.153  28.678  27.249  1.00  0.00     0.261 C 
BRANCH   3   4
ATOM      4  O   UNL A   1      33.482  28.038  26.005  1.00  0.00    -0.463 OA
BRANCH   4   5
ATOM      5  C   UNL A   1      32.928  26.832  25.744  1.00  0.00     0.316 C 
ATOM      6  O   UNL A   1      32.035  26.361  26.432  1.00  0.00    -0.251 OA
BRANCH   5   7
ATOM      7  C   UNL A   1      33.447  26.261  24.406  1.00  0.00     0.157 C 
ATOM      8  C   UNL A   1      35.932  22.640  24.480  1.00  0.00     0.161 A 
ATOM      9  C   UNL A   1      35.033  22.892  23.452  1.00  0.00     0.064 A 
ATOM     10  C   UNL A   1      36.092  23.579  25.495  1.00  0.00     0.161 A 
ATOM     11  C   UNL A   1      34.268  24.072  23.430  1.00  0.00     0.048 A 
ATOM     12  C   UNL A   1      35.285  24.740  25.488  1.00  0.00     0.056 A 
ATOM     13  C   UNL A   1      34.318  24.994  24.485  1.00  0.00    -0.015 A 
ATOM     14  C   UNL A   1      33.486  24.325  22.197  1.00  0.00     0.254 C 
ATOM     15  N   UNL A   1      32.622  25.411  22.180  1.00  0.00    -0.333 N 
ATOM     16  O   UNL A   1      33.655  23.583  21.231  1.00  0.00    -0.269 OA
ATOM     17  C   UNL A   1      32.227  26.080  23.442  1.00  0.00     0.134 C 
ATOM     18  C   UNL A   1      31.808  25.551  20.977  1.00  0.00     0.147 C 
BRANCH   8  19
ATOM     19  O   UNL A   1      36.574  21.433  24.512  1.00  0.00    -0.493 OA
ATOM     20  C   UNL A   1      35.712  20.367  24.913  1.00  0.00     0.278 C 
ENDBRANCH   8  19
BRANCH  10  21
ATOM     21  O   UNL A   1      36.982  23.510  26.538  1.00  0.00    -0.493 OA
ATOM     22  C   UNL A   1      38.272  24.072  26.313  1.00  0.00     0.278 C 
ENDBRANCH  10  21
BRANCH  17  23
ATOM     23  C   UNL A   1      31.419  27.363  23.177  1.00  0.00    -0.024 A 
ATOM     24  C   UNL A   1      31.984  28.560  22.714  1.00  0.00     0.007 A 
ATOM     25  C   UNL A   1      30.035  27.349  23.428  1.00  0.00     0.007 A 
ATOM     26  C   UNL A   1      31.198  29.713  22.570  1.00  0.00     0.015 A 
ATOM     27  C   UNL A   1      29.249  28.494  23.255  1.00  0.00     0.015 A 
ATOM     28  C   UNL A   1      29.824  29.694  22.838  1.00  0.00     0.007 A 
BRANCH  28  29
ATOM     29  S   UNL A   1      28.931  31.234  22.673  1.00  0.00    -0.130 SA
ATOM     30  C   UNL A   1      27.381  30.903  23.554  1.00  0.00     0.091 C 
ENDBRANCH  28  29
ENDBRANCH  17  23
ENDBRANCH   5   7
ENDBRANCH   4   5
ENDBRANCH   3   4
ENDBRANCH   2   3
ENDBRANCH   1   2
BRANCH   1  31
ATOM     31  C   UNL A   1      31.409  31.931  26.606  1.00  0.00     0.202 C 
BRANCH  31  32
ATOM     32  C   UNL A   1      32.090  33.261  26.954  1.00  0.00     0.261 C 
BRANCH  32  33
ATOM     33  O   UNL A   1      33.109  33.110  27.957  1.00  0.00    -0.460 OA
BRANCH  33  34
ATOM     34  C   UNL A   1      34.268  33.769  27.707  1.00  0.00     0.338 C 
ATOM     35  O   UNL A   1      34.399  34.904  27.278  1.00  0.00    -0.246 OA
BRANCH  34  36
ATOM     36  C   UNL A   1      35.389  32.964  28.231  1.00  0.00     0.060 A 
ATOM     37  C   UNL A   1      35.230  31.580  28.389  1.00  0.00     0.016 A 
ATOM     38  C   UNL A   1      36.598  33.564  28.551  1.00  0.00     0.016 A 
ATOM     39  C   UNL A   1      36.278  30.799  28.892  1.00  0.00     0.010 A 
ATOM     40  C   UNL A   1      37.646  32.775  29.029  1.00  0.00     0.010 A 
ATOM     41  C   UNL A   1      37.492  31.397  29.245  1.00  0.00    -0.014 A 
BRANCH  41  42
ATOM     42  C   UNL A   1      38.566  30.663  29.974  1.00  0.00     0.031 A 
ATOM     43  C   UNL A   1      38.796  30.968  31.435  1.00  0.00     0.074 A 
ATOM     44  C   UNL A   1      39.382  29.796  29.345  1.00  0.00     0.049 A 
ATOM     45  N   UNL A   1      39.724  30.527  32.247  1.00  0.00    -0.248 NA
ATOM     46  C   UNL A   1      37.890  31.951  32.053  1.00  0.00     0.031 C 
ATOM     47  C   UNL A   1      39.339  29.465  27.923  1.00  0.00     0.029 A 
ATOM     48  N   UNL A   1      40.427  29.045  29.832  1.00  0.00    -0.354 N 
ATOM     49  C   UNL A   1      39.537  31.212  33.442  1.00  0.00     0.074 A 
ATOM     50  C   UNL A   1      38.467  32.158  33.224  1.00  0.00     0.031 C 
ATOM     51  C   UNL A   1      40.298  28.561  27.655  1.00  0.00     0.029 A 
ATOM     52  C   UNL A   1      41.040  28.268  28.881  1.00  0.00     0.049 A 
ATOM     53  H   UNL A   1      40.707  29.062  30.775  1.00  0.00     0.167 HD
ATOM     54  C   UNL A   1      40.163  31.043  34.631  1.00  0.00     0.037 A 
ATOM     55  C   UNL A   1      42.080  27.415  28.987  1.00  0.00     0.037 A 
ATOM     56  C   UNL A   1      41.179  30.054  34.871  1.00  0.00     0.049 A 
ATOM     57  C   UNL A   1      42.733  27.198  30.330  1.00  0.00     0.074 A 
ATOM     58  C   UNL A   1      41.791  29.721  36.065  1.00  0.00     0.029 A 
ATOM     59  N   UNL A   1      41.730  29.239  33.894  1.00  0.00    -0.354 N 
ATOM     60  N   UNL A   1      42.473  27.770  31.481  1.00  0.00    -0.248 NA
ATOM     61  C   UNL A   1      43.814  26.202  30.390  1.00  0.00     0.031 C 
ATOM     62  C   UNL A   1      42.757  28.744  35.801  1.00  0.00     0.029 A 
ATOM     63  C   UNL A   1      42.698  28.421  34.454  1.00  0.00     0.049 A 
ATOM     64  H   UNL A   1      41.473  29.241  32.945  1.00  0.00     0.167 HD
ATOM     65  C   UNL A   1      43.334  27.186  32.404  1.00  0.00     0.074 A 
ATOM     66  C   UNL A   1      44.114  26.203  31.682  1.00  0.00     0.031 C 
ATOM     67  C   UNL A   1      43.464  27.440  33.730  1.00  0.00     0.037 A 
BRANCH  54  68
ATOM     68  C   UNL A   1      39.752  31.940  35.767  1.00  0.00     0.064 A 
ATOM     69  C   UNL A   1      38.649  31.647  36.586  1.00  0.00     0.173 A 
ATOM     70  C   UNL A   1      40.478  33.108  36.045  1.00  0.00     0.173 A 
ATOM     71  F   UNL A   1      37.914  30.547  36.362  1.00  0.00    -0.203 F 
ATOM     72  C   UNL A   1      38.256  32.516  37.599  1.00  0.00     0.198 A 
ATOM     73  C   UNL A   1      40.109  33.953  37.090  1.00  0.00     0.198 A 
ATOM     74  F   UNL A   1      41.549  33.434  35.305  1.00  0.00    -0.203 F 
ATOM     75  F   UNL A   1      37.151  32.255  38.311  1.00  0.00    -0.200 F 
ATOM     76  C   UNL A   1      38.989  33.665  37.855  1.00  0.00     0.200 A 
ATOM     77  F   UNL A   1      40.830  35.052  37.348  1.00  0.00    -0.200 F 
ATOM     78  F   UNL A   1      38.610  34.499  38.831  1.00  0.00    -0.200 F 
ENDBRANCH  54  68
BRANCH  55  79
ATOM     79  C   UNL A   1      42.547  26.667  27.789  1.00  0.00     0.064 A 
ATOM     80  C   UNL A   1      43.522  27.206  26.936  1.00  0.00     0.173 A 
ATOM     81  C   UNL A   1      42.031  25.402  27.470  1.00  0.00     0.173 A 
ATOM     82  F   UNL A   1      44.027  28.424  27.183  1.00  0.00    -0.203 F 
ATOM     83  C   UNL A   1      43.951  26.518  25.804  1.00  0.00     0.198 A 
ATOM     84  C   UNL A   1      42.483  24.701  26.352  1.00  0.00     0.198 A 
ATOM     85  F   UNL A   1      41.097  24.842  28.252  1.00  0.00    -0.203 F 
ATOM     86  F   UNL A   1      44.851  27.077  24.983  1.00  0.00    -0.200 F 
ATOM     87  C   UNL A   1      43.437  25.262  25.518  1.00  0.00     0.200 A 
ATOM     88  F   UNL A   1      41.994  23.483  26.086  1.00  0.00    -0.200 F 
ATOM     89  F   UNL A   1      43.856  24.596  24.433  1.00  0.00    -0.200 F 
ENDBRANCH  55  79
BRANCH  67  90
ATOM     90  C   UNL A   1      44.455  26.619  34.507  1.00  0.00     0.064 A 
ATOM     91  C   UNL A   1      44.126  25.360  35.031  1.00  0.00     0.173 A 
ATOM     92  C   UNL A   1      45.773  27.073  34.675  1.00  0.00     0.173 A 
ATOM     93  F   UNL A   1      42.879  24.881  34.906  1.00  0.00    -0.203 F 
ATOM     94  C   UNL A   1      45.071  24.599  35.715  1.00  0.00     0.198 A 
ATOM     95  C   UNL A   1      46.724  26.296  35.330  1.00  0.00     0.198 A 
ATOM     96  F   UNL A   1      46.145  28.266  34.185  1.00  0.00    -0.203 F 
ATOM     97  F   UNL A   1      44.722  23.420  36.247  1.00  0.00    -0.200 F 
ATOM     98  C   UNL A   1      46.371  25.063  35.856  1.00  0.00     0.200 A 
ATOM     99  F   UNL A   1      47.984  26.738  35.446  1.00  0.00    -0.200 F 
ATOM    100  F   UNL A   1      47.282  24.324  36.502  1.00  0.00    -0.200 F 
ENDBRANCH  67  90
ENDBRANCH  41  42
ENDBRANCH  34  36
ENDBRANCH  33  34
ENDBRANCH  32  33
ENDBRANCH  31  32
ENDBRANCH   1  31
TORSDOF 18
ENDMDL
MODEL 2
REMARK VINA RESULT:     -11.1      4.528     10.410
REMARK SMILES COc1cc2c(cc1OC)[C@H](C(=O)OCCOCCOC(=O)c1ccc(-c3c4nc(c(-c5c(F)c(F)c(F)c(F)c5F)c5ccc([nH]5)c(-c5c(F)c(F)c(F)c(F)c5F)c5nc(c(-c6c(F)c(F)c(F)c(F)c6F)c6ccc3[nH]6)C=C5)C=C4)cc1)[C@@H](c1ccc(SC)cc1)N(C)C2=O
REMARK SMILES IDX 17 1 16 2 15 3 14 4 12 5 13 6 11 7 3 8 4 9 8 10 5 11 7 12
REMARK SMILES IDX 6 13 97 14 95 15 98 16 86 17 96 18 2 19 1 20 9 21 10 22
REMARK SMILES IDX 87 23 88 24 94 25 89 26 93 27 90 28 91 29 92 30 18 31 19 32
REMARK SMILES IDX 20 33 21 34 22 35 23 36 24 37 85 38 25 39 84 40 26 41 27 42
REMARK SMILES IDX 28 43 78 44 29 45 83 46 77 47 79 48 30 49 82 50 76 51 75 52
REMARK SMILES IDX 31 54 63 55 43 56 62 57 44 58 47 59 61 60 80 61 45 62 46 63
REMARK SMILES IDX 60 65 81 66 48 67 32 68 33 69 41 70 34 71 35 72 39 73 42 74
REMARK SMILES IDX 36 75 37 76 40 77 38 78 64 79 65 80 73 81 66 82 67 83 71 84
REMARK SMILES IDX 74 85 68 86 69 87 72 88 70 89 49 90 50 91 58 92 51 93 52 94
REMARK SMILES IDX 56 95 59 96 53 97 54 98 57 99 55 100
REMARK H PARENT 79 53 47 64
REMARK Flexibility Score: inf
ROOT
ATOM      1  O   UNL A   1      36.324  20.987  24.313  1.00  0.00    -0.374 OA
ENDROOT
BRANCH   1   2
ATOM      2  C   UNL A   1      36.795  22.304  24.009  1.00  0.00     0.202 C 
BRANCH   2   3
ATOM      3  C   UNL A   1      35.721  23.388  23.943  1.00  0.00     0.261 C 
BRANCH   3   4
ATOM      4  O   UNL A   1      34.781  22.961  22.945  1.00  0.00    -0.463 OA
BRANCH   4   5
ATOM      5  C   UNL A   1      33.699  23.740  22.713  1.00  0.00     0.316 C 
ATOM      6  O   UNL A   1      33.289  23.969  21.585  1.00  0.00    -0.251 OA
BRANCH   5   7
ATOM      7  C   UNL A   1      32.996  24.121  24.035  1.00  0.00     0.157 C 
ATOM      8  C   UNL A   1      31.495  28.220  24.519  1.00  0.00     0.161 A 
ATOM      9  C   UNL A   1      30.831  27.126  25.061  1.00  0.00     0.064 A 
ATOM     10  C   UNL A   1      32.697  28.026  23.844  1.00  0.00     0.161 A 
ATOM     11  C   UNL A   1      31.344  25.825  24.921  1.00  0.00     0.048 A 
ATOM     12  C   UNL A   1      33.179  26.708  23.670  1.00  0.00     0.056 A 
ATOM     13  C   UNL A   1      32.492  25.571  24.159  1.00  0.00    -0.015 A 
ATOM     14  C   UNL A   1      30.659  24.763  25.695  1.00  0.00     0.254 C 
ATOM     15  N   UNL A   1      31.052  23.447  25.492  1.00  0.00    -0.333 N 
ATOM     16  O   UNL A   1      29.795  25.091  26.505  1.00  0.00    -0.269 OA
ATOM     17  C   UNL A   1      31.863  23.076  24.308  1.00  0.00     0.134 C 
ATOM     18  C   UNL A   1      30.276  22.439  26.208  1.00  0.00     0.147 C 
BRANCH   8  19
ATOM     19  O   UNL A   1      30.903  29.451  24.591  1.00  0.00    -0.493 OA
ATOM     20  C   UNL A   1      30.018  29.696  23.497  1.00  0.00     0.278 C 
ENDBRANCH   8  19
BRANCH  10  21
ATOM     21  O   UNL A   1      33.502  29.004  23.314  1.00  0.00    -0.493 OA
ATOM     22  C   UNL A   1      34.433  28.592  22.318  1.00  0.00     0.278 C 
ENDBRANCH  10  21
BRANCH  17  23
ATOM     23  C   UNL A   1      32.337  21.614  24.379  1.00  0.00    -0.024 A 
ATOM     24  C   UNL A   1      32.141  20.680  23.351  1.00  0.00     0.007 A 
ATOM     25  C   UNL A   1      32.991  21.174  25.544  1.00  0.00     0.007 A 
ATOM     26  C   UNL A   1      32.530  19.343  23.517  1.00  0.00     0.015 A 
ATOM     27  C   UNL A   1      33.405  19.846  25.694  1.00  0.00     0.015 A 
ATOM     28  C   UNL A   1      33.166  18.910  24.688  1.00  0.00     0.007 A 
BRANCH  28  29
ATOM     29  S   UNL A   1      33.570  17.173  24.813  1.00  0.00    -0.130 SA
ATOM     30  C   UNL A   1      34.087  16.752  23.126  1.00  0.00     0.091 C 
ENDBRANCH  28  29
ENDBRANCH  17  23
ENDBRANCH   5   7
ENDBRANCH   4   5
ENDBRANCH   3   4
ENDBRANCH   2   3
ENDBRANCH   1   2
BRANCH   1  31
ATOM     31  C   UNL A   1      37.218  20.115  25.004  1.00  0.00     0.202 C 
BRANCH  31  32
ATOM     32  C   UNL A   1      38.680  20.562  25.128  1.00  0.00     0.261 C 
BRANCH  32  33
ATOM     33  O   UNL A   1      39.369  19.898  26.201  1.00  0.00    -0.460 OA
BRANCH  33  34
ATOM     34  C   UNL A   1      40.721  19.880  26.097  1.00  0.00     0.338 C 
ATOM     35  O   UNL A   1      41.416  19.002  25.613  1.00  0.00    -0.246 OA
BRANCH  34  36
ATOM     36  C   UNL A   1      41.241  21.205  26.487  1.00  0.00     0.060 A 
ATOM     37  C   UNL A   1      40.867  21.757  27.721  1.00  0.00     0.016 A 
ATOM     38  C   UNL A   1      42.106  21.897  25.651  1.00  0.00     0.016 A 
ATOM     39  C   UNL A   1      41.344  23.016  28.107  1.00  0.00     0.010 A 
ATOM     40  C   UNL A   1      42.594  23.141  26.055  1.00  0.00     0.010 A 
ATOM     41  C   UNL A   1      42.192  23.735  27.260  1.00  0.00    -0.014 A 
BRANCH  41  42
ATOM     42  C   UNL A   1      42.565  25.156  27.515  1.00  0.00     0.031 A 
ATOM     43  C   UNL A   1      43.957  25.622  27.157  1.00  0.00     0.074 A 
ATOM     44  C   UNL A   1      41.721  26.011  28.125  1.00  0.00     0.049 A 
ATOM     45  N   UNL A   1      44.534  26.778  27.370  1.00  0.00    -0.248 NA
ATOM     46  C   UNL A   1      44.840  24.628  26.525  1.00  0.00     0.031 C 
ATOM     47  C   UNL A   1      40.381  25.685  28.606  1.00  0.00     0.029 A 
ATOM     48  N   UNL A   1      41.884  27.336  28.459  1.00  0.00    -0.354 N 
ATOM     49  C   UNL A   1      45.848  26.628  26.941  1.00  0.00     0.074 A 
ATOM     50  C   UNL A   1      46.007  25.249  26.540  1.00  0.00     0.031 C 
ATOM     51  C   UNL A   1      39.833  26.785  29.153  1.00  0.00     0.029 A 
ATOM     52  C   UNL A   1      40.793  27.886  29.085  1.00  0.00     0.049 A 
ATOM     53  H   UNL A   1      42.705  27.841  28.265  1.00  0.00     0.167 HD
ATOM     54  C   UNL A   1      46.826  27.559  26.843  1.00  0.00     0.037 A 
ATOM     55  C   UNL A   1      40.591  29.137  29.549  1.00  0.00     0.037 A 
ATOM     56  C   UNL A   1      46.651  28.947  27.175  1.00  0.00     0.049 A 
ATOM     57  C   UNL A   1      41.671  30.177  29.385  1.00  0.00     0.074 A 
ATOM     58  C   UNL A   1      47.539  29.993  27.001  1.00  0.00     0.029 A 
ATOM     59  N   UNL A   1      45.507  29.481  27.748  1.00  0.00    -0.354 N 
ATOM     60  N   UNL A   1      42.873  30.052  28.875  1.00  0.00    -0.248 NA
ATOM     61  C   UNL A   1      41.359  31.538  29.847  1.00  0.00     0.031 C 
ATOM     62  C   UNL A   1      46.955  31.151  27.525  1.00  0.00     0.029 A 
ATOM     63  C   UNL A   1      45.677  30.839  27.962  1.00  0.00     0.049 A 
ATOM     64  H   UNL A   1      44.696  28.971  27.971  1.00  0.00     0.167 HD
ATOM     65  C   UNL A   1      43.447  31.318  28.928  1.00  0.00     0.074 A 
ATOM     66  C   UNL A   1      42.456  32.200  29.506  1.00  0.00     0.031 C 
ATOM     67  C   UNL A   1      44.682  31.712  28.531  1.00  0.00     0.037 A 
BRANCH  54  68
ATOM     68  C   UNL A   1      48.171  27.105  26.343  1.00  0.00     0.064 A 
ATOM     69  C   UNL A   1      48.526  27.184  24.986  1.00  0.00     0.173 A 
ATOM     70  C   UNL A   1      49.123  26.590  27.237  1.00  0.00     0.173 A 
ATOM     71  F   UNL A   1      47.653  27.662  24.086  1.00  0.00    -0.203 F 
ATOM     72  C   UNL A   1      49.755  26.711  24.537  1.00  0.00     0.198 A 
ATOM     73  C   UNL A   1      50.370  26.161  26.789  1.00  0.00     0.198 A 
ATOM     74  F   UNL A   1      48.845  26.502  28.547  1.00  0.00    -0.203 F 
ATOM     75  F   UNL A   1      50.036  26.721  23.226  1.00  0.00    -0.200 F 
ATOM     76  C   UNL A   1      50.679  26.206  25.438  1.00  0.00     0.200 A 
ATOM     77  F   UNL A   1      51.269  25.691  27.665  1.00  0.00    -0.200 F 
ATOM     78  F   UNL A   1      51.863  25.754  25.005  1.00  0.00    -0.200 F 
ENDBRANCH  54  68
BRANCH  55  79
ATOM     79  C   UNL A   1      39.290  29.489  30.180  1.00  0.00     0.064 A 
ATOM     80  C   UNL A   1      39.116  29.404  31.569  1.00  0.00     0.173 A 
ATOM     81  C   UNL A   1      38.197  29.916  29.412  1.00  0.00     0.173 A 
ATOM     82  F   UNL A   1      40.123  28.975  32.345  1.00  0.00    -0.203 F 
ATOM     83  C   UNL A   1      37.896  29.717  32.164  1.00  0.00     0.198 A 
ATOM     84  C   UNL A   1      36.985  30.258  30.011  1.00  0.00     0.198 A 
ATOM     85  F   UNL A   1      38.311  30.015  28.079  1.00  0.00    -0.203 F 
ATOM     86  F   UNL A   1      37.745  29.584  33.489  1.00  0.00    -0.200 F 
ATOM     87  C   UNL A   1      36.834  30.152  31.385  1.00  0.00     0.200 A 
ATOM     88  F   UNL A   1      35.966  30.689  29.257  1.00  0.00    -0.200 F 
ATOM     89  F   UNL A   1      35.663  30.461  31.958  1.00  0.00    -0.200 F 
ENDBRANCH  55  79
BRANCH  67  90
ATOM     90  C   UNL A   1      45.030  33.168  28.664  1.00  0.00     0.064 A 
ATOM     91  C   UNL A   1      45.717  33.667  29.780  1.00  0.00     0.173 A 
ATOM     92  C   UNL A   1      44.726  34.066  27.628  1.00  0.00     0.173 A 
ATOM     93  F   UNL A   1      46.025  32.855  30.803  1.00  0.00    -0.203 F 
ATOM     94  C   UNL A   1      46.064  35.014  29.865  1.00  0.00     0.198 A 
ATOM     95  C   UNL A   1      45.104  35.404  27.701  1.00  0.00     0.198 A 
ATOM     96  F   UNL A   1      44.080  33.640  26.531  1.00  0.00    -0.203 F 
ATOM     97  F   UNL A   1      46.679  35.478  30.962  1.00  0.00    -0.200 F 
ATOM     98  C   UNL A   1      45.765  35.879  28.822  1.00  0.00     0.200 A 
ATOM     99  F   UNL A   1      44.832  36.232  26.682  1.00  0.00    -0.200 F 
ATOM    100  F   UNL A   1      46.112  37.170  28.900  1.00  0.00    -0.200 F 
ENDBRANCH  67  90
ENDBRANCH  41  42
ENDBRANCH  34  36
ENDBRANCH  33  34
ENDBRANCH  32  33
ENDBRANCH  31  32
ENDBRANCH   1  31
TORSDOF 18
ENDMDL
MODEL 3
REMARK VINA RESULT:     -10.8      4.418      9.974
REMARK SMILES COc1cc2c(cc1OC)[C@H](C(=O)OCCOCCOC(=O)c1ccc(-c3c4nc(c(-c5c(F)c(F)c(F)c(F)c5F)c5ccc([nH]5)c(-c5c(F)c(F)c(F)c(F)c5F)c5nc(c(-c6c(F)c(F)c(F)c(F)c6F)c6ccc3[nH]6)C=C5)C=C4)cc1)[C@@H](c1ccc(SC)cc1)N(C)C2=O
REMARK SMILES IDX 17 1 16 2 15 3 14 4 12 5 13 6 11 7 3 8 4 9 8 10 5 11 7 12
REMARK SMILES IDX 6 13 97 14 95 15 98 16 86 17 96 18 2 19 1 20 9 21 10 22
REMARK SMILES IDX 87 23 88 24 94 25 89 26 93 27 90 28 91 29 92 30 18 31 19 32
REMARK SMILES IDX 20 33 21 34 22 35 23 36 24 37 85 38 25 39 84 40 26 41 27 42
REMARK SMILES IDX 28 43 78 44 29 45 83 46 77 47 79 48 30 49 82 50 76 51 75 52
REMARK SMILES IDX 31 54 63 55 43 56 62 57 44 58 47 59 61 60 80 61 45 62 46 63
REMARK SMILES IDX 60 65 81 66 48 67 32 68 33 69 41 70 34 71 35 72 39 73 42 74
REMARK SMILES IDX 36 75 37 76 40 77 38 78 64 79 65 80 73 81 66 82 67 83 71 84
REMARK SMILES IDX 74 85 68 86 69 87 72 88 70 89 49 90 50 91 58 92 51 93 52 94
REMARK SMILES IDX 56 95 59 96 53 97 54 98 57 99 55 100
REMARK H PARENT 79 53 47 64
REMARK Flexibility Score: inf
ROOT
ATOM      1  O   UNL A   1      36.710  21.575  24.894  1.00  0.00    -0.374 OA
ENDROOT
BRANCH   1   2
ATOM      2  C   UNL A   1      37.029  22.907  24.480  1.00  0.00     0.202 C 
BRANCH   2   3
ATOM      3  C   UNL A   1      35.832  23.820  24.219  1.00  0.00     0.261 C 
BRANCH   3   4
ATOM      4  O   UNL A   1      35.226  23.348  23.005  1.00  0.00    -0.463 OA
BRANCH   4   5
ATOM      5  C   UNL A   1      33.927  23.651  22.783  1.00  0.00     0.316 C 
ATOM      6  O   UNL A   1      33.402  23.512  21.687  1.00  0.00    -0.251 OA
BRANCH   5   7
ATOM      7  C   UNL A   1      33.205  24.004  24.102  1.00  0.00     0.157 C 
ATOM      8  C   UNL A   1      31.665  28.083  24.636  1.00  0.00     0.161 A 
ATOM      9  C   UNL A   1      31.004  26.975  25.151  1.00  0.00     0.064 A 
ATOM     10  C   UNL A   1      32.876  27.909  23.972  1.00  0.00     0.161 A 
ATOM     11  C   UNL A   1      31.529  25.680  24.997  1.00  0.00     0.048 A 
ATOM     12  C   UNL A   1      33.371  26.599  23.781  1.00  0.00     0.056 A 
ATOM     13  C   UNL A   1      32.688  25.448  24.244  1.00  0.00    -0.015 A 
ATOM     14  C   UNL A   1      30.844  24.601  25.745  1.00  0.00     0.254 C 
ATOM     15  N   UNL A   1      31.249  23.291  25.525  1.00  0.00    -0.333 N 
ATOM     16  O   UNL A   1      29.967  24.908  26.550  1.00  0.00    -0.269 OA
ATOM     17  C   UNL A   1      32.078  22.947  24.345  1.00  0.00     0.134 C 
ATOM     18  C   UNL A   1      30.474  22.266  26.215  1.00  0.00     0.147 C 
BRANCH   8  19
ATOM     19  O   UNL A   1      31.063  29.308  24.721  1.00  0.00    -0.493 OA
ATOM     20  C   UNL A   1      31.654  30.138  25.722  1.00  0.00     0.278 C 
ENDBRANCH   8  19
BRANCH  10  21
ATOM     21  O   UNL A   1      33.680  28.902  23.468  1.00  0.00    -0.493 OA
ATOM     22  C   UNL A   1      34.391  28.600  22.271  1.00  0.00     0.278 C 
ENDBRANCH  10  21
BRANCH  17  23
ATOM     23  C   UNL A   1      32.563  21.487  24.397  1.00  0.00    -0.024 A 
ATOM     24  C   UNL A   1      33.462  20.998  25.356  1.00  0.00     0.007 A 
ATOM     25  C   UNL A   1      32.097  20.588  23.420  1.00  0.00     0.007 A 
ATOM     26  C   UNL A   1      33.921  19.674  25.294  1.00  0.00     0.015 A 
ATOM     27  C   UNL A   1      32.536  19.260  23.380  1.00  0.00     0.015 A 
ATOM     28  C   UNL A   1      33.464  18.790  24.308  1.00  0.00     0.007 A 
BRANCH  28  29
ATOM     29  S   UNL A   1      34.158  17.142  24.292  1.00  0.00    -0.130 SA
ATOM     30  C   UNL A   1      32.880  16.154  25.117  1.00  0.00     0.091 C 
ENDBRANCH  28  29
ENDBRANCH  17  23
ENDBRANCH   5   7
ENDBRANCH   4   5
ENDBRANCH   3   4
ENDBRANCH   2   3
ENDBRANCH   1   2
BRANCH   1  31
ATOM     31  C   UNL A   1      37.649  20.906  25.735  1.00  0.00     0.202 C 
BRANCH  31  32
ATOM     32  C   UNL A   1      39.118  21.333  25.627  1.00  0.00     0.261 C 
BRANCH  32  33
ATOM     33  O   UNL A   1      39.805  21.264  26.887  1.00  0.00    -0.460 OA
BRANCH  33  34
ATOM     34  C   UNL A   1      41.114  21.620  26.852  1.00  0.00     0.338 C 
ATOM     35  O   UNL A   1      42.049  20.969  26.418  1.00  0.00    -0.246 OA
BRANCH  34  36
ATOM     36  C   UNL A   1      41.225  23.038  27.249  1.00  0.00     0.060 A 
ATOM     37  C   UNL A   1      40.837  24.039  26.347  1.00  0.00     0.016 A 
ATOM     38  C   UNL A   1      41.695  23.383  28.508  1.00  0.00     0.016 A 
ATOM     39  C   UNL A   1      40.942  25.390  26.700  1.00  0.00     0.010 A 
ATOM     40  C   UNL A   1      41.774  24.732  28.860  1.00  0.00     0.010 A 
ATOM     41  C   UNL A   1      41.441  25.751  27.956  1.00  0.00    -0.014 A 
BRANCH  41  42
ATOM     42  C   UNL A   1      41.771  27.160  28.314  1.00  0.00     0.031 A 
ATOM     43  C   UNL A   1      43.201  27.630  28.186  1.00  0.00     0.074 A 
ATOM     44  C   UNL A   1      40.845  27.998  28.819  1.00  0.00     0.049 A 
ATOM     45  N   UNL A   1      43.739  28.776  28.523  1.00  0.00    -0.248 NA
ATOM     46  C   UNL A   1      44.169  26.655  27.659  1.00  0.00     0.031 C 
ATOM     47  C   UNL A   1      39.447  27.662  29.081  1.00  0.00     0.029 A 
ATOM     48  N   UNL A   1      40.955  29.309  29.220  1.00  0.00    -0.354 N 
ATOM     49  C   UNL A   1      45.103  28.634  28.293  1.00  0.00     0.074 A 
ATOM     50  C   UNL A   1      45.320  27.269  27.872  1.00  0.00     0.031 C 
ATOM     51  C   UNL A   1      38.823  28.745  29.578  1.00  0.00     0.029 A 
ATOM     52  C   UNL A   1      39.782  29.843  29.694  1.00  0.00     0.049 A 
ATOM     53  H   UNL A   1      41.796  29.817  29.170  1.00  0.00     0.167 HD
ATOM     54  C   UNL A   1      46.084  29.562  28.376  1.00  0.00     0.037 A 
ATOM     55  C   UNL A   1      39.513  31.078  30.166  1.00  0.00     0.037 A 
ATOM     56  C   UNL A   1      45.861  30.939  28.726  1.00  0.00     0.049 A 
ATOM     57  C   UNL A   1      40.605  32.117  30.203  1.00  0.00     0.074 A 
ATOM     58  C   UNL A   1      46.765  31.985  28.725  1.00  0.00     0.029 A 
ATOM     59  N   UNL A   1      44.644  31.458  29.139  1.00  0.00    -0.354 N 
ATOM     60  N   UNL A   1      41.870  32.004  29.875  1.00  0.00    -0.248 NA
ATOM     61  C   UNL A   1      40.227  33.463  30.660  1.00  0.00     0.031 C 
ATOM     62  C   UNL A   1      46.109  33.128  29.195  1.00  0.00     0.029 A 
ATOM     63  C   UNL A   1      44.780  32.807  29.424  1.00  0.00     0.049 A 
ATOM     64  H   UNL A   1      43.808  30.945  29.219  1.00  0.00     0.167 HD
ATOM     65  C   UNL A   1      42.429  33.264  30.059  1.00  0.00     0.074 A 
ATOM     66  C   UNL A   1      41.363  34.131  30.512  1.00  0.00     0.031 C 
ATOM     67  C   UNL A   1      43.710  33.666  29.866  1.00  0.00     0.037 A 
BRANCH  54  68
ATOM     68  C   UNL A   1      47.489  29.119  28.069  1.00  0.00     0.064 A 
ATOM     69  C   UNL A   1      47.938  28.928  26.751  1.00  0.00     0.173 A 
ATOM     70  C   UNL A   1      48.404  28.889  29.108  1.00  0.00     0.173 A 
ATOM     71  F   UNL A   1      47.105  29.127  25.718  1.00  0.00    -0.203 F 
ATOM     72  C   UNL A   1      49.225  28.468  26.490  1.00  0.00     0.198 A 
ATOM     73  C   UNL A   1      49.706  28.473  28.841  1.00  0.00     0.198 A 
ATOM     74  F   UNL A   1      48.036  29.066  30.386  1.00  0.00    -0.203 F 
ATOM     75  F   UNL A   1      49.601  28.215  25.229  1.00  0.00    -0.200 F 
ATOM     76  C   UNL A   1      50.111  28.247  27.534  1.00  0.00     0.200 A 
ATOM     77  F   UNL A   1      50.566  28.279  29.850  1.00  0.00    -0.200 F 
ATOM     78  F   UNL A   1      51.350  27.807  27.281  1.00  0.00    -0.200 F 
ENDBRANCH  54  68
BRANCH  55  79
ATOM     79  C   UNL A   1      38.132  31.414  30.605  1.00  0.00     0.064 A 
ATOM     80  C   UNL A   1      37.786  31.408  31.965  1.00  0.00     0.173 A 
ATOM     81  C   UNL A   1      37.131  31.749  29.681  1.00  0.00     0.173 A 
ATOM     82  F   UNL A   1      38.700  31.068  32.886  1.00  0.00    -0.203 F 
ATOM     83  C   UNL A   1      36.491  31.707  32.381  1.00  0.00     0.198 A 
ATOM     84  C   UNL A   1      35.843  32.077  30.102  1.00  0.00     0.198 A 
ATOM     85  F   UNL A   1      37.410  31.771  28.370  1.00  0.00    -0.203 F 
ATOM     86  F   UNL A   1      36.178  31.649  33.683  1.00  0.00    -0.200 F 
ATOM     87  C   UNL A   1      35.523  32.049  31.450  1.00  0.00     0.200 A 
ATOM     88  F   UNL A   1      34.914  32.420  29.200  1.00  0.00    -0.200 F 
ATOM     89  F   UNL A   1      34.279  32.345  31.852  1.00  0.00    -0.200 F 
ENDBRANCH  55  79
BRANCH  67  90
ATOM     90  C   UNL A   1      44.034  35.114  30.101  1.00  0.00     0.064 A 
ATOM     91  C   UNL A   1      43.925  36.073  29.082  1.00  0.00     0.173 A 
ATOM     92  C   UNL A   1      44.398  35.560  31.381  1.00  0.00     0.173 A 
ATOM     93  F   UNL A   1      43.588  35.701  27.838  1.00  0.00    -0.203 F 
ATOM     94  C   UNL A   1      44.192  37.417  29.332  1.00  0.00     0.198 A 
ATOM     95  C   UNL A   1      44.632  36.909  31.635  1.00  0.00     0.198 A 
ATOM     96  F   UNL A   1      44.507  34.687  32.396  1.00  0.00    -0.203 F 
ATOM     97  F   UNL A   1      44.127  38.308  28.333  1.00  0.00    -0.200 F 
ATOM     98  C   UNL A   1      44.536  37.835  30.609  1.00  0.00     0.200 A 
ATOM     99  F   UNL A   1      44.944  37.311  32.875  1.00  0.00    -0.200 F 
ATOM    100  F   UNL A   1      44.779  39.130  30.850  1.00  0.00    -0.200 F 
ENDBRANCH  67  90
ENDBRANCH  41  42
ENDBRANCH  34  36
ENDBRANCH  33  34
ENDBRANCH  32  33
ENDBRANCH  31  32
ENDBRANCH   1  31
TORSDOF 18
ENDMDL
