MODEL 1
REMARK VINA RESULT:     -11.4      0.000      0.000
REMARK SMILES O=C(OCCOCCOC(=O)[C@@H]1C=C[C@@H](NS(=O)(=O)c2ccc(F)c(F)c2F)C1)c1ccc(-c2c3nc(c(-c4c(F)c(F)c(F)c(F)c4F)c4ccc([nH]4)c(-c4c(F)c(F)c(F)c(F)c4F)c4nc(c(-c5c(F)c(F)c(F)c(F)c5F)c5ccc2[nH]5)C=C4)C=C3)cc1
REMARK SMILES IDX 7 1 6 2 5 3 4 4 3 5 2 6 1 7 30 8 31 9 92 10 32 11 91 12
REMARK SMILES IDX 33 13 34 14 35 15 85 16 36 17 90 18 84 19 86 20 37 21 89 22
REMARK SMILES IDX 83 23 82 24 38 26 70 27 50 28 69 29 51 30 54 31 68 32 87 33
REMARK SMILES IDX 52 34 53 35 67 37 88 38 55 39 39 40 40 41 48 42 41 43 42 44
REMARK SMILES IDX 46 45 49 46 43 47 44 48 47 49 45 50 71 51 72 52 80 53 73 54
REMARK SMILES IDX 74 55 78 56 81 57 75 58 76 59 79 60 77 61 56 62 57 63 65 64
REMARK SMILES IDX 58 65 59 66 63 67 66 68 60 69 61 70 64 71 62 72 8 73 9 74
REMARK SMILES IDX 10 75 11 76 12 77 13 78 29 79 14 80 15 81 16 82 17 84 18 85
REMARK SMILES IDX 19 86 20 87 21 88 27 89 22 90 25 91 28 92 23 93 26 94 24 95
REMARK H PARENT 86 25 54 36 16 83
REMARK Flexibility Score: inf
ROOT
ATOM      1  C   UNL A   1      40.872  20.871  26.742  1.00  0.00     0.202 C 
ENDROOT
BRANCH   1   2
ATOM      2  O   UNL A   1      41.714  20.962  25.593  1.00  0.00    -0.374 OA
BRANCH   2   3
ATOM      3  C   UNL A   1      43.084  20.652  25.809  1.00  0.00     0.202 C 
BRANCH   3   4
ATOM      4  C   UNL A   1      44.072  21.760  25.445  1.00  0.00     0.261 C 
BRANCH   4   5
ATOM      5  O   UNL A   1      43.372  22.986  25.181  1.00  0.00    -0.460 OA
BRANCH   5   6
ATOM      6  C   UNL A   1      43.861  24.240  25.340  1.00  0.00     0.338 C 
ATOM      7  O   UNL A   1      44.668  24.690  24.534  1.00  0.00    -0.246 OA
BRANCH   6   8
ATOM      8  C   UNL A   1      43.400  25.116  26.449  1.00  0.00     0.060 A 
ATOM      9  C   UNL A   1      43.681  26.479  26.504  1.00  0.00     0.016 A 
ATOM     10  C   UNL A   1      42.581  24.563  27.440  1.00  0.00     0.016 A 
ATOM     11  C   UNL A   1      43.274  27.266  27.556  1.00  0.00     0.010 A 
ATOM     12  C   UNL A   1      42.080  25.372  28.463  1.00  0.00     0.010 A 
ATOM     13  C   UNL A   1      42.435  26.726  28.519  1.00  0.00    -0.014 A 
BRANCH  13  14
ATOM     14  C   UNL A   1      41.970  27.628  29.579  1.00  0.00     0.031 A 
ATOM     15  C   UNL A   1      42.802  27.778  30.805  1.00  0.00     0.074 A 
ATOM     16  C   UNL A   1      40.881  28.385  29.351  1.00  0.00     0.049 A 
ATOM     17  N   UNL A   1      42.538  28.430  31.902  1.00  0.00    -0.248 NA
ATOM     18  C   UNL A   1      44.115  27.113  30.793  1.00  0.00     0.031 C 
ATOM     19  C   UNL A   1      40.109  28.394  28.104  1.00  0.00     0.029 A 
ATOM     20  N   UNL A   1      40.257  29.316  30.133  1.00  0.00    -0.354 N 
ATOM     21  C   UNL A   1      43.623  28.204  32.734  1.00  0.00     0.074 A 
ATOM     22  C   UNL A   1      44.563  27.379  32.011  1.00  0.00     0.031 C 
ATOM     23  C   UNL A   1      39.139  29.314  28.193  1.00  0.00     0.029 A 
ATOM     24  C   UNL A   1      39.157  29.879  29.535  1.00  0.00     0.049 A 
ATOM     25  H   UNL A   1      40.565  29.559  31.036  1.00  0.00     0.167 HD
ATOM     26  C   UNL A   1      43.785  28.642  34.002  1.00  0.00     0.037 A 
ATOM     27  C   UNL A   1      38.235  30.717  30.046  1.00  0.00     0.037 A 
ATOM     28  C   UNL A   1      42.824  29.481  34.665  1.00  0.00     0.049 A 
ATOM     29  C   UNL A   1      38.396  31.126  31.481  1.00  0.00     0.074 A 
ATOM     30  C   UNL A   1      42.838  29.956  35.960  1.00  0.00     0.029 A 
ATOM     31  N   UNL A   1      41.670  29.973  34.062  1.00  0.00    -0.354 N 
ATOM     32  N   UNL A   1      39.368  30.833  32.314  1.00  0.00    -0.248 NA
ATOM     33  C   UNL A   1      37.327  31.946  32.063  1.00  0.00     0.031 C 
ATOM     34  C   UNL A   1      41.668  30.696  36.157  1.00  0.00     0.029 A 
ATOM     35  C   UNL A   1      40.950  30.729  34.968  1.00  0.00     0.049 A 
ATOM     36  H   UNL A   1      41.406  29.808  33.129  1.00  0.00     0.167 HD
ATOM     37  C   UNL A   1      39.034  31.427  33.519  1.00  0.00     0.074 A 
ATOM     38  C   UNL A   1      37.775  32.117  33.302  1.00  0.00     0.031 C 
ATOM     39  C   UNL A   1      39.700  31.400  34.699  1.00  0.00     0.037 A 
BRANCH  26  40
ATOM     40  C   UNL A   1      44.979  28.142  34.756  1.00  0.00     0.064 A 
ATOM     41  C   UNL A   1      44.913  26.913  35.429  1.00  0.00     0.173 A 
ATOM     42  C   UNL A   1      46.190  28.848  34.798  1.00  0.00     0.173 A 
ATOM     43  F   UNL A   1      43.781  26.191  35.409  1.00  0.00    -0.203 F 
ATOM     44  C   UNL A   1      46.013  26.410  36.119  1.00  0.00     0.198 A 
ATOM     45  C   UNL A   1      47.297  28.330  35.468  1.00  0.00     0.198 A 
ATOM     46  F   UNL A   1      46.316  30.013  34.144  1.00  0.00    -0.203 F 
ATOM     47  F   UNL A   1      45.920  25.236  36.759  1.00  0.00    -0.200 F 
ATOM     48  C   UNL A   1      47.206  27.115  36.131  1.00  0.00     0.200 A 
ATOM     49  F   UNL A   1      48.461  28.994  35.449  1.00  0.00    -0.200 F 
ATOM     50  F   UNL A   1      48.273  26.616  36.771  1.00  0.00    -0.200 F 
ENDBRANCH  26  40
BRANCH  27  51
ATOM     51  C   UNL A   1      37.089  31.148  29.204  1.00  0.00     0.064 A 
ATOM     52  C   UNL A   1      37.004  32.460  28.708  1.00  0.00     0.173 A 
ATOM     53  C   UNL A   1      36.015  30.288  28.944  1.00  0.00     0.173 A 
ATOM     54  F   UNL A   1      38.003  33.328  28.929  1.00  0.00    -0.203 F 
ATOM     55  C   UNL A   1      35.874  32.905  28.025  1.00  0.00     0.198 A 
ATOM     56  C   UNL A   1      34.897  30.725  28.235  1.00  0.00     0.198 A 
ATOM     57  F   UNL A   1      36.054  29.019  29.380  1.00  0.00    -0.203 F 
ATOM     58  F   UNL A   1      35.798  34.179  27.616  1.00  0.00    -0.200 F 
ATOM     59  C   UNL A   1      34.821  32.037  27.788  1.00  0.00     0.200 A 
ATOM     60  F   UNL A   1      33.888  29.878  27.991  1.00  0.00    -0.200 F 
ATOM     61  F   UNL A   1      33.732  32.464  27.134  1.00  0.00    -0.200 F 
ENDBRANCH  27  51
BRANCH  39  62
ATOM     62  C   UNL A   1      39.088  32.141  35.845  1.00  0.00     0.064 A 
ATOM     63  C   UNL A   1      39.442  33.476  36.090  1.00  0.00     0.173 A 
ATOM     64  C   UNL A   1      38.257  31.493  36.767  1.00  0.00     0.173 A 
ATOM     65  F   UNL A   1      40.244  34.130  35.236  1.00  0.00    -0.203 F 
ATOM     66  C   UNL A   1      39.010  34.126  37.240  1.00  0.00     0.198 A 
ATOM     67  C   UNL A   1      37.805  32.155  37.903  1.00  0.00     0.198 A 
ATOM     68  F   UNL A   1      37.884  30.220  36.563  1.00  0.00    -0.203 F 
ATOM     69  F   UNL A   1      39.401  35.385  37.482  1.00  0.00    -0.200 F 
ATOM     70  C   UNL A   1      38.194  33.466  38.145  1.00  0.00     0.200 A 
ATOM     71  F   UNL A   1      37.001  31.524  38.770  1.00  0.00    -0.200 F 
ATOM     72  F   UNL A   1      37.784  34.091  39.257  1.00  0.00    -0.200 F 
ENDBRANCH  39  62
ENDBRANCH  13  14
ENDBRANCH   6   8
ENDBRANCH   5   6
ENDBRANCH   4   5
ENDBRANCH   3   4
ENDBRANCH   2   3
ENDBRANCH   1   2
BRANCH   1  73
ATOM     73  C   UNL A   1      40.018  22.134  26.831  1.00  0.00     0.261 C 
BRANCH  73  74
ATOM     74  O   UNL A   1      38.810  21.927  26.074  1.00  0.00    -0.463 OA
BRANCH  74  75
ATOM     75  C   UNL A   1      37.944  22.980  26.022  1.00  0.00     0.312 C 
ATOM     76  O   UNL A   1      38.225  24.136  26.313  1.00  0.00    -0.252 OA
BRANCH  75  77
ATOM     77  C   UNL A   1      36.553  22.552  25.541  1.00  0.00     0.123 C 
ATOM     78  C   UNL A   1      36.492  22.111  24.111  1.00  0.00    -0.015 C 
ATOM     79  C   UNL A   1      35.540  23.721  25.569  1.00  0.00     0.043 C 
ATOM     80  C   UNL A   1      35.744  22.917  23.352  1.00  0.00    -0.011 C 
ATOM     81  C   UNL A   1      35.175  24.063  24.107  1.00  0.00     0.093 C 
BRANCH  81  82
ATOM     82  N   UNL A   1      33.745  24.200  23.932  1.00  0.00    -0.204 NA
ATOM     83  H   UNL A   1      33.373  24.407  24.859  1.00  0.00     0.142 HD
BRANCH  82  84
ATOM     84  S   UNL A   1      33.022  25.297  22.902  1.00  0.00     0.244 S 
ATOM     85  O   UNL A   1      34.040  25.904  22.077  1.00  0.00    -0.207 OA
ATOM     86  O   UNL A   1      31.912  24.598  22.297  1.00  0.00    -0.207 OA
BRANCH  84  87
ATOM     87  C   UNL A   1      32.388  26.578  23.947  1.00  0.00     0.121 A 
ATOM     88  C   UNL A   1      32.828  26.647  25.282  1.00  0.00     0.028 A 
ATOM     89  C   UNL A   1      31.618  27.608  23.419  1.00  0.00     0.181 A 
ATOM     90  C   UNL A   1      32.482  27.742  26.078  1.00  0.00     0.044 A 
ATOM     91  C   UNL A   1      31.287  28.703  24.214  1.00  0.00     0.195 A 
ATOM     92  F   UNL A   1      31.174  27.575  22.155  1.00  0.00    -0.202 F 
ATOM     93  C   UNL A   1      31.719  28.769  25.533  1.00  0.00     0.161 A 
ATOM     94  F   UNL A   1      30.560  29.707  23.702  1.00  0.00    -0.200 F 
ATOM     95  F   UNL A   1      31.410  29.828  26.294  1.00  0.00    -0.204 F 
ENDBRANCH  84  87
ENDBRANCH  82  84
ENDBRANCH  81  82
ENDBRANCH  75  77
ENDBRANCH  74  75
ENDBRANCH  73  74
ENDBRANCH   1  73
TORSDOF 17
ENDMDL
MODEL 2
REMARK VINA RESULT:     -11.3      5.638      8.385
REMARK SMILES O=C(OCCOCCOC(=O)[C@@H]1C=C[C@@H](NS(=O)(=O)c2ccc(F)c(F)c2F)C1)c1ccc(-c2c3nc(c(-c4c(F)c(F)c(F)c(F)c4F)c4ccc([nH]4)c(-c4c(F)c(F)c(F)c(F)c4F)c4nc(c(-c5c(F)c(F)c(F)c(F)c5F)c5ccc2[nH]5)C=C4)C=C3)cc1
REMARK SMILES IDX 7 1 6 2 5 3 4 4 3 5 2 6 1 7 30 8 31 9 92 10 32 11 91 12
REMARK SMILES IDX 33 13 34 14 35 15 85 16 36 17 90 18 84 19 86 20 37 21 89 22
REMARK SMILES IDX 83 23 82 24 38 26 70 27 50 28 69 29 51 30 54 31 68 32 87 33
REMARK SMILES IDX 52 34 53 35 67 37 88 38 55 39 39 40 40 41 48 42 41 43 42 44
REMARK SMILES IDX 46 45 49 46 43 47 44 48 47 49 45 50 71 51 72 52 80 53 73 54
REMARK SMILES IDX 74 55 78 56 81 57 75 58 76 59 79 60 77 61 56 62 57 63 65 64
REMARK SMILES IDX 58 65 59 66 63 67 66 68 60 69 61 70 64 71 62 72 8 73 9 74
REMARK SMILES IDX 10 75 11 76 12 77 13 78 29 79 14 80 15 81 16 82 17 84 18 85
REMARK SMILES IDX 19 86 20 87 21 88 27 89 22 90 25 91 28 92 23 93 26 94 24 95
REMARK H PARENT 86 25 54 36 16 83
REMARK Flexibility Score: inf
ROOT
ATOM      1  C   UNL A   1      41.184  21.561  25.908  1.00  0.00     0.202 C 
ENDROOT
BRANCH   1   2
ATOM      2  O   UNL A   1      42.098  20.658  26.532  1.00  0.00    -0.374 OA
BRANCH   2   3
ATOM      3  C   UNL A   1      41.907  19.284  26.226  1.00  0.00     0.202 C 
BRANCH   3   4
ATOM      4  C   UNL A   1      43.187  18.465  26.063  1.00  0.00     0.261 C 
BRANCH   4   5
ATOM      5  O   UNL A   1      43.705  18.607  24.731  1.00  0.00    -0.460 OA
BRANCH   5   6
ATOM      6  C   UNL A   1      44.773  19.353  24.360  1.00  0.00     0.338 C 
ATOM      7  O   UNL A   1      45.638  18.868  23.637  1.00  0.00    -0.246 OA
BRANCH   6   8
ATOM      8  C   UNL A   1      44.902  20.777  24.766  1.00  0.00     0.060 A 
ATOM      9  C   UNL A   1      45.522  21.174  25.948  1.00  0.00     0.016 A 
ATOM     10  C   UNL A   1      44.452  21.766  23.884  1.00  0.00     0.016 A 
ATOM     11  C   UNL A   1      45.602  22.496  26.322  1.00  0.00     0.010 A 
ATOM     12  C   UNL A   1      44.613  23.116  24.206  1.00  0.00     0.010 A 
ATOM     13  C   UNL A   1      45.187  23.476  25.433  1.00  0.00    -0.014 A 
BRANCH  13  14
ATOM     14  C   UNL A   1      45.362  24.872  25.850  1.00  0.00     0.031 A 
ATOM     15  C   UNL A   1      46.670  25.535  25.595  1.00  0.00     0.074 A 
ATOM     16  C   UNL A   1      44.296  25.541  26.326  1.00  0.00     0.049 A 
ATOM     17  N   UNL A   1      47.080  26.714  25.969  1.00  0.00    -0.248 NA
ATOM     18  C   UNL A   1      47.649  24.773  24.803  1.00  0.00     0.031 C 
ATOM     19  C   UNL A   1      42.943  24.988  26.456  1.00  0.00     0.029 A 
ATOM     20  N   UNL A   1      44.166  26.834  26.750  1.00  0.00    -0.354 N 
ATOM     21  C   UNL A   1      48.384  26.812  25.511  1.00  0.00     0.074 A 
ATOM     22  C   UNL A   1      48.693  25.588  24.808  1.00  0.00     0.031 C 
ATOM     23  C   UNL A   1      42.115  25.947  26.892  1.00  0.00     0.029 A 
ATOM     24  C   UNL A   1      42.896  27.144  27.171  1.00  0.00     0.049 A 
ATOM     25  H   UNL A   1      44.908  27.480  26.754  1.00  0.00     0.167 HD
ATOM     26  C   UNL A   1      49.240  27.841  25.697  1.00  0.00     0.037 A 
ATOM     27  C   UNL A   1      42.436  28.258  27.768  1.00  0.00     0.037 A 
ATOM     28  C   UNL A   1      48.870  29.047  26.387  1.00  0.00     0.049 A 
ATOM     29  C   UNL A   1      43.425  29.356  28.034  1.00  0.00     0.074 A 
ATOM     30  C   UNL A   1      49.648  30.146  26.688  1.00  0.00     0.029 A 
ATOM     31  N   UNL A   1      47.593  29.304  26.879  1.00  0.00    -0.354 N 
ATOM     32  N   UNL A   1      44.692  29.418  27.697  1.00  0.00    -0.248 NA
ATOM     33  C   UNL A   1      42.943  30.519  28.788  1.00  0.00     0.031 C 
ATOM     34  C   UNL A   1      48.857  31.048  27.406  1.00  0.00     0.029 A 
ATOM     35  C   UNL A   1      47.569  30.537  27.505  1.00  0.00     0.049 A 
ATOM     36  H   UNL A   1      46.823  28.699  26.795  1.00  0.00     0.167 HD
ATOM     37  C   UNL A   1      45.165  30.620  28.194  1.00  0.00     0.074 A 
ATOM     38  C   UNL A   1      44.039  31.268  28.842  1.00  0.00     0.031 C 
ATOM     39  C   UNL A   1      46.416  31.139  28.132  1.00  0.00     0.037 A 
BRANCH  26  40
ATOM     40  C   UNL A   1      50.652  27.655  25.235  1.00  0.00     0.064 A 
ATOM     41  C   UNL A   1      51.645  27.293  26.159  1.00  0.00     0.173 A 
ATOM     42  C   UNL A   1      51.030  27.802  23.892  1.00  0.00     0.173 A 
ATOM     43  F   UNL A   1      51.334  27.127  27.454  1.00  0.00    -0.203 F 
ATOM     44  C   UNL A   1      52.962  27.090  25.757  1.00  0.00     0.198 A 
ATOM     45  C   UNL A   1      52.344  27.571  23.489  1.00  0.00     0.198 A 
ATOM     46  F   UNL A   1      50.113  28.114  22.964  1.00  0.00    -0.203 F 
ATOM     47  F   UNL A   1      53.892  26.752  26.661  1.00  0.00    -0.200 F 
ATOM     48  C   UNL A   1      53.308  27.221  24.422  1.00  0.00     0.200 A 
ATOM     49  F   UNL A   1      52.671  27.663  22.193  1.00  0.00    -0.200 F 
ATOM     50  F   UNL A   1      54.571  26.995  24.031  1.00  0.00    -0.200 F 
ENDBRANCH  26  40
BRANCH  27  51
ATOM     51  C   UNL A   1      41.012  28.333  28.186  1.00  0.00     0.064 A 
ATOM     52  C   UNL A   1      40.039  28.910  27.351  1.00  0.00     0.173 A 
ATOM     53  C   UNL A   1      40.604  27.906  29.455  1.00  0.00     0.173 A 
ATOM     54  F   UNL A   1      40.374  29.339  26.125  1.00  0.00    -0.203 F 
ATOM     55  C   UNL A   1      38.729  29.096  27.787  1.00  0.00     0.198 A 
ATOM     56  C   UNL A   1      39.285  28.065  29.879  1.00  0.00     0.198 A 
ATOM     57  F   UNL A   1      41.489  27.332  30.284  1.00  0.00    -0.203 F 
ATOM     58  F   UNL A   1      37.839  29.703  26.990  1.00  0.00    -0.200 F 
ATOM     59  C   UNL A   1      38.352  28.673  29.051  1.00  0.00     0.200 A 
ATOM     60  F   UNL A   1      38.919  27.638  31.096  1.00  0.00    -0.200 F 
ATOM     61  F   UNL A   1      37.093  28.853  29.472  1.00  0.00    -0.200 F 
ENDBRANCH  27  51
BRANCH  39  62
ATOM     62  C   UNL A   1      46.633  32.474  28.771  1.00  0.00     0.064 A 
ATOM     63  C   UNL A   1      46.500  33.647  28.014  1.00  0.00     0.173 A 
ATOM     64  C   UNL A   1      47.096  32.580  30.089  1.00  0.00     0.173 A 
ATOM     65  F   UNL A   1      46.069  33.587  26.744  1.00  0.00    -0.203 F 
ATOM     66  C   UNL A   1      46.856  34.880  28.547  1.00  0.00     0.198 A 
ATOM     67  C   UNL A   1      47.425  33.819  30.627  1.00  0.00     0.198 A 
ATOM     68  F   UNL A   1      47.224  31.483  30.851  1.00  0.00    -0.203 F 
ATOM     69  F   UNL A   1      46.771  35.984  27.791  1.00  0.00    -0.200 F 
ATOM     70  C   UNL A   1      47.319  34.965  29.851  1.00  0.00     0.200 A 
ATOM     71  F   UNL A   1      47.855  33.905  31.893  1.00  0.00    -0.200 F 
ATOM     72  F   UNL A   1      47.668  36.154  30.361  1.00  0.00    -0.200 F 
ENDBRANCH  39  62
ENDBRANCH  13  14
ENDBRANCH   6   8
ENDBRANCH   5   6
ENDBRANCH   4   5
ENDBRANCH   3   4
ENDBRANCH   2   3
ENDBRANCH   1   2
BRANCH   1  73
ATOM     73  C   UNL A   1      39.836  21.471  26.621  1.00  0.00     0.261 C 
BRANCH  73  74
ATOM     74  O   UNL A   1      38.816  21.981  25.741  1.00  0.00    -0.463 OA
BRANCH  74  75
ATOM     75  C   UNL A   1      38.313  23.210  26.051  1.00  0.00     0.312 C 
ATOM     76  O   UNL A   1      38.701  23.916  26.975  1.00  0.00    -0.252 OA
BRANCH  75  77
ATOM     77  C   UNL A   1      37.190  23.627  25.095  1.00  0.00     0.123 C 
ATOM     78  C   UNL A   1      36.094  24.429  25.726  1.00  0.00    -0.015 C 
ATOM     79  C   UNL A   1      36.422  22.408  24.529  1.00  0.00     0.043 C 
ATOM     80  C   UNL A   1      34.919  23.795  25.720  1.00  0.00    -0.011 C 
ATOM     81  C   UNL A   1      34.991  22.442  25.110  1.00  0.00     0.093 C 
BRANCH  81  82
ATOM     82  N   UNL A   1      33.994  22.230  24.084  1.00  0.00    -0.204 NA
ATOM     83  H   UNL A   1      34.471  21.731  23.334  1.00  0.00     0.142 HD
BRANCH  82  84
ATOM     84  S   UNL A   1      32.554  21.418  24.320  1.00  0.00     0.244 S 
ATOM     85  O   UNL A   1      32.186  21.517  25.713  1.00  0.00    -0.207 OA
ATOM     86  O   UNL A   1      31.658  21.895  23.292  1.00  0.00    -0.207 OA
BRANCH  84  87
ATOM     87  C   UNL A   1      32.920  19.713  24.013  1.00  0.00     0.121 A 
ATOM     88  C   UNL A   1      32.217  19.039  22.997  1.00  0.00     0.028 A 
ATOM     89  C   UNL A   1      34.005  19.099  24.628  1.00  0.00     0.181 A 
ATOM     90  C   UNL A   1      32.601  17.751  22.615  1.00  0.00     0.044 A 
ATOM     91  C   UNL A   1      34.391  17.819  24.234  1.00  0.00     0.195 A 
ATOM     92  F   UNL A   1      34.693  19.705  25.604  1.00  0.00    -0.202 F 
ATOM     93  C   UNL A   1      33.694  17.153  23.233  1.00  0.00     0.161 A 
ATOM     94  F   UNL A   1      35.448  17.231  24.812  1.00  0.00    -0.200 F 
ATOM     95  F   UNL A   1      34.072  15.926  22.846  1.00  0.00    -0.204 F 
ENDBRANCH  84  87
ENDBRANCH  82  84
ENDBRANCH  81  82
ENDBRANCH  75  77
ENDBRANCH  74  75
ENDBRANCH  73  74
ENDBRANCH   1  73
TORSDOF 17
ENDMDL
MODEL 3
REMARK VINA RESULT:     -11.2      3.125      8.801
REMARK SMILES O=C(OCCOCCOC(=O)[C@@H]1C=C[C@@H](NS(=O)(=O)c2ccc(F)c(F)c2F)C1)c1ccc(-c2c3nc(c(-c4c(F)c(F)c(F)c(F)c4F)c4ccc([nH]4)c(-c4c(F)c(F)c(F)c(F)c4F)c4nc(c(-c5c(F)c(F)c(F)c(F)c5F)c5ccc2[nH]5)C=C4)C=C3)cc1
REMARK SMILES IDX 7 1 6 2 5 3 4 4 3 5 2 6 1 7 30 8 31 9 92 10 32 11 91 12
REMARK SMILES IDX 33 13 34 14 35 15 85 16 36 17 90 18 84 19 86 20 37 21 89 22
REMARK SMILES IDX 83 23 82 24 38 26 70 27 50 28 69 29 51 30 54 31 68 32 87 33
REMARK SMILES IDX 52 34 53 35 67 37 88 38 55 39 39 40 40 41 48 42 41 43 42 44
REMARK SMILES IDX 46 45 49 46 43 47 44 48 47 49 45 50 71 51 72 52 80 53 73 54
REMARK SMILES IDX 74 55 78 56 81 57 75 58 76 59 79 60 77 61 56 62 57 63 65 64
REMARK SMILES IDX 58 65 59 66 63 67 66 68 60 69 61 70 64 71 62 72 8 73 9 74
REMARK SMILES IDX 10 75 11 76 12 77 13 78 29 79 14 80 15 81 16 82 17 84 18 85
REMARK SMILES IDX 19 86 20 87 21 88 27 89 22 90 25 91 28 92 23 93 26 94 24 95
REMARK H PARENT 86 25 54 36 16 83
REMARK Flexibility Score: inf
ROOT
ATOM      1  C   UNL A   1      30.699  29.244  22.816  1.00  0.00     0.202 C 
ENDROOT
BRANCH   1   2
ATOM      2  O   UNL A   1      30.167  29.634  24.082  1.00  0.00    -0.374 OA
BRANCH   2   3
ATOM      3  C   UNL A   1      31.038  30.397  24.905  1.00  0.00     0.202 C 
BRANCH   3   4
ATOM      4  C   UNL A   1      32.072  29.591  25.691  1.00  0.00     0.261 C 
BRANCH   4   5
ATOM      5  O   UNL A   1      33.274  30.358  25.869  1.00  0.00    -0.460 OA
BRANCH   5   6
ATOM      6  C   UNL A   1      33.597  31.103  26.953  1.00  0.00     0.338 C 
ATOM      7  O   UNL A   1      32.855  32.010  27.316  1.00  0.00    -0.246 OA
BRANCH   6   8
ATOM      8  C   UNL A   1      34.813  30.815  27.757  1.00  0.00     0.060 A 
ATOM      9  C   UNL A   1      35.108  29.549  28.256  1.00  0.00     0.016 A 
ATOM     10  C   UNL A   1      35.742  31.843  27.955  1.00  0.00     0.016 A 
ATOM     11  C   UNL A   1      36.223  29.310  29.027  1.00  0.00     0.010 A 
ATOM     12  C   UNL A   1      36.925  31.591  28.653  1.00  0.00     0.010 A 
ATOM     13  C   UNL A   1      37.159  30.319  29.193  1.00  0.00    -0.014 A 
BRANCH  13  14
ATOM     14  C   UNL A   1      38.365  29.990  29.962  1.00  0.00     0.031 A 
ATOM     15  C   UNL A   1      39.426  29.174  29.310  1.00  0.00     0.074 A 
ATOM     16  C   UNL A   1      38.528  30.545  31.176  1.00  0.00     0.049 A 
ATOM     17  N   UNL A   1      40.515  28.679  29.827  1.00  0.00    -0.248 NA
ATOM     18  C   UNL A   1      39.244  28.880  27.879  1.00  0.00     0.031 C 
ATOM     19  C   UNL A   1      37.589  31.481  31.806  1.00  0.00     0.029 A 
ATOM     20  N   UNL A   1      39.548  30.443  32.079  1.00  0.00    -0.354 N 
ATOM     21  C   UNL A   1      41.118  27.966  28.803  1.00  0.00     0.074 A 
ATOM     22  C   UNL A   1      40.292  28.110  27.626  1.00  0.00     0.031 C 
ATOM     23  C   UNL A   1      38.097  31.893  32.976  1.00  0.00     0.029 A 
ATOM     24  C   UNL A   1      39.338  31.173  33.223  1.00  0.00     0.049 A 
ATOM     25  H   UNL A   1      40.354  29.899  31.926  1.00  0.00     0.167 HD
ATOM     26  C   UNL A   1      42.255  27.239  28.873  1.00  0.00     0.037 A 
ATOM     27  C   UNL A   1      40.050  31.207  34.364  1.00  0.00     0.037 A 
ATOM     28  C   UNL A   1      43.049  27.149  30.067  1.00  0.00     0.049 A 
ATOM     29  C   UNL A   1      41.266  30.330  34.444  1.00  0.00     0.074 A 
ATOM     30  C   UNL A   1      44.194  26.411  30.292  1.00  0.00     0.029 A 
ATOM     31  N   UNL A   1      42.770  27.836  31.245  1.00  0.00    -0.354 N 
ATOM     32  N   UNL A   1      41.790  29.567  33.513  1.00  0.00    -0.248 NA
ATOM     33  C   UNL A   1      41.970  30.283  35.730  1.00  0.00     0.031 C 
ATOM     34  C   UNL A   1      44.580  26.615  31.620  1.00  0.00     0.029 A 
ATOM     35  C   UNL A   1      43.708  27.521  32.210  1.00  0.00     0.049 A 
ATOM     36  H   UNL A   1      42.015  28.455  31.372  1.00  0.00     0.167 HD
ATOM     37  C   UNL A   1      42.883  28.946  34.093  1.00  0.00     0.074 A 
ATOM     38  C   UNL A   1      42.959  29.440  35.456  1.00  0.00     0.031 C 
ATOM     39  C   UNL A   1      43.741  28.046  33.555  1.00  0.00     0.037 A 
BRANCH  26  40
ATOM     40  C   UNL A   1      42.630  26.430  27.669  1.00  0.00     0.064 A 
ATOM     41  C   UNL A   1      43.568  26.936  26.756  1.00  0.00     0.173 A 
ATOM     42  C   UNL A   1      42.096  25.157  27.423  1.00  0.00     0.173 A 
ATOM     43  F   UNL A   1      44.119  28.144  26.953  1.00  0.00    -0.203 F 
ATOM     44  C   UNL A   1      43.955  26.199  25.640  1.00  0.00     0.198 A 
ATOM     45  C   UNL A   1      42.506  24.412  26.319  1.00  0.00     0.198 A 
ATOM     46  F   UNL A   1      41.221  24.614  28.282  1.00  0.00    -0.203 F 
ATOM     47  F   UNL A   1      44.848  26.709  24.780  1.00  0.00    -0.200 F 
ATOM     48  C   UNL A   1      43.430  24.935  25.427  1.00  0.00     0.200 A 
ATOM     49  F   UNL A   1      42.025  23.175  26.132  1.00  0.00    -0.200 F 
ATOM     50  F   UNL A   1      43.826  24.214  24.368  1.00  0.00    -0.200 F 
ENDBRANCH  26  40
BRANCH  27  51
ATOM     51  C   UNL A   1      39.582  32.047  35.497  1.00  0.00     0.064 A 
ATOM     52  C   UNL A   1      38.622  31.571  36.406  1.00  0.00     0.173 A 
ATOM     53  C   UNL A   1      40.018  33.368  35.650  1.00  0.00     0.173 A 
ATOM     54  F   UNL A   1      38.165  30.313  36.306  1.00  0.00    -0.203 F 
ATOM     55  C   UNL A   1      38.088  32.396  37.394  1.00  0.00     0.198 A 
ATOM     56  C   UNL A   1      39.505  34.184  36.657  1.00  0.00     0.198 A 
ATOM     57  F   UNL A   1      40.947  33.866  34.820  1.00  0.00    -0.203 F 
ATOM     58  F   UNL A   1      37.131  31.931  38.208  1.00  0.00    -0.200 F 
ATOM     59  C   UNL A   1      38.530  33.703  37.520  1.00  0.00     0.200 A 
ATOM     60  F   UNL A   1      39.948  35.442  36.788  1.00  0.00    -0.200 F 
ATOM     61  F   UNL A   1      38.016  34.498  38.467  1.00  0.00    -0.200 F 
ENDBRANCH  27  51
BRANCH  39  62
ATOM     62  C   UNL A   1      44.840  27.540  34.435  1.00  0.00     0.064 A 
ATOM     63  C   UNL A   1      44.620  26.438  35.272  1.00  0.00     0.173 A 
ATOM     64  C   UNL A   1      46.058  28.225  34.540  1.00  0.00     0.173 A 
ATOM     65  F   UNL A   1      43.463  25.760  35.210  1.00  0.00    -0.203 F 
ATOM     66  C   UNL A   1      45.572  26.058  36.211  1.00  0.00     0.198 A 
ATOM     67  C   UNL A   1      47.018  27.825  35.462  1.00  0.00     0.198 A 
ATOM     68  F   UNL A   1      46.312  29.277  33.747  1.00  0.00    -0.203 F 
ATOM     69  F   UNL A   1      45.322  25.033  37.038  1.00  0.00    -0.200 F 
ATOM     70  C   UNL A   1      46.768  26.752  36.306  1.00  0.00     0.200 A 
ATOM     71  F   UNL A   1      48.182  28.484  35.543  1.00  0.00    -0.200 F 
ATOM     72  F   UNL A   1      47.683  26.389  37.217  1.00  0.00    -0.200 F 
ENDBRANCH  39  62
ENDBRANCH  13  14
ENDBRANCH   6   8
ENDBRANCH   5   6
ENDBRANCH   4   5
ENDBRANCH   3   4
ENDBRANCH   2   3
ENDBRANCH   1   2
BRANCH   1  73
ATOM     73  C   UNL A   1      30.421  27.758  22.599  1.00  0.00     0.261 C 
BRANCH  73  74
ATOM     74  O   UNL A   1      30.718  27.051  23.818  1.00  0.00    -0.463 OA
BRANCH  74  75
ATOM     75  C   UNL A   1      29.728  26.250  24.307  1.00  0.00     0.312 C 
ATOM     76  O   UNL A   1      28.538  26.360  24.038  1.00  0.00    -0.252 OA
BRANCH  75  77
ATOM     77  C   UNL A   1      30.278  25.170  25.244  1.00  0.00     0.123 C 
ATOM     78  C   UNL A   1      31.240  25.667  26.279  1.00  0.00    -0.015 C 
ATOM     79  C   UNL A   1      31.122  24.115  24.489  1.00  0.00     0.043 C 
ATOM     80  C   UNL A   1      32.471  25.174  26.120  1.00  0.00    -0.011 C 
ATOM     81  C   UNL A   1      32.590  24.272  24.945  1.00  0.00     0.093 C 
BRANCH  81  82
ATOM     82  N   UNL A   1      33.186  22.995  25.271  1.00  0.00    -0.204 NA
ATOM     83  H   UNL A   1      32.416  22.401  25.578  1.00  0.00     0.142 HD
BRANCH  82  84
ATOM     84  S   UNL A   1      34.070  22.067  24.201  1.00  0.00     0.244 S 
ATOM     85  O   UNL A   1      33.543  20.722  24.203  1.00  0.00    -0.207 OA
ATOM     86  O   UNL A   1      34.128  22.827  22.973  1.00  0.00    -0.207 OA
BRANCH  84  87
ATOM     87  C   UNL A   1      35.698  21.974  24.891  1.00  0.00     0.121 A 
ATOM     88  C   UNL A   1      36.380  20.743  24.861  1.00  0.00     0.028 A 
ATOM     89  C   UNL A   1      36.368  23.127  25.283  1.00  0.00     0.181 A 
ATOM     90  C   UNL A   1      37.725  20.678  25.237  1.00  0.00     0.044 A 
ATOM     91  C   UNL A   1      37.712  23.057  25.645  1.00  0.00     0.195 A 
ATOM     92  F   UNL A   1      35.752  24.315  25.332  1.00  0.00    -0.202 F 
ATOM     93  C   UNL A   1      38.384  21.841  25.619  1.00  0.00     0.161 A 
ATOM     94  F   UNL A   1      38.367  24.170  26.007  1.00  0.00    -0.200 F 
ATOM     95  F   UNL A   1      39.680  21.776  25.957  1.00  0.00    -0.204 F 
ENDBRANCH  84  87
ENDBRANCH  82  84
ENDBRANCH  81  82
ENDBRANCH  75  77
ENDBRANCH  74  75
ENDBRANCH  73  74
ENDBRANCH   1  73
TORSDOF 17
ENDMDL
