MODEL 1
REMARK VINA RESULT:     -11.4      0.000      0.000
REMARK SMILES CC1(C)CCC[C@@H]1NC(=O)CC1(C(=O)OCCOCCOC(=O)c2ccc(-c3c4nc(c(-c5c(F)c(F)c(F)c(F)c5F)c5ccc([nH]5)c(-c5c(F)c(F)c(F)c(F)c5F)c5nc(c(-c6c(F)c(F)c(F)c(F)c6F)c6ccc3[nH]6)C=C5)C=C4)cc2)CCCCC1
REMARK SMILES IDX 17 1 16 2 15 3 13 4 14 5 12 6 87 7 91 8 88 9 90 10 89 11
REMARK SMILES IDX 11 12 9 13 8 14 10 16 7 17 1 18 2 19 3 20 4 21 5 22 6 23
REMARK SMILES IDX 18 24 19 25 20 26 21 27 22 28 23 29 24 30 25 31 86 32 26 33
REMARK SMILES IDX 85 34 27 35 28 36 29 37 79 38 30 39 84 40 78 41 80 42 31 43
REMARK SMILES IDX 83 44 77 45 76 46 32 48 64 49 44 50 63 51 45 52 48 53 62 54
REMARK SMILES IDX 81 55 46 56 47 57 61 59 82 60 49 61 33 62 34 63 42 64 35 65
REMARK SMILES IDX 36 66 40 67 43 68 37 69 38 70 41 71 39 72 65 73 66 74 74 75
REMARK SMILES IDX 67 76 68 77 72 78 75 79 69 80 70 81 73 82 71 83 50 84 51 85
REMARK SMILES IDX 59 86 52 87 53 88 57 89 60 90 54 91 55 92 58 93 56 94
REMARK H PARENT 8 15 80 47 48 58
REMARK Flexibility Score: inf
ROOT
ATOM      1  C   UNL A   1      31.901  29.466  27.344  1.00  0.00     0.202 C 
ENDROOT
BRANCH   1   2
ATOM      2  C   UNL A   1      32.863  28.277  27.382  1.00  0.00     0.261 C 
BRANCH   2   3
ATOM      3  O   UNL A   1      33.081  27.711  26.077  1.00  0.00    -0.463 OA
BRANCH   3   4
ATOM      4  C   UNL A   1      32.026  27.069  25.509  1.00  0.00     0.312 C 
ATOM      5  O   UNL A   1      31.144  26.499  26.141  1.00  0.00    -0.252 OA
BRANCH   4   6
ATOM      6  C   UNL A   1      32.026  27.149  23.970  1.00  0.00     0.077 C 
ATOM      7  C   UNL A   1      31.868  28.646  23.607  1.00  0.00     0.019 C 
ATOM      8  C   UNL A   1      30.901  26.330  23.309  1.00  0.00     0.019 C 
ATOM      9  C   UNL A   1      30.448  29.161  23.869  1.00  0.00     0.001 C 
ATOM     10  C   UNL A   1      29.485  26.887  23.430  1.00  0.00     0.001 C 
ATOM     11  C   UNL A   1      29.422  28.364  23.076  1.00  0.00     0.000 C 
BRANCH   6  12
ATOM     12  C   UNL A   1      33.418  26.588  23.550  1.00  0.00     0.118 C 
BRANCH  12  13
ATOM     13  C   UNL A   1      33.443  25.682  22.331  1.00  0.00     0.221 C 
ATOM     14  N   UNL A   1      33.482  24.323  22.444  1.00  0.00    -0.353 N 
ATOM     15  H   UNL A   1      33.615  23.858  21.587  1.00  0.00     0.163 HD
ATOM     16  O   UNL A   1      33.436  26.162  21.195  1.00  0.00    -0.275 OA
BRANCH  14  17
ATOM     17  C   UNL A   1      33.363  23.423  23.589  1.00  0.00     0.087 C 
ATOM     18  C   UNL A   1      35.088  24.315  25.267  1.00  0.00     0.013 C 
ATOM     19  C   UNL A   1      34.697  23.160  24.343  1.00  0.00    -0.015 C 
ATOM     20  C   UNL A   1      35.883  22.841  23.410  1.00  0.00     0.013 C 
ATOM     21  C   UNL A   1      34.341  21.906  25.164  1.00  0.00     0.008 C 
ATOM     22  C   UNL A   1      33.451  21.064  24.259  1.00  0.00     0.003 C 
ATOM     23  C   UNL A   1      32.940  22.004  23.171  1.00  0.00     0.025 C 
ENDBRANCH  14  17
ENDBRANCH  12  13
ENDBRANCH   6  12
ENDBRANCH   4   6
ENDBRANCH   3   4
ENDBRANCH   2   3
ENDBRANCH   1   2
BRANCH   1  24
ATOM     24  O   UNL A   1      32.369  30.615  26.637  1.00  0.00    -0.374 OA
BRANCH  24  25
ATOM     25  C   UNL A   1      31.430  31.662  26.394  1.00  0.00     0.202 C 
BRANCH  25  26
ATOM     26  C   UNL A   1      31.755  32.988  27.080  1.00  0.00     0.261 C 
BRANCH  26  27
ATOM     27  O   UNL A   1      33.146  33.307  26.910  1.00  0.00    -0.460 OA
BRANCH  27  28
ATOM     28  C   UNL A   1      33.710  33.857  28.005  1.00  0.00     0.338 C 
ATOM     29  O   UNL A   1      33.282  34.785  28.674  1.00  0.00    -0.246 OA
BRANCH  28  30
ATOM     30  C   UNL A   1      34.901  33.079  28.372  1.00  0.00     0.060 A 
ATOM     31  C   UNL A   1      34.733  31.758  28.803  1.00  0.00     0.016 A 
ATOM     32  C   UNL A   1      36.153  33.693  28.415  1.00  0.00     0.016 A 
ATOM     33  C   UNL A   1      35.821  31.059  29.327  1.00  0.00     0.010 A 
ATOM     34  C   UNL A   1      37.245  32.984  28.928  1.00  0.00     0.010 A 
ATOM     35  C   UNL A   1      37.076  31.678  29.422  1.00  0.00    -0.014 A 
BRANCH  35  36
ATOM     36  C   UNL A   1      38.183  31.000  30.144  1.00  0.00     0.031 A 
ATOM     37  C   UNL A   1      38.438  31.333  31.588  1.00  0.00     0.074 A 
ATOM     38  C   UNL A   1      38.945  30.084  29.520  1.00  0.00     0.049 A 
ATOM     39  N   UNL A   1      39.349  30.857  32.401  1.00  0.00    -0.248 NA
ATOM     40  C   UNL A   1      37.553  32.336  32.199  1.00  0.00     0.031 C 
ATOM     41  C   UNL A   1      38.791  29.668  28.128  1.00  0.00     0.029 A 
ATOM     42  N   UNL A   1      40.006  29.343  29.978  1.00  0.00    -0.354 N 
ATOM     43  C   UNL A   1      39.147  31.503  33.615  1.00  0.00     0.074 A 
ATOM     44  C   UNL A   1      38.047  32.426  33.426  1.00  0.00     0.031 C 
ATOM     45  C   UNL A   1      39.730  28.750  27.841  1.00  0.00     0.029 A 
ATOM     46  C   UNL A   1      40.562  28.532  29.023  1.00  0.00     0.049 A 
ATOM     47  H   UNL A   1      40.336  29.390  30.905  1.00  0.00     0.167 HD
ATOM     48  C   UNL A   1      39.811  31.334  34.783  1.00  0.00     0.037 A 
ATOM     49  C   UNL A   1      41.633  27.716  29.090  1.00  0.00     0.037 A 
ATOM     50  C   UNL A   1      40.899  30.412  34.976  1.00  0.00     0.049 A 
ATOM     51  C   UNL A   1      42.382  27.579  30.388  1.00  0.00     0.074 A 
ATOM     52  C   UNL A   1      41.602  30.135  36.136  1.00  0.00     0.029 A 
ATOM     53  N   UNL A   1      41.449  29.623  33.978  1.00  0.00    -0.354 N 
ATOM     54  N   UNL A   1      42.147  28.152  31.544  1.00  0.00    -0.248 NA
ATOM     55  C   UNL A   1      43.543  26.676  30.394  1.00  0.00     0.031 C 
ATOM     56  C   UNL A   1      42.607  29.212  35.829  1.00  0.00     0.029 A 
ATOM     57  C   UNL A   1      42.503  28.881  34.487  1.00  0.00     0.049 A 
ATOM     58  H   UNL A   1      41.138  29.593  33.044  1.00  0.00     0.167 HD
ATOM     59  C   UNL A   1      43.114  27.668  32.415  1.00  0.00     0.074 A 
ATOM     60  C   UNL A   1      43.931  26.741  31.660  1.00  0.00     0.031 C 
ATOM     61  C   UNL A   1      43.307  27.964  33.723  1.00  0.00     0.037 A 
BRANCH  48  62
ATOM     62  C   UNL A   1      39.387  32.175  35.950  1.00  0.00     0.064 A 
ATOM     63  C   UNL A   1      38.446  31.714  36.884  1.00  0.00     0.173 A 
ATOM     64  C   UNL A   1      39.965  33.435  36.165  1.00  0.00     0.173 A 
ATOM     65  F   UNL A   1      37.858  30.521  36.717  1.00  0.00    -0.203 F 
ATOM     66  C   UNL A   1      38.085  32.495  37.980  1.00  0.00     0.198 A 
ATOM     67  C   UNL A   1      39.618  34.203  37.273  1.00  0.00     0.198 A 
ATOM     68  F   UNL A   1      40.873  33.917  35.303  1.00  0.00    -0.203 F 
ATOM     69  F   UNL A   1      37.159  32.052  38.840  1.00  0.00    -0.200 F 
ATOM     70  C   UNL A   1      38.676  33.735  38.177  1.00  0.00     0.200 A 
ATOM     71  F   UNL A   1      40.197  35.395  37.468  1.00  0.00    -0.200 F 
ATOM     72  F   UNL A   1      38.333  34.481  39.236  1.00  0.00    -0.200 F 
ENDBRANCH  48  62
BRANCH  49  73
ATOM     73  C   UNL A   1      42.064  26.965  27.882  1.00  0.00     0.064 A 
ATOM     74  C   UNL A   1      42.957  27.526  26.960  1.00  0.00     0.173 A 
ATOM     75  C   UNL A   1      41.584  25.673  27.625  1.00  0.00     0.173 A 
ATOM     76  F   UNL A   1      43.422  28.769  27.151  1.00  0.00    -0.203 F 
ATOM     77  C   UNL A   1      43.345  26.828  25.819  1.00  0.00     0.198 A 
ATOM     78  C   UNL A   1      41.991  24.965  26.496  1.00  0.00     0.198 A 
ATOM     79  F   UNL A   1      40.725  25.093  28.477  1.00  0.00    -0.203 F 
ATOM     80  F   UNL A   1      44.169  27.402  24.932  1.00  0.00    -0.200 F 
ATOM     81  C   UNL A   1      42.867  25.546  25.591  1.00  0.00     0.200 A 
ATOM     82  F   UNL A   1      41.535  23.723  26.286  1.00  0.00    -0.200 F 
ATOM     83  F   UNL A   1      43.244  24.873  24.495  1.00  0.00    -0.200 F 
ENDBRANCH  49  73
BRANCH  61  84
ATOM     84  C   UNL A   1      44.436  27.270  34.428  1.00  0.00     0.064 A 
ATOM     85  C   UNL A   1      45.708  27.851  34.522  1.00  0.00     0.173 A 
ATOM     86  C   UNL A   1      44.230  26.031  35.053  1.00  0.00     0.173 A 
ATOM     87  F   UNL A   1      45.957  29.028  33.928  1.00  0.00    -0.203 F 
ATOM     88  C   UNL A   1      46.739  27.208  35.201  1.00  0.00     0.198 A 
ATOM     89  C   UNL A   1      45.257  25.402  35.753  1.00  0.00     0.198 A 
ATOM     90  F   UNL A   1      43.028  25.436  34.996  1.00  0.00    -0.203 F 
ATOM     91  F   UNL A   1      47.957  27.765  35.247  1.00  0.00    -0.200 F 
ATOM     92  C   UNL A   1      46.511  25.989  35.822  1.00  0.00     0.200 A 
ATOM     93  F   UNL A   1      45.032  24.229  36.360  1.00  0.00    -0.200 F 
ATOM     94  F   UNL A   1      47.503  25.375  36.481  1.00  0.00    -0.200 F 
ENDBRANCH  61  84
ENDBRANCH  35  36
ENDBRANCH  28  30
ENDBRANCH  27  28
ENDBRANCH  26  27
ENDBRANCH  25  26
ENDBRANCH  24  25
ENDBRANCH   1  24
TORSDOF 17
ENDMDL
MODEL 2
REMARK VINA RESULT:     -11.3      4.798     10.009
REMARK SMILES CC1(C)CCC[C@@H]1NC(=O)CC1(C(=O)OCCOCCOC(=O)c2ccc(-c3c4nc(c(-c5c(F)c(F)c(F)c(F)c5F)c5ccc([nH]5)c(-c5c(F)c(F)c(F)c(F)c5F)c5nc(c(-c6c(F)c(F)c(F)c(F)c6F)c6ccc3[nH]6)C=C5)C=C4)cc2)CCCCC1
REMARK SMILES IDX 17 1 16 2 15 3 13 4 14 5 12 6 87 7 91 8 88 9 90 10 89 11
REMARK SMILES IDX 11 12 9 13 8 14 10 16 7 17 1 18 2 19 3 20 4 21 5 22 6 23
REMARK SMILES IDX 18 24 19 25 20 26 21 27 22 28 23 29 24 30 25 31 86 32 26 33
REMARK SMILES IDX 85 34 27 35 28 36 29 37 79 38 30 39 84 40 78 41 80 42 31 43
REMARK SMILES IDX 83 44 77 45 76 46 32 48 64 49 44 50 63 51 45 52 48 53 62 54
REMARK SMILES IDX 81 55 46 56 47 57 61 59 82 60 49 61 33 62 34 63 42 64 35 65
REMARK SMILES IDX 36 66 40 67 43 68 37 69 38 70 41 71 39 72 65 73 66 74 74 75
REMARK SMILES IDX 67 76 68 77 72 78 75 79 69 80 70 81 73 82 71 83 50 84 51 85
REMARK SMILES IDX 59 86 52 87 53 88 57 89 60 90 54 91 55 92 58 93 56 94
REMARK H PARENT 8 15 80 47 48 58
REMARK Flexibility Score: inf
ROOT
ATOM      1  C   UNL A   1      37.309  21.829  24.435  1.00  0.00     0.202 C 
ENDROOT
BRANCH   1   2
ATOM      2  C   UNL A   1      37.041  23.322  24.228  1.00  0.00     0.261 C 
BRANCH   2   3
ATOM      3  O   UNL A   1      35.854  23.763  24.910  1.00  0.00    -0.463 OA
BRANCH   3   4
ATOM      4  C   UNL A   1      34.708  23.796  24.176  1.00  0.00     0.312 C 
ATOM      5  O   UNL A   1      34.657  24.115  22.994  1.00  0.00    -0.252 OA
BRANCH   4   6
ATOM      6  C   UNL A   1      33.465  23.359  24.975  1.00  0.00     0.077 C 
ATOM      7  C   UNL A   1      33.747  21.922  25.478  1.00  0.00     0.019 C 
ATOM      8  C   UNL A   1      32.164  23.378  24.151  1.00  0.00     0.019 C 
ATOM      9  C   UNL A   1      33.677  20.887  24.350  1.00  0.00     0.001 C 
ATOM     10  C   UNL A   1      31.997  22.275  23.109  1.00  0.00     0.001 C 
ATOM     11  C   UNL A   1      32.311  20.901  23.678  1.00  0.00     0.000 C 
BRANCH   6  12
ATOM     12  C   UNL A   1      33.374  24.384  26.147  1.00  0.00     0.118 C 
BRANCH  12  13
ATOM     13  C   UNL A   1      31.978  24.759  26.611  1.00  0.00     0.221 C 
ATOM     14  N   UNL A   1      31.420  25.967  26.309  1.00  0.00    -0.353 N 
ATOM     15  H   UNL A   1      30.565  26.134  26.767  1.00  0.00     0.163 HD
ATOM     16  O   UNL A   1      31.310  23.973  27.286  1.00  0.00    -0.275 OA
BRANCH  14  17
ATOM     17  C   UNL A   1      31.844  27.062  25.440  1.00  0.00     0.087 C 
ATOM     18  C   UNL A   1      33.917  28.024  26.609  1.00  0.00     0.013 C 
ATOM     19  C   UNL A   1      32.468  28.275  26.187  1.00  0.00    -0.015 C 
ATOM     20  C   UNL A   1      31.658  28.726  27.420  1.00  0.00     0.013 C 
ATOM     21  C   UNL A   1      32.401  29.369  25.104  1.00  0.00     0.008 C 
ATOM     22  C   UNL A   1      31.085  29.137  24.371  1.00  0.00     0.003 C 
ATOM     23  C   UNL A   1      30.659  27.710  24.702  1.00  0.00     0.025 C 
ENDBRANCH  14  17
ENDBRANCH  12  13
ENDBRANCH   6  12
ENDBRANCH   4   6
ENDBRANCH   3   4
ENDBRANCH   2   3
ENDBRANCH   1   2
BRANCH   1  24
ATOM     24  O   UNL A   1      37.775  21.462  25.734  1.00  0.00    -0.374 OA
BRANCH  24  25
ATOM     25  C   UNL A   1      39.182  21.280  25.897  1.00  0.00     0.202 C 
BRANCH  25  26
ATOM     26  C   UNL A   1      39.680  19.860  25.630  1.00  0.00     0.261 C 
BRANCH  26  27
ATOM     27  O   UNL A   1      40.699  19.506  26.580  1.00  0.00    -0.460 OA
BRANCH  27  28
ATOM     28  C   UNL A   1      41.950  19.592  26.084  1.00  0.00     0.338 C 
ATOM     29  O   UNL A   1      42.497  18.821  25.311  1.00  0.00    -0.246 OA
BRANCH  28  30
ATOM     30  C   UNL A   1      42.553  20.857  26.525  1.00  0.00     0.060 A 
ATOM     31  C   UNL A   1      42.499  21.189  27.884  1.00  0.00     0.016 A 
ATOM     32  C   UNL A   1      43.046  21.763  25.586  1.00  0.00     0.016 A 
ATOM     33  C   UNL A   1      42.900  22.458  28.301  1.00  0.00     0.010 A 
ATOM     34  C   UNL A   1      43.459  23.031  26.009  1.00  0.00     0.010 A 
ATOM     35  C   UNL A   1      43.352  23.398  27.363  1.00  0.00    -0.014 A 
BRANCH  35  36
ATOM     36  C   UNL A   1      43.602  24.800  27.782  1.00  0.00     0.031 A 
ATOM     37  C   UNL A   1      45.017  25.278  27.965  1.00  0.00     0.074 A 
ATOM     38  C   UNL A   1      42.576  25.647  27.984  1.00  0.00     0.049 A 
ATOM     39  N   UNL A   1      45.456  26.459  28.323  1.00  0.00    -0.248 NA
ATOM     40  C   UNL A   1      46.081  24.293  27.713  1.00  0.00     0.031 C 
ATOM     41  C   UNL A   1      41.164  25.309  27.829  1.00  0.00     0.029 A 
ATOM     42  N   UNL A   1      42.568  26.965  28.368  1.00  0.00    -0.354 N 
ATOM     43  C   UNL A   1      46.841  26.358  28.341  1.00  0.00     0.074 A 
ATOM     44  C   UNL A   1      47.172  24.994  27.987  1.00  0.00     0.031 C 
ATOM     45  C   UNL A   1      40.422  26.390  28.125  1.00  0.00     0.029 A 
ATOM     46  C   UNL A   1      41.308  27.488  28.510  1.00  0.00     0.049 A 
ATOM     47  H   UNL A   1      43.389  27.485  28.528  1.00  0.00     0.167 HD
ATOM     48  C   UNL A   1      47.754  27.319  28.617  1.00  0.00     0.037 A 
ATOM     49  C   UNL A   1      40.913  28.709  28.918  1.00  0.00     0.037 A 
ATOM     50  C   UNL A   1      47.429  28.679  28.962  1.00  0.00     0.049 A 
ATOM     51  C   UNL A   1      41.948  29.747  29.263  1.00  0.00     0.074 A 
ATOM     52  C   UNL A   1      48.286  29.736  29.212  1.00  0.00     0.029 A 
ATOM     53  N   UNL A   1      46.140  29.165  29.117  1.00  0.00    -0.354 N 
ATOM     54  N   UNL A   1      43.255  29.658  29.222  1.00  0.00    -0.248 NA
ATOM     55  C   UNL A   1      41.452  31.059  29.706  1.00  0.00     0.031 C 
ATOM     56  C   UNL A   1      47.517  30.851  29.561  1.00  0.00     0.029 A 
ATOM     57  C   UNL A   1      46.179  30.499  29.488  1.00  0.00     0.049 A 
ATOM     58  H   UNL A   1      45.317  28.640  28.983  1.00  0.00     0.167 HD
ATOM     59  C   UNL A   1      43.736  30.901  29.613  1.00  0.00     0.074 A 
ATOM     60  C   UNL A   1      42.581  31.734  29.873  1.00  0.00     0.031 C 
ATOM     61  C   UNL A   1      45.020  31.314  29.744  1.00  0.00     0.037 A 
BRANCH  48  62
ATOM     62  C   UNL A   1      49.203  26.934  28.570  1.00  0.00     0.064 A 
ATOM     63  C   UNL A   1      49.955  27.046  27.390  1.00  0.00     0.173 A 
ATOM     64  C   UNL A   1      49.859  26.496  29.730  1.00  0.00     0.173 A 
ATOM     65  F   UNL A   1      49.370  27.451  26.253  1.00  0.00    -0.203 F 
ATOM     66  C   UNL A   1      51.307  26.713  27.370  1.00  0.00     0.198 A 
ATOM     67  C   UNL A   1      51.217  26.186  29.710  1.00  0.00     0.198 A 
ATOM     68  F   UNL A   1      49.186  26.378  30.883  1.00  0.00    -0.203 F 
ATOM     69  F   UNL A   1      51.997  26.793  26.225  1.00  0.00    -0.200 F 
ATOM     70  C   UNL A   1      51.938  26.290  28.530  1.00  0.00     0.200 A 
ATOM     71  F   UNL A   1      51.827  25.787  30.835  1.00  0.00    -0.200 F 
ATOM     72  F   UNL A   1      53.241  25.977  28.510  1.00  0.00    -0.200 F 
ENDBRANCH  48  62
BRANCH  49  73
ATOM     73  C   UNL A   1      39.464  29.018  29.027  1.00  0.00     0.064 A 
ATOM     74  C   UNL A   1      38.795  28.929  30.255  1.00  0.00     0.173 A 
ATOM     75  C   UNL A   1      38.719  29.401  27.903  1.00  0.00     0.173 A 
ATOM     76  F   UNL A   1      39.460  28.542  31.353  1.00  0.00    -0.203 F 
ATOM     77  C   UNL A   1      37.432  29.200  30.352  1.00  0.00     0.198 A 
ATOM     78  C   UNL A   1      37.361  29.695  28.004  1.00  0.00     0.198 A 
ATOM     79  F   UNL A   1      39.314  29.497  26.704  1.00  0.00    -0.203 F 
ATOM     80  F   UNL A   1      36.806  29.069  31.529  1.00  0.00    -0.200 F 
ATOM     81  C   UNL A   1      36.717  29.588  29.228  1.00  0.00     0.200 A 
ATOM     82  F   UNL A   1      36.678  30.081  26.918  1.00  0.00    -0.200 F 
ATOM     83  F   UNL A   1      35.408  29.853  29.323  1.00  0.00    -0.200 F 
ENDBRANCH  49  73
BRANCH  61  84
ATOM     84  C   UNL A   1      45.246  32.734  30.174  1.00  0.00     0.064 A 
ATOM     85  C   UNL A   1      45.306  33.780  29.242  1.00  0.00     0.173 A 
ATOM     86  C   UNL A   1      45.360  33.057  31.535  1.00  0.00     0.173 A 
ATOM     87  F   UNL A   1      45.218  33.519  27.929  1.00  0.00    -0.203 F 
ATOM     88  C   UNL A   1      45.491  35.096  29.656  1.00  0.00     0.198 A 
ATOM     89  C   UNL A   1      45.519  34.378  31.946  1.00  0.00     0.198 A 
ATOM     90  F   UNL A   1      45.303  32.092  32.465  1.00  0.00    -0.203 F 
ATOM     91  F   UNL A   1      45.583  36.076  28.746  1.00  0.00    -0.200 F 
ATOM     92  C   UNL A   1      45.589  35.395  31.007  1.00  0.00     0.200 A 
ATOM     93  F   UNL A   1      45.603  34.665  33.252  1.00  0.00    -0.200 F 
ATOM     94  F   UNL A   1      45.760  36.663  31.403  1.00  0.00    -0.200 F 
ENDBRANCH  61  84
ENDBRANCH  35  36
ENDBRANCH  28  30
ENDBRANCH  27  28
ENDBRANCH  26  27
ENDBRANCH  25  26
ENDBRANCH  24  25
ENDBRANCH   1  24
TORSDOF 17
ENDMDL
MODEL 3
REMARK VINA RESULT:     -11.3      1.852      3.353
REMARK SMILES CC1(C)CCC[C@@H]1NC(=O)CC1(C(=O)OCCOCCOC(=O)c2ccc(-c3c4nc(c(-c5c(F)c(F)c(F)c(F)c5F)c5ccc([nH]5)c(-c5c(F)c(F)c(F)c(F)c5F)c5nc(c(-c6c(F)c(F)c(F)c(F)c6F)c6ccc3[nH]6)C=C5)C=C4)cc2)CCCCC1
REMARK SMILES IDX 17 1 16 2 15 3 13 4 14 5 12 6 87 7 91 8 88 9 90 10 89 11
REMARK SMILES IDX 11 12 9 13 8 14 10 16 7 17 1 18 2 19 3 20 4 21 5 22 6 23
REMARK SMILES IDX 18 24 19 25 20 26 21 27 22 28 23 29 24 30 25 31 86 32 26 33
REMARK SMILES IDX 85 34 27 35 28 36 29 37 79 38 30 39 84 40 78 41 80 42 31 43
REMARK SMILES IDX 83 44 77 45 76 46 32 48 64 49 44 50 63 51 45 52 48 53 62 54
REMARK SMILES IDX 81 55 46 56 47 57 61 59 82 60 49 61 33 62 34 63 42 64 35 65
REMARK SMILES IDX 36 66 40 67 43 68 37 69 38 70 41 71 39 72 65 73 66 74 74 75
REMARK SMILES IDX 67 76 68 77 72 78 75 79 69 80 70 81 73 82 71 83 50 84 51 85
REMARK SMILES IDX 59 86 52 87 53 88 57 89 60 90 54 91 55 92 58 93 56 94
REMARK H PARENT 8 15 80 47 48 58
REMARK Flexibility Score: inf
ROOT
ATOM      1  C   UNL A   1      33.387  26.970  24.790  1.00  0.00     0.202 C 
ENDROOT
BRANCH   1   2
ATOM      2  C   UNL A   1      34.121  25.795  25.439  1.00  0.00     0.261 C 
BRANCH   2   3
ATOM      3  O   UNL A   1      33.702  24.527  24.903  1.00  0.00    -0.463 OA
BRANCH   3   4
ATOM      4  C   UNL A   1      33.754  23.462  25.747  1.00  0.00     0.312 C 
ATOM      5  O   UNL A   1      33.517  23.524  26.948  1.00  0.00    -0.252 OA
BRANCH   4   6
ATOM      6  C   UNL A   1      34.115  22.144  25.037  1.00  0.00     0.077 C 
ATOM      7  C   UNL A   1      35.228  21.478  25.883  1.00  0.00     0.019 C 
ATOM      8  C   UNL A   1      34.604  22.336  23.589  1.00  0.00     0.019 C 
ATOM      9  C   UNL A   1      36.574  22.197  25.742  1.00  0.00     0.001 C 
ATOM     10  C   UNL A   1      36.002  22.923  23.410  1.00  0.00     0.001 C 
ATOM     11  C   UNL A   1      37.029  22.227  24.289  1.00  0.00     0.000 C 
BRANCH   6  12
ATOM     12  C   UNL A   1      32.793  21.317  25.052  1.00  0.00     0.118 C 
BRANCH  12  13
ATOM     13  C   UNL A   1      32.500  20.487  23.816  1.00  0.00     0.221 C 
ATOM     14  N   UNL A   1      32.750  19.146  23.773  1.00  0.00    -0.353 N 
ATOM     15  H   UNL A   1      32.629  18.749  22.880  1.00  0.00     0.163 HD
ATOM     16  O   UNL A   1      32.028  21.013  22.805  1.00  0.00    -0.275 OA
BRANCH  14  17
ATOM     17  C   UNL A   1      33.162  18.185  24.793  1.00  0.00     0.087 C 
ATOM     18  C   UNL A   1      35.723  18.152  24.625  1.00  0.00     0.013 C 
ATOM     19  C   UNL A   1      34.428  17.360  24.428  1.00  0.00    -0.015 C 
ATOM     20  C   UNL A   1      34.403  16.788  22.996  1.00  0.00     0.013 C 
ATOM     21  C   UNL A   1      34.342  16.203  25.442  1.00  0.00     0.008 C 
ATOM     22  C   UNL A   1      32.859  15.873  25.559  1.00  0.00     0.003 C 
ATOM     23  C   UNL A   1      32.109  17.084  25.012  1.00  0.00     0.025 C 
ENDBRANCH  14  17
ENDBRANCH  12  13
ENDBRANCH   6  12
ENDBRANCH   4   6
ENDBRANCH   3   4
ENDBRANCH   2   3
ENDBRANCH   1   2
BRANCH   1  24
ATOM     24  O   UNL A   1      33.149  28.092  25.640  1.00  0.00    -0.374 OA
BRANCH  24  25
ATOM     25  C   UNL A   1      31.983  28.874  25.380  1.00  0.00     0.202 C 
BRANCH  25  26
ATOM     26  C   UNL A   1      32.105  30.351  25.751  1.00  0.00     0.261 C 
BRANCH  26  27
ATOM     27  O   UNL A   1      32.513  30.487  27.122  1.00  0.00    -0.460 OA
BRANCH  27  28
ATOM     28  C   UNL A   1      33.292  31.564  27.348  1.00  0.00     0.338 C 
ATOM     29  O   UNL A   1      32.961  32.740  27.320  1.00  0.00    -0.246 OA
BRANCH  28  30
ATOM     30  C   UNL A   1      34.625  31.111  27.767  1.00  0.00     0.060 A 
ATOM     31  C   UNL A   1      34.814  29.754  28.054  1.00  0.00     0.016 A 
ATOM     32  C   UNL A   1      35.640  32.039  28.001  1.00  0.00     0.016 A 
ATOM     33  C   UNL A   1      36.013  29.328  28.625  1.00  0.00     0.010 A 
ATOM     34  C   UNL A   1      36.847  31.607  28.561  1.00  0.00     0.010 A 
ATOM     35  C   UNL A   1      37.025  30.256  28.911  1.00  0.00    -0.014 A 
BRANCH  35  36
ATOM     36  C   UNL A   1      38.221  29.833  29.682  1.00  0.00     0.031 A 
ATOM     37  C   UNL A   1      38.435  30.368  31.071  1.00  0.00     0.074 A 
ATOM     38  C   UNL A   1      39.103  28.965  29.153  1.00  0.00     0.049 A 
ATOM     39  N   UNL A   1      39.409  30.127  31.914  1.00  0.00    -0.248 NA
ATOM     40  C   UNL A   1      37.419  31.302  31.580  1.00  0.00     0.031 C 
ATOM     41  C   UNL A   1      39.001  28.368  27.824  1.00  0.00     0.029 A 
ATOM     42  N   UNL A   1      40.261  28.441  29.671  1.00  0.00    -0.354 N 
ATOM     43  C   UNL A   1      39.124  30.878  33.047  1.00  0.00     0.074 A 
ATOM     44  C   UNL A   1      37.903  31.607  32.776  1.00  0.00     0.031 C 
ATOM     45  C   UNL A   1      40.060  27.564  27.625  1.00  0.00     0.029 A 
ATOM     46  C   UNL A   1      40.922  27.608  28.805  1.00  0.00     0.049 A 
ATOM     47  H   UNL A   1      40.587  28.645  30.577  1.00  0.00     0.167 HD
ATOM     48  C   UNL A   1      39.812  30.944  34.211  1.00  0.00     0.037 A 
ATOM     49  C   UNL A   1      42.099  26.966  28.942  1.00  0.00     0.037 A 
ATOM     50  C   UNL A   1      41.022  30.215  34.486  1.00  0.00     0.049 A 
ATOM     51  C   UNL A   1      42.867  27.092  30.231  1.00  0.00     0.074 A 
ATOM     52  C   UNL A   1      41.765  30.181  35.654  1.00  0.00     0.029 A 
ATOM     53  N   UNL A   1      41.674  29.398  33.576  1.00  0.00    -0.354 N 
ATOM     54  N   UNL A   1      42.560  27.760  31.316  1.00  0.00    -0.248 NA
ATOM     55  C   UNL A   1      44.146  26.369  30.315  1.00  0.00     0.031 C 
ATOM     56  C   UNL A   1      42.889  29.379  35.435  1.00  0.00     0.029 A 
ATOM     57  C   UNL A   1      42.825  28.879  34.144  1.00  0.00     0.049 A 
ATOM     58  H   UNL A   1      41.364  29.213  32.659  1.00  0.00     0.167 HD
ATOM     59  C   UNL A   1      43.592  27.525  32.215  1.00  0.00     0.074 A 
ATOM     60  C   UNL A   1      44.528  26.639  31.556  1.00  0.00     0.031 C 
ATOM     61  C   UNL A   1      43.748  28.000  33.475  1.00  0.00     0.037 A 
BRANCH  48  62
ATOM     62  C   UNL A   1      39.280  31.851  35.281  1.00  0.00     0.064 A 
ATOM     63  C   UNL A   1      38.462  31.367  36.313  1.00  0.00     0.173 A 
ATOM     64  C   UNL A   1      39.632  33.208  35.302  1.00  0.00     0.173 A 
ATOM     65  F   UNL A   1      38.088  30.079  36.331  1.00  0.00    -0.203 F 
ATOM     66  C   UNL A   1      37.999  32.215  37.317  1.00  0.00     0.198 A 
ATOM     67  C   UNL A   1      39.187  34.048  36.319  1.00  0.00     0.198 A 
ATOM     68  F   UNL A   1      40.416  33.717  34.341  1.00  0.00    -0.203 F 
ATOM     69  F   UNL A   1      37.190  31.740  38.273  1.00  0.00    -0.200 F 
ATOM     70  C   UNL A   1      38.367  33.553  37.323  1.00  0.00     0.200 A 
ATOM     71  F   UNL A   1      39.552  35.338  36.330  1.00  0.00    -0.200 F 
ATOM     72  F   UNL A   1      37.928  34.366  38.293  1.00  0.00    -0.200 F 
ENDBRANCH  48  62
BRANCH  49  73
ATOM     73  C   UNL A   1      42.626  26.144  27.822  1.00  0.00     0.064 A 
ATOM     74  C   UNL A   1      43.528  26.678  26.894  1.00  0.00     0.173 A 
ATOM     75  C   UNL A   1      42.229  24.809  27.656  1.00  0.00     0.173 A 
ATOM     76  F   UNL A   1      43.915  27.958  26.997  1.00  0.00    -0.203 F 
ATOM     77  C   UNL A   1      44.006  25.912  25.833  1.00  0.00     0.198 A 
ATOM     78  C   UNL A   1      42.726  24.036  26.609  1.00  0.00     0.198 A 
ATOM     79  F   UNL A   1      41.365  24.253  28.518  1.00  0.00    -0.203 F 
ATOM     80  F   UNL A   1      44.837  26.458  24.935  1.00  0.00    -0.200 F 
ATOM     81  C   UNL A   1      43.609  24.590  25.694  1.00  0.00     0.200 A 
ATOM     82  F   UNL A   1      42.349  22.756  26.486  1.00  0.00    -0.200 F 
ATOM     83  F   UNL A   1      44.073  23.853  24.677  1.00  0.00    -0.200 F 
ENDBRANCH  49  73
BRANCH  61  84
ATOM     84  C   UNL A   1      44.968  27.561  34.231  1.00  0.00     0.064 A 
ATOM     85  C   UNL A   1      44.960  26.406  35.026  1.00  0.00     0.173 A 
ATOM     86  C   UNL A   1      46.169  28.277  34.122  1.00  0.00     0.173 A 
ATOM     87  F   UNL A   1      43.831  25.696  35.173  1.00  0.00    -0.203 F 
ATOM     88  C   UNL A   1      46.106  25.995  35.701  1.00  0.00     0.198 A 
ATOM     89  C   UNL A   1      47.320  27.850  34.779  1.00  0.00     0.198 A 
ATOM     90  F   UNL A   1      46.229  29.386  33.369  1.00  0.00    -0.203 F 
ATOM     91  F   UNL A   1      46.066  24.910  36.486  1.00  0.00    -0.200 F 
ATOM     92  C   UNL A   1      47.286  26.712  35.572  1.00  0.00     0.200 A 
ATOM     93  F   UNL A   1      48.462  28.538  34.644  1.00  0.00    -0.200 F 
ATOM     94  F   UNL A   1      48.390  26.312  36.216  1.00  0.00    -0.200 F 
ENDBRANCH  61  84
ENDBRANCH  35  36
ENDBRANCH  28  30
ENDBRANCH  27  28
ENDBRANCH  26  27
ENDBRANCH  25  26
ENDBRANCH  24  25
ENDBRANCH   1  24
TORSDOF 17
ENDMDL
