MODEL 1
REMARK VINA RESULT:     -13.3      0.000      0.000
REMARK SMILES O=C(OCCOCCOC(=O)c1ccc(-c2c3nc(c(-c4c(F)c(F)c(F)c(F)c4F)c4ccc([nH]4)c(-c4c(F)c(F)c(F)c(F)c4F)c4nc(c(-c5c(F)c(F)c(F)c(F)c5F)c5ccc2[nH]5)C=C4)C=C3)cc1)C1=Cc2cc(OC(F)(F)F)ccc2O[C@@H]1C(F)(F)F
REMARK SMILES IDX 6 1 5 2 4 3 3 4 2 5 1 6 75 7 76 8 89 9 77 10 88 11 78 12
REMARK SMILES IDX 87 13 79 14 86 15 85 16 90 17 91 18 92 19 93 20 80 21 81 22
REMARK SMILES IDX 82 23 83 24 84 25 7 26 8 27 9 28 10 29 11 30 12 31 13 32
REMARK SMILES IDX 74 33 14 34 73 35 15 36 16 37 17 38 67 39 18 40 72 41 66 42
REMARK SMILES IDX 68 43 19 44 71 45 65 46 64 47 20 49 52 50 32 51 51 52 33 53
REMARK SMILES IDX 36 54 50 55 69 56 34 57 35 58 49 60 70 61 37 62 21 63 22 64
REMARK SMILES IDX 30 65 23 66 24 67 28 68 31 69 25 70 26 71 29 72 27 73 53 74
REMARK SMILES IDX 54 75 62 76 55 77 56 78 60 79 63 80 57 81 58 82 61 83 59 84
REMARK SMILES IDX 38 85 39 86 47 87 40 88 41 89 45 90 48 91 42 92 43 93 46 94
REMARK SMILES IDX 44 95
REMARK H PARENT 68 48 36 59
REMARK Flexibility Score: inf
ROOT
ATOM      1  O   UNL A   1      41.024  20.218  25.730  1.00  0.00    -0.374 OA
ENDROOT
BRANCH   1   2
ATOM      2  C   UNL A   1      39.850  21.217  26.234  1.00  0.00     0.202 C 
BRANCH   2   3
ATOM      3  C   UNL A   1      37.914  21.690  25.376  1.00  0.00     0.261 C 
BRANCH   3   4
ATOM      4  O   UNL A   1      37.399  23.092  24.992  1.00  0.00    -0.460 OA
BRANCH   4   5
ATOM      5  C   UNL A   1      36.500  23.056  24.007  1.00  0.00     0.338 C 
ATOM      6  O   UNL A   1      36.650  23.184  22.818  1.00  0.00    -0.246 OA
BRANCH   5   7
ATOM      7  C   UNL A   1      35.341  23.172  24.862  1.00  0.00     0.087 C 
ATOM      8  C   UNL A   1      34.984  24.592  25.087  1.00  0.00     0.027 C 
ATOM      9  C   UNL A   1      34.237  21.894  23.912  1.00  0.00     0.316 C 
ATOM     10  C   UNL A   1      33.568  25.404  24.303  1.00  0.00     0.021 A 
ATOM     11  O   UNL A   1      32.751  22.753  23.025  1.00  0.00    -0.475 OA
ATOM     12  C   UNL A   1      33.453  26.763  24.387  1.00  0.00     0.058 A 
ATOM     13  C   UNL A   1      32.507  24.551  23.237  1.00  0.00     0.128 A 
ATOM     14  C   UNL A   1      32.488  27.356  23.548  1.00  0.00     0.130 A 
ATOM     15  C   UNL A   1      31.678  25.209  22.377  1.00  0.00     0.051 A 
ATOM     16  C   UNL A   1      31.684  26.624  22.574  1.00  0.00     0.050 A 
BRANCH   9  17
ATOM     17  C   UNL A   1      34.281  20.720  24.984  1.00  0.00     0.430 C 
ATOM     18  F   UNL A   1      34.134  21.101  26.265  1.00  0.00    -0.167 F 
ATOM     19  F   UNL A   1      33.206  19.912  24.736  1.00  0.00    -0.167 F 
ATOM     20  F   UNL A   1      35.352  19.903  24.893  1.00  0.00    -0.167 F 
ENDBRANCH   9  17
BRANCH  14  21
ATOM     21  O   UNL A   1      32.476  28.724  23.713  1.00  0.00    -0.406 OA
BRANCH  21  22
ATOM     22  C   UNL A   1      31.562  29.296  24.629  1.00  0.00     0.573 C 
ATOM     23  F   UNL A   1      32.200  30.152  25.452  1.00  0.00    -0.132 F 
ATOM     24  F   UNL A   1      30.558  29.938  23.997  1.00  0.00    -0.132 F 
ATOM     25  F   UNL A   1      31.028  28.305  25.376  1.00  0.00    -0.132 F 
ENDBRANCH  21  22
ENDBRANCH  14  21
ENDBRANCH   5   7
ENDBRANCH   4   5
ENDBRANCH   3   4
ENDBRANCH   2   3
ENDBRANCH   1   2
BRANCH   1  26
ATOM     26  C   UNL A   1      42.399  20.053  26.126  1.00  0.00     0.202 C 
BRANCH  26  27
ATOM     27  C   UNL A   1      43.308  21.247  25.849  1.00  0.00     0.261 C 
BRANCH  27  28
ATOM     28  O   UNL A   1      42.601  22.342  25.285  1.00  0.00    -0.460 OA
BRANCH  28  29
ATOM     29  C   UNL A   1      43.355  23.449  25.099  1.00  0.00     0.338 C 
ATOM     30  O   UNL A   1      44.207  23.649  24.252  1.00  0.00    -0.246 OA
BRANCH  29  31
ATOM     31  C   UNL A   1      42.966  24.430  26.125  1.00  0.00     0.060 A 
ATOM     32  C   UNL A   1      43.619  25.667  26.137  1.00  0.00     0.016 A 
ATOM     33  C   UNL A   1      41.935  24.153  27.031  1.00  0.00     0.016 A 
ATOM     34  C   UNL A   1      43.189  26.660  27.012  1.00  0.00     0.010 A 
ATOM     35  C   UNL A   1      41.525  25.134  27.923  1.00  0.00     0.010 A 
ATOM     36  C   UNL A   1      42.145  26.392  27.906  1.00  0.00    -0.014 A 
BRANCH  36  37
ATOM     37  C   UNL A   1      41.791  27.368  28.948  1.00  0.00     0.031 A 
ATOM     38  C   UNL A   1      42.554  27.313  30.233  1.00  0.00     0.074 A 
ATOM     39  C   UNL A   1      40.776  28.229  28.763  1.00  0.00     0.049 A 
ATOM     40  N   UNL A   1      42.363  27.984  31.336  1.00  0.00    -0.248 NA
ATOM     41  C   UNL A   1      43.681  26.366  30.285  1.00  0.00     0.031 C 
ATOM     42  C   UNL A   1      39.993  28.363  27.535  1.00  0.00     0.029 A 
ATOM     43  N   UNL A   1      40.213  29.136  29.624  1.00  0.00    -0.354 N 
ATOM     44  C   UNL A   1      43.338  27.537  32.212  1.00  0.00     0.074 A 
ATOM     45  C   UNL A   1      44.115  26.531  31.525  1.00  0.00     0.031 C 
ATOM     46  C   UNL A   1      39.029  29.281  27.732  1.00  0.00     0.029 A 
ATOM     47  C   UNL A   1      39.102  29.762  29.111  1.00  0.00     0.049 A 
ATOM     48  H   UNL A   1      40.570  29.320  30.522  1.00  0.00     0.167 HD
ATOM     49  C   UNL A   1      43.553  27.934  33.485  1.00  0.00     0.037 A 
ATOM     50  C   UNL A   1      38.228  30.592  29.713  1.00  0.00     0.037 A 
ATOM     51  C   UNL A   1      42.757  28.921  34.158  1.00  0.00     0.049 A 
ATOM     52  C   UNL A   1      38.454  30.954  31.163  1.00  0.00     0.074 A 
ATOM     53  C   UNL A   1      42.915  29.428  35.434  1.00  0.00     0.029 A 
ATOM     54  N   UNL A   1      41.634  29.530  33.616  1.00  0.00    -0.354 N 
ATOM     55  N   UNL A   1      39.424  30.590  31.968  1.00  0.00    -0.248 NA
ATOM     56  C   UNL A   1      37.460  31.837  31.792  1.00  0.00     0.031 C 
ATOM     57  C   UNL A   1      41.840  30.278  35.696  1.00  0.00     0.029 A 
ATOM     58  C   UNL A   1      41.058  30.367  34.555  1.00  0.00     0.049 A 
ATOM     59  H   UNL A   1      41.299  29.388  32.702  1.00  0.00     0.167 HD
ATOM     60  C   UNL A   1      39.174  31.220  33.182  1.00  0.00     0.074 A 
ATOM     61  C   UNL A   1      37.975  32.008  33.002  1.00  0.00     0.031 C 
ATOM     62  C   UNL A   1      39.868  31.150  34.344  1.00  0.00     0.037 A 
BRANCH  49  63
ATOM     63  C   UNL A   1      44.655  27.268  34.250  1.00  0.00     0.064 A 
ATOM     64  C   UNL A   1      45.949  27.805  34.307  1.00  0.00     0.173 A 
ATOM     65  C   UNL A   1      44.388  26.107  34.992  1.00  0.00     0.173 A 
ATOM     66  F   UNL A   1      46.260  28.900  33.597  1.00  0.00    -0.203 F 
ATOM     67  C   UNL A   1      46.939  27.197  35.075  1.00  0.00     0.198 A 
ATOM     68  C   UNL A   1      45.370  25.523  35.784  1.00  0.00     0.198 A 
ATOM     69  F   UNL A   1      43.167  25.553  34.964  1.00  0.00    -0.203 F 
ATOM     70  F   UNL A   1      48.178  27.707  35.091  1.00  0.00    -0.200 F 
ATOM     71  C   UNL A   1      46.645  26.066  35.823  1.00  0.00     0.200 A 
ATOM     72  F   UNL A   1      45.080  24.437  36.514  1.00  0.00    -0.200 F 
ATOM     73  F   UNL A   1      47.593  25.498  36.581  1.00  0.00    -0.200 F 
ENDBRANCH  49  63
BRANCH  50  74
ATOM     74  C   UNL A   1      37.030  31.098  28.986  1.00  0.00     0.064 A 
ATOM     75  C   UNL A   1      36.937  32.435  28.574  1.00  0.00     0.173 A 
ATOM     76  C   UNL A   1      35.917  30.273  28.756  1.00  0.00     0.173 A 
ATOM     77  F   UNL A   1      37.962  33.273  28.789  1.00  0.00    -0.203 F 
ATOM     78  C   UNL A   1      35.765  32.939  28.010  1.00  0.00     0.198 A 
ATOM     79  C   UNL A   1      34.761  30.767  28.154  1.00  0.00     0.198 A 
ATOM     80  F   UNL A   1      35.946  28.984  29.127  1.00  0.00    -0.203 F 
ATOM     81  F   UNL A   1      35.677  34.241  27.706  1.00  0.00    -0.200 F 
ATOM     82  C   UNL A   1      34.680  32.104  27.797  1.00  0.00     0.200 A 
ATOM     83  F   UNL A   1      33.721  29.951  27.937  1.00  0.00    -0.200 F 
ATOM     84  F   UNL A   1      33.550  32.591  27.267  1.00  0.00    -0.200 F 
ENDBRANCH  50  74
BRANCH  62  85
ATOM     85  C   UNL A   1      39.370  31.966  35.503  1.00  0.00     0.064 A 
ATOM     86  C   UNL A   1      39.690  33.325  35.639  1.00  0.00     0.173 A 
ATOM     87  C   UNL A   1      38.497  31.400  36.445  1.00  0.00     0.173 A 
ATOM     88  F   UNL A   1      40.529  33.912  34.773  1.00  0.00    -0.203 F 
ATOM     89  C   UNL A   1      39.171  34.080  36.687  1.00  0.00     0.198 A 
ATOM     90  C   UNL A   1      37.948  32.167  37.468  1.00  0.00     0.198 A 
ATOM     91  F   UNL A   1      38.149  30.107  36.353  1.00  0.00    -0.203 F 
ATOM     92  F   UNL A   1      39.525  35.365  36.824  1.00  0.00    -0.200 F 
ATOM     93  C   UNL A   1      38.291  33.504  37.592  1.00  0.00     0.200 A 
ATOM     94  F   UNL A   1      37.081  31.614  38.326  1.00  0.00    -0.200 F 
ATOM     95  F   UNL A   1      37.775  34.239  38.587  1.00  0.00    -0.200 F 
ENDBRANCH  62  85
ENDBRANCH  36  37
ENDBRANCH  29  31
ENDBRANCH  28  29
ENDBRANCH  27  28
ENDBRANCH  26  27
ENDBRANCH   1  26
TORSDOF 17
ENDMDL
MODEL 2
REMARK VINA RESULT:     -12.8      4.867      6.961
REMARK SMILES O=C(OCCOCCOC(=O)c1ccc(-c2c3nc(c(-c4c(F)c(F)c(F)c(F)c4F)c4ccc([nH]4)c(-c4c(F)c(F)c(F)c(F)c4F)c4nc(c(-c5c(F)c(F)c(F)c(F)c5F)c5ccc2[nH]5)C=C4)C=C3)cc1)C1=Cc2cc(OC(F)(F)F)ccc2O[C@@H]1C(F)(F)F
REMARK SMILES IDX 6 1 5 2 4 3 3 4 2 5 1 6 75 7 76 8 89 9 77 10 88 11 78 12
REMARK SMILES IDX 87 13 79 14 86 15 85 16 90 17 91 18 92 19 93 20 80 21 81 22
REMARK SMILES IDX 82 23 83 24 84 25 7 26 8 27 9 28 10 29 11 30 12 31 13 32
REMARK SMILES IDX 74 33 14 34 73 35 15 36 16 37 17 38 67 39 18 40 72 41 66 42
REMARK SMILES IDX 68 43 19 44 71 45 65 46 64 47 20 49 52 50 32 51 51 52 33 53
REMARK SMILES IDX 36 54 50 55 69 56 34 57 35 58 49 60 70 61 37 62 21 63 22 64
REMARK SMILES IDX 30 65 23 66 24 67 28 68 31 69 25 70 26 71 29 72 27 73 53 74
REMARK SMILES IDX 54 75 62 76 55 77 56 78 60 79 63 80 57 81 58 82 61 83 59 84
REMARK SMILES IDX 38 85 39 86 47 87 40 88 41 89 45 90 48 91 42 92 43 93 46 94
REMARK SMILES IDX 44 95
REMARK H PARENT 68 48 36 59
REMARK Flexibility Score: inf
ROOT
ATOM      1  O   UNL A   1      41.701  20.696  26.001  1.00  0.00    -0.374 OA
ENDROOT
BRANCH   1   2
ATOM      2  C   UNL A   1      40.443  21.700  26.197  1.00  0.00     0.202 C 
BRANCH   2   3
ATOM      3  C   UNL A   1      38.396  21.576  25.491  1.00  0.00     0.261 C 
BRANCH   3   4
ATOM      4  O   UNL A   1      37.252  22.558  25.817  1.00  0.00    -0.460 OA
BRANCH   4   5
ATOM      5  C   UNL A   1      36.628  23.000  24.724  1.00  0.00     0.338 C 
ATOM      6  O   UNL A   1      37.081  23.458  23.706  1.00  0.00    -0.246 OA
BRANCH   5   7
ATOM      7  C   UNL A   1      35.313  23.061  25.321  1.00  0.00     0.087 C 
ATOM      8  C   UNL A   1      34.945  24.457  25.656  1.00  0.00     0.027 C 
ATOM      9  C   UNL A   1      34.417  21.971  23.994  1.00  0.00     0.316 C 
ATOM     10  C   UNL A   1      33.749  25.430  24.706  1.00  0.00     0.021 A 
ATOM     11  O   UNL A   1      33.176  23.009  22.936  1.00  0.00    -0.475 OA
ATOM     12  C   UNL A   1      33.645  26.771  24.948  1.00  0.00     0.058 A 
ATOM     13  C   UNL A   1      32.927  24.774  23.333  1.00  0.00     0.128 A 
ATOM     14  C   UNL A   1      32.898  27.514  24.011  1.00  0.00     0.130 A 
ATOM     15  C   UNL A   1      32.319  25.577  22.414  1.00  0.00     0.051 A 
ATOM     16  C   UNL A   1      32.310  26.953  22.798  1.00  0.00     0.050 A 
BRANCH   9  17
ATOM     17  C   UNL A   1      34.203  20.669  24.880  1.00  0.00     0.430 C 
ATOM     18  F   UNL A   1      33.783  20.889  26.138  1.00  0.00    -0.167 F 
ATOM     19  F   UNL A   1      33.196  19.949  24.298  1.00  0.00    -0.167 F 
ATOM     20  F   UNL A   1      35.254  19.822  24.914  1.00  0.00    -0.167 F 
ENDBRANCH   9  17
BRANCH  14  21
ATOM     21  O   UNL A   1      32.878  28.848  24.354  1.00  0.00    -0.406 OA
BRANCH  21  22
ATOM     22  C   UNL A   1      31.740  29.370  25.013  1.00  0.00     0.573 C 
ATOM     23  F   UNL A   1      30.752  29.602  24.126  1.00  0.00    -0.132 F 
ATOM     24  F   UNL A   1      31.296  28.538  25.977  1.00  0.00    -0.132 F 
ATOM     25  F   UNL A   1      32.080  30.544  25.589  1.00  0.00    -0.132 F 
ENDBRANCH  21  22
ENDBRANCH  14  21
ENDBRANCH   5   7
ENDBRANCH   4   5
ENDBRANCH   3   4
ENDBRANCH   2   3
ENDBRANCH   1   2
BRANCH   1  26
ATOM     26  C   UNL A   1      41.836  19.268  26.124  1.00  0.00     0.202 C 
BRANCH  26  27
ATOM     27  C   UNL A   1      43.175  18.695  25.668  1.00  0.00     0.261 C 
BRANCH  27  28
ATOM     28  O   UNL A   1      43.553  19.167  24.383  1.00  0.00    -0.460 OA
BRANCH  28  29
ATOM     29  C   UNL A   1      44.846  19.550  24.293  1.00  0.00     0.338 C 
ATOM     30  O   UNL A   1      45.806  18.891  23.937  1.00  0.00    -0.246 OA
BRANCH  29  31
ATOM     31  C   UNL A   1      44.923  20.960  24.709  1.00  0.00     0.060 A 
ATOM     32  C   UNL A   1      44.598  21.944  23.769  1.00  0.00     0.016 A 
ATOM     33  C   UNL A   1      45.260  21.304  26.024  1.00  0.00     0.016 A 
ATOM     34  C   UNL A   1      44.540  23.277  24.166  1.00  0.00     0.010 A 
ATOM     35  C   UNL A   1      45.229  22.636  26.412  1.00  0.00     0.010 A 
ATOM     36  C   UNL A   1      44.858  23.622  25.485  1.00  0.00    -0.014 A 
BRANCH  36  37
ATOM     37  C   UNL A   1      44.965  25.036  25.877  1.00  0.00     0.031 A 
ATOM     38  C   UNL A   1      46.325  25.658  25.853  1.00  0.00     0.074 A 
ATOM     39  C   UNL A   1      43.884  25.712  26.300  1.00  0.00     0.049 A 
ATOM     40  N   UNL A   1      46.697  26.843  26.252  1.00  0.00    -0.248 NA
ATOM     41  C   UNL A   1      47.414  24.829  25.310  1.00  0.00     0.031 C 
ATOM     42  C   UNL A   1      42.519  25.189  26.338  1.00  0.00     0.029 A 
ATOM     43  N   UNL A   1      43.773  26.982  26.806  1.00  0.00    -0.354 N 
ATOM     44  C   UNL A   1      48.062  26.898  26.017  1.00  0.00     0.074 A 
ATOM     45  C   UNL A   1      48.459  25.629  25.451  1.00  0.00     0.031 C 
ATOM     46  C   UNL A   1      41.709  26.123  26.869  1.00  0.00     0.029 A 
ATOM     47  C   UNL A   1      42.508  27.287  27.248  1.00  0.00     0.049 A 
ATOM     48  H   UNL A   1      44.527  27.613  26.850  1.00  0.00     0.167 HD
ATOM     49  C   UNL A   1      48.904  27.924  26.265  1.00  0.00     0.037 A 
ATOM     50  C   UNL A   1      42.070  28.370  27.920  1.00  0.00     0.037 A 
ATOM     51  C   UNL A   1      48.494  29.171  26.847  1.00  0.00     0.049 A 
ATOM     52  C   UNL A   1      43.056  29.466  28.251  1.00  0.00     0.074 A 
ATOM     53  C   UNL A   1      49.259  30.293  27.101  1.00  0.00     0.029 A 
ATOM     54  N   UNL A   1      47.209  29.447  27.291  1.00  0.00    -0.354 N 
ATOM     55  N   UNL A   1      44.333  29.550  27.957  1.00  0.00    -0.248 NA
ATOM     56  C   UNL A   1      42.546  30.616  29.013  1.00  0.00     0.031 C 
ATOM     57  C   UNL A   1      48.459  31.216  27.777  1.00  0.00     0.029 A 
ATOM     58  C   UNL A   1      47.174  30.704  27.870  1.00  0.00     0.049 A 
ATOM     59  H   UNL A   1      46.438  28.840  27.208  1.00  0.00     0.167 HD
ATOM     60  C   UNL A   1      44.767  30.767  28.470  1.00  0.00     0.074 A 
ATOM     61  C   UNL A   1      43.613  31.398  29.073  1.00  0.00     0.031 C 
ATOM     62  C   UNL A   1      46.007  31.313  28.452  1.00  0.00     0.037 A 
BRANCH  49  63
ATOM     63  C   UNL A   1      50.357  27.728  25.959  1.00  0.00     0.064 A 
ATOM     64  C   UNL A   1      50.874  27.908  24.668  1.00  0.00     0.173 A 
ATOM     65  C   UNL A   1      51.253  27.418  26.993  1.00  0.00     0.173 A 
ATOM     66  F   UNL A   1      50.056  28.183  23.642  1.00  0.00    -0.203 F 
ATOM     67  C   UNL A   1      52.239  27.778  24.423  1.00  0.00     0.198 A 
ATOM     68  C   UNL A   1      52.619  27.321  26.750  1.00  0.00     0.198 A 
ATOM     69  F   UNL A   1      50.804  27.228  28.243  1.00  0.00    -0.203 F 
ATOM     70  F   UNL A   1      52.711  27.923  23.177  1.00  0.00    -0.200 F 
ATOM     71  C   UNL A   1      53.111  27.499  25.466  1.00  0.00     0.200 A 
ATOM     72  F   UNL A   1      53.459  27.063  27.761  1.00  0.00    -0.200 F 
ATOM     73  F   UNL A   1      54.427  27.399  25.233  1.00  0.00    -0.200 F 
ENDBRANCH  49  63
BRANCH  50  74
ATOM     74  C   UNL A   1      40.656  28.462  28.381  1.00  0.00     0.064 A 
ATOM     75  C   UNL A   1      39.656  29.010  27.564  1.00  0.00     0.173 A 
ATOM     76  C   UNL A   1      40.289  28.076  29.681  1.00  0.00     0.173 A 
ATOM     77  F   UNL A   1      39.956  29.416  26.322  1.00  0.00    -0.203 F 
ATOM     78  C   UNL A   1      38.362  29.214  28.043  1.00  0.00     0.198 A 
ATOM     79  C   UNL A   1      38.985  28.242  30.144  1.00  0.00     0.198 A 
ATOM     80  F   UNL A   1      41.200  27.545  30.509  1.00  0.00    -0.203 F 
ATOM     81  F   UNL A   1      37.452  29.818  27.267  1.00  0.00    -0.200 F 
ATOM     82  C   UNL A   1      38.026  28.827  29.331  1.00  0.00     0.200 A 
ATOM     83  F   UNL A   1      38.663  27.852  31.385  1.00  0.00    -0.200 F 
ATOM     84  F   UNL A   1      36.787  29.036  29.795  1.00  0.00    -0.200 F 
ENDBRANCH  50  74
BRANCH  62  85
ATOM     85  C   UNL A   1      46.180  32.670  29.073  1.00  0.00     0.064 A 
ATOM     86  C   UNL A   1      46.594  32.825  30.403  1.00  0.00     0.173 A 
ATOM     87  C   UNL A   1      46.006  33.830  28.300  1.00  0.00     0.173 A 
ATOM     88  F   UNL A   1      46.764  31.750  31.188  1.00  0.00    -0.203 F 
ATOM     89  C   UNL A   1      46.808  34.091  30.943  1.00  0.00     0.198 A 
ATOM     90  C   UNL A   1      46.259  35.091  28.830  1.00  0.00     0.198 A 
ATOM     91  F   UNL A   1      45.623  33.737  27.017  1.00  0.00    -0.203 F 
ATOM     92  F   UNL A   1      47.161  34.217  32.229  1.00  0.00    -0.200 F 
ATOM     93  C   UNL A   1      46.653  35.220  30.153  1.00  0.00     0.200 A 
ATOM     94  F   UNL A   1      46.132  36.178  28.059  1.00  0.00    -0.200 F 
ATOM     95  F   UNL A   1      46.881  36.436  30.668  1.00  0.00    -0.200 F 
ENDBRANCH  62  85
ENDBRANCH  36  37
ENDBRANCH  29  31
ENDBRANCH  28  29
ENDBRANCH  27  28
ENDBRANCH  26  27
ENDBRANCH   1  26
TORSDOF 17
ENDMDL
MODEL 3
REMARK VINA RESULT:     -12.7      4.666      8.957
REMARK SMILES O=C(OCCOCCOC(=O)c1ccc(-c2c3nc(c(-c4c(F)c(F)c(F)c(F)c4F)c4ccc([nH]4)c(-c4c(F)c(F)c(F)c(F)c4F)c4nc(c(-c5c(F)c(F)c(F)c(F)c5F)c5ccc2[nH]5)C=C4)C=C3)cc1)C1=Cc2cc(OC(F)(F)F)ccc2O[C@@H]1C(F)(F)F
REMARK SMILES IDX 6 1 5 2 4 3 3 4 2 5 1 6 75 7 76 8 89 9 77 10 88 11 78 12
REMARK SMILES IDX 87 13 79 14 86 15 85 16 90 17 91 18 92 19 93 20 80 21 81 22
REMARK SMILES IDX 82 23 83 24 84 25 7 26 8 27 9 28 10 29 11 30 12 31 13 32
REMARK SMILES IDX 74 33 14 34 73 35 15 36 16 37 17 38 67 39 18 40 72 41 66 42
REMARK SMILES IDX 68 43 19 44 71 45 65 46 64 47 20 49 52 50 32 51 51 52 33 53
REMARK SMILES IDX 36 54 50 55 69 56 34 57 35 58 49 60 70 61 37 62 21 63 22 64
REMARK SMILES IDX 30 65 23 66 24 67 28 68 31 69 25 70 26 71 29 72 27 73 53 74
REMARK SMILES IDX 54 75 62 76 55 77 56 78 60 79 63 80 57 81 58 82 61 83 59 84
REMARK SMILES IDX 38 85 39 86 47 87 40 88 41 89 45 90 48 91 42 92 43 93 46 94
REMARK SMILES IDX 44 95
REMARK H PARENT 68 48 36 59
REMARK Flexibility Score: inf
ROOT
ATOM      1  O   UNL A   1      39.190  21.975  26.111  1.00  0.00    -0.374 OA
ENDROOT
BRANCH   1   2
ATOM      2  C   UNL A   1      38.149  23.216  26.191  1.00  0.00     0.202 C 
BRANCH   2   3
ATOM      3  C   UNL A   1      36.049  23.352  25.666  1.00  0.00     0.261 C 
BRANCH   3   4
ATOM      4  O   UNL A   1      34.916  22.434  26.170  1.00  0.00    -0.460 OA
BRANCH   4   5
ATOM      5  C   UNL A   1      34.924  21.237  25.579  1.00  0.00     0.338 C 
ATOM      6  O   UNL A   1      35.765  20.722  24.887  1.00  0.00    -0.246 OA
BRANCH   5   7
ATOM      7  C   UNL A   1      33.515  20.975  25.761  1.00  0.00     0.087 C 
ATOM      8  C   UNL A   1      32.868  22.057  26.540  1.00  0.00     0.027 C 
ATOM      9  C   UNL A   1      33.125  20.566  23.908  1.00  0.00     0.316 C 
ATOM     10  C   UNL A   1      31.786  23.309  25.805  1.00  0.00     0.021 A 
ATOM     11  O   UNL A   1      32.015  21.922  23.094  1.00  0.00    -0.475 OA
ATOM     12  C   UNL A   1      31.424  24.394  26.553  1.00  0.00     0.058 A 
ATOM     13  C   UNL A   1      31.412  23.310  24.116  1.00  0.00     0.128 A 
ATOM     14  C   UNL A   1      30.806  25.451  25.853  1.00  0.00     0.130 A 
ATOM     15  C   UNL A   1      30.914  24.418  23.496  1.00  0.00     0.051 A 
ATOM     16  C   UNL A   1      30.605  25.473  24.407  1.00  0.00     0.050 A 
BRANCH   9  17
ATOM     17  C   UNL A   1      32.918  18.998  24.064  1.00  0.00     0.430 C 
ATOM     18  F   UNL A   1      32.186  18.614  25.124  1.00  0.00    -0.167 F 
ATOM     19  F   UNL A   1      32.202  18.578  22.977  1.00  0.00    -0.167 F 
ATOM     20  F   UNL A   1      34.052  18.265  24.030  1.00  0.00    -0.167 F 
ENDBRANCH   9  17
BRANCH  14  21
ATOM     21  O   UNL A   1      30.501  26.487  26.709  1.00  0.00    -0.406 OA
BRANCH  21  22
ATOM     22  C   UNL A   1      31.410  27.564  26.833  1.00  0.00     0.573 C 
ATOM     23  F   UNL A   1      31.208  28.214  27.996  1.00  0.00    -0.132 F 
ATOM     24  F   UNL A   1      32.691  27.147  26.763  1.00  0.00    -0.132 F 
ATOM     25  F   UNL A   1      31.189  28.428  25.817  1.00  0.00    -0.132 F 
ENDBRANCH  21  22
ENDBRANCH  14  21
ENDBRANCH   5   7
ENDBRANCH   4   5
ENDBRANCH   3   4
ENDBRANCH   2   3
ENDBRANCH   1   2
BRANCH   1  26
ATOM     26  C   UNL A   1      39.130  20.693  25.459  1.00  0.00     0.202 C 
BRANCH  26  27
ATOM     27  C   UNL A   1      39.928  19.579  26.128  1.00  0.00     0.261 C 
BRANCH  27  28
ATOM     28  O   UNL A   1      41.070  19.204  25.371  1.00  0.00    -0.460 OA
BRANCH  28  29
ATOM     29  C   UNL A   1      42.205  19.101  26.096  1.00  0.00     0.338 C 
ATOM     30  O   UNL A   1      42.796  18.091  26.433  1.00  0.00    -0.246 OA
BRANCH  29  31
ATOM     31  C   UNL A   1      42.646  20.464  26.432  1.00  0.00     0.060 A 
ATOM     32  C   UNL A   1      43.027  21.312  25.387  1.00  0.00     0.016 A 
ATOM     33  C   UNL A   1      42.632  20.918  27.757  1.00  0.00     0.016 A 
ATOM     34  C   UNL A   1      43.328  22.643  25.659  1.00  0.00     0.010 A 
ATOM     35  C   UNL A   1      42.959  22.239  28.032  1.00  0.00     0.010 A 
ATOM     36  C   UNL A   1      43.297  23.104  26.981  1.00  0.00    -0.014 A 
BRANCH  36  37
ATOM     37  C   UNL A   1      43.772  24.458  27.306  1.00  0.00     0.031 A 
ATOM     38  C   UNL A   1      42.756  25.457  27.758  1.00  0.00     0.074 A 
ATOM     39  C   UNL A   1      45.064  24.788  27.139  1.00  0.00     0.049 A 
ATOM     40  N   UNL A   1      42.901  26.732  27.997  1.00  0.00    -0.248 NA
ATOM     41  C   UNL A   1      41.387  24.952  27.961  1.00  0.00     0.031 C 
ATOM     42  C   UNL A   1      46.125  23.872  26.721  1.00  0.00     0.029 A 
ATOM     43  N   UNL A   1      45.696  25.997  27.273  1.00  0.00    -0.354 N 
ATOM     44  C   UNL A   1      41.644  27.181  28.370  1.00  0.00     0.074 A 
ATOM     45  C   UNL A   1      40.743  26.052  28.317  1.00  0.00     0.031 C 
ATOM     46  C   UNL A   1      47.274  24.561  26.606  1.00  0.00     0.029 A 
ATOM     47  C   UNL A   1      47.018  25.970  26.897  1.00  0.00     0.049 A 
ATOM     48  H   UNL A   1      45.246  26.806  27.607  1.00  0.00     0.167 HD
ATOM     49  C   UNL A   1      41.282  28.435  28.717  1.00  0.00     0.037 A 
ATOM     50  C   UNL A   1      47.895  26.984  26.766  1.00  0.00     0.037 A 
ATOM     51  C   UNL A   1      42.188  29.548  28.744  1.00  0.00     0.049 A 
ATOM     52  C   UNL A   1      47.435  28.387  27.087  1.00  0.00     0.074 A 
ATOM     53  C   UNL A   1      41.934  30.853  29.123  1.00  0.00     0.029 A 
ATOM     54  N   UNL A   1      43.517  29.491  28.350  1.00  0.00    -0.354 N 
ATOM     55  N   UNL A   1      46.265  28.799  27.516  1.00  0.00    -0.248 NA
ATOM     56  C   UNL A   1      48.413  29.470  26.901  1.00  0.00     0.031 C 
ATOM     57  C   UNL A   1      43.085  31.604  28.876  1.00  0.00     0.029 A 
ATOM     58  C   UNL A   1      44.081  30.753  28.424  1.00  0.00     0.049 A 
ATOM     59  H   UNL A   1      43.988  28.676  28.061  1.00  0.00     0.167 HD
ATOM     60  C   UNL A   1      46.376  30.175  27.677  1.00  0.00     0.074 A 
ATOM     61  C   UNL A   1      47.734  30.526  27.323  1.00  0.00     0.031 C 
ATOM     62  C   UNL A   1      45.441  31.072  28.075  1.00  0.00     0.037 A 
BRANCH  49  63
ATOM     63  C   UNL A   1      39.842  28.683  29.045  1.00  0.00     0.064 A 
ATOM     64  C   UNL A   1      39.336  28.514  30.341  1.00  0.00     0.173 A 
ATOM     65  C   UNL A   1      38.973  29.162  28.053  1.00  0.00     0.173 A 
ATOM     66  F   UNL A   1      40.121  28.037  31.318  1.00  0.00    -0.203 F 
ATOM     67  C   UNL A   1      38.006  28.810  30.631  1.00  0.00     0.198 A 
ATOM     68  C   UNL A   1      37.655  29.488  28.354  1.00  0.00     0.198 A 
ATOM     69  F   UNL A   1      39.409  29.334  26.796  1.00  0.00    -0.203 F 
ATOM     70  F   UNL A   1      37.532  28.611  31.868  1.00  0.00    -0.200 F 
ATOM     71  C   UNL A   1      37.172  29.309  29.641  1.00  0.00     0.200 A 
ATOM     72  F   UNL A   1      36.855  29.981  27.399  1.00  0.00    -0.200 F 
ATOM     73  F   UNL A   1      35.899  29.617  29.928  1.00  0.00    -0.200 F 
ENDBRANCH  49  63
BRANCH  50  74
ATOM     74  C   UNL A   1      49.275  26.739  26.257  1.00  0.00     0.064 A 
ATOM     75  C   UNL A   1      50.333  26.448  27.131  1.00  0.00     0.173 A 
ATOM     76  C   UNL A   1      49.580  26.870  24.893  1.00  0.00     0.173 A 
ATOM     77  F   UNL A   1      50.101  26.334  28.447  1.00  0.00    -0.203 F 
ATOM     78  C   UNL A   1      51.645  26.347  26.668  1.00  0.00     0.198 A 
ATOM     79  C   UNL A   1      50.886  26.727  24.427  1.00  0.00     0.198 A 
ATOM     80  F   UNL A   1      48.611  27.148  24.009  1.00  0.00    -0.203 F 
ATOM     81  F   UNL A   1      52.645  26.153  27.538  1.00  0.00    -0.200 F 
ATOM     82  C   UNL A   1      51.920  26.483  25.317  1.00  0.00     0.200 A 
ATOM     83  F   UNL A   1      51.143  26.846  23.117  1.00  0.00    -0.200 F 
ATOM     84  F   UNL A   1      53.182  26.399  24.875  1.00  0.00    -0.200 F 
ENDBRANCH  50  74
BRANCH  62  85
ATOM     85  C   UNL A   1      45.856  32.512  28.180  1.00  0.00     0.064 A 
ATOM     86  C   UNL A   1      45.673  33.411  27.119  1.00  0.00     0.173 A 
ATOM     87  C   UNL A   1      46.368  33.015  29.387  1.00  0.00     0.173 A 
ATOM     88  F   UNL A   1      45.197  32.979  25.942  1.00  0.00    -0.203 F 
ATOM     89  C   UNL A   1      46.007  34.755  27.256  1.00  0.00     0.198 A 
ATOM     90  C   UNL A   1      46.664  34.367  29.533  1.00  0.00     0.198 A 
ATOM     91  F   UNL A   1      46.551  32.200  30.436  1.00  0.00    -0.203 F 
ATOM     92  F   UNL A   1      45.866  35.587  26.216  1.00  0.00    -0.200 F 
ATOM     93  C   UNL A   1      46.490  35.234  28.465  1.00  0.00     0.200 A 
ATOM     94  F   UNL A   1      47.107  34.831  30.708  1.00  0.00    -0.200 F 
ATOM     95  F   UNL A   1      46.790  36.533  28.601  1.00  0.00    -0.200 F 
ENDBRANCH  62  85
ENDBRANCH  36  37
ENDBRANCH  29  31
ENDBRANCH  28  29
ENDBRANCH  27  28
ENDBRANCH  26  27
ENDBRANCH   1  26
TORSDOF 17
ENDMDL
