MODEL 1
REMARK VINA RESULT:     -11.1      0.000      0.000
REMARK SMILES Cc1ncccc1C(=O)N1CC[C@H](C(=O)OCCOCCOC(=O)c2ccc(-c3c4nc(c(-c5c(F)c(F)c(F)c(F)c5F)c5ccc([nH]5)c(-c5c(F)c(F)c(F)c(F)c5F)c5nc(c(-c6c(F)c(F)c(F)c(F)c6F)c6ccc3[nH]6)C=C5)C=C4)cc2)C1
REMARK SMILES IDX 19 1 18 2 17 3 16 4 14 5 15 6 13 7 10 8 11 9 88 10 12 11
REMARK SMILES IDX 8 12 9 13 7 14 1 15 2 16 3 17 4 18 6 19 5 20 20 21 21 22
REMARK SMILES IDX 22 23 23 24 24 25 25 26 26 27 87 28 27 29 86 30 28 31 29 32
REMARK SMILES IDX 30 33 80 34 31 35 85 36 79 37 81 38 32 39 84 40 78 41 77 42
REMARK SMILES IDX 33 44 65 45 45 46 64 47 46 48 49 49 63 50 82 51 47 52 48 53
REMARK SMILES IDX 62 55 83 56 50 57 34 58 35 59 43 60 36 61 37 62 41 63 44 64
REMARK SMILES IDX 38 65 39 66 42 67 40 68 66 69 67 70 75 71 68 72 69 73 73 74
REMARK SMILES IDX 76 75 70 76 71 77 74 78 72 79 51 80 52 81 60 82 53 83 54 84
REMARK SMILES IDX 58 85 61 86 55 87 56 88 59 89 57 90
REMARK H PARENT 81 43 49 54
REMARK Flexibility Score: inf
ROOT
ATOM      1  O   UNL A   1      37.565  21.226  25.210  1.00  0.00    -0.374 OA
ENDROOT
BRANCH   1   2
ATOM      2  C   UNL A   1      36.189  21.549  25.024  1.00  0.00     0.202 C 
BRANCH   2   3
ATOM      3  C   UNL A   1      35.870  22.618  23.974  1.00  0.00     0.261 C 
BRANCH   3   4
ATOM      4  O   UNL A   1      34.594  23.242  24.206  1.00  0.00    -0.463 OA
BRANCH   4   5
ATOM      5  C   UNL A   1      33.660  23.061  23.234  1.00  0.00     0.310 C 
ATOM      6  O   UNL A   1      33.838  23.275  22.041  1.00  0.00    -0.252 OA
BRANCH   5   7
ATOM      7  C   UNL A   1      32.321  22.612  23.777  1.00  0.00     0.120 C 
ATOM      8  N   UNL A   1      30.963  23.799  25.302  1.00  0.00    -0.338 N 
ATOM      9  C   UNL A   1      31.033  22.442  25.804  1.00  0.00     0.121 C 
ATOM     10  C   UNL A   1      31.426  23.836  23.926  1.00  0.00     0.135 C 
ATOM     11  C   UNL A   1      32.308  21.924  25.155  1.00  0.00     0.039 C 
BRANCH   8  12
ATOM     12  C   UNL A   1      30.512  24.963  25.884  1.00  0.00     0.255 C 
ATOM     13  O   UNL A   1      29.568  24.942  26.678  1.00  0.00    -0.269 OA
BRANCH  12  14
ATOM     14  C   UNL A   1      31.077  26.294  25.560  1.00  0.00     0.061 A 
ATOM     15  C   UNL A   1      29.386  26.908  23.729  1.00  0.00     0.067 C 
ATOM     16  C   UNL A   1      30.534  27.203  24.645  1.00  0.00     0.050 A 
ATOM     17  N   UNL A   1      30.987  28.488  24.544  1.00  0.00    -0.261 NA
ATOM     18  C   UNL A   1      31.926  28.905  25.419  1.00  0.00     0.111 A 
ATOM     19  C   UNL A   1      32.066  26.767  26.438  1.00  0.00     0.017 A 
ATOM     20  C   UNL A   1      32.489  28.091  26.379  1.00  0.00     0.021 A 
ENDBRANCH  12  14
ENDBRANCH   8  12
ENDBRANCH   5   7
ENDBRANCH   4   5
ENDBRANCH   3   4
ENDBRANCH   2   3
ENDBRANCH   1   2
BRANCH   1  21
ATOM     21  C   UNL A   1      37.969  19.889  24.920  1.00  0.00     0.202 C 
BRANCH  21  22
ATOM     22  C   UNL A   1      39.199  19.360  25.668  1.00  0.00     0.261 C 
BRANCH  22  23
ATOM     23  O   UNL A   1      40.208  20.370  25.860  1.00  0.00    -0.460 OA
BRANCH  23  24
ATOM     24  C   UNL A   1      40.663  20.481  27.129  1.00  0.00     0.338 C 
ATOM     25  O   UNL A   1      40.943  19.571  27.901  1.00  0.00    -0.246 OA
BRANCH  24  26
ATOM     26  C   UNL A   1      40.956  21.889  27.447  1.00  0.00     0.060 A 
ATOM     27  C   UNL A   1      40.395  22.871  26.622  1.00  0.00     0.016 A 
ATOM     28  C   UNL A   1      41.821  22.244  28.485  1.00  0.00     0.016 A 
ATOM     29  C   UNL A   1      40.718  24.213  26.811  1.00  0.00     0.010 A 
ATOM     30  C   UNL A   1      42.152  23.593  28.667  1.00  0.00     0.010 A 
ATOM     31  C   UNL A   1      41.621  24.581  27.818  1.00  0.00    -0.014 A 
BRANCH  31  32
ATOM     32  C   UNL A   1      42.073  25.988  27.926  1.00  0.00     0.031 A 
ATOM     33  C   UNL A   1      43.401  26.389  27.352  1.00  0.00     0.074 A 
ATOM     34  C   UNL A   1      41.294  26.906  28.527  1.00  0.00     0.049 A 
ATOM     35  N   UNL A   1      44.003  27.552  27.382  1.00  0.00    -0.248 NA
ATOM     36  C   UNL A   1      44.153  25.341  26.646  1.00  0.00     0.031 C 
ATOM     37  C   UNL A   1      39.972  26.646  29.093  1.00  0.00     0.029 A 
ATOM     38  N   UNL A   1      41.511  28.238  28.772  1.00  0.00    -0.354 N 
ATOM     39  C   UNL A   1      45.203  27.374  26.707  1.00  0.00     0.074 A 
ATOM     40  C   UNL A   1      45.256  25.987  26.297  1.00  0.00     0.031 C 
ATOM     41  C   UNL A   1      39.502  27.781  29.639  1.00  0.00     0.029 A 
ATOM     42  C   UNL A   1      40.503  28.835  29.488  1.00  0.00     0.049 A 
ATOM     43  H   UNL A   1      42.313  28.721  28.464  1.00  0.00     0.167 HD
ATOM     44  C   UNL A   1      46.169  28.289  26.449  1.00  0.00     0.037 A 
ATOM     45  C   UNL A   1      40.414  30.081  29.991  1.00  0.00     0.037 A 
ATOM     46  C   UNL A   1      46.114  29.668  26.859  1.00  0.00     0.049 A 
ATOM     47  C   UNL A   1      41.538  31.057  29.759  1.00  0.00     0.074 A 
ATOM     48  C   UNL A   1      47.023  30.680  26.607  1.00  0.00     0.029 A 
ATOM     49  N   UNL A   1      45.096  30.226  27.617  1.00  0.00    -0.354 N 
ATOM     50  N   UNL A   1      42.651  30.892  29.088  1.00  0.00    -0.248 NA
ATOM     51  C   UNL A   1      41.391  32.392  30.357  1.00  0.00     0.031 C 
ATOM     52  C   UNL A   1      46.584  31.836  27.261  1.00  0.00     0.029 A 
ATOM     53  C   UNL A   1      45.374  31.559  27.876  1.00  0.00     0.049 A 
ATOM     54  H   UNL A   1      44.293  29.746  27.927  1.00  0.00     0.167 HD
ATOM     55  C   UNL A   1      43.330  32.101  29.168  1.00  0.00     0.074 A 
ATOM     56  C   UNL A   1      42.493  32.999  29.939  1.00  0.00     0.031 C 
ATOM     57  C   UNL A   1      44.537  32.438  28.652  1.00  0.00     0.037 A 
BRANCH  44  58
ATOM     58  C   UNL A   1      47.387  27.821  25.709  1.00  0.00     0.064 A 
ATOM     59  C   UNL A   1      47.420  27.755  24.308  1.00  0.00     0.173 A 
ATOM     60  C   UNL A   1      48.554  27.480  26.410  1.00  0.00     0.173 A 
ATOM     61  F   UNL A   1      46.327  28.061  23.592  1.00  0.00    -0.203 F 
ATOM     62  C   UNL A   1      48.569  27.341  23.637  1.00  0.00     0.198 A 
ATOM     63  C   UNL A   1      49.708  27.092  25.735  1.00  0.00     0.198 A 
ATOM     64  F   UNL A   1      48.577  27.532  27.750  1.00  0.00    -0.203 F 
ATOM     65  F   UNL A   1      48.564  27.247  22.301  1.00  0.00    -0.200 F 
ATOM     66  C   UNL A   1      49.713  27.017  24.351  1.00  0.00     0.200 A 
ATOM     67  F   UNL A   1      50.817  26.791  26.425  1.00  0.00    -0.200 F 
ATOM     68  F   UNL A   1      50.820  26.628  23.703  1.00  0.00    -0.200 F 
ENDBRANCH  44  58
BRANCH  45  69
ATOM     69  C   UNL A   1      39.225  30.469  30.793  1.00  0.00     0.064 A 
ATOM     70  C   UNL A   1      39.166  30.218  32.169  1.00  0.00     0.173 A 
ATOM     71  C   UNL A   1      38.118  31.091  30.194  1.00  0.00     0.173 A 
ATOM     72  F   UNL A   1      40.187  29.600  32.782  1.00  0.00    -0.203 F 
ATOM     73  C   UNL A   1      38.040  30.562  32.915  1.00  0.00     0.198 A 
ATOM     74  C   UNL A   1      37.006  31.458  30.945  1.00  0.00     0.198 A 
ATOM     75  F   UNL A   1      38.123  31.347  28.877  1.00  0.00    -0.203 F 
ATOM     76  F   UNL A   1      37.991  30.271  34.222  1.00  0.00    -0.200 F 
ATOM     77  C   UNL A   1      36.964  31.188  32.304  1.00  0.00     0.200 A 
ATOM     78  F   UNL A   1      35.971  32.070  30.351  1.00  0.00    -0.200 F 
ATOM     79  F   UNL A   1      35.883  31.521  33.023  1.00  0.00    -0.200 F 
ENDBRANCH  45  69
BRANCH  57  80
ATOM     80  C   UNL A   1      45.024  33.838  28.893  1.00  0.00     0.064 A 
ATOM     81  C   UNL A   1      45.843  34.151  29.988  1.00  0.00     0.173 A 
ATOM     82  C   UNL A   1      44.704  34.869  27.996  1.00  0.00     0.173 A 
ATOM     83  F   UNL A   1      46.163  33.204  30.883  1.00  0.00    -0.203 F 
ATOM     84  C   UNL A   1      46.306  35.448  30.187  1.00  0.00     0.198 A 
ATOM     85  C   UNL A   1      45.193  36.159  28.183  1.00  0.00     0.198 A 
ATOM     86  F   UNL A   1      43.929  34.621  26.929  1.00  0.00    -0.203 F 
ATOM     87  F   UNL A   1      47.052  35.734  31.264  1.00  0.00    -0.200 F 
ATOM     88  C   UNL A   1      45.988  36.449  29.282  1.00  0.00     0.200 A 
ATOM     89  F   UNL A   1      44.895  37.122  27.300  1.00  0.00    -0.200 F 
ATOM     90  F   UNL A   1      46.442  37.696  29.470  1.00  0.00    -0.200 F 
ENDBRANCH  57  80
ENDBRANCH  31  32
ENDBRANCH  24  26
ENDBRANCH  23  24
ENDBRANCH  22  23
ENDBRANCH  21  22
ENDBRANCH   1  21
TORSDOF 16
ENDMDL
MODEL 2
REMARK VINA RESULT:     -11.0      1.154      2.188
REMARK SMILES Cc1ncccc1C(=O)N1CC[C@H](C(=O)OCCOCCOC(=O)c2ccc(-c3c4nc(c(-c5c(F)c(F)c(F)c(F)c5F)c5ccc([nH]5)c(-c5c(F)c(F)c(F)c(F)c5F)c5nc(c(-c6c(F)c(F)c(F)c(F)c6F)c6ccc3[nH]6)C=C5)C=C4)cc2)C1
REMARK SMILES IDX 19 1 18 2 17 3 16 4 14 5 15 6 13 7 10 8 11 9 88 10 12 11
REMARK SMILES IDX 8 12 9 13 7 14 1 15 2 16 3 17 4 18 6 19 5 20 20 21 21 22
REMARK SMILES IDX 22 23 23 24 24 25 25 26 26 27 87 28 27 29 86 30 28 31 29 32
REMARK SMILES IDX 30 33 80 34 31 35 85 36 79 37 81 38 32 39 84 40 78 41 77 42
REMARK SMILES IDX 33 44 65 45 45 46 64 47 46 48 49 49 63 50 82 51 47 52 48 53
REMARK SMILES IDX 62 55 83 56 50 57 34 58 35 59 43 60 36 61 37 62 41 63 44 64
REMARK SMILES IDX 38 65 39 66 42 67 40 68 66 69 67 70 75 71 68 72 69 73 73 74
REMARK SMILES IDX 76 75 70 76 71 77 74 78 72 79 51 80 52 81 60 82 53 83 54 84
REMARK SMILES IDX 58 85 61 86 55 87 56 88 59 89 57 90
REMARK H PARENT 81 43 49 54
REMARK Flexibility Score: inf
ROOT
ATOM      1  O   UNL A   1      37.414  21.609  25.589  1.00  0.00    -0.374 OA
ENDROOT
BRANCH   1   2
ATOM      2  C   UNL A   1      35.999  21.709  25.734  1.00  0.00     0.202 C 
BRANCH   2   3
ATOM      3  C   UNL A   1      35.156  21.360  24.504  1.00  0.00     0.261 C 
BRANCH   3   4
ATOM      4  O   UNL A   1      33.829  21.911  24.583  1.00  0.00    -0.463 OA
BRANCH   4   5
ATOM      5  C   UNL A   1      32.882  21.285  23.833  1.00  0.00     0.310 C 
ATOM      6  O   UNL A   1      32.764  20.071  23.722  1.00  0.00    -0.252 OA
BRANCH   5   7
ATOM      7  C   UNL A   1      31.994  22.250  23.078  1.00  0.00     0.120 C 
ATOM      8  N   UNL A   1      32.343  24.573  22.838  1.00  0.00    -0.338 N 
ATOM      9  C   UNL A   1      30.956  24.417  23.225  1.00  0.00     0.121 C 
ATOM     10  C   UNL A   1      32.877  23.293  22.407  1.00  0.00     0.135 C 
ATOM     11  C   UNL A   1      30.960  23.050  23.894  1.00  0.00     0.039 C 
BRANCH   8  12
ATOM     12  C   UNL A   1      33.152  25.686  22.780  1.00  0.00     0.255 C 
ATOM     13  O   UNL A   1      33.905  25.865  21.818  1.00  0.00    -0.269 OA
BRANCH  12  14
ATOM     14  C   UNL A   1      33.217  26.690  23.869  1.00  0.00     0.061 A 
ATOM     15  C   UNL A   1      34.197  25.136  25.661  1.00  0.00     0.067 C 
ATOM     16  C   UNL A   1      33.752  26.468  25.143  1.00  0.00     0.050 A 
ATOM     17  N   UNL A   1      33.965  27.488  26.026  1.00  0.00    -0.261 NA
ATOM     18  C   UNL A   1      33.730  28.751  25.613  1.00  0.00     0.111 A 
ATOM     19  C   UNL A   1      32.970  28.019  23.488  1.00  0.00     0.017 A 
ATOM     20  C   UNL A   1      33.241  29.066  24.363  1.00  0.00     0.021 A 
ENDBRANCH  12  14
ENDBRANCH   8  12
ENDBRANCH   5   7
ENDBRANCH   4   5
ENDBRANCH   3   4
ENDBRANCH   2   3
ENDBRANCH   1   2
BRANCH   1  21
ATOM     21  C   UNL A   1      37.925  20.459  24.917  1.00  0.00     0.202 C 
BRANCH  21  22
ATOM     22  C   UNL A   1      39.031  19.674  25.632  1.00  0.00     0.261 C 
BRANCH  22  23
ATOM     23  O   UNL A   1      40.222  20.457  25.839  1.00  0.00    -0.460 OA
BRANCH  23  24
ATOM     24  C   UNL A   1      40.618  20.554  27.129  1.00  0.00     0.338 C 
ATOM     25  O   UNL A   1      40.833  19.636  27.912  1.00  0.00    -0.246 OA
BRANCH  24  26
ATOM     26  C   UNL A   1      40.937  21.953  27.463  1.00  0.00     0.060 A 
ATOM     27  C   UNL A   1      40.287  22.958  26.736  1.00  0.00     0.016 A 
ATOM     28  C   UNL A   1      41.905  22.280  28.415  1.00  0.00     0.016 A 
ATOM     29  C   UNL A   1      40.623  24.295  26.937  1.00  0.00     0.010 A 
ATOM     30  C   UNL A   1      42.248  23.623  28.609  1.00  0.00     0.010 A 
ATOM     31  C   UNL A   1      41.626  24.636  27.855  1.00  0.00    -0.014 A 
BRANCH  31  32
ATOM     32  C   UNL A   1      42.080  26.043  27.964  1.00  0.00     0.031 A 
ATOM     33  C   UNL A   1      43.408  26.442  27.387  1.00  0.00     0.074 A 
ATOM     34  C   UNL A   1      41.305  26.961  28.568  1.00  0.00     0.049 A 
ATOM     35  N   UNL A   1      44.012  27.603  27.418  1.00  0.00    -0.248 NA
ATOM     36  C   UNL A   1      44.156  25.392  26.678  1.00  0.00     0.031 C 
ATOM     37  C   UNL A   1      39.983  26.702  29.136  1.00  0.00     0.029 A 
ATOM     38  N   UNL A   1      41.524  28.292  28.813  1.00  0.00    -0.354 N 
ATOM     39  C   UNL A   1      45.210  27.424  26.740  1.00  0.00     0.074 A 
ATOM     40  C   UNL A   1      45.260  26.037  26.328  1.00  0.00     0.031 C 
ATOM     41  C   UNL A   1      39.516  27.837  29.684  1.00  0.00     0.029 A 
ATOM     42  C   UNL A   1      40.519  28.890  29.532  1.00  0.00     0.049 A 
ATOM     43  H   UNL A   1      42.326  28.774  28.504  1.00  0.00     0.167 HD
ATOM     44  C   UNL A   1      46.177  28.337  26.481  1.00  0.00     0.037 A 
ATOM     45  C   UNL A   1      40.433  30.136  30.037  1.00  0.00     0.037 A 
ATOM     46  C   UNL A   1      46.125  29.716  26.892  1.00  0.00     0.049 A 
ATOM     47  C   UNL A   1      41.558  31.109  29.804  1.00  0.00     0.074 A 
ATOM     48  C   UNL A   1      47.036  30.727  26.640  1.00  0.00     0.029 A 
ATOM     49  N   UNL A   1      45.110  30.275  27.653  1.00  0.00    -0.354 N 
ATOM     50  N   UNL A   1      42.670  30.944  29.130  1.00  0.00    -0.248 NA
ATOM     51  C   UNL A   1      41.415  32.444  30.404  1.00  0.00     0.031 C 
ATOM     52  C   UNL A   1      46.601  31.883  27.296  1.00  0.00     0.029 A 
ATOM     53  C   UNL A   1      45.391  31.607  27.913  1.00  0.00     0.049 A 
ATOM     54  H   UNL A   1      44.307  29.797  27.964  1.00  0.00     0.167 HD
ATOM     55  C   UNL A   1      43.350  32.152  29.210  1.00  0.00     0.074 A 
ATOM     56  C   UNL A   1      42.517  33.050  29.984  1.00  0.00     0.031 C 
ATOM     57  C   UNL A   1      44.557  32.487  28.692  1.00  0.00     0.037 A 
BRANCH  44  58
ATOM     58  C   UNL A   1      47.393  27.868  25.737  1.00  0.00     0.064 A 
ATOM     59  C   UNL A   1      47.415  27.783  24.338  1.00  0.00     0.173 A 
ATOM     60  C   UNL A   1      48.568  27.545  26.434  1.00  0.00     0.173 A 
ATOM     61  F   UNL A   1      46.315  28.071  23.626  1.00  0.00    -0.203 F 
ATOM     62  C   UNL A   1      48.562  27.368  23.663  1.00  0.00     0.198 A 
ATOM     63  C   UNL A   1      49.720  27.156  25.755  1.00  0.00     0.198 A 
ATOM     64  F   UNL A   1      48.601  27.616  27.772  1.00  0.00    -0.203 F 
ATOM     65  F   UNL A   1      48.548  27.256  22.328  1.00  0.00    -0.200 F 
ATOM     66  C   UNL A   1      49.714  27.062  24.372  1.00  0.00     0.200 A 
ATOM     67  F   UNL A   1      50.836  26.873  26.440  1.00  0.00    -0.200 F 
ATOM     68  F   UNL A   1      50.819  26.672  23.721  1.00  0.00    -0.200 F 
ENDBRANCH  44  58
BRANCH  45  69
ATOM     69  C   UNL A   1      39.246  30.525  30.842  1.00  0.00     0.064 A 
ATOM     70  C   UNL A   1      38.148  31.161  30.251  1.00  0.00     0.173 A 
ATOM     71  C   UNL A   1      39.193  30.276  32.222  1.00  0.00     0.173 A 
ATOM     72  F   UNL A   1      38.164  31.446  28.940  1.00  0.00    -0.203 F 
ATOM     73  C   UNL A   1      37.045  31.546  31.012  1.00  0.00     0.198 A 
ATOM     74  C   UNL A   1      38.080  30.636  32.976  1.00  0.00     0.198 A 
ATOM     75  F   UNL A   1      40.224  29.675  32.836  1.00  0.00    -0.203 F 
ATOM     76  F   UNL A   1      36.026  32.193  30.430  1.00  0.00    -0.200 F 
ATOM     77  C   UNL A   1      37.009  31.277  32.371  1.00  0.00     0.200 A 
ATOM     78  F   UNL A   1      38.047  30.368  34.288  1.00  0.00    -0.200 F 
ATOM     79  F   UNL A   1      35.947  31.644  33.101  1.00  0.00    -0.200 F 
ENDBRANCH  45  69
BRANCH  57  80
ATOM     80  C   UNL A   1      45.047  33.886  28.933  1.00  0.00     0.064 A 
ATOM     81  C   UNL A   1      44.709  34.939  28.069  1.00  0.00     0.173 A 
ATOM     82  C   UNL A   1      45.826  34.186  30.060  1.00  0.00     0.173 A 
ATOM     83  F   UNL A   1      43.980  34.700  26.968  1.00  0.00    -0.203 F 
ATOM     84  C   UNL A   1      45.151  36.236  28.315  1.00  0.00     0.198 A 
ATOM     85  C   UNL A   1      46.241  35.489  30.319  1.00  0.00     0.198 A 
ATOM     86  F   UNL A   1      46.171  33.216  30.921  1.00  0.00    -0.203 F 
ATOM     87  F   UNL A   1      44.852  37.218  27.454  1.00  0.00    -0.200 F 
ATOM     88  C   UNL A   1      45.910  36.512  29.443  1.00  0.00     0.200 A 
ATOM     89  F   UNL A   1      46.963  35.756  31.416  1.00  0.00    -0.200 F 
ATOM     90  F   UNL A   1      46.326  37.762  29.683  1.00  0.00    -0.200 F 
ENDBRANCH  57  80
ENDBRANCH  31  32
ENDBRANCH  24  26
ENDBRANCH  23  24
ENDBRANCH  22  23
ENDBRANCH  21  22
ENDBRANCH   1  21
TORSDOF 16
ENDMDL
MODEL 3
REMARK VINA RESULT:     -10.9      4.929      8.788
REMARK SMILES Cc1ncccc1C(=O)N1CC[C@H](C(=O)OCCOCCOC(=O)c2ccc(-c3c4nc(c(-c5c(F)c(F)c(F)c(F)c5F)c5ccc([nH]5)c(-c5c(F)c(F)c(F)c(F)c5F)c5nc(c(-c6c(F)c(F)c(F)c(F)c6F)c6ccc3[nH]6)C=C5)C=C4)cc2)C1
REMARK SMILES IDX 19 1 18 2 17 3 16 4 14 5 15 6 13 7 10 8 11 9 88 10 12 11
REMARK SMILES IDX 8 12 9 13 7 14 1 15 2 16 3 17 4 18 6 19 5 20 20 21 21 22
REMARK SMILES IDX 22 23 23 24 24 25 25 26 26 27 87 28 27 29 86 30 28 31 29 32
REMARK SMILES IDX 30 33 80 34 31 35 85 36 79 37 81 38 32 39 84 40 78 41 77 42
REMARK SMILES IDX 33 44 65 45 45 46 64 47 46 48 49 49 63 50 82 51 47 52 48 53
REMARK SMILES IDX 62 55 83 56 50 57 34 58 35 59 43 60 36 61 37 62 41 63 44 64
REMARK SMILES IDX 38 65 39 66 42 67 40 68 66 69 67 70 75 71 68 72 69 73 73 74
REMARK SMILES IDX 76 75 70 76 71 77 74 78 72 79 51 80 52 81 60 82 53 83 54 84
REMARK SMILES IDX 58 85 61 86 55 87 56 88 59 89 57 90
REMARK H PARENT 81 43 49 54
REMARK Flexibility Score: inf
ROOT
ATOM      1  O   UNL A   1      33.165  30.815  26.508  1.00  0.00    -0.374 OA
ENDROOT
BRANCH   1   2
ATOM      2  C   UNL A   1      33.216  29.493  25.978  1.00  0.00     0.202 C 
BRANCH   2   3
ATOM      3  C   UNL A   1      32.493  29.257  24.648  1.00  0.00     0.261 C 
BRANCH   3   4
ATOM      4  O   UNL A   1      33.396  29.294  23.527  1.00  0.00    -0.463 OA
BRANCH   4   5
ATOM      5  C   UNL A   1      33.468  28.155  22.787  1.00  0.00     0.310 C 
ATOM      6  O   UNL A   1      34.109  28.030  21.751  1.00  0.00    -0.252 OA
BRANCH   5   7
ATOM      7  C   UNL A   1      32.614  27.035  23.341  1.00  0.00     0.120 C 
ATOM      8  N   UNL A   1      32.843  24.735  22.861  1.00  0.00    -0.338 N 
ATOM      9  C   UNL A   1      31.433  25.033  22.716  1.00  0.00     0.121 C 
ATOM     10  C   UNL A   1      33.502  25.819  23.568  1.00  0.00     0.135 C 
ATOM     11  C   UNL A   1      31.446  26.535  22.471  1.00  0.00     0.039 C 
BRANCH   8  12
ATOM     12  C   UNL A   1      33.583  23.632  22.494  1.00  0.00     0.255 C 
ATOM     13  O   UNL A   1      33.598  23.249  21.322  1.00  0.00    -0.269 OA
BRANCH  12  14
ATOM     14  C   UNL A   1      34.347  22.817  23.468  1.00  0.00     0.061 A 
ATOM     15  C   UNL A   1      32.388  21.350  24.243  1.00  0.00     0.067 C 
ATOM     16  C   UNL A   1      33.832  21.743  24.204  1.00  0.00     0.050 A 
ATOM     17  N   UNL A   1      34.637  20.910  24.928  1.00  0.00    -0.261 NA
ATOM     18  C   UNL A   1      35.973  21.087  24.853  1.00  0.00     0.111 A 
ATOM     19  C   UNL A   1      35.742  22.974  23.434  1.00  0.00     0.017 A 
ATOM     20  C   UNL A   1      36.569  22.093  24.122  1.00  0.00     0.021 A 
ENDBRANCH  12  14
ENDBRANCH   8  12
ENDBRANCH   5   7
ENDBRANCH   4   5
ENDBRANCH   3   4
ENDBRANCH   2   3
ENDBRANCH   1   2
BRANCH   1  21
ATOM     21  C   UNL A   1      31.886  31.321  26.886  1.00  0.00     0.202 C 
BRANCH  21  22
ATOM     22  C   UNL A   1      31.782  32.833  27.122  1.00  0.00     0.261 C 
BRANCH  22  23
ATOM     23  O   UNL A   1      33.069  33.469  27.222  1.00  0.00    -0.460 OA
BRANCH  23  24
ATOM     24  C   UNL A   1      33.219  34.279  28.296  1.00  0.00     0.338 C 
ATOM     25  O   UNL A   1      32.489  35.203  28.638  1.00  0.00    -0.246 OA
BRANCH  24  26
ATOM     26  C   UNL A   1      34.324  33.804  29.146  1.00  0.00     0.060 A 
ATOM     27  C   UNL A   1      35.604  34.309  28.888  1.00  0.00     0.016 A 
ATOM     28  C   UNL A   1      34.130  32.829  30.127  1.00  0.00     0.016 A 
ATOM     29  C   UNL A   1      36.704  33.821  29.592  1.00  0.00     0.010 A 
ATOM     30  C   UNL A   1      35.238  32.333  30.826  1.00  0.00     0.010 A 
ATOM     31  C   UNL A   1      36.532  32.809  30.547  1.00  0.00    -0.014 A 
BRANCH  31  32
ATOM     32  C   UNL A   1      37.716  32.193  31.190  1.00  0.00     0.031 A 
ATOM     33  C   UNL A   1      38.482  31.123  30.467  1.00  0.00     0.074 A 
ATOM     34  C   UNL A   1      38.110  32.594  32.412  1.00  0.00     0.049 A 
ATOM     35  N   UNL A   1      39.513  30.422  30.869  1.00  0.00    -0.248 NA
ATOM     36  C   UNL A   1      38.029  30.798  29.106  1.00  0.00     0.031 C 
ATOM     37  C   UNL A   1      37.468  33.646  33.198  1.00  0.00     0.029 A 
ATOM     38  N   UNL A   1      39.137  32.155  33.207  1.00  0.00    -0.354 N 
ATOM     39  C   UNL A   1      39.827  29.573  29.817  1.00  0.00     0.074 A 
ATOM     40  C   UNL A   1      38.865  29.828  28.766  1.00  0.00     0.031 C 
ATOM     41  C   UNL A   1      38.106  33.757  34.376  1.00  0.00     0.029 A 
ATOM     42  C   UNL A   1      39.177  32.765  34.437  1.00  0.00     0.049 A 
ATOM     43  H   UNL A   1      39.785  31.468  32.925  1.00  0.00     0.167 HD
ATOM     44  C   UNL A   1      40.832  28.667  29.735  1.00  0.00     0.037 A 
ATOM     45  C   UNL A   1      39.968  32.525  35.501  1.00  0.00     0.037 A 
ATOM     46  C   UNL A   1      41.787  28.415  30.783  1.00  0.00     0.049 A 
ATOM     47  C   UNL A   1      41.025  31.457  35.414  1.00  0.00     0.074 A 
ATOM     48  C   UNL A   1      42.866  27.548  30.777  1.00  0.00     0.029 A 
ATOM     49  N   UNL A   1      41.771  29.023  32.029  1.00  0.00    -0.354 N 
ATOM     50  N   UNL A   1      41.340  30.685  34.403  1.00  0.00    -0.248 NA
ATOM     51  C   UNL A   1      41.837  31.227  36.618  1.00  0.00     0.031 C 
ATOM     52  C   UNL A   1      43.468  27.589  32.039  1.00  0.00     0.029 A 
ATOM     53  C   UNL A   1      42.797  28.521  32.814  1.00  0.00     0.049 A 
ATOM     54  H   UNL A   1      41.126  29.710  32.315  1.00  0.00     0.167 HD
ATOM     55  C   UNL A   1      42.393  29.891  34.840  1.00  0.00     0.074 A 
ATOM     56  C   UNL A   1      42.676  30.288  36.204  1.00  0.00     0.031 C 
ATOM     57  C   UNL A   1      43.063  28.919  34.174  1.00  0.00     0.037 A 
BRANCH  44  58
ATOM     58  C   UNL A   1      40.935  27.857  28.477  1.00  0.00     0.064 A 
ATOM     59  C   UNL A   1      40.290  26.619  28.341  1.00  0.00     0.173 A 
ATOM     60  C   UNL A   1      41.652  28.349  27.375  1.00  0.00     0.173 A 
ATOM     61  F   UNL A   1      39.601  26.100  29.368  1.00  0.00    -0.203 F 
ATOM     62  C   UNL A   1      40.377  25.893  27.155  1.00  0.00     0.198 A 
ATOM     63  C   UNL A   1      41.715  27.632  26.183  1.00  0.00     0.198 A 
ATOM     64  F   UNL A   1      42.281  29.530  27.451  1.00  0.00    -0.203 F 
ATOM     65  F   UNL A   1      39.786  24.694  27.061  1.00  0.00    -0.200 F 
ATOM     66  C   UNL A   1      41.084  26.402  26.076  1.00  0.00     0.200 A 
ATOM     67  F   UNL A   1      42.388  28.131  25.137  1.00  0.00    -0.200 F 
ATOM     68  F   UNL A   1      41.160  25.706  24.933  1.00  0.00    -0.200 F 
ENDBRANCH  44  58
BRANCH  45  69
ATOM     69  C   UNL A   1      39.768  33.296  36.756  1.00  0.00     0.064 A 
ATOM     70  C   UNL A   1      40.498  34.462  37.014  1.00  0.00     0.173 A 
ATOM     71  C   UNL A   1      38.848  32.872  37.727  1.00  0.00     0.173 A 
ATOM     72  F   UNL A   1      41.410  34.891  36.128  1.00  0.00    -0.203 F 
ATOM     73  C   UNL A   1      40.326  35.171  38.201  1.00  0.00     0.198 A 
ATOM     74  C   UNL A   1      38.657  33.596  38.901  1.00  0.00     0.198 A 
ATOM     75  F   UNL A   1      38.129  31.757  37.530  1.00  0.00    -0.203 F 
ATOM     76  F   UNL A   1      41.069  36.259  38.443  1.00  0.00    -0.200 F 
ATOM     77  C   UNL A   1      39.401  34.741  39.140  1.00  0.00     0.200 A 
ATOM     78  F   UNL A   1      37.756  33.181  39.803  1.00  0.00    -0.200 F 
ATOM     79  F   UNL A   1      39.233  35.425  40.281  1.00  0.00    -0.200 F 
ENDBRANCH  45  69
BRANCH  57  80
ATOM     80  C   UNL A   1      44.175  28.224  34.903  1.00  0.00     0.064 A 
ATOM     81  C   UNL A   1      45.476  28.750  34.928  1.00  0.00     0.173 A 
ATOM     82  C   UNL A   1      43.931  27.042  35.619  1.00  0.00     0.173 A 
ATOM     83  F   UNL A   1      45.764  29.869  34.245  1.00  0.00    -0.203 F 
ATOM     84  C   UNL A   1      46.494  28.108  35.626  1.00  0.00     0.198 A 
ATOM     85  C   UNL A   1      44.946  26.418  36.340  1.00  0.00     0.198 A 
ATOM     86  F   UNL A   1      42.704  26.501  35.632  1.00  0.00    -0.203 F 
ATOM     87  F   UNL A   1      47.739  28.605  35.602  1.00  0.00    -0.200 F 
ATOM     88  C   UNL A   1      46.228  26.947  36.338  1.00  0.00     0.200 A 
ATOM     89  F   UNL A   1      44.683  25.305  37.037  1.00  0.00    -0.200 F 
ATOM     90  F   UNL A   1      47.207  26.335  37.017  1.00  0.00    -0.200 F 
ENDBRANCH  57  80
ENDBRANCH  31  32
ENDBRANCH  24  26
ENDBRANCH  23  24
ENDBRANCH  22  23
ENDBRANCH  21  22
ENDBRANCH   1  21
TORSDOF 16
ENDMDL
