MODEL 1
REMARK VINA RESULT:     -12.0      0.000      0.000
REMARK SMILES O=C(OCCOCCOC(=O)[C@@H]1CC[C@@H](CN2C(=O)CC3(CCCC3)CC2=O)O1)c1ccc(-c2c3nc(c(-c4c(F)c(F)c(F)c(F)c4F)c4ccc([nH]4)c(-c4c(F)c(F)c(F)c(F)c4F)c4nc(c(-c5c(F)c(F)c(F)c(F)c5F)c5ccc2[nH]5)C=C4)C=C3)cc1
REMARK SMILES IDX 6 1 5 2 4 3 3 4 2 5 1 6 30 7 31 8 92 9 32 10 91 11 33 12
REMARK SMILES IDX 34 13 35 14 85 15 36 16 90 17 84 18 86 19 37 20 89 21 83 22
REMARK SMILES IDX 82 23 38 25 70 26 50 27 69 28 51 29 54 30 68 31 87 32 52 33
REMARK SMILES IDX 53 34 67 36 88 37 55 38 39 39 40 40 48 41 41 42 42 43 46 44
REMARK SMILES IDX 49 45 43 46 44 47 47 48 45 49 71 50 72 51 80 52 73 53 74 54
REMARK SMILES IDX 78 55 81 56 75 57 76 58 79 59 77 60 56 61 57 62 65 63 58 64
REMARK SMILES IDX 59 65 63 66 66 67 60 68 61 69 64 70 62 71 7 72 8 73 9 74
REMARK SMILES IDX 10 75 11 76 12 77 13 78 29 79 14 80 15 81 16 82 17 83 18 84
REMARK SMILES IDX 27 85 19 86 20 87 26 88 28 89 21 90 22 91 25 92 23 93 24 94
REMARK H PARENT 86 24 54 35
REMARK Flexibility Score: inf
ROOT
ATOM      1  O   UNL A   1      31.424  30.954  26.108  1.00  0.00    -0.374 OA
ENDROOT
BRANCH   1   2
ATOM      2  C   UNL A   1      31.320  32.314  26.545  1.00  0.00     0.202 C 
BRANCH   2   3
ATOM      3  C   UNL A   1      32.557  32.890  27.246  1.00  0.00     0.261 C 
BRANCH   3   4
ATOM      4  O   UNL A   1      32.266  34.191  27.795  1.00  0.00    -0.460 OA
BRANCH   4   5
ATOM      5  C   UNL A   1      32.965  34.885  28.718  1.00  0.00     0.338 C 
ATOM      6  O   UNL A   1      32.560  36.000  29.056  1.00  0.00    -0.246 OA
BRANCH   5   7
ATOM      7  C   UNL A   1      34.184  34.355  29.394  1.00  0.00     0.060 A 
ATOM      8  C   UNL A   1      35.485  34.496  28.915  1.00  0.00     0.016 A 
ATOM      9  C   UNL A   1      34.004  33.715  30.634  1.00  0.00     0.016 A 
ATOM     10  C   UNL A   1      36.568  33.979  29.586  1.00  0.00     0.010 A 
ATOM     11  C   UNL A   1      35.097  33.209  31.340  1.00  0.00     0.010 A 
ATOM     12  C   UNL A   1      36.377  33.328  30.796  1.00  0.00    -0.014 A 
BRANCH  12  13
ATOM     13  C   UNL A   1      37.553  32.645  31.339  1.00  0.00     0.031 A 
ATOM     14  C   UNL A   1      37.957  32.978  32.737  1.00  0.00     0.074 A 
ATOM     15  C   UNL A   1      38.063  31.601  30.665  1.00  0.00     0.049 A 
ATOM     16  N   UNL A   1      38.934  32.499  33.454  1.00  0.00    -0.248 NA
ATOM     17  C   UNL A   1      37.123  33.972  33.436  1.00  0.00     0.031 C 
ATOM     18  C   UNL A   1      37.567  31.110  29.375  1.00  0.00     0.029 A 
ATOM     19  N   UNL A   1      39.063  30.732  30.992  1.00  0.00    -0.354 N 
ATOM     20  C   UNL A   1      38.859  33.163  34.669  1.00  0.00     0.074 A 
ATOM     21  C   UNL A   1      37.739  34.072  34.601  1.00  0.00     0.031 C 
ATOM     22  C   UNL A   1      38.250  30.006  29.037  1.00  0.00     0.029 A 
ATOM     23  C   UNL A   1      39.278  29.768  30.041  1.00  0.00     0.049 A 
ATOM     24  H   UNL A   1      39.580  30.792  31.829  1.00  0.00     0.167 HD
ATOM     25  C   UNL A   1      39.679  33.023  35.735  1.00  0.00     0.037 A 
ATOM     26  C   UNL A   1      40.235  28.825  29.989  1.00  0.00     0.037 A 
ATOM     27  C   UNL A   1      40.780  32.099  35.748  1.00  0.00     0.049 A 
ATOM     28  C   UNL A   1      41.212  28.776  31.131  1.00  0.00     0.074 A 
ATOM     29  C   UNL A   1      41.742  31.903  36.717  1.00  0.00     0.029 A 
ATOM     30  N   UNL A   1      41.060  31.210  34.713  1.00  0.00    -0.354 N 
ATOM     31  N   UNL A   1      41.219  29.475  32.244  1.00  0.00    -0.248 NA
ATOM     32  C   UNL A   1      42.322  27.828  31.008  1.00  0.00     0.031 C 
ATOM     33  C   UNL A   1      42.638  30.938  36.243  1.00  0.00     0.029 A 
ATOM     34  C   UNL A   1      42.195  30.478  35.010  1.00  0.00     0.049 A 
ATOM     35  H   UNL A   1      40.525  31.114  33.892  1.00  0.00     0.167 HD
ATOM     36  C   UNL A   1      42.316  29.036  32.967  1.00  0.00     0.074 A 
ATOM     37  C   UNL A   1      42.942  27.998  32.167  1.00  0.00     0.031 C 
ATOM     38  C   UNL A   1      42.770  29.446  34.179  1.00  0.00     0.037 A 
BRANCH  25  39
ATOM     39  C   UNL A   1      39.467  33.971  36.880  1.00  0.00     0.064 A 
ATOM     40  C   UNL A   1      40.034  35.255  36.912  1.00  0.00     0.173 A 
ATOM     41  C   UNL A   1      38.752  33.545  38.010  1.00  0.00     0.173 A 
ATOM     42  F   UNL A   1      40.758  35.700  35.874  1.00  0.00    -0.203 F 
ATOM     43  C   UNL A   1      39.935  36.054  38.050  1.00  0.00     0.198 A 
ATOM     44  C   UNL A   1      38.627  34.360  39.133  1.00  0.00     0.198 A 
ATOM     45  F   UNL A   1      38.199  32.323  38.039  1.00  0.00    -0.203 F 
ATOM     46  F   UNL A   1      40.558  37.241  38.090  1.00  0.00    -0.200 F 
ATOM     47  C   UNL A   1      39.231  35.606  39.157  1.00  0.00     0.200 A 
ATOM     48  F   UNL A   1      37.943  33.925  40.200  1.00  0.00    -0.200 F 
ATOM     49  F   UNL A   1      39.153  36.368  40.258  1.00  0.00    -0.200 F 
ENDBRANCH  25  39
BRANCH  26  50
ATOM     50  C   UNL A   1      40.335  27.919  28.815  1.00  0.00     0.064 A 
ATOM     51  C   UNL A   1      39.696  26.673  28.800  1.00  0.00     0.173 A 
ATOM     52  C   UNL A   1      41.070  28.285  27.675  1.00  0.00     0.173 A 
ATOM     53  F   UNL A   1      38.996  26.265  29.868  1.00  0.00    -0.203 F 
ATOM     54  C   UNL A   1      39.798  25.823  27.697  1.00  0.00     0.198 A 
ATOM     55  C   UNL A   1      41.146  27.450  26.562  1.00  0.00     0.198 A 
ATOM     56  F   UNL A   1      41.705  29.465  27.633  1.00  0.00    -0.203 F 
ATOM     57  F   UNL A   1      39.211  24.619  27.725  1.00  0.00    -0.200 F 
ATOM     58  C   UNL A   1      40.517  26.215  26.577  1.00  0.00     0.200 A 
ATOM     59  F   UNL A   1      41.828  27.842  25.477  1.00  0.00    -0.200 F 
ATOM     60  F   UNL A   1      40.609  25.402  25.517  1.00  0.00    -0.200 F 
ENDBRANCH  26  50
BRANCH  38  61
ATOM     61  C   UNL A   1      43.966  28.728  34.725  1.00  0.00     0.064 A 
ATOM     62  C   UNL A   1      45.270  29.197  34.517  1.00  0.00     0.173 A 
ATOM     63  C   UNL A   1      43.792  27.577  35.510  1.00  0.00     0.173 A 
ATOM     64  F   UNL A   1      45.486  30.284  33.759  1.00  0.00    -0.203 F 
ATOM     65  C   UNL A   1      46.362  28.523  35.053  1.00  0.00     0.198 A 
ATOM     66  C   UNL A   1      44.883  26.929  36.075  1.00  0.00     0.198 A 
ATOM     67  F   UNL A   1      42.562  27.097  35.743  1.00  0.00    -0.203 F 
ATOM     68  F   UNL A   1      47.605  28.954  34.798  1.00  0.00    -0.200 F 
ATOM     69  C   UNL A   1      46.167  27.395  35.839  1.00  0.00     0.200 A 
ATOM     70  F   UNL A   1      44.692  25.852  36.850  1.00  0.00    -0.200 F 
ATOM     71  F   UNL A   1      47.220  26.755  36.365  1.00  0.00    -0.200 F 
ENDBRANCH  38  61
ENDBRANCH  12  13
ENDBRANCH   5   7
ENDBRANCH   4   5
ENDBRANCH   3   4
ENDBRANCH   2   3
ENDBRANCH   1   2
BRANCH   1  72
ATOM     72  C   UNL A   1      32.435  30.179  26.758  1.00  0.00     0.202 C 
BRANCH  72  73
ATOM     73  C   UNL A   1      33.288  29.427  25.741  1.00  0.00     0.261 C 
BRANCH  73  74
ATOM     74  O   UNL A   1      32.627  29.471  24.466  1.00  0.00    -0.461 OA
BRANCH  74  75
ATOM     75  C   UNL A   1      33.076  28.576  23.544  1.00  0.00     0.335 C 
ATOM     76  O   UNL A   1      34.208  28.542  23.078  1.00  0.00    -0.249 OA
BRANCH  75  77
ATOM     77  C   UNL A   1      32.020  27.519  23.237  1.00  0.00     0.228 C 
ATOM     78  C   UNL A   1      30.646  27.727  23.831  1.00  0.00     0.047 C 
ATOM     79  O   UNL A   1      32.427  26.220  23.683  1.00  0.00    -0.361 OA
ATOM     80  C   UNL A   1      30.082  26.319  23.755  1.00  0.00     0.037 C 
ATOM     81  C   UNL A   1      31.286  25.470  24.143  1.00  0.00     0.139 C 
BRANCH  81  82
ATOM     82  C   UNL A   1      31.353  24.036  23.561  1.00  0.00     0.160 C 
BRANCH  82  83
ATOM     83  N   UNL A   1      32.644  23.442  23.899  1.00  0.00    -0.280 N 
ATOM     84  C   UNL A   1      33.562  23.235  22.897  1.00  0.00     0.229 C 
ATOM     85  C   UNL A   1      32.845  23.010  25.199  1.00  0.00     0.229 C 
ATOM     86  O   UNL A   1      33.254  23.085  21.716  1.00  0.00    -0.274 OA
ATOM     87  C   UNL A   1      35.002  23.394  23.303  1.00  0.00     0.108 C 
ATOM     88  C   UNL A   1      34.243  23.221  25.727  1.00  0.00     0.108 C 
ATOM     89  O   UNL A   1      31.944  22.600  25.930  1.00  0.00    -0.274 OA
ATOM     90  C   UNL A   1      35.368  22.951  24.725  1.00  0.00    -0.012 C 
ATOM     91  C   UNL A   1      36.653  23.724  25.151  1.00  0.00     0.008 C 
ATOM     92  C   UNL A   1      35.780  21.461  24.759  1.00  0.00     0.008 C 
ATOM     93  C   UNL A   1      37.662  22.673  25.576  1.00  0.00     0.001 C 
ATOM     94  C   UNL A   1      37.303  21.471  24.722  1.00  0.00     0.001 C 
ENDBRANCH  82  83
ENDBRANCH  81  82
ENDBRANCH  75  77
ENDBRANCH  74  75
ENDBRANCH  73  74
ENDBRANCH  72  73
ENDBRANCH   1  72
TORSDOF 16
ENDMDL
MODEL 2
REMARK VINA RESULT:     -12.0      1.624      2.521
REMARK SMILES O=C(OCCOCCOC(=O)[C@@H]1CC[C@@H](CN2C(=O)CC3(CCCC3)CC2=O)O1)c1ccc(-c2c3nc(c(-c4c(F)c(F)c(F)c(F)c4F)c4ccc([nH]4)c(-c4c(F)c(F)c(F)c(F)c4F)c4nc(c(-c5c(F)c(F)c(F)c(F)c5F)c5ccc2[nH]5)C=C4)C=C3)cc1
REMARK SMILES IDX 6 1 5 2 4 3 3 4 2 5 1 6 30 7 31 8 92 9 32 10 91 11 33 12
REMARK SMILES IDX 34 13 35 14 85 15 36 16 90 17 84 18 86 19 37 20 89 21 83 22
REMARK SMILES IDX 82 23 38 25 70 26 50 27 69 28 51 29 54 30 68 31 87 32 52 33
REMARK SMILES IDX 53 34 67 36 88 37 55 38 39 39 40 40 48 41 41 42 42 43 46 44
REMARK SMILES IDX 49 45 43 46 44 47 47 48 45 49 71 50 72 51 80 52 73 53 74 54
REMARK SMILES IDX 78 55 81 56 75 57 76 58 79 59 77 60 56 61 57 62 65 63 58 64
REMARK SMILES IDX 59 65 63 66 66 67 60 68 61 69 64 70 62 71 7 72 8 73 9 74
REMARK SMILES IDX 10 75 11 76 12 77 13 78 29 79 14 80 15 81 16 82 17 83 18 84
REMARK SMILES IDX 27 85 19 86 20 87 26 88 28 89 21 90 22 91 25 92 23 93 24 94
REMARK H PARENT 86 24 54 35
REMARK Flexibility Score: inf
ROOT
ATOM      1  O   UNL A   1      33.347  29.709  25.775  1.00  0.00    -0.374 OA
ENDROOT
BRANCH   1   2
ATOM      2  C   UNL A   1      32.098  30.061  26.383  1.00  0.00     0.202 C 
BRANCH   2   3
ATOM      3  C   UNL A   1      31.806  31.563  26.492  1.00  0.00     0.261 C 
BRANCH   3   4
ATOM      4  O   UNL A   1      32.484  32.127  27.632  1.00  0.00    -0.460 OA
BRANCH   4   5
ATOM      5  C   UNL A   1      33.668  32.776  27.665  1.00  0.00     0.338 C 
ATOM      6  O   UNL A   1      33.719  33.941  27.265  1.00  0.00    -0.246 OA
BRANCH   5   7
ATOM      7  C   UNL A   1      34.920  32.172  28.206  1.00  0.00     0.060 A 
ATOM      8  C   UNL A   1      35.052  30.846  28.614  1.00  0.00     0.016 A 
ATOM      9  C   UNL A   1      36.061  32.993  28.253  1.00  0.00     0.016 A 
ATOM     10  C   UNL A   1      36.237  30.352  29.109  1.00  0.00     0.010 A 
ATOM     11  C   UNL A   1      37.277  32.498  28.726  1.00  0.00     0.010 A 
ATOM     12  C   UNL A   1      37.349  31.176  29.174  1.00  0.00    -0.014 A 
BRANCH  12  13
ATOM     13  C   UNL A   1      38.504  30.627  29.889  1.00  0.00     0.031 A 
ATOM     14  C   UNL A   1      38.637  30.962  31.338  1.00  0.00     0.074 A 
ATOM     15  C   UNL A   1      39.242  29.677  29.292  1.00  0.00     0.049 A 
ATOM     16  N   UNL A   1      39.543  30.585  32.196  1.00  0.00    -0.248 NA
ATOM     17  C   UNL A   1      37.584  31.821  31.907  1.00  0.00     0.031 C 
ATOM     18  C   UNL A   1      39.021  29.171  27.933  1.00  0.00     0.029 A 
ATOM     19  N   UNL A   1      40.281  28.930  29.763  1.00  0.00    -0.354 N 
ATOM     20  C   UNL A   1      39.194  31.195  33.391  1.00  0.00     0.074 A 
ATOM     21  C   UNL A   1      37.992  31.959  33.157  1.00  0.00     0.031 C 
ATOM     22  C   UNL A   1      39.884  28.173  27.694  1.00  0.00     0.029 A 
ATOM     23  C   UNL A   1      40.764  28.031  28.847  1.00  0.00     0.049 A 
ATOM     24  H   UNL A   1      40.649  29.026  30.673  1.00  0.00     0.167 HD
ATOM     25  C   UNL A   1      39.848  31.123  34.572  1.00  0.00     0.037 A 
ATOM     26  C   UNL A   1      41.830  27.217  28.937  1.00  0.00     0.037 A 
ATOM     27  C   UNL A   1      41.043  30.344  34.749  1.00  0.00     0.049 A 
ATOM     28  C   UNL A   1      42.615  27.253  30.219  1.00  0.00     0.074 A 
ATOM     29  C   UNL A   1      41.858  30.237  35.857  1.00  0.00     0.029 A 
ATOM     30  N   UNL A   1      41.593  29.530  33.761  1.00  0.00    -0.354 N 
ATOM     31  N   UNL A   1      42.357  27.910  31.328  1.00  0.00    -0.248 NA
ATOM     32  C   UNL A   1      43.843  26.454  30.262  1.00  0.00     0.031 C 
ATOM     33  C   UNL A   1      42.934  29.407  35.520  1.00  0.00     0.029 A 
ATOM     34  C   UNL A   1      42.752  28.936  34.226  1.00  0.00     0.049 A 
ATOM     35  H   UNL A   1      41.210  29.395  32.864  1.00  0.00     0.167 HD
ATOM     36  C   UNL A   1      43.374  27.588  32.210  1.00  0.00     0.074 A 
ATOM     37  C   UNL A   1      44.246  26.663  31.508  1.00  0.00     0.031 C 
ATOM     38  C   UNL A   1      43.577  28.011  33.484  1.00  0.00     0.037 A 
BRANCH  25  39
ATOM     39  C   UNL A   1      39.340  31.999  35.680  1.00  0.00     0.064 A 
ATOM     40  C   UNL A   1      39.804  33.309  35.881  1.00  0.00     0.173 A 
ATOM     41  C   UNL A   1      38.432  31.478  36.616  1.00  0.00     0.173 A 
ATOM     42  F   UNL A   1      40.700  33.844  35.038  1.00  0.00    -0.203 F 
ATOM     43  C   UNL A   1      39.417  34.044  37.001  1.00  0.00     0.198 A 
ATOM     44  C   UNL A   1      38.021  32.228  37.716  1.00  0.00     0.198 A 
ATOM     45  F   UNL A   1      37.964  30.229  36.480  1.00  0.00    -0.203 F 
ATOM     46  F   UNL A   1      39.940  35.259  37.217  1.00  0.00    -0.200 F 
ATOM     47  C   UNL A   1      38.525  33.503  37.915  1.00  0.00     0.200 A 
ATOM     48  F   UNL A   1      37.157  31.703  38.596  1.00  0.00    -0.200 F 
ATOM     49  F   UNL A   1      38.169  34.202  39.002  1.00  0.00    -0.200 F 
ENDBRANCH  25  39
BRANCH  26  50
ATOM     50  C   UNL A   1      42.228  26.369  27.782  1.00  0.00     0.064 A 
ATOM     51  C   UNL A   1      43.197  26.794  26.865  1.00  0.00     0.173 A 
ATOM     52  C   UNL A   1      41.649  25.106  27.575  1.00  0.00     0.173 A 
ATOM     53  F   UNL A   1      43.769  27.999  27.004  1.00  0.00    -0.203 F 
ATOM     54  C   UNL A   1      43.563  25.996  25.780  1.00  0.00     0.198 A 
ATOM     55  C   UNL A   1      42.038  24.296  26.510  1.00  0.00     0.198 A 
ATOM     56  F   UNL A   1      40.715  24.646  28.420  1.00  0.00    -0.203 F 
ATOM     57  F   UNL A   1      44.463  26.445  24.894  1.00  0.00    -0.200 F 
ATOM     58  C   UNL A   1      42.988  24.746  25.607  1.00  0.00     0.200 A 
ATOM     59  F   UNL A   1      41.490  23.082  26.358  1.00  0.00    -0.200 F 
ATOM     60  F   UNL A   1      43.345  23.978  24.569  1.00  0.00    -0.200 F 
ENDBRANCH  26  50
BRANCH  38  61
ATOM     61  C   UNL A   1      44.755  27.430  34.205  1.00  0.00     0.064 A 
ATOM     62  C   UNL A   1      46.005  28.063  34.212  1.00  0.00     0.173 A 
ATOM     63  C   UNL A   1      44.608  26.243  34.939  1.00  0.00     0.173 A 
ATOM     64  F   UNL A   1      46.196  29.192  33.511  1.00  0.00    -0.203 F 
ATOM     65  C   UNL A   1      47.076  27.513  34.907  1.00  0.00     0.198 A 
ATOM     66  C   UNL A   1      45.671  25.717  35.663  1.00  0.00     0.198 A 
ATOM     67  F   UNL A   1      43.428  25.606  34.969  1.00  0.00    -0.203 F 
ATOM     68  F   UNL A   1      48.279  28.103  34.857  1.00  0.00    -0.200 F 
ATOM     69  C   UNL A   1      46.906  26.346  35.640  1.00  0.00     0.200 A 
ATOM     70  F   UNL A   1      45.500  24.601  36.386  1.00  0.00    -0.200 F 
ATOM     71  F   UNL A   1      47.937  25.825  36.319  1.00  0.00    -0.200 F 
ENDBRANCH  38  61
ENDBRANCH  12  13
ENDBRANCH   5   7
ENDBRANCH   4   5
ENDBRANCH   3   4
ENDBRANCH   2   3
ENDBRANCH   1   2
BRANCH   1  72
ATOM     72  C   UNL A   1      33.281  28.651  24.814  1.00  0.00     0.202 C 
BRANCH  72  73
ATOM     73  C   UNL A   1      32.711  29.151  23.489  1.00  0.00     0.261 C 
BRANCH  73  74
ATOM     74  O   UNL A   1      32.296  28.017  22.712  1.00  0.00    -0.461 OA
BRANCH  74  75
ATOM     75  C   UNL A   1      30.951  27.819  22.641  1.00  0.00     0.335 C 
ATOM     76  O   UNL A   1      30.172  28.464  21.949  1.00  0.00    -0.249 OA
BRANCH  75  77
ATOM     77  C   UNL A   1      30.526  26.598  23.450  1.00  0.00     0.228 C 
ATOM     78  C   UNL A   1      30.134  26.830  24.890  1.00  0.00     0.047 C 
ATOM     79  O   UNL A   1      31.564  25.611  23.500  1.00  0.00    -0.361 OA
ATOM     80  C   UNL A   1      30.284  25.431  25.460  1.00  0.00     0.037 C 
ATOM     81  C   UNL A   1      31.553  24.940  24.775  1.00  0.00     0.139 C 
BRANCH  81  82
ATOM     82  C   UNL A   1      31.685  23.413  24.546  1.00  0.00     0.160 C 
BRANCH  82  83
ATOM     83  N   UNL A   1      33.065  23.008  24.801  1.00  0.00    -0.280 N 
ATOM     84  C   UNL A   1      33.924  22.872  23.736  1.00  0.00     0.229 C 
ATOM     85  C   UNL A   1      33.419  22.672  26.096  1.00  0.00     0.229 C 
ATOM     86  O   UNL A   1      33.549  22.624  22.590  1.00  0.00    -0.274 OA
ATOM     87  C   UNL A   1      35.357  23.234  24.016  1.00  0.00     0.108 C 
ATOM     88  C   UNL A   1      34.813  23.086  26.499  1.00  0.00     0.108 C 
ATOM     89  O   UNL A   1      32.638  22.186  26.914  1.00  0.00    -0.274 OA
ATOM     90  C   UNL A   1      35.884  22.914  25.420  1.00  0.00    -0.012 C 
ATOM     91  C   UNL A   1      37.085  23.866  25.709  1.00  0.00     0.008 C 
ATOM     92  C   UNL A   1      36.492  21.493  25.480  1.00  0.00     0.008 C 
ATOM     93  C   UNL A   1      38.253  22.976  26.091  1.00  0.00     0.001 C 
ATOM     94  C   UNL A   1      37.992  21.697  25.317  1.00  0.00     0.001 C 
ENDBRANCH  82  83
ENDBRANCH  81  82
ENDBRANCH  75  77
ENDBRANCH  74  75
ENDBRANCH  73  74
ENDBRANCH  72  73
ENDBRANCH   1  72
TORSDOF 16
ENDMDL
MODEL 3
REMARK VINA RESULT:     -11.9      5.328     11.032
REMARK SMILES O=C(OCCOCCOC(=O)[C@@H]1CC[C@@H](CN2C(=O)CC3(CCCC3)CC2=O)O1)c1ccc(-c2c3nc(c(-c4c(F)c(F)c(F)c(F)c4F)c4ccc([nH]4)c(-c4c(F)c(F)c(F)c(F)c4F)c4nc(c(-c5c(F)c(F)c(F)c(F)c5F)c5ccc2[nH]5)C=C4)C=C3)cc1
REMARK SMILES IDX 6 1 5 2 4 3 3 4 2 5 1 6 30 7 31 8 92 9 32 10 91 11 33 12
REMARK SMILES IDX 34 13 35 14 85 15 36 16 90 17 84 18 86 19 37 20 89 21 83 22
REMARK SMILES IDX 82 23 38 25 70 26 50 27 69 28 51 29 54 30 68 31 87 32 52 33
REMARK SMILES IDX 53 34 67 36 88 37 55 38 39 39 40 40 48 41 41 42 42 43 46 44
REMARK SMILES IDX 49 45 43 46 44 47 47 48 45 49 71 50 72 51 80 52 73 53 74 54
REMARK SMILES IDX 78 55 81 56 75 57 76 58 79 59 77 60 56 61 57 62 65 63 58 64
REMARK SMILES IDX 59 65 63 66 66 67 60 68 61 69 64 70 62 71 7 72 8 73 9 74
REMARK SMILES IDX 10 75 11 76 12 77 13 78 29 79 14 80 15 81 16 82 17 83 18 84
REMARK SMILES IDX 27 85 19 86 20 87 26 88 28 89 21 90 22 91 25 92 23 93 24 94
REMARK H PARENT 86 24 54 35
REMARK Flexibility Score: inf
ROOT
ATOM      1  O   UNL A   1      37.096  20.467  24.627  1.00  0.00    -0.374 OA
ENDROOT
BRANCH   1   2
ATOM      2  C   UNL A   1      38.097  19.488  24.935  1.00  0.00     0.202 C 
BRANCH   2   3
ATOM      3  C   UNL A   1      39.279  19.981  25.778  1.00  0.00     0.261 C 
BRANCH   3   4
ATOM      4  O   UNL A   1      40.396  19.077  25.657  1.00  0.00    -0.460 OA
BRANCH   4   5
ATOM      5  C   UNL A   1      41.683  19.286  26.006  1.00  0.00     0.338 C 
ATOM      6  O   UNL A   1      42.466  18.334  25.989  1.00  0.00    -0.246 OA
BRANCH   5   7
ATOM      7  C   UNL A   1      42.228  20.626  26.369  1.00  0.00     0.060 A 
ATOM      8  C   UNL A   1      42.459  21.065  27.671  1.00  0.00     0.016 A 
ATOM      9  C   UNL A   1      42.584  21.483  25.312  1.00  0.00     0.016 A 
ATOM     10  C   UNL A   1      42.961  22.318  27.939  1.00  0.00     0.010 A 
ATOM     11  C   UNL A   1      43.120  22.746  25.567  1.00  0.00     0.010 A 
ATOM     12  C   UNL A   1      43.286  23.164  26.889  1.00  0.00    -0.014 A 
BRANCH  12  13
ATOM     13  C   UNL A   1      43.627  24.538  27.266  1.00  0.00     0.031 A 
ATOM     14  C   UNL A   1      45.009  25.011  26.961  1.00  0.00     0.074 A 
ATOM     15  C   UNL A   1      42.640  25.369  27.641  1.00  0.00     0.049 A 
ATOM     16  N   UNL A   1      45.549  26.179  27.167  1.00  0.00    -0.248 NA
ATOM     17  C   UNL A   1      45.901  24.038  26.306  1.00  0.00     0.031 C 
ATOM     18  C   UNL A   1      41.227  24.995  27.761  1.00  0.00     0.029 A 
ATOM     19  N   UNL A   1      42.660  26.702  27.930  1.00  0.00    -0.354 N 
ATOM     20  C   UNL A   1      46.853  26.068  26.707  1.00  0.00     0.074 A 
ATOM     21  C   UNL A   1      47.025  24.726  26.204  1.00  0.00     0.031 C 
ATOM     22  C   UNL A   1      40.512  26.087  28.071  1.00  0.00     0.029 A 
ATOM     23  C   UNL A   1      41.427  27.207  28.251  1.00  0.00     0.049 A 
ATOM     24  H   UNL A   1      43.481  27.248  27.909  1.00  0.00     0.167 HD
ATOM     25  C   UNL A   1      47.816  27.016  26.728  1.00  0.00     0.037 A 
ATOM     26  C   UNL A   1      41.100  28.439  28.679  1.00  0.00     0.037 A 
ATOM     27  C   UNL A   1      47.588  28.340  27.241  1.00  0.00     0.049 A 
ATOM     28  C   UNL A   1      42.216  29.438  28.815  1.00  0.00     0.074 A 
ATOM     29  C   UNL A   1      48.482  29.377  27.402  1.00  0.00     0.029 A 
ATOM     30  N   UNL A   1      46.349  28.798  27.683  1.00  0.00    -0.354 N 
ATOM     31  N   UNL A   1      43.481  29.313  28.484  1.00  0.00    -0.248 NA
ATOM     32  C   UNL A   1      41.870  30.737  29.397  1.00  0.00     0.031 C 
ATOM     33  C   UNL A   1      47.798  30.444  27.998  1.00  0.00     0.029 A 
ATOM     34  C   UNL A   1      46.460  30.098  28.141  1.00  0.00     0.049 A 
ATOM     35  H   UNL A   1      45.515  28.274  27.668  1.00  0.00     0.167 HD
ATOM     36  C   UNL A   1      44.080  30.522  28.793  1.00  0.00     0.074 A 
ATOM     37  C   UNL A   1      43.031  31.372  29.326  1.00  0.00     0.031 C 
ATOM     38  C   UNL A   1      45.376  30.903  28.652  1.00  0.00     0.037 A 
BRANCH  25  39
ATOM     39  C   UNL A   1      49.192  26.592  26.302  1.00  0.00     0.064 A 
ATOM     40  C   UNL A   1      50.130  26.058  27.199  1.00  0.00     0.173 A 
ATOM     41  C   UNL A   1      49.606  26.812  24.979  1.00  0.00     0.173 A 
ATOM     42  F   UNL A   1      49.799  25.860  28.484  1.00  0.00    -0.203 F 
ATOM     43  C   UNL A   1      51.442  25.807  26.800  1.00  0.00     0.198 A 
ATOM     44  C   UNL A   1      50.909  26.528  24.575  1.00  0.00     0.198 A 
ATOM     45  F   UNL A   1      48.755  27.331  24.081  1.00  0.00    -0.203 F 
ATOM     46  F   UNL A   1      52.343  25.379  27.696  1.00  0.00    -0.200 F 
ATOM     47  C   UNL A   1      51.829  26.040  25.489  1.00  0.00     0.200 A 
ATOM     48  F   UNL A   1      51.278  26.753  23.307  1.00  0.00    -0.200 F 
ATOM     49  F   UNL A   1      53.096  25.818  25.112  1.00  0.00    -0.200 F 
ENDBRANCH  25  39
BRANCH  26  50
ATOM     50  C   UNL A   1      39.696  28.757  29.050  1.00  0.00     0.064 A 
ATOM     51  C   UNL A   1      39.212  28.525  30.344  1.00  0.00     0.173 A 
ATOM     52  C   UNL A   1      38.805  29.311  28.115  1.00  0.00     0.173 A 
ATOM     53  F   UNL A   1      40.014  27.981  31.271  1.00  0.00    -0.203 F 
ATOM     54  C   UNL A   1      37.892  28.821  30.685  1.00  0.00     0.198 A 
ATOM     55  C   UNL A   1      37.496  29.636  28.464  1.00  0.00     0.198 A 
ATOM     56  F   UNL A   1      39.211  29.554  26.860  1.00  0.00    -0.203 F 
ATOM     57  F   UNL A   1      37.444  28.550  31.918  1.00  0.00    -0.200 F 
ATOM     58  C   UNL A   1      37.037  29.382  29.747  1.00  0.00     0.200 A 
ATOM     59  F   UNL A   1      36.681  30.193  27.559  1.00  0.00    -0.200 F 
ATOM     60  F   UNL A   1      35.772  29.672  30.077  1.00  0.00    -0.200 F 
ENDBRANCH  26  50
BRANCH  38  61
ATOM     61  C   UNL A   1      45.704  32.316  29.031  1.00  0.00     0.064 A 
ATOM     62  C   UNL A   1      46.151  32.653  30.315  1.00  0.00     0.173 A 
ATOM     63  C   UNL A   1      45.613  33.335  28.071  1.00  0.00     0.173 A 
ATOM     64  F   UNL A   1      46.239  31.714  31.270  1.00  0.00    -0.203 F 
ATOM     65  C   UNL A   1      46.470  33.969  30.634  1.00  0.00     0.198 A 
ATOM     66  C   UNL A   1      45.968  34.642  28.383  1.00  0.00     0.198 A 
ATOM     67  F   UNL A   1      45.198  33.058  26.826  1.00  0.00    -0.203 F 
ATOM     68  F   UNL A   1      46.843  34.282  31.883  1.00  0.00    -0.200 F 
ATOM     69  C   UNL A   1      46.387  34.960  29.666  1.00  0.00     0.200 A 
ATOM     70  F   UNL A   1      45.907  35.594  27.442  1.00  0.00    -0.200 F 
ATOM     71  F   UNL A   1      46.707  36.224  29.973  1.00  0.00    -0.200 F 
ENDBRANCH  38  61
ENDBRANCH  12  13
ENDBRANCH   5   7
ENDBRANCH   4   5
ENDBRANCH   3   4
ENDBRANCH   2   3
ENDBRANCH   1   2
BRANCH   1  72
ATOM     72  C   UNL A   1      37.389  21.797  25.062  1.00  0.00     0.202 C 
BRANCH  72  73
ATOM     73  C   UNL A   1      36.264  22.348  25.934  1.00  0.00     0.261 C 
BRANCH  73  74
ATOM     74  O   UNL A   1      35.218  21.366  26.007  1.00  0.00    -0.461 OA
BRANCH  74  75
ATOM     75  C   UNL A   1      34.078  21.773  26.631  1.00  0.00     0.335 C 
ATOM     76  O   UNL A   1      33.984  22.076  27.814  1.00  0.00    -0.249 OA
BRANCH  75  77
ATOM     77  C   UNL A   1      32.928  21.926  25.641  1.00  0.00     0.228 C 
ATOM     78  C   UNL A   1      33.130  21.352  24.258  1.00  0.00     0.047 C 
ATOM     79  O   UNL A   1      32.595  23.303  25.428  1.00  0.00    -0.361 OA
ATOM     80  C   UNL A   1      32.077  22.112  23.472  1.00  0.00     0.037 C 
ATOM     81  C   UNL A   1      32.185  23.512  24.063  1.00  0.00     0.139 C 
BRANCH  81  82
ATOM     82  C   UNL A   1      30.904  24.384  24.045  1.00  0.00     0.160 C 
BRANCH  82  83
ATOM     83  N   UNL A   1      31.209  25.694  24.617  1.00  0.00    -0.280 N 
ATOM     84  C   UNL A   1      30.700  26.013  25.854  1.00  0.00     0.229 C 
ATOM     85  C   UNL A   1      31.907  26.601  23.837  1.00  0.00     0.229 C 
ATOM     86  O   UNL A   1      29.680  25.507  26.318  1.00  0.00    -0.274 OA
ATOM     87  C   UNL A   1      31.579  26.891  26.702  1.00  0.00     0.108 C 
ATOM     88  C   UNL A   1      32.888  27.461  24.594  1.00  0.00     0.108 C 
ATOM     89  O   UNL A   1      31.842  26.638  22.609  1.00  0.00    -0.274 OA
ATOM     90  C   UNL A   1      32.412  27.947  25.965  1.00  0.00    -0.012 C 
ATOM     91  C   UNL A   1      33.640  28.298  26.859  1.00  0.00     0.008 C 
ATOM     92  C   UNL A   1      31.635  29.278  25.830  1.00  0.00     0.008 C 
ATOM     93  C   UNL A   1      33.618  29.805  27.042  1.00  0.00     0.001 C 
ATOM     94  C   UNL A   1      32.142  30.148  26.973  1.00  0.00     0.001 C 
ENDBRANCH  82  83
ENDBRANCH  81  82
ENDBRANCH  75  77
ENDBRANCH  74  75
ENDBRANCH  73  74
ENDBRANCH  72  73
ENDBRANCH   1  72
TORSDOF 16
ENDMDL
