MODEL 1
REMARK VINA RESULT:     -11.5      0.000      0.000
REMARK SMILES CC(=O)Oc1c(Cl)cc(-c2ccccc2)cc1C(=O)OCCOCCOC(=O)c1ccc(-c2c3nc(c(-c4c(F)c(F)c(F)c(F)c4F)c4ccc([nH]4)c(-c4c(F)c(F)c(F)c(F)c4F)c4nc(c(-c5c(F)c(F)c(F)c(F)c5F)c5ccc2[nH]5)C=C4)C=C3)cc1
REMARK SMILES IDX 23 1 22 2 21 3 20 4 18 5 19 6 17 7 5 8 6 9 7 10 8 11 16 12
REMARK SMILES IDX 9 13 4 14 2 15 1 16 3 17 10 18 11 19 15 20 12 21 14 22 13 23
REMARK SMILES IDX 24 24 25 25 26 26 27 27 28 28 29 29 30 30 91 31 31 32 90 33
REMARK SMILES IDX 32 34 33 35 34 36 84 37 35 38 89 39 83 40 85 41 36 42 88 43
REMARK SMILES IDX 82 44 81 45 37 47 69 48 49 49 68 50 50 51 53 52 67 53 86 54
REMARK SMILES IDX 51 55 52 56 66 58 87 59 54 60 38 61 39 62 47 63 40 64 41 65
REMARK SMILES IDX 45 66 48 67 42 68 43 69 46 70 44 71 70 72 71 73 79 74 72 75
REMARK SMILES IDX 73 76 77 77 80 78 74 79 75 80 78 81 76 82 55 83 56 84 64 85
REMARK SMILES IDX 57 86 58 87 62 88 65 89 59 90 60 91 63 92 61 93
REMARK H PARENT 85 46 53 57
REMARK Flexibility Score: inf
ROOT
ATOM      1  O   UNL A   1      33.040  29.239  24.561  1.00  0.00    -0.374 OA
ENDROOT
BRANCH   1   2
ATOM      2  C   UNL A   1      33.283  29.106  23.158  1.00  0.00     0.202 C 
BRANCH   2   3
ATOM      3  C   UNL A   1      33.127  27.694  22.586  1.00  0.00     0.261 C 
BRANCH   3   4
ATOM      4  O   UNL A   1      33.919  26.748  23.327  1.00  0.00    -0.460 OA
BRANCH   4   5
ATOM      5  C   UNL A   1      33.544  25.457  23.178  1.00  0.00     0.342 C 
ATOM      6  O   UNL A   1      33.169  24.918  22.147  1.00  0.00    -0.246 OA
BRANCH   5   7
ATOM      7  C   UNL A   1      33.820  24.681  24.402  1.00  0.00     0.105 A 
ATOM      8  C   UNL A   1      32.829  24.198  25.259  1.00  0.00     0.164 A 
ATOM      9  C   UNL A   1      33.187  23.340  26.309  1.00  0.00     0.085 A 
ATOM     10  Cl  UNL A   1      31.997  22.579  27.305  1.00  0.00    -0.080 Cl
ATOM     11  C   UNL A   1      34.531  23.024  26.538  1.00  0.00     0.033 A 
ATOM     12  C   UNL A   1      35.167  24.367  24.644  1.00  0.00     0.028 A 
ATOM     13  C   UNL A   1      35.539  23.541  25.713  1.00  0.00    -0.016 A 
BRANCH   8  14
ATOM     14  O   UNL A   1      31.481  24.470  25.003  1.00  0.00    -0.424 OA
BRANCH  14  15
ATOM     15  C   UNL A   1      31.034  25.618  25.651  1.00  0.00     0.308 C 
ATOM     16  C   UNL A   1      30.248  26.464  24.691  1.00  0.00     0.139 C 
ATOM     17  O   UNL A   1      31.250  25.927  26.816  1.00  0.00    -0.252 OA
ENDBRANCH  14  15
ENDBRANCH   8  14
BRANCH  13  18
ATOM     18  C   UNL A   1      36.941  23.168  25.909  1.00  0.00    -0.018 A 
ATOM     19  C   UNL A   1      37.833  24.074  26.502  1.00  0.00     0.009 A 
ATOM     20  C   UNL A   1      37.419  21.902  25.538  1.00  0.00     0.009 A 
ATOM     21  C   UNL A   1      39.167  23.725  26.720  1.00  0.00     0.001 A 
ATOM     22  C   UNL A   1      38.755  21.555  25.753  1.00  0.00     0.001 A 
ATOM     23  C   UNL A   1      39.628  22.466  26.345  1.00  0.00     0.000 A 
ENDBRANCH  13  18
ENDBRANCH   5   7
ENDBRANCH   4   5
ENDBRANCH   3   4
ENDBRANCH   2   3
ENDBRANCH   1   2
BRANCH   1  24
ATOM     24  C   UNL A   1      31.762  29.738  24.959  1.00  0.00     0.202 C 
BRANCH  24  25
ATOM     25  C   UNL A   1      31.747  30.675  26.172  1.00  0.00     0.261 C 
BRANCH  25  26
ATOM     26  O   UNL A   1      32.847  30.434  27.064  1.00  0.00    -0.460 OA
BRANCH  26  27
ATOM     27  C   UNL A   1      33.524  31.543  27.440  1.00  0.00     0.338 C 
ATOM     28  O   UNL A   1      33.076  32.673  27.582  1.00  0.00    -0.246 OA
BRANCH  27  29
ATOM     29  C   UNL A   1      34.902  31.197  27.836  1.00  0.00     0.060 A 
ATOM     30  C   UNL A   1      35.160  29.853  28.131  1.00  0.00     0.016 A 
ATOM     31  C   UNL A   1      35.900  32.161  28.000  1.00  0.00     0.016 A 
ATOM     32  C   UNL A   1      36.396  29.477  28.649  1.00  0.00     0.010 A 
ATOM     33  C   UNL A   1      37.142  31.782  28.529  1.00  0.00     0.010 A 
ATOM     34  C   UNL A   1      37.381  30.444  28.891  1.00  0.00    -0.014 A 
BRANCH  34  35
ATOM     35  C   UNL A   1      38.598  30.044  29.641  1.00  0.00     0.031 A 
ATOM     36  C   UNL A   1      38.804  30.558  31.041  1.00  0.00     0.074 A 
ATOM     37  C   UNL A   1      39.460  29.155  29.117  1.00  0.00     0.049 A 
ATOM     38  N   UNL A   1      39.742  30.261  31.905  1.00  0.00    -0.248 NA
ATOM     39  C   UNL A   1      37.817  31.531  31.536  1.00  0.00     0.031 C 
ATOM     40  C   UNL A   1      39.356  28.563  27.784  1.00  0.00     0.029 A 
ATOM     41  N   UNL A   1      40.588  28.583  29.651  1.00  0.00    -0.354 N 
ATOM     42  C   UNL A   1      39.447  30.991  33.049  1.00  0.00     0.074 A 
ATOM     43  C   UNL A   1      38.271  31.782  32.756  1.00  0.00     0.031 C 
ATOM     44  C   UNL A   1      40.375  27.704  27.607  1.00  0.00     0.029 A 
ATOM     45  C   UNL A   1      41.210  27.697  28.807  1.00  0.00     0.049 A 
ATOM     46  H   UNL A   1      40.919  28.788  30.556  1.00  0.00     0.167 HD
ATOM     47  C   UNL A   1      40.087  30.987  34.244  1.00  0.00     0.037 A 
ATOM     48  C   UNL A   1      42.326  26.965  28.985  1.00  0.00     0.037 A 
ATOM     49  C   UNL A   1      41.263  30.211  34.538  1.00  0.00     0.049 A 
ATOM     50  C   UNL A   1      43.049  27.026  30.306  1.00  0.00     0.074 A 
ATOM     51  C   UNL A   1      41.994  30.158  35.713  1.00  0.00     0.029 A 
ATOM     52  N   UNL A   1      41.883  29.350  33.644  1.00  0.00    -0.354 N 
ATOM     53  N   UNL A   1      42.745  27.700  31.388  1.00  0.00    -0.248 NA
ATOM     54  C   UNL A   1      44.265  26.208  30.432  1.00  0.00     0.031 C 
ATOM     55  C   UNL A   1      43.074  29.290  35.520  1.00  0.00     0.029 A 
ATOM     56  C   UNL A   1      42.992  28.770  34.239  1.00  0.00     0.049 A 
ATOM     57  H   UNL A   1      41.580  29.178  32.724  1.00  0.00     0.167 HD
ATOM     58  C   UNL A   1      43.712  27.367  32.329  1.00  0.00     0.074 A 
ATOM     59  C   UNL A   1      44.598  26.412  31.698  1.00  0.00     0.031 C 
ATOM     60  C   UNL A   1      43.858  27.814  33.601  1.00  0.00     0.037 A 
BRANCH  47  61
ATOM     61  C   UNL A   1      39.525  31.850  35.334  1.00  0.00     0.064 A 
ATOM     62  C   UNL A   1      38.606  31.341  36.264  1.00  0.00     0.173 A 
ATOM     63  C   UNL A   1      39.952  33.177  35.489  1.00  0.00     0.173 A 
ATOM     64  F   UNL A   1      38.157  30.082  36.150  1.00  0.00    -0.203 F 
ATOM     65  C   UNL A   1      38.126  32.134  37.304  1.00  0.00     0.198 A 
ATOM     66  C   UNL A   1      39.488  33.959  36.543  1.00  0.00     0.198 A 
ATOM     67  F   UNL A   1      40.833  33.709  34.627  1.00  0.00    -0.203 F 
ATOM     68  F   UNL A   1      37.228  31.637  38.165  1.00  0.00    -0.200 F 
ATOM     69  C   UNL A   1      38.574  33.439  37.448  1.00  0.00     0.200 A 
ATOM     70  F   UNL A   1      39.931  35.216  36.688  1.00  0.00    -0.200 F 
ATOM     71  F   UNL A   1      38.123  34.197  38.457  1.00  0.00    -0.200 F 
ENDBRANCH  47  61
BRANCH  48  72
ATOM     72  C   UNL A   1      42.839  26.102  27.889  1.00  0.00     0.064 A 
ATOM     73  C   UNL A   1      42.528  24.736  27.833  1.00  0.00     0.173 A 
ATOM     74  C   UNL A   1      43.699  26.615  26.908  1.00  0.00     0.173 A 
ATOM     75  F   UNL A   1      41.729  24.192  28.764  1.00  0.00    -0.203 F 
ATOM     76  C   UNL A   1      43.083  23.910  26.857  1.00  0.00     0.198 A 
ATOM     77  C   UNL A   1      44.230  25.795  25.915  1.00  0.00     0.198 A 
ATOM     78  F   UNL A   1      44.030  27.914  26.917  1.00  0.00    -0.203 F 
ATOM     79  F   UNL A   1      42.818  22.596  26.865  1.00  0.00    -0.200 F 
ATOM     80  C   UNL A   1      43.932  24.440  25.898  1.00  0.00     0.200 A 
ATOM     81  F   UNL A   1      45.043  26.313  24.984  1.00  0.00    -0.200 F 
ATOM     82  F   UNL A   1      44.473  23.645  24.966  1.00  0.00    -0.200 F 
ENDBRANCH  48  72
BRANCH  60  83
ATOM     83  C   UNL A   1      44.997  27.249  34.397  1.00  0.00     0.064 A 
ATOM     84  C   UNL A   1      46.265  27.848  34.396  1.00  0.00     0.173 A 
ATOM     85  C   UNL A   1      44.817  26.094  35.175  1.00  0.00     0.173 A 
ATOM     86  F   UNL A   1      46.492  28.944  33.657  1.00  0.00    -0.203 F 
ATOM     87  C   UNL A   1      47.322  27.291  35.113  1.00  0.00     0.198 A 
ATOM     88  C   UNL A   1      45.868  25.557  35.914  1.00  0.00     0.198 A 
ATOM     89  F   UNL A   1      43.622  25.486  35.218  1.00  0.00    -0.203 F 
ATOM     90  F   UNL A   1      48.540  27.847  35.047  1.00  0.00    -0.200 F 
ATOM     91  C   UNL A   1      47.121  26.149  35.874  1.00  0.00     0.200 A 
ATOM     92  F   UNL A   1      45.670  24.460  36.659  1.00  0.00    -0.200 F 
ATOM     93  F   UNL A   1      48.140  25.611  36.559  1.00  0.00    -0.200 F 
ENDBRANCH  60  83
ENDBRANCH  34  35
ENDBRANCH  27  29
ENDBRANCH  26  27
ENDBRANCH  25  26
ENDBRANCH  24  25
ENDBRANCH   1  24
TORSDOF 17
ENDMDL
MODEL 2
REMARK VINA RESULT:     -11.5      4.136      9.647
REMARK SMILES CC(=O)Oc1c(Cl)cc(-c2ccccc2)cc1C(=O)OCCOCCOC(=O)c1ccc(-c2c3nc(c(-c4c(F)c(F)c(F)c(F)c4F)c4ccc([nH]4)c(-c4c(F)c(F)c(F)c(F)c4F)c4nc(c(-c5c(F)c(F)c(F)c(F)c5F)c5ccc2[nH]5)C=C4)C=C3)cc1
REMARK SMILES IDX 23 1 22 2 21 3 20 4 18 5 19 6 17 7 5 8 6 9 7 10 8 11 16 12
REMARK SMILES IDX 9 13 4 14 2 15 1 16 3 17 10 18 11 19 15 20 12 21 14 22 13 23
REMARK SMILES IDX 24 24 25 25 26 26 27 27 28 28 29 29 30 30 91 31 31 32 90 33
REMARK SMILES IDX 32 34 33 35 34 36 84 37 35 38 89 39 83 40 85 41 36 42 88 43
REMARK SMILES IDX 82 44 81 45 37 47 69 48 49 49 68 50 50 51 53 52 67 53 86 54
REMARK SMILES IDX 51 55 52 56 66 58 87 59 54 60 38 61 39 62 47 63 40 64 41 65
REMARK SMILES IDX 45 66 48 67 42 68 43 69 46 70 44 71 70 72 71 73 79 74 72 75
REMARK SMILES IDX 73 76 77 77 80 78 74 79 75 80 78 81 76 82 55 83 56 84 64 85
REMARK SMILES IDX 57 86 58 87 62 88 65 89 59 90 60 91 63 92 61 93
REMARK H PARENT 85 46 53 57
REMARK Flexibility Score: inf
ROOT
ATOM      1  O   UNL A   1      35.252  21.753  26.286  1.00  0.00    -0.374 OA
ENDROOT
BRANCH   1   2
ATOM      2  C   UNL A   1      34.068  21.260  26.916  1.00  0.00     0.202 C 
BRANCH   2   3
ATOM      3  C   UNL A   1      32.931  22.273  27.082  1.00  0.00     0.261 C 
BRANCH   3   4
ATOM      4  O   UNL A   1      33.369  23.600  26.737  1.00  0.00    -0.460 OA
BRANCH   4   5
ATOM      5  C   UNL A   1      32.376  24.452  26.393  1.00  0.00     0.342 C 
ATOM      6  O   UNL A   1      31.214  24.412  26.771  1.00  0.00    -0.246 OA
BRANCH   5   7
ATOM      7  C   UNL A   1      32.903  25.596  25.625  1.00  0.00     0.105 A 
ATOM      8  C   UNL A   1      32.941  25.648  24.230  1.00  0.00     0.164 A 
ATOM      9  C   UNL A   1      33.315  26.842  23.597  1.00  0.00     0.085 A 
ATOM     10  Cl  UNL A   1      33.229  27.024  21.880  1.00  0.00    -0.080 Cl
ATOM     11  C   UNL A   1      33.710  27.951  24.353  1.00  0.00     0.033 A 
ATOM     12  C   UNL A   1      33.309  26.711  26.378  1.00  0.00     0.028 A 
ATOM     13  C   UNL A   1      33.721  27.896  25.754  1.00  0.00    -0.016 A 
BRANCH   8  14
ATOM     14  O   UNL A   1      32.499  24.559  23.472  1.00  0.00    -0.424 OA
BRANCH  14  15
ATOM     15  C   UNL A   1      33.515  23.648  23.198  1.00  0.00     0.308 C 
ATOM     16  C   UNL A   1      32.967  22.252  23.250  1.00  0.00     0.139 C 
ATOM     17  O   UNL A   1      34.688  23.915  22.967  1.00  0.00    -0.252 OA
ENDBRANCH  14  15
ENDBRANCH   8  14
BRANCH  13  18
ATOM     18  C   UNL A   1      34.075  29.070  26.553  1.00  0.00    -0.018 A 
ATOM     19  C   UNL A   1      35.304  29.115  27.229  1.00  0.00     0.009 A 
ATOM     20  C   UNL A   1      33.220  30.178  26.643  1.00  0.00     0.009 A 
ATOM     21  C   UNL A   1      35.670  30.237  27.975  1.00  0.00     0.001 A 
ATOM     22  C   UNL A   1      33.584  31.299  27.393  1.00  0.00     0.001 A 
ATOM     23  C   UNL A   1      34.809  31.328  28.057  1.00  0.00     0.000 A 
ENDBRANCH  13  18
ENDBRANCH   5   7
ENDBRANCH   4   5
ENDBRANCH   3   4
ENDBRANCH   2   3
ENDBRANCH   1   2
BRANCH   1  24
ATOM     24  C   UNL A   1      35.682  21.094  25.094  1.00  0.00     0.202 C 
BRANCH  24  25
ATOM     25  C   UNL A   1      37.176  20.763  25.001  1.00  0.00     0.261 C 
BRANCH  25  26
ATOM     26  O   UNL A   1      38.007  21.871  25.382  1.00  0.00    -0.460 OA
BRANCH  26  27
ATOM     27  C   UNL A   1      39.103  21.536  26.101  1.00  0.00     0.338 C 
ATOM     28  O   UNL A   1      39.691  20.463  26.099  1.00  0.00    -0.246 OA
BRANCH  27  29
ATOM     29  C   UNL A   1      39.639  22.715  26.804  1.00  0.00     0.060 A 
ATOM     30  C   UNL A   1      39.044  23.951  26.520  1.00  0.00     0.016 A 
ATOM     31  C   UNL A   1      40.746  22.643  27.656  1.00  0.00     0.016 A 
ATOM     32  C   UNL A   1      39.589  25.123  27.035  1.00  0.00     0.010 A 
ATOM     33  C   UNL A   1      41.298  23.825  28.167  1.00  0.00     0.010 A 
ATOM     34  C   UNL A   1      40.745  25.073  27.828  1.00  0.00    -0.014 A 
BRANCH  34  35
ATOM     35  C   UNL A   1      41.420  26.348  28.177  1.00  0.00     0.031 A 
ATOM     36  C   UNL A   1      42.822  26.598  27.688  1.00  0.00     0.074 A 
ATOM     37  C   UNL A   1      40.756  27.312  28.840  1.00  0.00     0.049 A 
ATOM     38  N   UNL A   1      43.559  27.675  27.796  1.00  0.00    -0.248 NA
ATOM     39  C   UNL A   1      43.478  25.490  26.976  1.00  0.00     0.031 C 
ATOM     40  C   UNL A   1      39.387  27.202  29.340  1.00  0.00     0.029 A 
ATOM     41  N   UNL A   1      41.142  28.581  29.191  1.00  0.00    -0.354 N 
ATOM     42  C   UNL A   1      44.753  27.383  27.149  1.00  0.00     0.074 A 
ATOM     43  C   UNL A   1      44.662  26.012  26.693  1.00  0.00     0.031 C 
ATOM     44  C   UNL A   1      39.044  28.360  29.930  1.00  0.00     0.029 A 
ATOM     45  C   UNL A   1      40.173  29.287  29.860  1.00  0.00     0.049 A 
ATOM     46  H   UNL A   1      42.031  28.952  28.982  1.00  0.00     0.167 HD
ATOM     47  C   UNL A   1      45.820  28.190  26.937  1.00  0.00     0.037 A 
ATOM     48  C   UNL A   1      40.196  30.538  30.357  1.00  0.00     0.037 A 
ATOM     49  C   UNL A   1      45.921  29.550  27.398  1.00  0.00     0.049 A 
ATOM     50  C   UNL A   1      41.421  31.393  30.155  1.00  0.00     0.074 A 
ATOM     51  C   UNL A   1      46.971  30.439  27.250  1.00  0.00     0.029 A 
ATOM     52  N   UNL A   1      44.929  30.218  28.102  1.00  0.00    -0.354 N 
ATOM     53  N   UNL A   1      42.532  31.113  29.519  1.00  0.00    -0.248 NA
ATOM     54  C   UNL A   1      41.384  32.746  30.730  1.00  0.00     0.031 C 
ATOM     55  C   UNL A   1      46.629  31.635  27.891  1.00  0.00     0.029 A 
ATOM     56  C   UNL A   1      45.349  31.505  28.402  1.00  0.00     0.049 A 
ATOM     57  H   UNL A   1      44.058  29.835  28.351  1.00  0.00     0.167 HD
ATOM     58  C   UNL A   1      43.312  32.261  29.593  1.00  0.00     0.074 A 
ATOM     59  C   UNL A   1      42.538  33.248  30.314  1.00  0.00     0.031 C 
ATOM     60  C   UNL A   1      44.561  32.478  29.112  1.00  0.00     0.037 A 
BRANCH  47  61
ATOM     61  C   UNL A   1      46.974  27.624  26.164  1.00  0.00     0.064 A 
ATOM     62  C   UNL A   1      47.039  27.735  24.766  1.00  0.00     0.173 A 
ATOM     63  C   UNL A   1      48.054  27.021  26.826  1.00  0.00     0.173 A 
ATOM     64  F   UNL A   1      46.025  28.292  24.087  1.00  0.00    -0.203 F 
ATOM     65  C   UNL A   1      48.137  27.252  24.060  1.00  0.00     0.198 A 
ATOM     66  C   UNL A   1      49.160  26.560  26.119  1.00  0.00     0.198 A 
ATOM     67  F   UNL A   1      48.041  26.895  28.162  1.00  0.00    -0.203 F 
ATOM     68  F   UNL A   1      48.166  27.343  22.724  1.00  0.00    -0.200 F 
ATOM     69  C   UNL A   1      49.201  26.673  24.737  1.00  0.00     0.200 A 
ATOM     70  F   UNL A   1      50.192  26.012  26.775  1.00  0.00    -0.200 F 
ATOM     71  F   UNL A   1      50.264  26.222  24.057  1.00  0.00    -0.200 F 
ENDBRANCH  47  61
BRANCH  48  72
ATOM     72  C   UNL A   1      39.023  31.073  31.097  1.00  0.00     0.064 A 
ATOM     73  C   UNL A   1      38.847  30.817  32.464  1.00  0.00     0.173 A 
ATOM     74  C   UNL A   1      38.025  31.805  30.437  1.00  0.00     0.173 A 
ATOM     75  F   UNL A   1      39.761  30.100  33.134  1.00  0.00    -0.203 F 
ATOM     76  C   UNL A   1      37.702  31.243  33.135  1.00  0.00     0.198 A 
ATOM     77  C   UNL A   1      36.895  32.255  31.115  1.00  0.00     0.198 A 
ATOM     78  F   UNL A   1      38.145  32.076  29.129  1.00  0.00    -0.203 F 
ATOM     79  F   UNL A   1      37.529  30.929  34.426  1.00  0.00    -0.200 F 
ATOM     80  C   UNL A   1      36.728  31.963  32.460  1.00  0.00     0.200 A 
ATOM     81  F   UNL A   1      35.960  32.960  30.462  1.00  0.00    -0.200 F 
ATOM     82  F   UNL A   1      35.623  32.364  33.103  1.00  0.00    -0.200 F 
ENDBRANCH  48  72
BRANCH  60  83
ATOM     83  C   UNL A   1      45.147  33.844  29.323  1.00  0.00     0.064 A 
ATOM     84  C   UNL A   1      45.897  34.154  30.467  1.00  0.00     0.173 A 
ATOM     85  C   UNL A   1      44.959  34.853  28.366  1.00  0.00     0.173 A 
ATOM     86  F   UNL A   1      46.092  33.228  31.417  1.00  0.00    -0.203 F 
ATOM     87  C   UNL A   1      46.404  35.437  30.664  1.00  0.00     0.198 A 
ATOM     88  C   UNL A   1      45.492  36.126  28.553  1.00  0.00     0.198 A 
ATOM     89  F   UNL A   1      44.257  34.606  27.250  1.00  0.00    -0.203 F 
ATOM     90  F   UNL A   1      47.064  35.727  31.794  1.00  0.00    -0.200 F 
ATOM     91  C   UNL A   1      46.205  36.419  29.706  1.00  0.00     0.200 A 
ATOM     92  F   UNL A   1      45.309  37.072  27.621  1.00  0.00    -0.200 F 
ATOM     93  F   UNL A   1      46.688  37.654  29.901  1.00  0.00    -0.200 F 
ENDBRANCH  60  83
ENDBRANCH  34  35
ENDBRANCH  27  29
ENDBRANCH  26  27
ENDBRANCH  25  26
ENDBRANCH  24  25
ENDBRANCH   1  24
TORSDOF 17
ENDMDL
MODEL 3
REMARK VINA RESULT:     -11.4      0.936      1.626
REMARK SMILES CC(=O)Oc1c(Cl)cc(-c2ccccc2)cc1C(=O)OCCOCCOC(=O)c1ccc(-c2c3nc(c(-c4c(F)c(F)c(F)c(F)c4F)c4ccc([nH]4)c(-c4c(F)c(F)c(F)c(F)c4F)c4nc(c(-c5c(F)c(F)c(F)c(F)c5F)c5ccc2[nH]5)C=C4)C=C3)cc1
REMARK SMILES IDX 23 1 22 2 21 3 20 4 18 5 19 6 17 7 5 8 6 9 7 10 8 11 16 12
REMARK SMILES IDX 9 13 4 14 2 15 1 16 3 17 10 18 11 19 15 20 12 21 14 22 13 23
REMARK SMILES IDX 24 24 25 25 26 26 27 27 28 28 29 29 30 30 91 31 31 32 90 33
REMARK SMILES IDX 32 34 33 35 34 36 84 37 35 38 89 39 83 40 85 41 36 42 88 43
REMARK SMILES IDX 82 44 81 45 37 47 69 48 49 49 68 50 50 51 53 52 67 53 86 54
REMARK SMILES IDX 51 55 52 56 66 58 87 59 54 60 38 61 39 62 47 63 40 64 41 65
REMARK SMILES IDX 45 66 48 67 42 68 43 69 46 70 44 71 70 72 71 73 79 74 72 75
REMARK SMILES IDX 73 76 77 77 80 78 74 79 75 80 78 81 76 82 55 83 56 84 64 85
REMARK SMILES IDX 57 86 58 87 62 88 65 89 59 90 60 91 63 92 61 93
REMARK H PARENT 85 46 53 57
REMARK Flexibility Score: inf
ROOT
ATOM      1  O   UNL A   1      31.362  27.222  26.796  1.00  0.00    -0.374 OA
ENDROOT
BRANCH   1   2
ATOM      2  C   UNL A   1      32.297  26.452  26.039  1.00  0.00     0.202 C 
BRANCH   2   3
ATOM      3  C   UNL A   1      32.504  26.894  24.588  1.00  0.00     0.261 C 
BRANCH   3   4
ATOM      4  O   UNL A   1      33.779  26.449  24.090  1.00  0.00    -0.460 OA
BRANCH   4   5
ATOM      5  C   UNL A   1      33.713  25.449  23.180  1.00  0.00     0.342 C 
ATOM      6  O   UNL A   1      33.529  25.566  21.977  1.00  0.00    -0.246 OA
BRANCH   5   7
ATOM      7  C   UNL A   1      34.085  24.157  23.786  1.00  0.00     0.105 A 
ATOM      8  C   UNL A   1      33.310  22.999  23.692  1.00  0.00     0.164 A 
ATOM      9  C   UNL A   1      33.827  21.785  24.169  1.00  0.00     0.085 A 
ATOM     10  Cl  UNL A   1      32.990  20.290  23.939  1.00  0.00    -0.080 Cl
ATOM     11  C   UNL A   1      35.079  21.746  24.792  1.00  0.00     0.033 A 
ATOM     12  C   UNL A   1      35.338  24.110  24.421  1.00  0.00     0.028 A 
ATOM     13  C   UNL A   1      35.846  22.910  24.934  1.00  0.00    -0.016 A 
BRANCH   8  14
ATOM     14  O   UNL A   1      32.081  23.025  23.025  1.00  0.00    -0.424 OA
BRANCH  14  15
ATOM     15  C   UNL A   1      31.076  23.629  23.776  1.00  0.00     0.308 C 
ATOM     16  C   UNL A   1      31.032  23.013  25.144  1.00  0.00     0.139 C 
ATOM     17  O   UNL A   1      30.318  24.513  23.399  1.00  0.00    -0.252 OA
ENDBRANCH  14  15
ENDBRANCH   8  14
BRANCH  13  18
ATOM     18  C   UNL A   1      37.182  22.865  25.531  1.00  0.00    -0.018 A 
ATOM     19  C   UNL A   1      37.694  23.992  26.193  1.00  0.00     0.009 A 
ATOM     20  C   UNL A   1      37.967  21.704  25.481  1.00  0.00     0.009 A 
ATOM     21  C   UNL A   1      38.955  23.960  26.790  1.00  0.00     0.001 A 
ATOM     22  C   UNL A   1      39.231  21.673  26.075  1.00  0.00     0.001 A 
ATOM     23  C   UNL A   1      39.723  22.800  26.730  1.00  0.00     0.000 A 
ENDBRANCH  13  18
ENDBRANCH   5   7
ENDBRANCH   4   5
ENDBRANCH   3   4
ENDBRANCH   2   3
ENDBRANCH   1   2
BRANCH   1  24
ATOM     24  C   UNL A   1      31.882  28.302  27.574  1.00  0.00     0.202 C 
BRANCH  24  25
ATOM     25  C   UNL A   1      31.808  29.695  26.938  1.00  0.00     0.261 C 
BRANCH  25  26
ATOM     26  O   UNL A   1      33.097  30.177  26.524  1.00  0.00    -0.460 OA
BRANCH  26  27
ATOM     27  C   UNL A   1      33.572  31.216  27.248  1.00  0.00     0.338 C 
ATOM     28  O   UNL A   1      32.948  32.193  27.640  1.00  0.00    -0.246 OA
BRANCH  27  29
ATOM     29  C   UNL A   1      34.959  30.957  27.674  1.00  0.00     0.060 A 
ATOM     30  C   UNL A   1      35.326  29.618  27.864  1.00  0.00     0.016 A 
ATOM     31  C   UNL A   1      35.860  31.985  27.964  1.00  0.00     0.016 A 
ATOM     32  C   UNL A   1      36.571  29.306  28.403  1.00  0.00     0.010 A 
ATOM     33  C   UNL A   1      37.110  31.669  28.514  1.00  0.00     0.010 A 
ATOM     34  C   UNL A   1      37.456  30.329  28.771  1.00  0.00    -0.014 A 
BRANCH  34  35
ATOM     35  C   UNL A   1      38.675  29.971  29.538  1.00  0.00     0.031 A 
ATOM     36  C   UNL A   1      38.867  30.531  30.922  1.00  0.00     0.074 A 
ATOM     37  C   UNL A   1      39.552  29.078  29.044  1.00  0.00     0.049 A 
ATOM     38  N   UNL A   1      39.806  30.274  31.798  1.00  0.00    -0.248 NA
ATOM     39  C   UNL A   1      37.864  31.504  31.383  1.00  0.00     0.031 C 
ATOM     40  C   UNL A   1      39.462  28.444  27.730  1.00  0.00     0.029 A 
ATOM     41  N   UNL A   1      40.686  28.540  29.601  1.00  0.00    -0.354 N 
ATOM     42  C   UNL A   1      39.496  31.034  32.918  1.00  0.00     0.074 A 
ATOM     43  C   UNL A   1      38.310  31.798  32.596  1.00  0.00     0.031 C 
ATOM     44  C   UNL A   1      40.494  27.595  27.584  1.00  0.00     0.029 A 
ATOM     45  C   UNL A   1      41.324  27.638  28.787  1.00  0.00     0.049 A 
ATOM     46  H   UNL A   1      41.010  28.777  30.500  1.00  0.00     0.167 HD
ATOM     47  C   UNL A   1      40.130  31.077  34.115  1.00  0.00     0.037 A 
ATOM     48  C   UNL A   1      42.450  26.927  28.992  1.00  0.00     0.037 A 
ATOM     49  C   UNL A   1      41.316  30.328  34.438  1.00  0.00     0.049 A 
ATOM     50  C   UNL A   1      43.166  27.040  30.313  1.00  0.00     0.074 A 
ATOM     51  C   UNL A   1      42.042  30.321  35.616  1.00  0.00     0.029 A 
ATOM     52  N   UNL A   1      41.952  29.449  33.573  1.00  0.00    -0.354 N 
ATOM     53  N   UNL A   1      42.848  27.742  31.373  1.00  0.00    -0.248 NA
ATOM     54  C   UNL A   1      44.393  26.244  30.469  1.00  0.00     0.031 C 
ATOM     55  C   UNL A   1      43.136  29.464  35.454  1.00  0.00     0.029 A 
ATOM     56  C   UNL A   1      43.067  28.903  34.190  1.00  0.00     0.049 A 
ATOM     57  H   UNL A   1      41.656  29.244  32.657  1.00  0.00     0.167 HD
ATOM     58  C   UNL A   1      43.816  27.452  32.327  1.00  0.00     0.074 A 
ATOM     59  C   UNL A   1      44.718  26.492  31.729  1.00  0.00     0.031 C 
ATOM     60  C   UNL A   1      43.949  27.941  33.585  1.00  0.00     0.037 A 
BRANCH  47  61
ATOM     61  C   UNL A   1      39.551  31.965  35.176  1.00  0.00     0.064 A 
ATOM     62  C   UNL A   1      38.681  31.459  36.154  1.00  0.00     0.173 A 
ATOM     63  C   UNL A   1      39.913  33.317  35.254  1.00  0.00     0.173 A 
ATOM     64  F   UNL A   1      38.296  30.174  36.114  1.00  0.00    -0.203 F 
ATOM     65  C   UNL A   1      38.187  32.278  37.165  1.00  0.00     0.198 A 
ATOM     66  C   UNL A   1      39.435  34.128  36.279  1.00  0.00     0.198 A 
ATOM     67  F   UNL A   1      40.744  33.848  34.344  1.00  0.00    -0.203 F 
ATOM     68  F   UNL A   1      37.336  31.781  38.073  1.00  0.00    -0.200 F 
ATOM     69  C   UNL A   1      38.571  33.609  37.233  1.00  0.00     0.200 A 
ATOM     70  F   UNL A   1      39.816  35.411  36.351  1.00  0.00    -0.200 F 
ATOM     71  F   UNL A   1      38.106  34.394  38.215  1.00  0.00    -0.200 F 
ENDBRANCH  47  61
BRANCH  48  72
ATOM     72  C   UNL A   1      42.981  26.038  27.925  1.00  0.00     0.064 A 
ATOM     73  C   UNL A   1      42.711  24.662  27.925  1.00  0.00     0.173 A 
ATOM     74  C   UNL A   1      43.815  26.539  26.916  1.00  0.00     0.173 A 
ATOM     75  F   UNL A   1      41.938  24.131  28.884  1.00  0.00    -0.203 F 
ATOM     76  C   UNL A   1      43.283  23.816  26.977  1.00  0.00     0.198 A 
ATOM     77  C   UNL A   1      44.364  25.698  25.951  1.00  0.00     0.198 A 
ATOM     78  F   UNL A   1      44.105  27.848  26.872  1.00  0.00    -0.203 F 
ATOM     79  F   UNL A   1      43.060  22.497  27.037  1.00  0.00    -0.200 F 
ATOM     80  C   UNL A   1      44.107  24.335  25.989  1.00  0.00     0.200 A 
ATOM     81  F   UNL A   1      45.151  26.204  24.992  1.00  0.00    -0.200 F 
ATOM     82  F   UNL A   1      44.665  23.521  25.083  1.00  0.00    -0.200 F 
ENDBRANCH  48  72
BRANCH  60  83
ATOM     83  C   UNL A   1      45.094  27.417  34.403  1.00  0.00     0.064 A 
ATOM     84  C   UNL A   1      44.970  26.258  35.183  1.00  0.00     0.173 A 
ATOM     85  C   UNL A   1      46.330  28.081  34.403  1.00  0.00     0.173 A 
ATOM     86  F   UNL A   1      43.804  25.596  35.228  1.00  0.00    -0.203 F 
ATOM     87  C   UNL A   1      46.031  25.804  35.964  1.00  0.00     0.198 A 
ATOM     88  C   UNL A   1      47.398  27.608  35.162  1.00  0.00     0.198 A 
ATOM     89  F   UNL A   1      46.504  29.190  33.667  1.00  0.00    -0.203 F 
ATOM     90  F   UNL A   1      45.870  24.730  36.750  1.00  0.00    -0.200 F 
ATOM     91  C   UNL A   1      47.244  26.477  35.950  1.00  0.00     0.200 A 
ATOM     92  F   UNL A   1      48.573  28.252  35.138  1.00  0.00    -0.200 F 
ATOM     93  F   UNL A   1      48.261  26.042  36.707  1.00  0.00    -0.200 F 
ENDBRANCH  60  83
ENDBRANCH  34  35
ENDBRANCH  27  29
ENDBRANCH  26  27
ENDBRANCH  25  26
ENDBRANCH  24  25
ENDBRANCH   1  24
TORSDOF 17
ENDMDL
