MODEL 1
REMARK VINA RESULT:      -7.9      0.000      0.000
REMARK SMILES O=C(OCCOCCOC(=O)c1ccccc1/C=C1\SC(=S)N(Cc2ccccc2)C1=O)c1ccc(-c2c3nc(c(-c4c(F)c(F)c(F)c(F)c4F)c4ccc([nH]4)c(-c4c(F)c(F)c(F)c(F)c4F)c4nc(c(-c5c(F)c(F)c(F)c(F)c5F)c5ccc2[nH]5)C=C4)C=C3)cc1
REMARK SMILES IDX 7 1 6 2 5 3 4 4 3 5 2 6 1 7 33 8 34 9 95 10 35 11 94 12
REMARK SMILES IDX 36 13 37 14 38 15 88 16 39 17 93 18 87 19 89 20 40 21 92 22
REMARK SMILES IDX 86 23 85 24 41 26 73 27 53 28 72 29 54 30 57 31 71 32 90 33
REMARK SMILES IDX 55 34 56 35 70 37 91 38 58 39 42 40 43 41 51 42 44 43 45 44
REMARK SMILES IDX 49 45 52 46 46 47 47 48 50 49 48 50 74 51 75 52 83 53 76 54
REMARK SMILES IDX 77 55 81 56 84 57 78 58 79 59 82 60 80 61 59 62 60 63 68 64
REMARK SMILES IDX 61 65 62 66 66 67 69 68 63 69 64 70 67 71 65 72 8 73 9 74
REMARK SMILES IDX 10 75 11 76 12 77 13 78 17 79 14 80 16 81 15 82 18 83 19 84
REMARK SMILES IDX 20 85 31 86 21 87 23 88 32 89 22 90 24 91 25 92 26 93 30 94
REMARK SMILES IDX 27 95 29 96 28 97
REMARK H PARENT 89 25 57 36
REMARK Flexibility Score: inf
ROOT
ATOM      1  C   UNL A   1      45.215  24.312  28.042  1.00  0.00     0.202 C 
ENDROOT
BRANCH   1   2
ATOM      2  O   UNL A   1      45.337  24.392  26.622  1.00  0.00    -0.374 OA
BRANCH   2   3
ATOM      3  C   UNL A   1      46.573  23.934  26.076  1.00  0.00     0.202 C 
BRANCH   3   4
ATOM      4  C   UNL A   1      46.779  24.388  24.628  1.00  0.00     0.261 C 
BRANCH   4   5
ATOM      5  O   UNL A   1      47.859  25.335  24.540  1.00  0.00    -0.460 OA
BRANCH   5   6
ATOM      6  C   UNL A   1      47.814  26.686  24.617  1.00  0.00     0.338 C 
ATOM      7  O   UNL A   1      48.413  27.340  23.764  1.00  0.00    -0.246 OA
BRANCH   6   8
ATOM      8  C   UNL A   1      47.083  27.448  25.679  1.00  0.00     0.060 A 
ATOM      9  C   UNL A   1      45.723  27.745  25.656  1.00  0.00     0.016 A 
ATOM     10  C   UNL A   1      47.807  27.816  26.829  1.00  0.00     0.016 A 
ATOM     11  C   UNL A   1      45.090  28.378  26.706  1.00  0.00     0.010 A 
ATOM     12  C   UNL A   1      47.178  28.454  27.907  1.00  0.00     0.010 A 
ATOM     13  C   UNL A   1      45.812  28.734  27.837  1.00  0.00    -0.014 A 
BRANCH  13  14
ATOM     14  C   UNL A   1      45.073  29.522  28.833  1.00  0.00     0.031 A 
ATOM     15  C   UNL A   1      44.772  28.877  30.147  1.00  0.00     0.074 A 
ATOM     16  C   UNL A   1      44.944  30.847  28.638  1.00  0.00     0.049 A 
ATOM     17  N   UNL A   1      44.212  29.385  31.209  1.00  0.00    -0.248 NA
ATOM     18  C   UNL A   1      45.192  27.472  30.297  1.00  0.00     0.031 C 
ATOM     19  C   UNL A   1      45.392  31.568  27.441  1.00  0.00     0.029 A 
ATOM     20  N   UNL A   1      44.468  31.831  29.459  1.00  0.00    -0.354 N 
ATOM     21  C   UNL A   1      44.203  28.364  32.147  1.00  0.00     0.074 A 
ATOM     22  C   UNL A   1      44.803  27.203  31.533  1.00  0.00     0.031 C 
ATOM     23  C   UNL A   1      45.193  32.883  27.620  1.00  0.00     0.029 A 
ATOM     24  C   UNL A   1      44.541  33.087  28.908  1.00  0.00     0.049 A 
ATOM     25  H   UNL A   1      44.107  31.656  30.358  1.00  0.00     0.167 HD
ATOM     26  C   UNL A   1      43.725  28.407  33.411  1.00  0.00     0.037 A 
ATOM     27  C   UNL A   1      44.087  34.260  29.387  1.00  0.00     0.037 A 
ATOM     28  C   UNL A   1      43.123  29.581  33.979  1.00  0.00     0.049 A 
ATOM     29  C   UNL A   1      43.440  34.245  30.747  1.00  0.00     0.074 A 
ATOM     30  C   UNL A   1      42.484  29.731  35.195  1.00  0.00     0.029 A 
ATOM     31  N   UNL A   1      43.095  30.822  33.352  1.00  0.00    -0.354 N 
ATOM     32  N   UNL A   1      43.320  33.250  31.595  1.00  0.00    -0.248 NA
ATOM     33  C   UNL A   1      42.853  35.506  31.213  1.00  0.00     0.031 C 
ATOM     34  C   UNL A   1      42.035  31.053  35.283  1.00  0.00     0.029 A 
ATOM     35  C   UNL A   1      42.440  31.741  34.149  1.00  0.00     0.049 A 
ATOM     36  H   UNL A   1      43.485  31.016  32.469  1.00  0.00     0.167 HD
ATOM     37  C   UNL A   1      42.651  33.762  32.696  1.00  0.00     0.074 A 
ATOM     38  C   UNL A   1      42.427  35.169  32.422  1.00  0.00     0.031 C 
ATOM     39  C   UNL A   1      42.244  33.133  33.827  1.00  0.00     0.037 A 
BRANCH  26  40
ATOM     40  C   UNL A   1      43.768  27.132  34.198  1.00  0.00     0.064 A 
ATOM     41  C   UNL A   1      42.620  26.357  34.425  1.00  0.00     0.173 A 
ATOM     42  C   UNL A   1      44.972  26.706  34.780  1.00  0.00     0.173 A 
ATOM     43  F   UNL A   1      41.437  26.742  33.923  1.00  0.00    -0.203 F 
ATOM     44  C   UNL A   1      42.671  25.218  35.224  1.00  0.00     0.198 A 
ATOM     45  C   UNL A   1      45.024  25.553  35.558  1.00  0.00     0.198 A 
ATOM     46  F   UNL A   1      46.095  27.420  34.608  1.00  0.00    -0.203 F 
ATOM     47  F   UNL A   1      41.551  24.527  35.478  1.00  0.00    -0.200 F 
ATOM     48  C   UNL A   1      43.873  24.815  35.786  1.00  0.00     0.200 A 
ATOM     49  F   UNL A   1      46.187  25.166  36.102  1.00  0.00    -0.200 F 
ATOM     50  F   UNL A   1      43.920  23.724  36.564  1.00  0.00    -0.200 F 
ENDBRANCH  26  40
BRANCH  27  51
ATOM     51  C   UNL A   1      44.147  35.495  28.558  1.00  0.00     0.064 A 
ATOM     52  C   UNL A   1      45.318  36.257  28.447  1.00  0.00     0.173 A 
ATOM     53  C   UNL A   1      43.005  35.968  27.890  1.00  0.00     0.173 A 
ATOM     54  F   UNL A   1      46.434  35.868  29.081  1.00  0.00    -0.203 F 
ATOM     55  C   UNL A   1      45.335  37.454  27.728  1.00  0.00     0.198 A 
ATOM     56  C   UNL A   1      43.033  37.143  27.143  1.00  0.00     0.198 A 
ATOM     57  F   UNL A   1      41.851  35.287  27.964  1.00  0.00    -0.203 F 
ATOM     58  F   UNL A   1      46.451  38.196  27.696  1.00  0.00    -0.200 F 
ATOM     59  C   UNL A   1      44.195  37.893  27.074  1.00  0.00     0.200 A 
ATOM     60  F   UNL A   1      41.930  37.553  26.501  1.00  0.00    -0.200 F 
ATOM     61  F   UNL A   1      44.210  39.046  26.391  1.00  0.00    -0.200 F 
ENDBRANCH  27  51
BRANCH  39  62
ATOM     62  C   UNL A   1      41.540  33.980  34.844  1.00  0.00     0.064 A 
ATOM     63  C   UNL A   1      40.141  34.026  34.916  1.00  0.00     0.173 A 
ATOM     64  C   UNL A   1      42.277  34.728  35.772  1.00  0.00     0.173 A 
ATOM     65  F   UNL A   1      39.395  33.338  34.038  1.00  0.00    -0.203 F 
ATOM     66  C   UNL A   1      39.503  34.821  35.862  1.00  0.00     0.198 A 
ATOM     67  C   UNL A   1      41.636  35.494  36.739  1.00  0.00     0.198 A 
ATOM     68  F   UNL A   1      43.618  34.707  35.747  1.00  0.00    -0.203 F 
ATOM     69  F   UNL A   1      38.166  34.897  35.878  1.00  0.00    -0.200 F 
ATOM     70  C   UNL A   1      40.251  35.548  36.778  1.00  0.00     0.200 A 
ATOM     71  F   UNL A   1      42.359  36.183  37.632  1.00  0.00    -0.200 F 
ATOM     72  F   UNL A   1      39.635  36.309  37.692  1.00  0.00    -0.200 F 
ENDBRANCH  39  62
ENDBRANCH  13  14
ENDBRANCH   6   8
ENDBRANCH   5   6
ENDBRANCH   4   5
ENDBRANCH   3   4
ENDBRANCH   2   3
ENDBRANCH   1   2
BRANCH   1  73
ATOM     73  C   UNL A   1      43.814  23.824  28.364  1.00  0.00     0.261 C 
BRANCH  73  74
ATOM     74  O   UNL A   1      43.045  24.973  28.735  1.00  0.00    -0.460 OA
BRANCH  74  75
ATOM     75  C   UNL A   1      41.850  25.156  28.119  1.00  0.00     0.338 C 
ATOM     76  O   UNL A   1      40.819  24.529  28.287  1.00  0.00    -0.246 OA
BRANCH  75  77
ATOM     77  C   UNL A   1      41.986  26.353  27.254  1.00  0.00     0.067 A 
ATOM     78  C   UNL A   1      42.293  26.125  25.908  1.00  0.00     0.016 A 
ATOM     79  C   UNL A   1      41.704  27.656  27.724  1.00  0.00    -0.010 A 
ATOM     80  C   UNL A   1      42.234  27.180  25.002  1.00  0.00     0.001 A 
ATOM     81  C   UNL A   1      41.641  28.701  26.799  1.00  0.00     0.009 A 
ATOM     82  C   UNL A   1      41.895  28.460  25.445  1.00  0.00     0.001 A 
BRANCH  79  83
ATOM     83  C   UNL A   1      41.304  27.894  29.123  1.00  0.00     0.030 C 
ATOM     84  C   UNL A   1      40.075  28.273  29.510  1.00  0.00     0.081 C 
ATOM     85  S   UNL A   1      38.587  28.192  28.660  1.00  0.00    -0.054 SA
ATOM     86  C   UNL A   1      39.958  29.200  30.664  1.00  0.00     0.266 C 
ATOM     87  C   UNL A   1      37.832  29.412  29.683  1.00  0.00     0.148 C 
ATOM     88  N   UNL A   1      38.690  29.756  30.705  1.00  0.00    -0.288 N 
ATOM     89  O   UNL A   1      40.908  29.512  31.369  1.00  0.00    -0.268 OA
ATOM     90  S   UNL A   1      36.305  30.005  29.369  1.00  0.00    -0.052 S 
BRANCH  88  91
ATOM     91  C   UNL A   1      38.364  30.646  31.820  1.00  0.00     0.163 C 
BRANCH  91  92
ATOM     92  C   UNL A   1      38.520  32.081  31.366  1.00  0.00    -0.028 A 
ATOM     93  C   UNL A   1      39.714  32.524  30.787  1.00  0.00     0.005 A 
ATOM     94  C   UNL A   1      37.407  32.939  31.372  1.00  0.00     0.005 A 
ATOM     95  C   UNL A   1      39.775  33.779  30.181  1.00  0.00     0.000 A 
ATOM     96  C   UNL A   1      37.462  34.179  30.743  1.00  0.00     0.000 A 
ATOM     97  C   UNL A   1      38.645  34.595  30.140  1.00  0.00     0.000 A 
ENDBRANCH  91  92
ENDBRANCH  88  91
ENDBRANCH  79  83
ENDBRANCH  75  77
ENDBRANCH  74  75
ENDBRANCH  73  74
ENDBRANCH   1  73
TORSDOF 17
ENDMDL
MODEL 2
REMARK VINA RESULT:      -7.8      0.701      7.345
REMARK SMILES O=C(OCCOCCOC(=O)c1ccccc1/C=C1\SC(=S)N(Cc2ccccc2)C1=O)c1ccc(-c2c3nc(c(-c4c(F)c(F)c(F)c(F)c4F)c4ccc([nH]4)c(-c4c(F)c(F)c(F)c(F)c4F)c4nc(c(-c5c(F)c(F)c(F)c(F)c5F)c5ccc2[nH]5)C=C4)C=C3)cc1
REMARK SMILES IDX 7 1 6 2 5 3 4 4 3 5 2 6 1 7 33 8 34 9 95 10 35 11 94 12
REMARK SMILES IDX 36 13 37 14 38 15 88 16 39 17 93 18 87 19 89 20 40 21 92 22
REMARK SMILES IDX 86 23 85 24 41 26 73 27 53 28 72 29 54 30 57 31 71 32 90 33
REMARK SMILES IDX 55 34 56 35 70 37 91 38 58 39 42 40 43 41 51 42 44 43 45 44
REMARK SMILES IDX 49 45 52 46 46 47 47 48 50 49 48 50 74 51 75 52 83 53 76 54
REMARK SMILES IDX 77 55 81 56 84 57 78 58 79 59 82 60 80 61 59 62 60 63 68 64
REMARK SMILES IDX 61 65 62 66 66 67 69 68 63 69 64 70 67 71 65 72 8 73 9 74
REMARK SMILES IDX 10 75 11 76 12 77 13 78 17 79 14 80 16 81 15 82 18 83 19 84
REMARK SMILES IDX 20 85 31 86 21 87 23 88 32 89 22 90 24 91 25 92 26 93 30 94
REMARK SMILES IDX 27 95 29 96 28 97
REMARK H PARENT 89 25 57 36
REMARK Flexibility Score: inf
ROOT
ATOM      1  C   UNL A   1      45.545  24.505  28.343  1.00  0.00     0.202 C 
ENDROOT
BRANCH   1   2
ATOM      2  O   UNL A   1      45.688  24.920  26.984  1.00  0.00    -0.374 OA
BRANCH   2   3
ATOM      3  C   UNL A   1      46.727  24.280  26.244  1.00  0.00     0.202 C 
BRANCH   3   4
ATOM      4  C   UNL A   1      46.814  24.782  24.800  1.00  0.00     0.261 C 
BRANCH   4   5
ATOM      5  O   UNL A   1      47.802  25.822  24.681  1.00  0.00    -0.460 OA
BRANCH   5   6
ATOM      6  C   UNL A   1      47.630  27.165  24.704  1.00  0.00     0.338 C 
ATOM      7  O   UNL A   1      47.935  27.809  23.701  1.00  0.00    -0.246 OA
BRANCH   6   8
ATOM      8  C   UNL A   1      47.095  27.929  25.876  1.00  0.00     0.060 A 
ATOM      9  C   UNL A   1      47.867  28.436  26.918  1.00  0.00     0.016 A 
ATOM     10  C   UNL A   1      45.721  28.233  25.880  1.00  0.00     0.016 A 
ATOM     11  C   UNL A   1      47.325  29.205  27.927  1.00  0.00     0.010 A 
ATOM     12  C   UNL A   1      45.156  29.019  26.894  1.00  0.00     0.010 A 
ATOM     13  C   UNL A   1      45.969  29.503  27.921  1.00  0.00    -0.014 A 
BRANCH  13  14
ATOM     14  C   UNL A   1      45.474  30.209  29.109  1.00  0.00     0.031 A 
ATOM     15  C   UNL A   1      45.157  31.664  28.973  1.00  0.00     0.074 A 
ATOM     16  C   UNL A   1      45.072  29.484  30.169  1.00  0.00     0.049 A 
ATOM     17  N   UNL A   1      44.634  32.482  29.843  1.00  0.00    -0.248 NA
ATOM     18  C   UNL A   1      45.435  32.273  27.660  1.00  0.00     0.031 C 
ATOM     19  C   UNL A   1      45.189  28.026  30.282  1.00  0.00     0.029 A 
ATOM     20  N   UNL A   1      44.426  29.856  31.315  1.00  0.00    -0.354 N 
ATOM     21  C   UNL A   1      44.530  33.701  29.190  1.00  0.00     0.074 A 
ATOM     22  C   UNL A   1      45.050  33.524  27.854  1.00  0.00     0.031 C 
ATOM     23  C   UNL A   1      44.606  27.626  31.422  1.00  0.00     0.029 A 
ATOM     24  C   UNL A   1      44.143  28.802  32.150  1.00  0.00     0.049 A 
ATOM     25  H   UNL A   1      44.186  30.788  31.522  1.00  0.00     0.167 HD
ATOM     26  C   UNL A   1      44.043  34.863  29.680  1.00  0.00     0.037 A 
ATOM     27  C   UNL A   1      43.606  28.807  33.383  1.00  0.00     0.037 A 
ATOM     28  C   UNL A   1      43.546  34.997  31.020  1.00  0.00     0.049 A 
ATOM     29  C   UNL A   1      43.194  30.140  33.951  1.00  0.00     0.074 A 
ATOM     30  C   UNL A   1      43.144  36.137  31.690  1.00  0.00     0.029 A 
ATOM     31  N   UNL A   1      43.382  33.932  31.900  1.00  0.00    -0.354 N 
ATOM     32  N   UNL A   1      43.207  31.322  33.378  1.00  0.00    -0.248 NA
ATOM     33  C   UNL A   1      42.711  30.148  35.336  1.00  0.00     0.031 C 
ATOM     34  C   UNL A   1      42.775  35.765  32.988  1.00  0.00     0.029 A 
ATOM     35  C   UNL A   1      42.896  34.388  33.111  1.00  0.00     0.049 A 
ATOM     36  H   UNL A   1      43.584  32.992  31.691  1.00  0.00     0.167 HD
ATOM     37  C   UNL A   1      42.728  32.213  34.326  1.00  0.00     0.074 A 
ATOM     38  C   UNL A   1      42.399  31.425  35.500  1.00  0.00     0.031 C 
ATOM     39  C   UNL A   1      42.583  33.560  34.249  1.00  0.00     0.037 A 
BRANCH  26  40
ATOM     40  C   UNL A   1      44.114  36.062  28.784  1.00  0.00     0.064 A 
ATOM     41  C   UNL A   1      45.248  36.888  28.733  1.00  0.00     0.173 A 
ATOM     42  C   UNL A   1      43.007  36.420  27.999  1.00  0.00     0.173 A 
ATOM     43  F   UNL A   1      46.319  36.611  29.493  1.00  0.00    -0.203 F 
ATOM     44  C   UNL A   1      45.261  38.039  27.950  1.00  0.00     0.198 A 
ATOM     45  C   UNL A   1      43.033  37.558  27.199  1.00  0.00     0.198 A 
ATOM     46  F   UNL A   1      41.893  35.673  28.024  1.00  0.00    -0.203 F 
ATOM     47  F   UNL A   1      46.331  38.847  27.964  1.00  0.00    -0.200 F 
ATOM     48  C   UNL A   1      44.156  38.372  27.181  1.00  0.00     0.200 A 
ATOM     49  F   UNL A   1      41.963  37.879  26.457  1.00  0.00    -0.200 F 
ATOM     50  F   UNL A   1      44.165  39.486  26.437  1.00  0.00    -0.200 F 
ENDBRANCH  26  40
BRANCH  27  51
ATOM     51  C   UNL A   1      43.511  27.551  34.178  1.00  0.00     0.064 A 
ATOM     52  C   UNL A   1      42.288  26.906  34.403  1.00  0.00     0.173 A 
ATOM     53  C   UNL A   1      44.655  26.991  34.774  1.00  0.00     0.173 A 
ATOM     54  F   UNL A   1      41.160  27.407  33.879  1.00  0.00    -0.203 F 
ATOM     55  C   UNL A   1      42.207  25.774  35.215  1.00  0.00     0.198 A 
ATOM     56  C   UNL A   1      44.578  25.840  35.554  1.00  0.00     0.198 A 
ATOM     57  F   UNL A   1      45.854  27.567  34.602  1.00  0.00    -0.203 F 
ATOM     58  F   UNL A   1      41.014  25.218  35.468  1.00  0.00    -0.200 F 
ATOM     59  C   UNL A   1      43.352  25.239  35.785  1.00  0.00     0.200 A 
ATOM     60  F   UNL A   1      45.692  25.321  36.090  1.00  0.00    -0.200 F 
ATOM     61  F   UNL A   1      43.273  24.157  36.572  1.00  0.00    -0.200 F 
ENDBRANCH  27  51
BRANCH  39  62
ATOM     62  C   UNL A   1      42.027  34.241  35.461  1.00  0.00     0.064 A 
ATOM     63  C   UNL A   1      42.860  34.888  36.385  1.00  0.00     0.173 A 
ATOM     64  C   UNL A   1      40.642  34.270  35.683  1.00  0.00     0.173 A 
ATOM     65  F   UNL A   1      44.192  34.873  36.222  1.00  0.00    -0.203 F 
ATOM     66  C   UNL A   1      42.327  35.511  37.509  1.00  0.00     0.198 A 
ATOM     67  C   UNL A   1      40.111  34.924  36.788  1.00  0.00     0.198 A 
ATOM     68  F   UNL A   1      39.807  33.672  34.821  1.00  0.00    -0.203 F 
ATOM     69  F   UNL A   1      43.143  36.074  38.410  1.00  0.00    -0.200 F 
ATOM     70  C   UNL A   1      40.953  35.536  37.705  1.00  0.00     0.200 A 
ATOM     71  F   UNL A   1      38.785  34.960  36.969  1.00  0.00    -0.200 F 
ATOM     72  F   UNL A   1      40.442  36.141  38.785  1.00  0.00    -0.200 F 
ENDBRANCH  39  62
ENDBRANCH  13  14
ENDBRANCH   6   8
ENDBRANCH   5   6
ENDBRANCH   4   5
ENDBRANCH   3   4
ENDBRANCH   2   3
ENDBRANCH   1   2
BRANCH   1  73
ATOM     73  C   UNL A   1      44.081  24.184  28.581  1.00  0.00     0.261 C 
BRANCH  73  74
ATOM     74  O   UNL A   1      43.411  25.426  28.816  1.00  0.00    -0.460 OA
BRANCH  74  75
ATOM     75  C   UNL A   1      42.154  25.565  28.324  1.00  0.00     0.338 C 
ATOM     76  O   UNL A   1      41.147  24.975  28.672  1.00  0.00    -0.246 OA
BRANCH  75  77
ATOM     77  C   UNL A   1      42.194  26.666  27.331  1.00  0.00     0.067 A 
ATOM     78  C   UNL A   1      42.433  26.306  26.001  1.00  0.00     0.016 A 
ATOM     79  C   UNL A   1      41.889  28.003  27.679  1.00  0.00    -0.010 A 
ATOM     80  C   UNL A   1      42.282  27.254  24.994  1.00  0.00     0.001 A 
ATOM     81  C   UNL A   1      41.734  28.940  26.654  1.00  0.00     0.009 A 
ATOM     82  C   UNL A   1      41.920  28.563  25.320  1.00  0.00     0.001 A 
BRANCH  79  83
ATOM     83  C   UNL A   1      41.561  28.376  29.066  1.00  0.00     0.030 C 
ATOM     84  C   UNL A   1      40.318  28.618  29.516  1.00  0.00     0.081 C 
ATOM     85  S   UNL A   1      38.805  28.195  28.830  1.00  0.00    -0.054 SA
ATOM     86  C   UNL A   1      40.139  29.673  30.545  1.00  0.00     0.266 C 
ATOM     87  C   UNL A   1      37.940  29.422  29.753  1.00  0.00     0.148 C 
ATOM     88  N   UNL A   1      38.804  30.034  30.634  1.00  0.00    -0.288 N 
ATOM     89  O   UNL A   1      41.076  30.222  31.110  1.00  0.00    -0.268 OA
ATOM     90  S   UNL A   1      36.318  29.729  29.511  1.00  0.00    -0.052 S 
BRANCH  88  91
ATOM     91  C   UNL A   1      38.423  31.015  31.650  1.00  0.00     0.163 C 
BRANCH  91  92
ATOM     92  C   UNL A   1      38.613  32.407  31.086  1.00  0.00    -0.028 A 
ATOM     93  C   UNL A   1      39.464  33.324  31.713  1.00  0.00     0.005 A 
ATOM     94  C   UNL A   1      38.064  32.733  29.835  1.00  0.00     0.005 A 
ATOM     95  C   UNL A   1      39.797  34.519  31.075  1.00  0.00     0.000 A 
ATOM     96  C   UNL A   1      38.419  33.913  29.189  1.00  0.00     0.000 A 
ATOM     97  C   UNL A   1      39.293  34.801  29.807  1.00  0.00     0.000 A 
ENDBRANCH  91  92
ENDBRANCH  88  91
ENDBRANCH  79  83
ENDBRANCH  75  77
ENDBRANCH  74  75
ENDBRANCH  73  74
ENDBRANCH   1  73
TORSDOF 17
ENDMDL
MODEL 3
REMARK VINA RESULT:      -7.8      3.395      6.000
REMARK SMILES O=C(OCCOCCOC(=O)c1ccccc1/C=C1\SC(=S)N(Cc2ccccc2)C1=O)c1ccc(-c2c3nc(c(-c4c(F)c(F)c(F)c(F)c4F)c4ccc([nH]4)c(-c4c(F)c(F)c(F)c(F)c4F)c4nc(c(-c5c(F)c(F)c(F)c(F)c5F)c5ccc2[nH]5)C=C4)C=C3)cc1
REMARK SMILES IDX 7 1 6 2 5 3 4 4 3 5 2 6 1 7 33 8 34 9 95 10 35 11 94 12
REMARK SMILES IDX 36 13 37 14 38 15 88 16 39 17 93 18 87 19 89 20 40 21 92 22
REMARK SMILES IDX 86 23 85 24 41 26 73 27 53 28 72 29 54 30 57 31 71 32 90 33
REMARK SMILES IDX 55 34 56 35 70 37 91 38 58 39 42 40 43 41 51 42 44 43 45 44
REMARK SMILES IDX 49 45 52 46 46 47 47 48 50 49 48 50 74 51 75 52 83 53 76 54
REMARK SMILES IDX 77 55 81 56 84 57 78 58 79 59 82 60 80 61 59 62 60 63 68 64
REMARK SMILES IDX 61 65 62 66 66 67 69 68 63 69 64 70 67 71 65 72 8 73 9 74
REMARK SMILES IDX 10 75 11 76 12 77 13 78 17 79 14 80 16 81 15 82 18 83 19 84
REMARK SMILES IDX 20 85 31 86 21 87 23 88 32 89 22 90 24 91 25 92 26 93 30 94
REMARK SMILES IDX 27 95 29 96 28 97
REMARK H PARENT 89 25 57 36
REMARK Flexibility Score: inf
ROOT
ATOM      1  C   UNL A   1      50.585  28.951  30.465  1.00  0.00     0.202 C 
ENDROOT
BRANCH   1   2
ATOM      2  O   UNL A   1      51.702  28.372  29.790  1.00  0.00    -0.374 OA
BRANCH   2   3
ATOM      3  C   UNL A   1      52.068  28.985  28.554  1.00  0.00     0.202 C 
BRANCH   3   4
ATOM      4  C   UNL A   1      53.038  30.156  28.745  1.00  0.00     0.261 C 
BRANCH   4   5
ATOM      5  O   UNL A   1      52.928  31.091  27.656  1.00  0.00    -0.460 OA
BRANCH   5   6
ATOM      6  C   UNL A   1      52.093  32.148  27.524  1.00  0.00     0.338 C 
ATOM      7  O   UNL A   1      52.563  33.217  27.137  1.00  0.00    -0.246 OA
BRANCH   6   8
ATOM      8  C   UNL A   1      50.626  32.110  27.823  1.00  0.00     0.060 A 
ATOM      9  C   UNL A   1      49.642  31.684  26.935  1.00  0.00     0.016 A 
ATOM     10  C   UNL A   1      50.220  32.446  29.128  1.00  0.00     0.016 A 
ATOM     11  C   UNL A   1      48.314  31.592  27.298  1.00  0.00     0.010 A 
ATOM     12  C   UNL A   1      48.877  32.351  29.515  1.00  0.00     0.010 A 
ATOM     13  C   UNL A   1      47.923  31.922  28.589  1.00  0.00    -0.014 A 
BRANCH  13  14
ATOM     14  C   UNL A   1      46.474  31.920  28.829  1.00  0.00     0.031 A 
ATOM     15  C   UNL A   1      45.864  30.678  29.392  1.00  0.00     0.074 A 
ATOM     16  C   UNL A   1      45.814  33.092  28.795  1.00  0.00     0.049 A 
ATOM     17  N   UNL A   1      44.634  30.456  29.766  1.00  0.00    -0.248 NA
ATOM     18  C   UNL A   1      46.774  29.537  29.597  1.00  0.00     0.031 C 
ATOM     19  C   UNL A   1      46.410  34.382  28.427  1.00  0.00     0.029 A 
ATOM     20  N   UNL A   1      44.529  33.406  29.138  1.00  0.00    -0.354 N 
ATOM     21  C   UNL A   1      44.620  29.153  30.238  1.00  0.00     0.074 A 
ATOM     22  C   UNL A   1      45.957  28.625  30.099  1.00  0.00     0.031 C 
ATOM     23  C   UNL A   1      45.497  35.351  28.592  1.00  0.00     0.029 A 
ATOM     24  C   UNL A   1      44.238  34.742  29.004  1.00  0.00     0.049 A 
ATOM     25  H   UNL A   1      43.875  32.740  29.449  1.00  0.00     0.167 HD
ATOM     26  C   UNL A   1      43.569  28.466  30.739  1.00  0.00     0.037 A 
ATOM     27  C   UNL A   1      43.065  35.383  29.163  1.00  0.00     0.037 A 
ATOM     28  C   UNL A   1      42.251  29.026  30.848  1.00  0.00     0.049 A 
ATOM     29  C   UNL A   1      41.882  34.558  29.596  1.00  0.00     0.074 A 
ATOM     30  C   UNL A   1      41.070  28.410  31.214  1.00  0.00     0.029 A 
ATOM     31  N   UNL A   1      41.948  30.359  30.588  1.00  0.00    -0.354 N 
ATOM     32  N   UNL A   1      41.836  33.289  29.930  1.00  0.00    -0.248 NA
ATOM     33  C   UNL A   1      40.586  35.244  29.660  1.00  0.00     0.031 C 
ATOM     34  C   UNL A   1      40.047  29.361  31.136  1.00  0.00     0.029 A 
ATOM     35  C   UNL A   1      40.597  30.583  30.774  1.00  0.00     0.049 A 
ATOM     36  H   UNL A   1      42.600  31.042  30.312  1.00  0.00     0.167 HD
ATOM     37  C   UNL A   1      40.514  33.024  30.251  1.00  0.00     0.074 A 
ATOM     38  C   UNL A   1      39.797  34.277  30.107  1.00  0.00     0.031 C 
ATOM     39  C   UNL A   1      39.933  31.853  30.618  1.00  0.00     0.037 A 
BRANCH  26  40
ATOM     40  C   UNL A   1      43.807  27.034  31.112  1.00  0.00     0.064 A 
ATOM     41  C   UNL A   1      44.050  26.641  32.437  1.00  0.00     0.173 A 
ATOM     42  C   UNL A   1      43.843  26.045  30.117  1.00  0.00     0.173 A 
ATOM     43  F   UNL A   1      44.065  27.554  33.420  1.00  0.00    -0.203 F 
ATOM     44  C   UNL A   1      44.345  25.316  32.748  1.00  0.00     0.198 A 
ATOM     45  C   UNL A   1      44.114  24.717  30.436  1.00  0.00     0.198 A 
ATOM     46  F   UNL A   1      43.633  26.371  28.833  1.00  0.00    -0.203 F 
ATOM     47  F   UNL A   1      44.635  24.973  34.012  1.00  0.00    -0.200 F 
ATOM     48  C   UNL A   1      44.373  24.355  31.749  1.00  0.00     0.200 A 
ATOM     49  F   UNL A   1      44.141  23.790  29.468  1.00  0.00    -0.200 F 
ATOM     50  F   UNL A   1      44.667  23.082  32.047  1.00  0.00    -0.200 F 
ENDBRANCH  26  40
BRANCH  27  51
ATOM     51  C   UNL A   1      42.937  36.829  28.832  1.00  0.00     0.064 A 
ATOM     52  C   UNL A   1      42.399  37.266  27.613  1.00  0.00     0.173 A 
ATOM     53  C   UNL A   1      43.400  37.813  29.722  1.00  0.00     0.173 A 
ATOM     54  F   UNL A   1      41.962  36.371  26.715  1.00  0.00    -0.203 F 
ATOM     55  C   UNL A   1      42.358  38.622  27.287  1.00  0.00     0.198 A 
ATOM     56  C   UNL A   1      43.324  39.169  29.410  1.00  0.00     0.198 A 
ATOM     57  F   UNL A   1      43.932  37.458  30.901  1.00  0.00    -0.203 F 
ATOM     58  F   UNL A   1      41.900  39.006  26.087  1.00  0.00    -0.200 F 
ATOM     59  C   UNL A   1      42.816  39.572  28.187  1.00  0.00     0.200 A 
ATOM     60  F   UNL A   1      43.757  40.081  30.292  1.00  0.00    -0.200 F 
ATOM     61  F   UNL A   1      42.784  40.874  27.869  1.00  0.00    -0.200 F 
ENDBRANCH  27  51
BRANCH  39  62
ATOM     62  C   UNL A   1      38.463  31.900  30.905  1.00  0.00     0.064 A 
ATOM     63  C   UNL A   1      37.977  32.105  32.204  1.00  0.00     0.173 A 
ATOM     64  C   UNL A   1      37.535  31.766  29.862  1.00  0.00     0.173 A 
ATOM     65  F   UNL A   1      38.828  32.223  33.234  1.00  0.00    -0.203 F 
ATOM     66  C   UNL A   1      36.609  32.140  32.454  1.00  0.00     0.198 A 
ATOM     67  C   UNL A   1      36.170  31.837  30.111  1.00  0.00     0.198 A 
ATOM     68  F   UNL A   1      37.955  31.577  28.603  1.00  0.00    -0.203 F 
ATOM     69  F   UNL A   1      36.164  32.279  33.710  1.00  0.00    -0.200 F 
ATOM     70  C   UNL A   1      35.707  32.014  31.407  1.00  0.00     0.200 A 
ATOM     71  F   UNL A   1      35.300  31.730  29.098  1.00  0.00    -0.200 F 
ATOM     72  F   UNL A   1      34.390  32.053  31.649  1.00  0.00    -0.200 F 
ENDBRANCH  39  62
ENDBRANCH  13  14
ENDBRANCH   6   8
ENDBRANCH   5   6
ENDBRANCH   4   5
ENDBRANCH   3   4
ENDBRANCH   2   3
ENDBRANCH   1   2
BRANCH   1  73
ATOM     73  C   UNL A   1      49.615  27.834  30.806  1.00  0.00     0.261 C 
BRANCH  73  74
ATOM     74  O   UNL A   1      49.974  26.707  30.001  1.00  0.00    -0.460 OA
BRANCH  74  75
ATOM     75  C   UNL A   1      49.031  26.207  29.163  1.00  0.00     0.338 C 
ATOM     76  O   UNL A   1      47.889  25.880  29.433  1.00  0.00    -0.246 OA
BRANCH  75  77
ATOM     77  C   UNL A   1      49.610  26.226  27.797  1.00  0.00     0.067 A 
ATOM     78  C   UNL A   1      50.843  25.586  27.628  1.00  0.00     0.016 A 
ATOM     79  C   UNL A   1      48.906  26.753  26.690  1.00  0.00    -0.010 A 
ATOM     80  C   UNL A   1      51.343  25.388  26.345  1.00  0.00     0.001 A 
ATOM     81  C   UNL A   1      49.419  26.537  25.409  1.00  0.00     0.009 A 
ATOM     82  C   UNL A   1      50.626  25.849  25.239  1.00  0.00     0.001 A 
BRANCH  79  83
ATOM     83  C   UNL A   1      47.572  27.358  26.850  1.00  0.00     0.030 C 
ATOM     84  C   UNL A   1      46.414  26.728  26.594  1.00  0.00     0.081 C 
ATOM     85  S   UNL A   1      46.093  25.051  26.435  1.00  0.00    -0.054 SA
ATOM     86  C   UNL A   1      45.296  27.521  26.024  1.00  0.00     0.266 C 
ATOM     87  C   UNL A   1      44.596  25.328  25.547  1.00  0.00     0.148 C 
ATOM     88  N   UNL A   1      44.328  26.679  25.500  1.00  0.00    -0.288 N 
ATOM     89  O   UNL A   1      45.327  28.740  25.919  1.00  0.00    -0.268 OA
ATOM     90  S   UNL A   1      43.715  24.074  24.890  1.00  0.00    -0.052 S 
BRANCH  88  91
ATOM     91  C   UNL A   1      43.112  27.282  24.955  1.00  0.00     0.163 C 
BRANCH  91  92
ATOM     92  C   UNL A   1      42.101  27.444  26.070  1.00  0.00    -0.028 A 
ATOM     93  C   UNL A   1      41.845  28.702  26.628  1.00  0.00     0.005 A 
ATOM     94  C   UNL A   1      41.290  26.359  26.439  1.00  0.00     0.005 A 
ATOM     95  C   UNL A   1      40.768  28.877  27.497  1.00  0.00     0.000 A 
ATOM     96  C   UNL A   1      40.199  26.541  27.285  1.00  0.00     0.000 A 
ATOM     97  C   UNL A   1      39.935  27.803  27.806  1.00  0.00     0.000 A 
ENDBRANCH  91  92
ENDBRANCH  88  91
ENDBRANCH  79  83
ENDBRANCH  75  77
ENDBRANCH  74  75
ENDBRANCH  73  74
ENDBRANCH   1  73
TORSDOF 17
ENDMDL
