MODEL 1
REMARK VINA RESULT:     -10.7      0.000      0.000
REMARK SMILES O=C(N[C@@H](Cc1c[nH]c2ccccc12)C(=O)N[C@@H](CS)C(=O)N[C@@H](CO)C(=O)OCCOCCOC(=O)c1ccc(-c2c3nc(c(-c4c(F)c(F)c(F)c(F)c4F)c4ccc([nH]4)c(-c4c(F)c(F)c(F)c(F)c4F)c4nc(c(-c5c(F)c(F)c(F)c(F)c5F)c5ccc2[nH]5)C=C4)C=C3)cc1)c1ccc(F)cc1
REMARK SMILES IDX 30 1 29 2 27 3 28 4 24 5 23 6 21 7 22 8 18 10 17 11 15 12
REMARK SMILES IDX 16 13 4 15 3 16 1 17 2 18 101 20 102 21 107 22 103 23 106 24
REMARK SMILES IDX 104 25 105 26 5 27 6 28 7 29 14 30 8 31 9 32 13 33 10 35
REMARK SMILES IDX 12 36 11 37 19 38 20 39 25 41 26 42 31 44 32 45 33 46 34 47
REMARK SMILES IDX 35 48 36 49 37 50 38 51 39 52 100 53 40 54 99 55 41 56 42 57
REMARK SMILES IDX 43 58 93 59 44 60 98 61 92 62 94 63 45 64 97 65 91 66 90 67
REMARK SMILES IDX 46 69 78 70 58 71 77 72 59 73 62 74 76 75 95 76 60 77 61 78
REMARK SMILES IDX 75 80 96 81 63 82 47 83 48 84 56 85 49 86 50 87 54 88 57 89
REMARK SMILES IDX 51 90 52 91 55 92 53 93 79 94 80 95 88 96 81 97 82 98 86 99
REMARK SMILES IDX 89 100 83 101 84 102 87 103 85 104 64 105 65 106 73 107
REMARK SMILES IDX 66 108 67 109 71 110 74 111 68 112 69 113 72 114 70 115
REMARK H PARENT 23 9 17 14 3 19 8 34 20 40 26 43 94 68 62 79
REMARK Flexibility Score: inf
ROOT
ATOM      1  C   UNL A   1      39.684  22.002  25.868  1.00  0.00     0.261 C 
ENDROOT
BRANCH   1   2
ATOM      2  O   UNL A   1      38.284  21.818  26.131  1.00  0.00    -0.462 OA
BRANCH   2   3
ATOM      3  C   UNL A   1      37.572  21.232  25.128  1.00  0.00     0.331 C 
ATOM      4  O   UNL A   1      37.797  20.116  24.674  1.00  0.00    -0.250 OA
BRANCH   3   5
ATOM      5  C   UNL A   1      36.438  22.136  24.621  1.00  0.00     0.218 C 
BRANCH   5   6
ATOM      6  N   UNL A   1      36.160  23.289  25.488  1.00  0.00    -0.339 N 
ATOM      7  C   UNL A   1      35.035  24.031  25.598  1.00  0.00     0.244 C 
ATOM      8  O   UNL A   1      35.207  25.253  25.647  1.00  0.00    -0.273 OA
ATOM      9  H   UNL A   1      36.902  23.561  26.075  1.00  0.00     0.164 HD
BRANCH   7  10
ATOM     10  C   UNL A   1      33.604  23.443  25.575  1.00  0.00     0.181 C 
BRANCH  10  11
ATOM     11  N   UNL A   1      32.936  23.570  24.295  1.00  0.00    -0.342 N 
ATOM     12  C   UNL A   1      32.639  24.706  23.598  1.00  0.00     0.243 C 
ATOM     13  O   UNL A   1      32.330  24.540  22.411  1.00  0.00    -0.273 OA
ATOM     14  H   UNL A   1      32.659  22.726  23.872  1.00  0.00     0.164 HD
BRANCH  12  15
ATOM     15  C   UNL A   1      32.576  26.139  24.221  1.00  0.00     0.176 C 
BRANCH  15  16
ATOM     16  N   UNL A   1      33.097  27.147  23.295  1.00  0.00    -0.340 N 
ATOM     17  O   UNL A   1      33.686  29.181  22.561  1.00  0.00    -0.269 OA
ATOM     18  C   UNL A   1      33.458  28.448  23.519  1.00  0.00     0.251 C 
ATOM     19  H   UNL A   1      33.203  26.840  22.366  1.00  0.00     0.164 HD
BRANCH  18  20
ATOM     20  C   UNL A   1      33.561  28.989  24.890  1.00  0.00     0.040 A 
ATOM     21  C   UNL A   1      34.604  28.601  25.742  1.00  0.00     0.017 A 
ATOM     22  C   UNL A   1      32.642  29.964  25.299  1.00  0.00     0.017 A 
ATOM     23  C   UNL A   1      34.696  29.155  27.020  1.00  0.00     0.040 A 
ATOM     24  C   UNL A   1      32.742  30.518  26.578  1.00  0.00     0.040 A 
ATOM     25  C   UNL A   1      33.764  30.105  27.427  1.00  0.00     0.123 A 
ATOM     26  F   UNL A   1      33.859  30.638  28.652  1.00  0.00    -0.207 F 
ENDBRANCH  18  20
ENDBRANCH  15  16
BRANCH  15  27
ATOM     27  C   UNL A   1      31.340  26.575  25.040  1.00  0.00     0.072 C 
BRANCH  27  28
ATOM     28  C   UNL A   1      29.969  26.709  24.419  1.00  0.00    -0.020 A 
ATOM     29  C   UNL A   1      28.942  25.787  24.290  1.00  0.00     0.087 A 
ATOM     30  C   UNL A   1      29.507  27.889  23.731  1.00  0.00     0.003 A 
ATOM     31  N   UNL A   1      27.829  26.439  23.823  1.00  0.00    -0.361 N 
ATOM     32  C   UNL A   1      28.149  27.722  23.460  1.00  0.00     0.046 A 
ATOM     33  C   UNL A   1      30.119  29.095  23.327  1.00  0.00     0.010 A 
ATOM     34  H   UNL A   1      26.930  26.042  23.757  1.00  0.00     0.166 HD
ATOM     35  C   UNL A   1      27.351  28.727  22.902  1.00  0.00     0.026 A 
ATOM     36  C   UNL A   1      29.352  30.085  22.700  1.00  0.00     0.001 A 
ATOM     37  C   UNL A   1      27.982  29.912  22.517  1.00  0.00     0.002 A 
ENDBRANCH  27  28
ENDBRANCH  15  27
ENDBRANCH  12  15
ENDBRANCH  10  11
BRANCH  10  38
ATOM     38  C   UNL A   1      33.321  22.168  26.381  1.00  0.00     0.101 C 
BRANCH  38  39
ATOM     39  S   UNL A   1      32.352  20.848  25.604  1.00  0.00    -0.177 SA
ATOM     40  H   UNL A   1      33.130  19.743  25.453  1.00  0.00     0.102 HD
ENDBRANCH  38  39
ENDBRANCH  10  38
ENDBRANCH   7  10
ENDBRANCH   5   6
BRANCH   5  41
ATOM     41  C   UNL A   1      36.804  22.629  23.215  1.00  0.00     0.193 C 
BRANCH  41  42
ATOM     42  O   UNL A   1      35.711  23.336  22.624  1.00  0.00    -0.394 OA
ATOM     43  H   UNL A   1      35.358  22.822  21.881  1.00  0.00     0.210 HD
ENDBRANCH  41  42
ENDBRANCH   5  41
ENDBRANCH   3   5
ENDBRANCH   2   3
ENDBRANCH   1   2
BRANCH   1  44
ATOM     44  C   UNL A   1      40.499  21.816  27.151  1.00  0.00     0.202 C 
BRANCH  44  45
ATOM     45  O   UNL A   1      40.795  20.471  27.529  1.00  0.00    -0.374 OA
BRANCH  45  46
ATOM     46  C   UNL A   1      41.019  19.527  26.487  1.00  0.00     0.202 C 
BRANCH  46  47
ATOM     47  C   UNL A   1      42.479  19.191  26.152  1.00  0.00     0.261 C 
BRANCH  47  48
ATOM     48  O   UNL A   1      42.871  19.620  24.840  1.00  0.00    -0.460 OA
BRANCH  48  49
ATOM     49  C   UNL A   1      44.212  19.640  24.643  1.00  0.00     0.338 C 
ATOM     50  O   UNL A   1      44.913  18.740  24.212  1.00  0.00    -0.246 OA
BRANCH  49  51
ATOM     51  C   UNL A   1      44.741  20.992  24.883  1.00  0.00     0.060 A 
ATOM     52  C   UNL A   1      45.386  21.219  26.106  1.00  0.00     0.016 A 
ATOM     53  C   UNL A   1      44.506  22.041  23.993  1.00  0.00     0.016 A 
ATOM     54  C   UNL A   1      45.746  22.512  26.471  1.00  0.00     0.010 A 
ATOM     55  C   UNL A   1      44.858  23.343  24.367  1.00  0.00     0.010 A 
ATOM     56  C   UNL A   1      45.436  23.587  25.626  1.00  0.00    -0.014 A 
BRANCH  56  57
ATOM     57  C   UNL A   1      45.541  24.964  26.167  1.00  0.00     0.031 A 
ATOM     58  C   UNL A   1      46.867  25.669  26.087  1.00  0.00     0.074 A 
ATOM     59  C   UNL A   1      44.457  25.603  26.640  1.00  0.00     0.049 A 
ATOM     60  N   UNL A   1      47.184  26.891  26.434  1.00  0.00    -0.248 NA
ATOM     61  C   UNL A   1      47.989  24.893  25.535  1.00  0.00     0.031 C 
ATOM     62  C   UNL A   1      43.114  25.035  26.729  1.00  0.00     0.029 A 
ATOM     63  N   UNL A   1      44.318  26.880  27.124  1.00  0.00    -0.354 N 
ATOM     64  C   UNL A   1      48.534  27.030  26.135  1.00  0.00     0.074 A 
ATOM     65  C   UNL A   1      48.988  25.758  25.619  1.00  0.00     0.031 C 
ATOM     66  C   UNL A   1      42.283  25.964  27.232  1.00  0.00     0.029 A 
ATOM     67  C   UNL A   1      43.040  27.181  27.517  1.00  0.00     0.049 A 
ATOM     68  H   UNL A   1      45.065  27.518  27.181  1.00  0.00     0.167 HD
ATOM     69  C   UNL A   1      49.320  28.125  26.264  1.00  0.00     0.037 A 
ATOM     70  C   UNL A   1      42.542  28.314  28.050  1.00  0.00     0.037 A 
ATOM     71  C   UNL A   1      48.868  29.388  26.786  1.00  0.00     0.049 A 
ATOM     72  C   UNL A   1      43.453  29.500  28.237  1.00  0.00     0.074 A 
ATOM     73  C   UNL A   1      49.588  30.554  26.975  1.00  0.00     0.029 A 
ATOM     74  N   UNL A   1      47.571  29.646  27.205  1.00  0.00    -0.354 N 
ATOM     75  N   UNL A   1      44.723  29.628  27.937  1.00  0.00    -0.248 NA
ATOM     76  C   UNL A   1      42.854  30.706  28.827  1.00  0.00     0.031 C 
ATOM     77  C   UNL A   1      48.736  31.506  27.545  1.00  0.00     0.029 A 
ATOM     78  C   UNL A   1      47.472  30.950  27.662  1.00  0.00     0.049 A 
ATOM     79  H   UNL A   1      46.830  28.998  27.180  1.00  0.00     0.167 HD
ATOM     80  C   UNL A   1      45.065  30.935  28.264  1.00  0.00     0.074 A 
ATOM     81  C   UNL A   1      43.863  31.563  28.775  1.00  0.00     0.031 C 
ATOM     82  C   UNL A   1      46.262  31.561  28.150  1.00  0.00     0.037 A 
BRANCH  69  83
ATOM     83  C   UNL A   1      50.756  27.993  25.851  1.00  0.00     0.064 A 
ATOM     84  C   UNL A   1      51.778  27.793  26.793  1.00  0.00     0.173 A 
ATOM     85  C   UNL A   1      51.117  28.052  24.496  1.00  0.00     0.173 A 
ATOM     86  F   UNL A   1      51.489  27.747  28.102  1.00  0.00    -0.203 F 
ATOM     87  C   UNL A   1      53.109  27.683  26.396  1.00  0.00     0.198 A 
ATOM     88  C   UNL A   1      52.445  27.914  24.101  1.00  0.00     0.198 A 
ATOM     89  F   UNL A   1      50.180  28.242  23.555  1.00  0.00    -0.203 F 
ATOM     90  F   UNL A   1      54.072  27.541  27.317  1.00  0.00    -0.200 F 
ATOM     91  C   UNL A   1      53.440  27.737  25.050  1.00  0.00     0.200 A 
ATOM     92  F   UNL A   1      52.763  27.956  22.799  1.00  0.00    -0.200 F 
ATOM     93  F   UNL A   1      54.720  27.628  24.669  1.00  0.00    -0.200 F 
ENDBRANCH  69  83
BRANCH  70  94
ATOM     94  C   UNL A   1      41.108  28.394  28.431  1.00  0.00     0.064 A 
ATOM     95  C   UNL A   1      40.150  28.910  27.546  1.00  0.00     0.173 A 
ATOM     96  C   UNL A   1      40.670  27.985  29.698  1.00  0.00     0.173 A 
ATOM     97  F   UNL A   1      40.522  29.338  26.331  1.00  0.00    -0.203 F 
ATOM     98  C   UNL A   1      38.815  29.038  27.925  1.00  0.00     0.198 A 
ATOM     99  C   UNL A   1      39.330  28.086  30.066  1.00  0.00     0.198 A 
ATOM    100  F   UNL A   1      41.547  27.486  30.582  1.00  0.00    -0.203 F 
ATOM    101  F   UNL A   1      37.930  29.584  27.079  1.00  0.00    -0.200 F 
ATOM    102  C   UNL A   1      38.405  28.621  29.182  1.00  0.00     0.200 A 
ATOM    103  F   UNL A   1      38.937  27.673  31.279  1.00  0.00    -0.200 F 
ATOM    104  F   UNL A   1      37.121  28.747  29.547  1.00  0.00    -0.200 F 
ENDBRANCH  70  94
BRANCH  82 105
ATOM    105  C   UNL A   1      46.316  33.013  28.533  1.00  0.00     0.064 A 
ATOM    106  C   UNL A   1      46.026  34.033  27.615  1.00  0.00     0.173 A 
ATOM    107  C   UNL A   1      46.645  33.384  29.846  1.00  0.00     0.173 A 
ATOM    108  F   UNL A   1      45.717  33.730  26.345  1.00  0.00    -0.203 F 
ATOM    109  C   UNL A   1      46.102  35.372  27.986  1.00  0.00     0.198 A 
ATOM    110  C   UNL A   1      46.689  34.723  30.222  1.00  0.00     0.198 A 
ATOM    111  F   UNL A   1      46.921  32.448  30.765  1.00  0.00    -0.203 F 
ATOM    112  F   UNL A   1      45.881  36.331  27.077  1.00  0.00    -0.200 F 
ATOM    113  C   UNL A   1      46.430  35.716  29.290  1.00  0.00     0.200 A 
ATOM    114  F   UNL A   1      46.992  35.053  31.485  1.00  0.00    -0.200 F 
ATOM    115  F   UNL A   1      46.504  37.006  29.644  1.00  0.00    -0.200 F 
ENDBRANCH  82 105
ENDBRANCH  56  57
ENDBRANCH  49  51
ENDBRANCH  48  49
ENDBRANCH  47  48
ENDBRANCH  46  47
ENDBRANCH  45  46
ENDBRANCH  44  45
ENDBRANCH   1  44
TORSDOF 26
ENDMDL
MODEL 2
REMARK VINA RESULT:      -9.6      1.732      2.372
REMARK SMILES O=C(N[C@@H](Cc1c[nH]c2ccccc12)C(=O)N[C@@H](CS)C(=O)N[C@@H](CO)C(=O)OCCOCCOC(=O)c1ccc(-c2c3nc(c(-c4c(F)c(F)c(F)c(F)c4F)c4ccc([nH]4)c(-c4c(F)c(F)c(F)c(F)c4F)c4nc(c(-c5c(F)c(F)c(F)c(F)c5F)c5ccc2[nH]5)C=C4)C=C3)cc1)c1ccc(F)cc1
REMARK SMILES IDX 30 1 29 2 27 3 28 4 24 5 23 6 21 7 22 8 18 10 17 11 15 12
REMARK SMILES IDX 16 13 4 15 3 16 1 17 2 18 101 20 102 21 107 22 103 23 106 24
REMARK SMILES IDX 104 25 105 26 5 27 6 28 7 29 14 30 8 31 9 32 13 33 10 35
REMARK SMILES IDX 12 36 11 37 19 38 20 39 25 41 26 42 31 44 32 45 33 46 34 47
REMARK SMILES IDX 35 48 36 49 37 50 38 51 39 52 100 53 40 54 99 55 41 56 42 57
REMARK SMILES IDX 43 58 93 59 44 60 98 61 92 62 94 63 45 64 97 65 91 66 90 67
REMARK SMILES IDX 46 69 78 70 58 71 77 72 59 73 62 74 76 75 95 76 60 77 61 78
REMARK SMILES IDX 75 80 96 81 63 82 47 83 48 84 56 85 49 86 50 87 54 88 57 89
REMARK SMILES IDX 51 90 52 91 55 92 53 93 79 94 80 95 88 96 81 97 82 98 86 99
REMARK SMILES IDX 89 100 83 101 84 102 87 103 85 104 64 105 65 106 73 107
REMARK SMILES IDX 66 108 67 109 71 110 74 111 68 112 69 113 72 114 70 115
REMARK H PARENT 23 9 17 14 3 19 8 34 20 40 26 43 94 68 62 79
REMARK Flexibility Score: inf
ROOT
ATOM      1  C   UNL A   1      39.303  22.290  25.956  1.00  0.00     0.261 C 
ENDROOT
BRANCH   1   2
ATOM      2  O   UNL A   1      37.930  21.934  26.186  1.00  0.00    -0.462 OA
BRANCH   2   3
ATOM      3  C   UNL A   1      37.290  21.359  25.130  1.00  0.00     0.331 C 
ATOM      4  O   UNL A   1      37.615  20.297  24.613  1.00  0.00    -0.250 OA
BRANCH   3   5
ATOM      5  C   UNL A   1      36.097  22.200  24.651  1.00  0.00     0.218 C 
BRANCH   5   6
ATOM      6  N   UNL A   1      35.709  23.270  25.579  1.00  0.00    -0.339 N 
ATOM      7  C   UNL A   1      34.526  23.912  25.705  1.00  0.00     0.244 C 
ATOM      8  O   UNL A   1      34.598  25.138  25.833  1.00  0.00    -0.273 OA
ATOM      9  H   UNL A   1      36.414  23.562  26.201  1.00  0.00     0.164 HD
BRANCH   7  10
ATOM     10  C   UNL A   1      33.148  23.216  25.609  1.00  0.00     0.181 C 
BRANCH  10  11
ATOM     11  N   UNL A   1      32.485  23.397  24.332  1.00  0.00    -0.342 N 
ATOM     12  C   UNL A   1      32.349  24.539  23.597  1.00  0.00     0.243 C 
ATOM     13  O   UNL A   1      31.999  24.379  22.420  1.00  0.00    -0.273 OA
ATOM     14  H   UNL A   1      32.078  22.589  23.944  1.00  0.00     0.164 HD
BRANCH  12  15
ATOM     15  C   UNL A   1      32.511  25.987  24.166  1.00  0.00     0.176 C 
BRANCH  15  16
ATOM     16  N   UNL A   1      33.205  26.859  23.218  1.00  0.00    -0.340 N 
ATOM     17  O   UNL A   1      34.011  28.768  22.363  1.00  0.00    -0.269 OA
ATOM     18  C   UNL A   1      33.620  28.156  23.353  1.00  0.00     0.251 C 
ATOM     19  H   UNL A   1      33.405  26.447  22.346  1.00  0.00     0.164 HD
BRANCH  18  20
ATOM     20  C   UNL A   1      33.589  28.837  24.664  1.00  0.00     0.040 A 
ATOM     21  C   UNL A   1      32.587  29.767  24.970  1.00  0.00     0.017 A 
ATOM     22  C   UNL A   1      34.534  28.475  25.633  1.00  0.00     0.017 A 
ATOM     23  C   UNL A   1      32.562  30.369  26.230  1.00  0.00     0.040 A 
ATOM     24  C   UNL A   1      34.502  29.077  26.893  1.00  0.00     0.040 A 
ATOM     25  C   UNL A   1      33.520  30.021  27.177  1.00  0.00     0.123 A 
ATOM     26  F   UNL A   1      33.490  30.597  28.386  1.00  0.00    -0.207 F 
ENDBRANCH  18  20
ENDBRANCH  15  16
BRANCH  15  27
ATOM     27  C   UNL A   1      31.349  26.650  24.941  1.00  0.00     0.072 C 
BRANCH  27  28
ATOM     28  C   UNL A   1      29.962  26.780  24.354  1.00  0.00    -0.020 A 
ATOM     29  C   UNL A   1      28.902  25.888  24.335  1.00  0.00     0.087 A 
ATOM     30  C   UNL A   1      29.516  27.916  23.585  1.00  0.00     0.003 A 
ATOM     31  N   UNL A   1      27.796  26.539  23.850  1.00  0.00    -0.361 N 
ATOM     32  C   UNL A   1      28.145  27.775  23.373  1.00  0.00     0.046 A 
ATOM     33  C   UNL A   1      30.153  29.063  23.064  1.00  0.00     0.010 A 
ATOM     34  H   UNL A   1      26.882  26.170  23.846  1.00  0.00     0.166 HD
ATOM     35  C   UNL A   1      27.362  28.759  22.758  1.00  0.00     0.026 A 
ATOM     36  C   UNL A   1      29.398  30.024  22.381  1.00  0.00     0.001 A 
ATOM     37  C   UNL A   1      28.018  29.886  22.257  1.00  0.00     0.002 A 
ENDBRANCH  27  28
ENDBRANCH  15  27
ENDBRANCH  12  15
ENDBRANCH  10  11
BRANCH  10  38
ATOM     38  C   UNL A   1      32.961  21.859  26.301  1.00  0.00     0.101 C 
BRANCH  38  39
ATOM     39  S   UNL A   1      32.763  20.380  25.272  1.00  0.00    -0.177 SA
ATOM     40  H   UNL A   1      31.632  20.495  24.526  1.00  0.00     0.102 HD
ENDBRANCH  38  39
ENDBRANCH  10  38
ENDBRANCH   7  10
ENDBRANCH   5   6
BRANCH   5  41
ATOM     41  C   UNL A   1      36.451  22.808  23.287  1.00  0.00     0.193 C 
BRANCH  41  42
ATOM     42  O   UNL A   1      35.267  23.137  22.556  1.00  0.00    -0.394 OA
ATOM     43  H   UNL A   1      35.391  23.988  22.108  1.00  0.00     0.210 HD
ENDBRANCH  41  42
ENDBRANCH   5  41
ENDBRANCH   3   5
ENDBRANCH   2   3
ENDBRANCH   1   2
BRANCH   1  44
ATOM     44  C   UNL A   1      40.147  21.999  27.201  1.00  0.00     0.202 C 
BRANCH  44  45
ATOM     45  O   UNL A   1      40.539  20.640  27.403  1.00  0.00    -0.374 OA
BRANCH  45  46
ATOM     46  C   UNL A   1      41.053  19.928  26.282  1.00  0.00     0.202 C 
BRANCH  46  47
ATOM     47  C   UNL A   1      42.568  19.996  26.047  1.00  0.00     0.261 C 
BRANCH  47  48
ATOM     48  O   UNL A   1      42.957  21.056  25.162  1.00  0.00    -0.460 OA
BRANCH  48  49
ATOM     49  C   UNL A   1      44.298  21.201  25.030  1.00  0.00     0.338 C 
ATOM     50  O   UNL A   1      45.070  20.469  24.435  1.00  0.00    -0.246 OA
BRANCH  49  51
ATOM     51  C   UNL A   1      44.728  22.492  25.594  1.00  0.00     0.060 A 
ATOM     52  C   UNL A   1      45.114  22.505  26.940  1.00  0.00     0.016 A 
ATOM     53  C   UNL A   1      44.638  23.678  24.863  1.00  0.00     0.016 A 
ATOM     54  C   UNL A   1      45.355  23.717  27.580  1.00  0.00     0.010 A 
ATOM     55  C   UNL A   1      44.870  24.896  25.511  1.00  0.00     0.010 A 
ATOM     56  C   UNL A   1      45.182  24.920  26.883  1.00  0.00    -0.014 A 
BRANCH  56  57
ATOM     57  C   UNL A   1      45.137  26.184  27.657  1.00  0.00     0.031 A 
ATOM     58  C   UNL A   1      46.420  26.936  27.883  1.00  0.00     0.074 A 
ATOM     59  C   UNL A   1      43.966  26.695  28.073  1.00  0.00     0.049 A 
ATOM     60  N   UNL A   1      46.618  28.089  28.471  1.00  0.00    -0.248 NA
ATOM     61  C   UNL A   1      47.647  26.306  27.371  1.00  0.00     0.031 C 
ATOM     62  C   UNL A   1      42.657  26.077  27.876  1.00  0.00     0.029 A 
ATOM     63  N   UNL A   1      43.692  27.863  28.740  1.00  0.00    -0.354 N 
ATOM     64  C   UNL A   1      47.986  28.323  28.392  1.00  0.00     0.074 A 
ATOM     65  C   UNL A   1      48.575  27.175  27.738  1.00  0.00     0.031 C 
ATOM     66  C   UNL A   1      41.715  26.876  28.407  1.00  0.00     0.029 A 
ATOM     67  C   UNL A   1      42.357  28.049  28.995  1.00  0.00     0.049 A 
ATOM     68  H   UNL A   1      44.387  28.506  29.008  1.00  0.00     0.167 HD
ATOM     69  C   UNL A   1      48.684  29.404  28.812  1.00  0.00     0.037 A 
ATOM     70  C   UNL A   1      41.731  29.055  29.636  1.00  0.00     0.037 A 
ATOM     71  C   UNL A   1      48.097  30.541  29.470  1.00  0.00     0.049 A 
ATOM     72  C   UNL A   1      42.540  30.220  30.146  1.00  0.00     0.074 A 
ATOM     73  C   UNL A   1      48.718  31.680  29.951  1.00  0.00     0.029 A 
ATOM     74  N   UNL A   1      46.743  30.679  29.740  1.00  0.00    -0.354 N 
ATOM     75  N   UNL A   1      43.829  30.440  30.052  1.00  0.00    -0.248 NA
ATOM     76  C   UNL A   1      41.800  31.284  30.840  1.00  0.00     0.031 C 
ATOM     77  C   UNL A   1      47.745  32.489  30.547  1.00  0.00     0.029 A 
ATOM     78  C   UNL A   1      46.511  31.879  30.391  1.00  0.00     0.049 A 
ATOM     79  H   UNL A   1      46.050  30.021  29.503  1.00  0.00     0.167 HD
ATOM     80  C   UNL A   1      44.050  31.680  30.638  1.00  0.00     0.074 A 
ATOM     81  C   UNL A   1      42.758  32.169  31.074  1.00  0.00     0.031 C 
ATOM     82  C   UNL A   1      45.215  32.356  30.800  1.00  0.00     0.037 A 
BRANCH  69  83
ATOM     83  C   UNL A   1      50.168  29.394  28.588  1.00  0.00     0.064 A 
ATOM     84  C   UNL A   1      50.752  30.056  27.496  1.00  0.00     0.173 A 
ATOM     85  C   UNL A   1      51.020  28.728  29.482  1.00  0.00     0.173 A 
ATOM     86  F   UNL A   1      49.981  30.693  26.602  1.00  0.00    -0.203 F 
ATOM     87  C   UNL A   1      52.130  30.030  27.294  1.00  0.00     0.198 A 
ATOM     88  C   UNL A   1      52.400  28.728  29.292  1.00  0.00     0.198 A 
ATOM     89  F   UNL A   1      50.515  28.080  30.542  1.00  0.00    -0.203 F 
ATOM     90  F   UNL A   1      52.660  30.627  26.218  1.00  0.00    -0.200 F 
ATOM     91  C   UNL A   1      52.953  29.371  28.195  1.00  0.00     0.200 A 
ATOM     92  F   UNL A   1      53.195  28.099  30.169  1.00  0.00    -0.200 F 
ATOM     93  F   UNL A   1      54.279  29.349  28.002  1.00  0.00    -0.200 F 
ENDBRANCH  69  83
BRANCH  70  94
ATOM     94  C   UNL A   1      40.256  29.019  29.820  1.00  0.00     0.064 A 
ATOM     95  C   UNL A   1      39.388  29.463  28.811  1.00  0.00     0.173 A 
ATOM     96  C   UNL A   1      39.685  28.571  31.019  1.00  0.00     0.173 A 
ATOM     97  F   UNL A   1      39.886  29.925  27.655  1.00  0.00    -0.203 F 
ATOM     98  C   UNL A   1      38.009  29.483  29.006  1.00  0.00     0.198 A 
ATOM     99  C   UNL A   1      38.304  28.564  31.202  1.00  0.00     0.198 A 
ATOM    100  F   UNL A   1      40.471  28.138  32.016  1.00  0.00    -0.203 F 
ATOM    101  F   UNL A   1      37.205  29.963  28.046  1.00  0.00    -0.200 F 
ATOM    102  C   UNL A   1      37.467  29.030  30.199  1.00  0.00     0.200 A 
ATOM    103  F   UNL A   1      37.785  28.116  32.353  1.00  0.00    -0.200 F 
ATOM    104  F   UNL A   1      36.140  29.052  30.387  1.00  0.00    -0.200 F 
ENDBRANCH  70  94
BRANCH  82 105
ATOM    105  C   UNL A   1      45.134  33.720  31.425  1.00  0.00     0.064 A 
ATOM    106  C   UNL A   1      44.935  34.876  30.657  1.00  0.00     0.173 A 
ATOM    107  C   UNL A   1      45.242  33.865  32.817  1.00  0.00     0.173 A 
ATOM    108  F   UNL A   1      44.839  34.791  29.322  1.00  0.00    -0.203 F 
ATOM    109  C   UNL A   1      44.885  36.132  31.255  1.00  0.00     0.198 A 
ATOM    110  C   UNL A   1      45.158  35.119  33.415  1.00  0.00     0.198 A 
ATOM    111  F   UNL A   1      45.422  32.790  33.598  1.00  0.00    -0.203 F 
ATOM    112  F   UNL A   1      44.756  37.228  30.497  1.00  0.00    -0.200 F 
ATOM    113  C   UNL A   1      44.993  36.252  32.634  1.00  0.00     0.200 A 
ATOM    114  F   UNL A   1      45.249  35.232  34.747  1.00  0.00    -0.200 F 
ATOM    115  F   UNL A   1      44.946  37.462  33.207  1.00  0.00    -0.200 F 
ENDBRANCH  82 105
ENDBRANCH  56  57
ENDBRANCH  49  51
ENDBRANCH  48  49
ENDBRANCH  47  48
ENDBRANCH  46  47
ENDBRANCH  45  46
ENDBRANCH  44  45
ENDBRANCH   1  44
TORSDOF 26
ENDMDL
MODEL 3
REMARK VINA RESULT:      -9.2      6.635     13.521
REMARK SMILES O=C(N[C@@H](Cc1c[nH]c2ccccc12)C(=O)N[C@@H](CS)C(=O)N[C@@H](CO)C(=O)OCCOCCOC(=O)c1ccc(-c2c3nc(c(-c4c(F)c(F)c(F)c(F)c4F)c4ccc([nH]4)c(-c4c(F)c(F)c(F)c(F)c4F)c4nc(c(-c5c(F)c(F)c(F)c(F)c5F)c5ccc2[nH]5)C=C4)C=C3)cc1)c1ccc(F)cc1
REMARK SMILES IDX 30 1 29 2 27 3 28 4 24 5 23 6 21 7 22 8 18 10 17 11 15 12
REMARK SMILES IDX 16 13 4 15 3 16 1 17 2 18 101 20 102 21 107 22 103 23 106 24
REMARK SMILES IDX 104 25 105 26 5 27 6 28 7 29 14 30 8 31 9 32 13 33 10 35
REMARK SMILES IDX 12 36 11 37 19 38 20 39 25 41 26 42 31 44 32 45 33 46 34 47
REMARK SMILES IDX 35 48 36 49 37 50 38 51 39 52 100 53 40 54 99 55 41 56 42 57
REMARK SMILES IDX 43 58 93 59 44 60 98 61 92 62 94 63 45 64 97 65 91 66 90 67
REMARK SMILES IDX 46 69 78 70 58 71 77 72 59 73 62 74 76 75 95 76 60 77 61 78
REMARK SMILES IDX 75 80 96 81 63 82 47 83 48 84 56 85 49 86 50 87 54 88 57 89
REMARK SMILES IDX 51 90 52 91 55 92 53 93 79 94 80 95 88 96 81 97 82 98 86 99
REMARK SMILES IDX 89 100 83 101 84 102 87 103 85 104 64 105 65 106 73 107
REMARK SMILES IDX 66 108 67 109 71 110 74 111 68 112 69 113 72 114 70 115
REMARK H PARENT 23 9 17 14 3 19 8 34 20 40 26 43 94 68 62 79
REMARK Flexibility Score: inf
ROOT
ATOM      1  C   UNL A   1      51.111  26.743  33.719  1.00  0.00     0.261 C 
ENDROOT
BRANCH   1   2
ATOM      2  O   UNL A   1      50.742  27.100  32.377  1.00  0.00    -0.462 OA
BRANCH   2   3
ATOM      3  C   UNL A   1      50.232  26.087  31.621  1.00  0.00     0.331 C 
ATOM      4  O   UNL A   1      49.846  25.013  32.066  1.00  0.00    -0.250 OA
BRANCH   3   5
ATOM      5  C   UNL A   1      50.194  26.445  30.128  1.00  0.00     0.218 C 
BRANCH   5   6
ATOM      6  N   UNL A   1      50.312  25.287  29.232  1.00  0.00    -0.339 N 
ATOM      7  C   UNL A   1      50.568  25.249  27.905  1.00  0.00     0.244 C 
ATOM      8  O   UNL A   1      49.866  24.472  27.250  1.00  0.00    -0.273 OA
ATOM      9  H   UNL A   1      50.187  24.410  29.661  1.00  0.00     0.164 HD
BRANCH   7  10
ATOM     10  C   UNL A   1      51.593  26.164  27.194  1.00  0.00     0.181 C 
BRANCH  10  11
ATOM     11  N   UNL A   1      51.137  27.527  27.008  1.00  0.00    -0.342 N 
ATOM     12  C   UNL A   1      50.350  28.033  26.014  1.00  0.00     0.243 C 
ATOM     13  O   UNL A   1      49.867  29.152  26.232  1.00  0.00    -0.273 OA
ATOM     14  H   UNL A   1      51.435  28.173  27.688  1.00  0.00     0.164 HD
BRANCH  12  15
ATOM     15  C   UNL A   1      50.113  27.345  24.630  1.00  0.00     0.176 C 
BRANCH  15  16
ATOM     16  N   UNL A   1      48.890  27.835  23.992  1.00  0.00    -0.340 N 
ATOM     17  O   UNL A   1      46.750  27.818  23.326  1.00  0.00    -0.269 OA
ATOM     18  C   UNL A   1      47.600  27.389  24.100  1.00  0.00     0.251 C 
ATOM     19  H   UNL A   1      49.015  28.604  23.392  1.00  0.00     0.164 HD
BRANCH  18  20
ATOM     20  C   UNL A   1      47.218  26.391  25.120  1.00  0.00     0.040 A 
ATOM     21  C   UNL A   1      46.943  26.775  26.439  1.00  0.00     0.017 A 
ATOM     22  C   UNL A   1      47.052  25.056  24.726  1.00  0.00     0.017 A 
ATOM     23  C   UNL A   1      46.550  25.815  27.373  1.00  0.00     0.040 A 
ATOM     24  C   UNL A   1      46.654  24.100  25.663  1.00  0.00     0.040 A 
ATOM     25  C   UNL A   1      46.412  24.487  26.978  1.00  0.00     0.123 A 
ATOM     26  F   UNL A   1      46.030  23.570  27.875  1.00  0.00    -0.207 F 
ENDBRANCH  18  20
ENDBRANCH  15  16
BRANCH  15  27
ATOM     27  C   UNL A   1      51.302  27.101  23.672  1.00  0.00     0.072 C 
BRANCH  27  28
ATOM     28  C   UNL A   1      51.307  27.612  22.250  1.00  0.00    -0.020 A 
ATOM     29  C   UNL A   1      51.092  26.950  21.051  1.00  0.00     0.087 A 
ATOM     30  C   UNL A   1      51.647  28.964  21.880  1.00  0.00     0.003 A 
ATOM     31  N   UNL A   1      51.015  27.882  20.048  1.00  0.00    -0.361 N 
ATOM     32  C   UNL A   1      51.363  29.120  20.523  1.00  0.00     0.046 A 
ATOM     33  C   UNL A   1      52.156  30.078  22.582  1.00  0.00     0.010 A 
ATOM     34  H   UNL A   1      50.749  27.690  19.119  1.00  0.00     0.166 HD
ATOM     35  C   UNL A   1      51.466  30.346  19.857  1.00  0.00     0.026 A 
ATOM     36  C   UNL A   1      52.336  31.295  21.915  1.00  0.00     0.001 A 
ATOM     37  C   UNL A   1      51.967  31.433  20.579  1.00  0.00     0.002 A 
ENDBRANCH  27  28
ENDBRANCH  15  27
ENDBRANCH  12  15
ENDBRANCH  10  11
BRANCH  10  38
ATOM     38  C   UNL A   1      53.085  25.967  27.496  1.00  0.00     0.101 C 
BRANCH  38  39
ATOM     39  S   UNL A   1      54.229  27.325  27.134  1.00  0.00    -0.177 SA
ATOM     40  H   UNL A   1      54.135  27.660  25.820  1.00  0.00     0.102 HD
ENDBRANCH  38  39
ENDBRANCH  10  38
ENDBRANCH   7  10
ENDBRANCH   5   6
BRANCH   5  41
ATOM     41  C   UNL A   1      48.878  27.182  29.842  1.00  0.00     0.193 C 
BRANCH  41  42
ATOM     42  O   UNL A   1      48.256  27.600  31.059  1.00  0.00    -0.394 OA
ATOM     43  H   UNL A   1      48.087  26.826  31.618  1.00  0.00     0.210 HD
ENDBRANCH  41  42
ENDBRANCH   5  41
ENDBRANCH   3   5
ENDBRANCH   2   3
ENDBRANCH   1   2
BRANCH   1  44
ATOM     44  C   UNL A   1      49.979  27.082  34.693  1.00  0.00     0.202 C 
BRANCH  44  45
ATOM     45  O   UNL A   1      50.280  28.035  35.714  1.00  0.00    -0.374 OA
BRANCH  45  46
ATOM     46  C   UNL A   1      50.272  27.582  37.064  1.00  0.00     0.202 C 
BRANCH  46  47
ATOM     47  C   UNL A   1      49.293  26.453  37.415  1.00  0.00     0.261 C 
BRANCH  47  48
ATOM     48  O   UNL A   1      47.920  26.869  37.397  1.00  0.00    -0.460 OA
BRANCH  48  49
ATOM     49  C   UNL A   1      47.044  25.870  37.128  1.00  0.00     0.338 C 
ATOM     50  O   UNL A   1      46.893  24.828  37.743  1.00  0.00    -0.246 OA
BRANCH  49  51
ATOM     51  C   UNL A   1      46.142  26.266  36.035  1.00  0.00     0.060 A 
ATOM     52  C   UNL A   1      46.437  27.457  35.360  1.00  0.00     0.016 A 
ATOM     53  C   UNL A   1      44.971  25.558  35.758  1.00  0.00     0.016 A 
ATOM     54  C   UNL A   1      45.529  27.980  34.445  1.00  0.00     0.010 A 
ATOM     55  C   UNL A   1      44.054  26.091  34.845  1.00  0.00     0.010 A 
ATOM     56  C   UNL A   1      44.310  27.326  34.222  1.00  0.00    -0.014 A 
BRANCH  56  57
ATOM     57  C   UNL A   1      43.242  28.054  33.494  1.00  0.00     0.031 A 
ATOM     58  C   UNL A   1      43.008  27.727  32.045  1.00  0.00     0.074 A 
ATOM     59  C   UNL A   1      42.441  28.923  34.134  1.00  0.00     0.049 A 
ATOM     60  N   UNL A   1      42.096  28.183  31.224  1.00  0.00    -0.248 NA
ATOM     61  C   UNL A   1      43.924  26.748  31.438  1.00  0.00     0.031 C 
ATOM     62  C   UNL A   1      42.547  29.288  35.545  1.00  0.00     0.029 A 
ATOM     63  N   UNL A   1      41.369  29.648  33.676  1.00  0.00    -0.354 N 
ATOM     64  C   UNL A   1      42.324  27.542  30.012  1.00  0.00     0.074 A 
ATOM     65  C   UNL A   1      43.484  26.697  30.191  1.00  0.00     0.031 C 
ATOM     66  C   UNL A   1      41.573  30.166  35.841  1.00  0.00     0.029 A 
ATOM     67  C   UNL A   1      40.790  30.437  34.637  1.00  0.00     0.049 A 
ATOM     68  H   UNL A   1      41.047  29.604  32.747  1.00  0.00     0.167 HD
ATOM     69  C   UNL A   1      41.619  27.637  28.860  1.00  0.00     0.037 A 
ATOM     70  C   UNL A   1      39.747  31.284  34.547  1.00  0.00     0.037 A 
ATOM     71  C   UNL A   1      40.470  28.484  28.682  1.00  0.00     0.049 A 
ATOM     72  C   UNL A   1      39.016  31.415  33.236  1.00  0.00     0.074 A 
ATOM     73  C   UNL A   1      39.696  28.667  27.550  1.00  0.00     0.029 A 
ATOM     74  N   UNL A   1      39.931  29.295  29.670  1.00  0.00    -0.354 N 
ATOM     75  N   UNL A   1      39.227  30.793  32.101  1.00  0.00    -0.248 NA
ATOM     76  C   UNL A   1      37.889  32.358  33.199  1.00  0.00     0.031 C 
ATOM     77  C   UNL A   1      38.712  29.618  27.842  1.00  0.00     0.029 A 
ATOM     78  C   UNL A   1      38.841  29.989  29.171  1.00  0.00     0.049 A 
ATOM     79  H   UNL A   1      40.273  29.366  30.591  1.00  0.00     0.167 HD
ATOM     80  C   UNL A   1      38.242  31.239  31.229  1.00  0.00     0.074 A 
ATOM     81  C   UNL A   1      37.423  32.175  31.972  1.00  0.00     0.031 C 
ATOM     82  C   UNL A   1      38.029  30.902  29.933  1.00  0.00     0.037 A 
BRANCH  69  83
ATOM     83  C   UNL A   1      42.090  26.814  27.696  1.00  0.00     0.064 A 
ATOM     84  C   UNL A   1      42.948  27.344  26.720  1.00  0.00     0.173 A 
ATOM     85  C   UNL A   1      41.692  25.476  27.562  1.00  0.00     0.173 A 
ATOM     86  F   UNL A   1      43.344  28.624  26.791  1.00  0.00    -0.203 F 
ATOM     87  C   UNL A   1      43.369  26.572  25.639  1.00  0.00     0.198 A 
ATOM     88  C   UNL A   1      42.137  24.698  26.496  1.00  0.00     0.198 A 
ATOM     89  F   UNL A   1      40.873  24.920  28.467  1.00  0.00    -0.203 F 
ATOM     90  F   UNL A   1      44.148  27.114  24.693  1.00  0.00    -0.200 F 
ATOM     91  C   UNL A   1      42.968  25.248  25.532  1.00  0.00     0.200 A 
ATOM     92  F   UNL A   1      41.757  23.416  26.398  1.00  0.00    -0.200 F 
ATOM     93  F   UNL A   1      43.376  24.506  24.493  1.00  0.00    -0.200 F 
ENDBRANCH  69  83
BRANCH  70  94
ATOM     94  C   UNL A   1      39.315  32.067  35.735  1.00  0.00     0.064 A 
ATOM     95  C   UNL A   1      38.380  31.549  36.644  1.00  0.00     0.173 A 
ATOM     96  C   UNL A   1      39.806  33.359  35.970  1.00  0.00     0.173 A 
ATOM     97  F   UNL A   1      37.863  30.328  36.449  1.00  0.00    -0.203 F 
ATOM     98  C   UNL A   1      37.933  32.306  37.725  1.00  0.00     0.198 A 
ATOM     99  C   UNL A   1      39.380  34.104  37.068  1.00  0.00     0.198 A 
ATOM    100  F   UNL A   1      40.700  33.900  35.130  1.00  0.00    -0.203 F 
ATOM    101  F   UNL A   1      36.998  31.808  38.547  1.00  0.00    -0.200 F 
ATOM    102  C   UNL A   1      38.436  33.580  37.940  1.00  0.00     0.200 A 
ATOM    103  F   UNL A   1      39.876  35.331  37.277  1.00  0.00    -0.200 F 
ATOM    104  F   UNL A   1      38.004  34.308  38.979  1.00  0.00    -0.200 F 
ENDBRANCH  70  94
BRANCH  82 105
ATOM    105  C   UNL A   1      36.833  31.509  29.255  1.00  0.00     0.064 A 
ATOM    106  C   UNL A   1      36.790  32.867  28.903  1.00  0.00     0.173 A 
ATOM    107  C   UNL A   1      35.722  30.712  28.938  1.00  0.00     0.173 A 
ATOM    108  F   UNL A   1      37.822  33.672  29.195  1.00  0.00    -0.203 F 
ATOM    109  C   UNL A   1      35.663  33.412  28.295  1.00  0.00     0.198 A 
ATOM    110  C   UNL A   1      34.610  31.254  28.300  1.00  0.00     0.198 A 
ATOM    111  F   UNL A   1      35.717  29.407  29.243  1.00  0.00    -0.203 F 
ATOM    112  F   UNL A   1      35.620  34.723  28.024  1.00  0.00    -0.200 F 
ATOM    113  C   UNL A   1      34.576  32.605  27.991  1.00  0.00     0.200 A 
ATOM    114  F   UNL A   1      33.567  30.471  27.995  1.00  0.00    -0.200 F 
ATOM    115  F   UNL A   1      33.492  33.134  27.406  1.00  0.00    -0.200 F 
ENDBRANCH  82 105
ENDBRANCH  56  57
ENDBRANCH  49  51
ENDBRANCH  48  49
ENDBRANCH  47  48
ENDBRANCH  46  47
ENDBRANCH  45  46
ENDBRANCH  44  45
ENDBRANCH   1  44
TORSDOF 26
ENDMDL
