MODEL 1
REMARK VINA RESULT:     -10.1      0.000      0.000
REMARK SMILES CCC[N@@H+](CC1CC[NH2+]CC1)[C@@H](CC)C(=O)OCCOCCOC(=O)c1ccc(-c2c3nc(c(-c4c(F)c(F)c(F)c(F)c4F)c4ccc([nH]4)c(-c4c(F)c(F)c(F)c(F)c4F)c4nc(c(-c5c(F)c(F)c(F)c(F)c5F)c5ccc2[nH]5)C=C4)C=C3)cc1
REMARK SMILES IDX 19 1 18 2 17 3 15 4 16 5 12 6 4 7 3 9 2 10 1 11 5 12 6 13
REMARK SMILES IDX 7 14 11 15 8 16 10 17 9 18 13 21 14 22 20 23 21 24 22 25
REMARK SMILES IDX 23 26 24 27 25 28 26 29 27 30 88 31 28 32 87 33 29 34 30 35
REMARK SMILES IDX 31 36 81 37 32 38 86 39 80 40 82 41 33 42 85 43 79 44 78 45
REMARK SMILES IDX 34 47 66 48 46 49 65 50 47 51 50 52 64 53 83 54 48 55 49 56
REMARK SMILES IDX 63 58 84 59 51 60 35 61 36 62 44 63 37 64 38 65 42 66 45 67
REMARK SMILES IDX 39 68 40 69 43 70 41 71 67 72 68 73 76 74 69 75 70 76 74 77
REMARK SMILES IDX 77 78 71 79 72 80 75 81 73 82 52 83 53 84 61 85 54 86 55 87
REMARK SMILES IDX 59 88 62 89 56 90 57 91 60 92 58 93
REMARK H PARENT 4 8 9 19 9 20 82 46 50 57
REMARK Flexibility Score: inf
ROOT
ATOM      1  C   UNL A   1      36.323  22.912  23.622  1.00  0.00     0.202 C 
ENDROOT
BRANCH   1   2
ATOM      2  C   UNL A   1      34.876  22.976  23.144  1.00  0.00     0.261 C 
BRANCH   2   3
ATOM      3  O   UNL A   1      34.503  24.338  22.876  1.00  0.00    -0.459 OA
BRANCH   3   4
ATOM      4  C   UNL A   1      33.209  24.678  23.082  1.00  0.00     0.364 C 
ATOM      5  O   UNL A   1      32.250  23.970  22.795  1.00  0.00    -0.245 OA
BRANCH   4   6
ATOM      6  C   UNL A   1      33.068  26.104  23.618  1.00  0.00     0.294 C 
BRANCH   6   7
ATOM      7  N   UNL A   1      33.252  26.279  25.091  1.00  0.00    -0.323 N 
ATOM      8  H   UNL A   1      33.971  26.977  24.903  1.00  0.00     0.348 HD
BRANCH   7   9
ATOM      9  C   UNL A   1      32.464  27.116  25.981  1.00  0.00     0.262 C 
BRANCH   9  10
ATOM     10  C   UNL A   1      32.919  28.244  26.906  1.00  0.00     0.058 C 
ATOM     11  C   UNL A   1      34.376  28.639  26.757  1.00  0.00     0.010 C 
ENDBRANCH   9  10
ENDBRANCH   7   9
BRANCH   7  12
ATOM     12  C   UNL A   1      33.666  25.031  25.798  1.00  0.00     0.266 C 
BRANCH  12  13
ATOM     13  C   UNL A   1      32.739  24.116  26.691  1.00  0.00     0.055 C 
ATOM     14  C   UNL A   1      33.360  22.788  27.117  1.00  0.00     0.071 C 
ATOM     15  C   UNL A   1      31.257  23.899  26.297  1.00  0.00     0.071 C 
ATOM     16  C   UNL A   1      33.077  21.681  26.117  1.00  0.00     0.261 C 
ATOM     17  C   UNL A   1      30.892  22.587  25.580  1.00  0.00     0.261 C 
ATOM     18  N   UNL A   1      31.652  21.414  26.003  1.00  0.00    -0.346 N 
ATOM     19  H   UNL A   1      31.303  21.109  26.913  1.00  0.00     0.346 HD
ATOM     20  H   UNL A   1      31.529  20.693  25.293  1.00  0.00     0.346 HD
ENDBRANCH  12  13
ENDBRANCH   7  12
ENDBRANCH   6   7
BRANCH   6  21
ATOM     21  C   UNL A   1      33.655  27.060  22.564  1.00  0.00     0.074 C 
ATOM     22  C   UNL A   1      33.665  28.544  22.889  1.00  0.00     0.011 C 
ENDBRANCH   6  21
ENDBRANCH   4   6
ENDBRANCH   3   4
ENDBRANCH   2   3
ENDBRANCH   1   2
BRANCH   1  23
ATOM     23  O   UNL A   1      36.480  22.284  24.895  1.00  0.00    -0.374 OA
BRANCH  23  24
ATOM     24  C   UNL A   1      36.469  20.856  24.900  1.00  0.00     0.202 C 
BRANCH  24  25
ATOM     25  C   UNL A   1      37.849  20.237  25.131  1.00  0.00     0.261 C 
BRANCH  25  26
ATOM     26  O   UNL A   1      38.855  21.258  25.291  1.00  0.00    -0.460 OA
BRANCH  26  27
ATOM     27  C   UNL A   1      39.745  21.049  26.286  1.00  0.00     0.338 C 
ATOM     28  O   UNL A   1      40.300  19.998  26.570  1.00  0.00    -0.246 OA
BRANCH  27  29
ATOM     29  C   UNL A   1      40.101  22.336  26.927  1.00  0.00     0.060 A 
ATOM     30  C   UNL A   1      39.373  23.472  26.551  1.00  0.00     0.016 A 
ATOM     31  C   UNL A   1      41.146  22.450  27.849  1.00  0.00     0.016 A 
ATOM     32  C   UNL A   1      39.736  24.731  27.027  1.00  0.00     0.010 A 
ATOM     33  C   UNL A   1      41.503  23.714  28.336  1.00  0.00     0.010 A 
ATOM     34  C   UNL A   1      40.836  24.868  27.884  1.00  0.00    -0.014 A 
BRANCH  34  35
ATOM     35  C   UNL A   1      41.403  26.220  28.138  1.00  0.00     0.031 A 
ATOM     36  C   UNL A   1      42.785  26.532  27.623  1.00  0.00     0.074 A 
ATOM     37  C   UNL A   1      40.696  27.176  28.766  1.00  0.00     0.049 A 
ATOM     38  N   UNL A   1      43.486  27.633  27.726  1.00  0.00    -0.248 NA
ATOM     39  C   UNL A   1      43.471  25.453  26.893  1.00  0.00     0.031 C 
ATOM     40  C   UNL A   1      39.338  27.024  29.282  1.00  0.00     0.029 A 
ATOM     41  N   UNL A   1      41.031  28.473  29.075  1.00  0.00    -0.354 N 
ATOM     42  C   UNL A   1      44.692  27.375  27.085  1.00  0.00     0.074 A 
ATOM     43  C   UNL A   1      44.646  26.002  26.634  1.00  0.00     0.031 C 
ATOM     44  C   UNL A   1      38.955  28.182  29.846  1.00  0.00     0.029 A 
ATOM     45  C   UNL A   1      40.051  29.148  29.761  1.00  0.00     0.049 A 
ATOM     46  H   UNL A   1      41.893  28.881  28.828  1.00  0.00     0.167 HD
ATOM     47  C   UNL A   1      45.737  28.210  26.874  1.00  0.00     0.037 A 
ATOM     48  C   UNL A   1      40.047  30.394  30.277  1.00  0.00     0.037 A 
ATOM     49  C   UNL A   1      45.784  29.581  27.311  1.00  0.00     0.049 A 
ATOM     50  C   UNL A   1      41.255  31.281  30.094  1.00  0.00     0.074 A 
ATOM     51  C   UNL A   1      46.790  30.513  27.119  1.00  0.00     0.029 A 
ATOM     52  N   UNL A   1      44.786  30.215  28.036  1.00  0.00    -0.354 N 
ATOM     53  N   UNL A   1      42.374  31.041  29.454  1.00  0.00    -0.248 NA
ATOM     54  C   UNL A   1      41.193  32.620  30.701  1.00  0.00     0.031 C 
ATOM     55  C   UNL A   1      46.431  31.689  27.784  1.00  0.00     0.029 A 
ATOM     56  C   UNL A   1      45.169  31.514  28.329  1.00  0.00     0.049 A 
ATOM     57  H   UNL A   1      43.933  29.802  28.304  1.00  0.00     0.167 HD
ATOM     58  C   UNL A   1      43.130  32.204  29.552  1.00  0.00     0.074 A 
ATOM     59  C   UNL A   1      42.337  33.155  30.300  1.00  0.00     0.031 C 
ATOM     60  C   UNL A   1      44.369  32.460  29.065  1.00  0.00     0.037 A 
BRANCH  47  61
ATOM     61  C   UNL A   1      46.936  27.657  26.158  1.00  0.00     0.064 A 
ATOM     62  C   UNL A   1      47.051  27.703  24.760  1.00  0.00     0.173 A 
ATOM     63  C   UNL A   1      48.004  27.109  26.886  1.00  0.00     0.173 A 
ATOM     64  F   UNL A   1      46.053  28.205  24.016  1.00  0.00    -0.203 F 
ATOM     65  C   UNL A   1      48.177  27.196  24.116  1.00  0.00     0.198 A 
ATOM     66  C   UNL A   1      49.143  26.635  26.241  1.00  0.00     0.198 A 
ATOM     67  F   UNL A   1      47.948  27.045  28.225  1.00  0.00    -0.203 F 
ATOM     68  F   UNL A   1      48.243  27.204  22.779  1.00  0.00    -0.200 F 
ATOM     69  C   UNL A   1      49.225  26.671  24.858  1.00  0.00     0.200 A 
ATOM     70  F   UNL A   1      50.161  26.144  26.960  1.00  0.00    -0.200 F 
ATOM     71  F   UNL A   1      50.314  26.195  24.238  1.00  0.00    -0.200 F 
ENDBRANCH  47  61
BRANCH  48  72
ATOM     72  C   UNL A   1      38.863  30.884  31.035  1.00  0.00     0.064 A 
ATOM     73  C   UNL A   1      38.772  30.724  32.424  1.00  0.00     0.173 A 
ATOM     74  C   UNL A   1      37.779  31.484  30.377  1.00  0.00     0.173 A 
ATOM     75  F   UNL A   1      39.768  30.131  33.098  1.00  0.00    -0.203 F 
ATOM     76  C   UNL A   1      37.633  31.124  33.122  1.00  0.00     0.198 A 
ATOM     77  C   UNL A   1      36.656  31.914  31.079  1.00  0.00     0.198 A 
ATOM     78  F   UNL A   1      37.813  31.657  29.047  1.00  0.00    -0.203 F 
ATOM     79  F   UNL A   1      37.547  30.907  34.441  1.00  0.00    -0.200 F 
ATOM     80  C   UNL A   1      36.579  31.724  32.450  1.00  0.00     0.200 A 
ATOM     81  F   UNL A   1      35.647  32.505  30.426  1.00  0.00    -0.200 F 
ATOM     82  F   UNL A   1      35.485  32.109  33.121  1.00  0.00    -0.200 F 
ENDBRANCH  48  72
BRANCH  60  83
ATOM     83  C   UNL A   1      44.935  33.838  29.280  1.00  0.00     0.064 A 
ATOM     84  C   UNL A   1      45.740  34.146  30.388  1.00  0.00     0.173 A 
ATOM     85  C   UNL A   1      44.707  34.852  28.336  1.00  0.00     0.173 A 
ATOM     86  F   UNL A   1      45.980  33.218  31.325  1.00  0.00    -0.203 F 
ATOM     87  C   UNL A   1      46.267  35.424  30.557  1.00  0.00     0.198 A 
ATOM     88  C   UNL A   1      45.266  36.118  28.490  1.00  0.00     0.198 A 
ATOM     89  F   UNL A   1      43.954  34.611  27.252  1.00  0.00    -0.203 F 
ATOM     90  F   UNL A   1      46.988  35.709  31.650  1.00  0.00    -0.200 F 
ATOM     91  C   UNL A   1      46.038  36.406  29.605  1.00  0.00     0.200 A 
ATOM     92  F   UNL A   1      45.058  37.059  27.558  1.00  0.00    -0.200 F 
ATOM     93  F   UNL A   1      46.555  37.632  29.765  1.00  0.00    -0.200 F 
ENDBRANCH  60  83
ENDBRANCH  34  35
ENDBRANCH  27  29
ENDBRANCH  26  27
ENDBRANCH  25  26
ENDBRANCH  24  25
ENDBRANCH  23  24
ENDBRANCH   1  23
TORSDOF 20
ENDMDL
MODEL 2
REMARK VINA RESULT:      -9.9      4.438      9.886
REMARK SMILES CCC[N@@H+](CC1CC[NH2+]CC1)[C@@H](CC)C(=O)OCCOCCOC(=O)c1ccc(-c2c3nc(c(-c4c(F)c(F)c(F)c(F)c4F)c4ccc([nH]4)c(-c4c(F)c(F)c(F)c(F)c4F)c4nc(c(-c5c(F)c(F)c(F)c(F)c5F)c5ccc2[nH]5)C=C4)C=C3)cc1
REMARK SMILES IDX 19 1 18 2 17 3 15 4 16 5 12 6 4 7 3 9 2 10 1 11 5 12 6 13
REMARK SMILES IDX 7 14 11 15 8 16 10 17 9 18 13 21 14 22 20 23 21 24 22 25
REMARK SMILES IDX 23 26 24 27 25 28 26 29 27 30 88 31 28 32 87 33 29 34 30 35
REMARK SMILES IDX 31 36 81 37 32 38 86 39 80 40 82 41 33 42 85 43 79 44 78 45
REMARK SMILES IDX 34 47 66 48 46 49 65 50 47 51 50 52 64 53 83 54 48 55 49 56
REMARK SMILES IDX 63 58 84 59 51 60 35 61 36 62 44 63 37 64 38 65 42 66 45 67
REMARK SMILES IDX 39 68 40 69 43 70 41 71 67 72 68 73 76 74 69 75 70 76 74 77
REMARK SMILES IDX 77 78 71 79 72 80 75 81 73 82 52 83 53 84 61 85 54 86 55 87
REMARK SMILES IDX 59 88 62 89 56 90 57 91 60 92 58 93
REMARK H PARENT 4 8 9 19 9 20 82 46 50 57
REMARK Flexibility Score: inf
ROOT
ATOM      1  C   UNL A   1      33.226  29.310  26.390  1.00  0.00     0.202 C 
ENDROOT
BRANCH   1   2
ATOM      2  C   UNL A   1      32.479  28.126  25.784  1.00  0.00     0.261 C 
BRANCH   2   3
ATOM      3  O   UNL A   1      33.061  26.891  26.234  1.00  0.00    -0.459 OA
BRANCH   3   4
ATOM      4  C   UNL A   1      32.232  25.829  26.369  1.00  0.00     0.364 C 
ATOM      5  O   UNL A   1      31.141  25.865  26.928  1.00  0.00    -0.245 OA
BRANCH   4   6
ATOM      6  C   UNL A   1      32.861  24.539  25.837  1.00  0.00     0.294 C 
BRANCH   6   7
ATOM      7  N   UNL A   1      31.973  23.660  25.017  1.00  0.00    -0.323 N 
ATOM      8  H   UNL A   1      31.163  24.078  25.474  1.00  0.00     0.348 HD
BRANCH   7   9
ATOM      9  C   UNL A   1      31.514  23.899  23.658  1.00  0.00     0.262 C 
BRANCH   9  10
ATOM     10  C   UNL A   1      30.206  24.524  23.174  1.00  0.00     0.058 C 
ATOM     11  C   UNL A   1      29.878  25.871  23.789  1.00  0.00     0.010 C 
ENDBRANCH   9  10
ENDBRANCH   7   9
BRANCH   7  12
ATOM     12  C   UNL A   1      32.211  22.202  25.226  1.00  0.00     0.266 C 
BRANCH  12  13
ATOM     13  C   UNL A   1      33.001  21.239  24.255  1.00  0.00     0.055 C 
ATOM     14  C   UNL A   1      32.442  19.821  24.155  1.00  0.00     0.071 C 
ATOM     15  C   UNL A   1      34.548  21.190  24.306  1.00  0.00     0.071 C 
ATOM     16  C   UNL A   1      33.060  18.893  25.185  1.00  0.00     0.261 C 
ATOM     17  C   UNL A   1      35.203  20.024  25.068  1.00  0.00     0.261 C 
ATOM     18  N   UNL A   1      34.494  18.750  24.985  1.00  0.00    -0.346 N 
ATOM     19  H   UNL A   1      34.657  18.345  24.063  1.00  0.00     0.346 HD
ATOM     20  H   UNL A   1      34.850  18.149  25.727  1.00  0.00     0.346 HD
ENDBRANCH  12  13
ENDBRANCH   7  12
ENDBRANCH   6   7
BRANCH   6  21
ATOM     21  C   UNL A   1      34.327  24.846  25.481  1.00  0.00     0.074 C 
ATOM     22  C   UNL A   1      34.740  24.707  24.025  1.00  0.00     0.011 C 
ENDBRANCH   6  21
ENDBRANCH   4   6
ENDBRANCH   3   4
ENDBRANCH   2   3
ENDBRANCH   1   2
BRANCH   1  23
ATOM     23  O   UNL A   1      32.731  30.580  25.965  1.00  0.00    -0.374 OA
BRANCH  23  24
ATOM     24  C   UNL A   1      31.633  31.112  26.707  1.00  0.00     0.202 C 
BRANCH  24  25
ATOM     25  C   UNL A   1      31.740  32.617  26.958  1.00  0.00     0.261 C 
BRANCH  25  26
ATOM     26  O   UNL A   1      33.109  33.062  26.871  1.00  0.00    -0.460 OA
BRANCH  26  27
ATOM     27  C   UNL A   1      33.640  33.539  28.018  1.00  0.00     0.338 C 
ATOM     28  O   UNL A   1      33.130  34.334  28.792  1.00  0.00    -0.246 OA
BRANCH  27  29
ATOM     29  C   UNL A   1      34.909  32.838  28.320  1.00  0.00     0.060 A 
ATOM     30  C   UNL A   1      34.845  31.462  28.575  1.00  0.00     0.016 A 
ATOM     31  C   UNL A   1      36.136  33.504  28.392  1.00  0.00     0.016 A 
ATOM     32  C   UNL A   1      35.984  30.767  28.982  1.00  0.00     0.010 A 
ATOM     33  C   UNL A   1      37.282  32.803  28.789  1.00  0.00     0.010 A 
ATOM     34  C   UNL A   1      37.201  31.443  29.142  1.00  0.00    -0.014 A 
BRANCH  34  35
ATOM     35  C   UNL A   1      38.319  30.778  29.862  1.00  0.00     0.031 A 
ATOM     36  C   UNL A   1      38.544  31.113  31.314  1.00  0.00     0.074 A 
ATOM     37  C   UNL A   1      39.096  29.856  29.264  1.00  0.00     0.049 A 
ATOM     38  N   UNL A   1      39.454  30.667  32.144  1.00  0.00    -0.248 NA
ATOM     39  C   UNL A   1      37.615  32.086  31.913  1.00  0.00     0.031 C 
ATOM     40  C   UNL A   1      38.967  29.410  27.880  1.00  0.00     0.029 A 
ATOM     41  N   UNL A   1      40.151  29.127  29.757  1.00  0.00    -0.354 N 
ATOM     42  C   UNL A   1      39.212  31.309  33.352  1.00  0.00     0.074 A 
ATOM     43  C   UNL A   1      38.099  32.207  33.138  1.00  0.00     0.031 C 
ATOM     44  C   UNL A   1      39.910  28.485  27.631  1.00  0.00     0.029 A 
ATOM     45  C   UNL A   1      40.729  28.296  28.829  1.00  0.00     0.049 A 
ATOM     46  H   UNL A   1      40.464  29.193  30.688  1.00  0.00     0.167 HD
ATOM     47  C   UNL A   1      39.846  31.154  34.538  1.00  0.00     0.037 A 
ATOM     48  C   UNL A   1      41.807  27.491  28.929  1.00  0.00     0.037 A 
ATOM     49  C   UNL A   1      40.947  30.253  34.760  1.00  0.00     0.049 A 
ATOM     50  C   UNL A   1      42.544  27.390  30.242  1.00  0.00     0.074 A 
ATOM     51  C   UNL A   1      41.636  30.007  35.935  1.00  0.00     0.029 A 
ATOM     52  N   UNL A   1      41.527  29.457  33.783  1.00  0.00    -0.354 N 
ATOM     53  N   UNL A   1      42.284  27.973  31.388  1.00  0.00    -0.248 NA
ATOM     54  C   UNL A   1      43.723  26.512  30.277  1.00  0.00     0.031 C 
ATOM     55  C   UNL A   1      42.674  29.113  35.656  1.00  0.00     0.029 A 
ATOM     56  C   UNL A   1      42.587  28.746  34.323  1.00  0.00     0.049 A 
ATOM     57  H   UNL A   1      41.230  29.405  32.846  1.00  0.00     0.167 HD
ATOM     58  C   UNL A   1      43.242  27.506  32.282  1.00  0.00     0.074 A 
ATOM     59  C   UNL A   1      44.080  26.581  31.551  1.00  0.00     0.031 C 
ATOM     60  C   UNL A   1      43.411  27.817  33.591  1.00  0.00     0.037 A 
BRANCH  47  61
ATOM     61  C   UNL A   1      39.383  31.998  35.691  1.00  0.00     0.064 A 
ATOM     62  C   UNL A   1      38.434  31.535  36.614  1.00  0.00     0.173 A 
ATOM     63  C   UNL A   1      39.929  33.275  35.896  1.00  0.00     0.173 A 
ATOM     64  F   UNL A   1      37.871  30.327  36.457  1.00  0.00    -0.203 F 
ATOM     65  C   UNL A   1      38.027  32.330  37.684  1.00  0.00     0.198 A 
ATOM     66  C   UNL A   1      39.546  34.052  36.986  1.00  0.00     0.198 A 
ATOM     67  F   UNL A   1      40.844  33.765  35.046  1.00  0.00    -0.203 F 
ATOM     68  F   UNL A   1      37.082  31.888  38.523  1.00  0.00    -0.200 F 
ATOM     69  C   UNL A   1      38.590  33.583  37.873  1.00  0.00     0.200 A 
ATOM     70  F   UNL A   1      40.103  35.256  37.176  1.00  0.00    -0.200 F 
ATOM     71  F   UNL A   1      38.207  34.341  38.910  1.00  0.00    -0.200 F 
ENDBRANCH  47  61
BRANCH  48  72
ATOM     72  C   UNL A   1      42.272  26.717  27.745  1.00  0.00     0.064 A 
ATOM     73  C   UNL A   1      41.790  25.426  27.485  1.00  0.00     0.173 A 
ATOM     74  C   UNL A   1      43.240  27.237  26.874  1.00  0.00     0.173 A 
ATOM     75  F   UNL A   1      40.884  24.871  28.304  1.00  0.00    -0.203 F 
ATOM     76  C   UNL A   1      42.276  24.678  26.414  1.00  0.00     0.198 A 
ATOM     77  C   UNL A   1      43.700  26.502  25.784  1.00  0.00     0.198 A 
ATOM     78  F   UNL A   1      43.739  28.465  27.079  1.00  0.00    -0.203 F 
ATOM     79  F   UNL A   1      41.840  23.426  26.222  1.00  0.00    -0.200 F 
ATOM     80  C   UNL A   1      43.225  25.219  25.561  1.00  0.00     0.200 A 
ATOM     81  F   UNL A   1      44.609  27.035  24.955  1.00  0.00    -0.200 F 
ATOM     82  F   UNL A   1      43.692  24.499  24.531  1.00  0.00    -0.200 F 
ENDBRANCH  48  72
BRANCH  60  83
ATOM     83  C   UNL A   1      44.513  27.119  34.340  1.00  0.00     0.064 A 
ATOM     84  C   UNL A   1      45.794  27.678  34.469  1.00  0.00     0.173 A 
ATOM     85  C   UNL A   1      44.269  25.892  34.979  1.00  0.00     0.173 A 
ATOM     86  F   UNL A   1      46.084  28.842  33.870  1.00  0.00    -0.203 F 
ATOM     87  C   UNL A   1      46.795  27.021  35.182  1.00  0.00     0.198 A 
ATOM     88  C   UNL A   1      45.261  25.256  35.721  1.00  0.00     0.198 A 
ATOM     89  F   UNL A   1      43.060  25.316  34.898  1.00  0.00    -0.203 F 
ATOM     90  F   UNL A   1      48.024  27.550  35.246  1.00  0.00    -0.200 F 
ATOM     91  C   UNL A   1      46.526  25.817  35.814  1.00  0.00     0.200 A 
ATOM     92  F   UNL A   1      44.992  24.102  36.347  1.00  0.00    -0.200 F 
ATOM     93  F   UNL A   1      47.487  25.192  36.508  1.00  0.00    -0.200 F 
ENDBRANCH  60  83
ENDBRANCH  34  35
ENDBRANCH  27  29
ENDBRANCH  26  27
ENDBRANCH  25  26
ENDBRANCH  24  25
ENDBRANCH  23  24
ENDBRANCH   1  23
TORSDOF 20
ENDMDL
MODEL 3
REMARK VINA RESULT:      -9.9      2.304      3.713
REMARK SMILES CCC[N@@H+](CC1CC[NH2+]CC1)[C@@H](CC)C(=O)OCCOCCOC(=O)c1ccc(-c2c3nc(c(-c4c(F)c(F)c(F)c(F)c4F)c4ccc([nH]4)c(-c4c(F)c(F)c(F)c(F)c4F)c4nc(c(-c5c(F)c(F)c(F)c(F)c5F)c5ccc2[nH]5)C=C4)C=C3)cc1
REMARK SMILES IDX 19 1 18 2 17 3 15 4 16 5 12 6 4 7 3 9 2 10 1 11 5 12 6 13
REMARK SMILES IDX 7 14 11 15 8 16 10 17 9 18 13 21 14 22 20 23 21 24 22 25
REMARK SMILES IDX 23 26 24 27 25 28 26 29 27 30 88 31 28 32 87 33 29 34 30 35
REMARK SMILES IDX 31 36 81 37 32 38 86 39 80 40 82 41 33 42 85 43 79 44 78 45
REMARK SMILES IDX 34 47 66 48 46 49 65 50 47 51 50 52 64 53 83 54 48 55 49 56
REMARK SMILES IDX 63 58 84 59 51 60 35 61 36 62 44 63 37 64 38 65 42 66 45 67
REMARK SMILES IDX 39 68 40 69 43 70 41 71 67 72 68 73 76 74 69 75 70 76 74 77
REMARK SMILES IDX 77 78 71 79 72 80 75 81 73 82 52 83 53 84 61 85 54 86 55 87
REMARK SMILES IDX 59 88 62 89 56 90 57 91 60 92 58 93
REMARK H PARENT 4 8 9 19 9 20 82 46 50 57
REMARK Flexibility Score: inf
ROOT
ATOM      1  C   UNL A   1      37.178  22.065  25.684  1.00  0.00     0.202 C 
ENDROOT
BRANCH   1   2
ATOM      2  C   UNL A   1      36.727  23.297  24.905  1.00  0.00     0.261 C 
BRANCH   2   3
ATOM      3  O   UNL A   1      35.294  23.323  24.806  1.00  0.00    -0.459 OA
BRANCH   3   4
ATOM      4  C   UNL A   1      34.752  23.110  23.583  1.00  0.00     0.364 C 
ATOM      5  O   UNL A   1      34.950  23.819  22.602  1.00  0.00    -0.245 OA
BRANCH   4   6
ATOM      6  C   UNL A   1      33.770  21.937  23.587  1.00  0.00     0.294 C 
BRANCH   6   7
ATOM      7  N   UNL A   1      33.524  21.284  24.908  1.00  0.00    -0.323 N 
ATOM      8  H   UNL A   1      33.922  22.102  25.369  1.00  0.00     0.348 HD
BRANCH   7   9
ATOM      9  C   UNL A   1      32.284  21.276  25.666  1.00  0.00     0.262 C 
BRANCH   9  10
ATOM     10  C   UNL A   1      31.228  22.372  25.808  1.00  0.00     0.058 C 
ATOM     11  C   UNL A   1      31.541  23.425  26.854  1.00  0.00     0.010 C 
ENDBRANCH   9  10
ENDBRANCH   7   9
BRANCH   7  12
ATOM     12  C   UNL A   1      34.233  19.981  25.077  1.00  0.00     0.266 C 
BRANCH  12  13
ATOM     13  C   UNL A   1      33.965  18.662  24.253  1.00  0.00     0.055 C 
ATOM     14  C   UNL A   1      32.524  18.157  24.292  1.00  0.00     0.071 C 
ATOM     15  C   UNL A   1      34.942  17.465  24.368  1.00  0.00     0.071 C 
ATOM     16  C   UNL A   1      32.290  17.196  25.444  1.00  0.00     0.261 C 
ATOM     17  C   UNL A   1      34.537  16.296  25.282  1.00  0.00     0.261 C 
ATOM     18  N   UNL A   1      33.107  15.999  25.317  1.00  0.00    -0.346 N 
ATOM     19  H   UNL A   1      32.852  15.519  24.453  1.00  0.00     0.346 HD
ATOM     20  H   UNL A   1      32.932  15.417  26.135  1.00  0.00     0.346 HD
ENDBRANCH  12  13
ENDBRANCH   7  12
ENDBRANCH   6   7
BRANCH   6  21
ATOM     21  C   UNL A   1      32.658  22.255  22.570  1.00  0.00     0.074 C 
ATOM     22  C   UNL A   1      31.936  21.083  21.928  1.00  0.00     0.011 C 
ENDBRANCH   6  21
ENDBRANCH   4   6
ENDBRANCH   3   4
ENDBRANCH   2   3
ENDBRANCH   1   2
BRANCH   1  23
ATOM     23  O   UNL A   1      38.350  21.446  25.152  1.00  0.00    -0.374 OA
BRANCH  23  24
ATOM     24  C   UNL A   1      38.320  20.022  25.051  1.00  0.00     0.202 C 
BRANCH  24  25
ATOM     25  C   UNL A   1      39.462  19.335  25.803  1.00  0.00     0.261 C 
BRANCH  25  26
ATOM     26  O   UNL A   1      40.737  19.638  25.199  1.00  0.00    -0.460 OA
BRANCH  26  27
ATOM     27  C   UNL A   1      41.822  19.349  25.951  1.00  0.00     0.338 C 
ATOM     28  O   UNL A   1      42.301  18.245  26.160  1.00  0.00    -0.246 OA
BRANCH  27  29
ATOM     29  C   UNL A   1      42.484  20.600  26.388  1.00  0.00     0.060 A 
ATOM     30  C   UNL A   1      42.234  21.044  27.693  1.00  0.00     0.016 A 
ATOM     31  C   UNL A   1      43.302  21.351  25.540  1.00  0.00     0.016 A 
ATOM     32  C   UNL A   1      42.730  22.274  28.125  1.00  0.00     0.010 A 
ATOM     33  C   UNL A   1      43.811  22.580  25.979  1.00  0.00     0.010 A 
ATOM     34  C   UNL A   1      43.480  23.075  27.254  1.00  0.00    -0.014 A 
BRANCH  34  35
ATOM     35  C   UNL A   1      43.740  24.496  27.607  1.00  0.00     0.031 A 
ATOM     36  C   UNL A   1      45.166  24.985  27.636  1.00  0.00     0.074 A 
ATOM     37  C   UNL A   1      42.736  25.359  27.847  1.00  0.00     0.049 A 
ATOM     38  N   UNL A   1      45.636  26.173  27.920  1.00  0.00    -0.248 NA
ATOM     39  C   UNL A   1      46.204  23.995  27.303  1.00  0.00     0.031 C 
ATOM     40  C   UNL A   1      41.313  25.033  27.816  1.00  0.00     0.029 A 
ATOM     41  N   UNL A   1      42.769  26.696  28.166  1.00  0.00    -0.354 N 
ATOM     42  C   UNL A   1      47.017  26.071  27.807  1.00  0.00     0.074 A 
ATOM     43  C   UNL A   1      47.313  24.695  27.472  1.00  0.00     0.031 C 
ATOM     44  C   UNL A   1      40.606  26.139  28.107  1.00  0.00     0.029 A 
ATOM     45  C   UNL A   1      41.527  27.244  28.376  1.00  0.00     0.049 A 
ATOM     46  H   UNL A   1      43.604  27.213  28.238  1.00  0.00     0.167 HD
ATOM     47  C   UNL A   1      47.955  27.037  27.951  1.00  0.00     0.037 A 
ATOM     48  C   UNL A   1      41.176  28.488  28.761  1.00  0.00     0.037 A 
ATOM     49  C   UNL A   1      47.666  28.410  28.273  1.00  0.00     0.049 A 
ATOM     50  C   UNL A   1      42.245  29.529  28.989  1.00  0.00     0.074 A 
ATOM     51  C   UNL A   1      48.549  29.466  28.412  1.00  0.00     0.029 A 
ATOM     52  N   UNL A   1      46.398  28.915  28.515  1.00  0.00    -0.354 N 
ATOM     53  N   UNL A   1      43.545  29.431  28.843  1.00  0.00    -0.248 NA
ATOM     54  C   UNL A   1      41.795  30.858  29.429  1.00  0.00     0.031 C 
ATOM     55  C   UNL A   1      47.824  30.595  28.803  1.00  0.00     0.029 A 
ATOM     56  C   UNL A   1      46.480  30.261  28.838  1.00  0.00     0.049 A 
ATOM     57  H   UNL A   1      45.563  28.395  28.467  1.00  0.00     0.167 HD
ATOM     58  C   UNL A   1      44.059  30.689  29.138  1.00  0.00     0.074 A 
ATOM     59  C   UNL A   1      42.932  31.537  29.457  1.00  0.00     0.031 C 
ATOM     60  C   UNL A   1      45.351  31.103  29.143  1.00  0.00     0.037 A 
BRANCH  47  61
ATOM     61  C   UNL A   1      49.394  26.639  27.787  1.00  0.00     0.064 A 
ATOM     62  C   UNL A   1      49.992  26.521  26.524  1.00  0.00     0.173 A 
ATOM     63  C   UNL A   1      50.198  26.412  28.916  1.00  0.00     0.173 A 
ATOM     64  F   UNL A   1      49.266  26.714  25.412  1.00  0.00    -0.203 F 
ATOM     65  C   UNL A   1      51.332  26.163  26.394  1.00  0.00     0.198 A 
ATOM     66  C   UNL A   1      51.545  26.089  28.784  1.00  0.00     0.198 A 
ATOM     67  F   UNL A   1      49.678  26.516  30.149  1.00  0.00    -0.203 F 
ATOM     68  F   UNL A   1      51.868  26.006  25.177  1.00  0.00    -0.200 F 
ATOM     69  C   UNL A   1      52.109  25.956  27.525  1.00  0.00     0.200 A 
ATOM     70  F   UNL A   1      52.298  25.905  29.877  1.00  0.00    -0.200 F 
ATOM     71  F   UNL A   1      53.401  25.624  27.399  1.00  0.00    -0.200 F 
ENDBRANCH  47  61
BRANCH  48  72
ATOM     72  C   UNL A   1      39.741  28.826  28.973  1.00  0.00     0.064 A 
ATOM     73  C   UNL A   1      39.135  28.673  30.227  1.00  0.00     0.173 A 
ATOM     74  C   UNL A   1      38.937  29.269  27.912  1.00  0.00     0.173 A 
ATOM     75  F   UNL A   1      39.853  28.225  31.268  1.00  0.00    -0.203 F 
ATOM     76  C   UNL A   1      37.776  28.927  30.407  1.00  0.00     0.198 A 
ATOM     77  C   UNL A   1      37.587  29.556  28.100  1.00  0.00     0.198 A 
ATOM     78  F   UNL A   1      39.465  29.428  26.690  1.00  0.00    -0.203 F 
ATOM     79  F   UNL A   1      37.210  28.717  31.603  1.00  0.00    -0.200 F 
ATOM     80  C   UNL A   1      37.005  29.374  29.345  1.00  0.00     0.200 A 
ATOM     81  F   UNL A   1      36.850  30.000  27.073  1.00  0.00    -0.200 F 
ATOM     82  F   UNL A   1      35.699  29.619  29.518  1.00  0.00    -0.200 F 
ENDBRANCH  48  72
BRANCH  60  83
ATOM     83  C   UNL A   1      45.622  32.549  29.458  1.00  0.00     0.064 A 
ATOM     84  C   UNL A   1      45.618  33.538  28.463  1.00  0.00     0.173 A 
ATOM     85  C   UNL A   1      45.842  32.957  30.783  1.00  0.00     0.173 A 
ATOM     86  F   UNL A   1      45.424  33.203  27.179  1.00  0.00    -0.203 F 
ATOM     87  C   UNL A   1      45.854  34.874  28.779  1.00  0.00     0.198 A 
ATOM     88  C   UNL A   1      46.042  34.297  31.101  1.00  0.00     0.198 A 
ATOM     89  F   UNL A   1      45.847  32.055  31.777  1.00  0.00    -0.203 F 
ATOM     90  F   UNL A   1      45.898  35.793  27.805  1.00  0.00    -0.200 F 
ATOM     91  C   UNL A   1      46.057  35.254  30.097  1.00  0.00     0.200 A 
ATOM     92  F   UNL A   1      46.219  34.663  32.378  1.00  0.00    -0.200 F 
ATOM     93  F   UNL A   1      46.274  36.541  30.401  1.00  0.00    -0.200 F 
ENDBRANCH  60  83
ENDBRANCH  34  35
ENDBRANCH  27  29
ENDBRANCH  26  27
ENDBRANCH  25  26
ENDBRANCH  24  25
ENDBRANCH  23  24
ENDBRANCH   1  23
TORSDOF 20
ENDMDL
