MODEL 1
REMARK VINA RESULT:     -12.2      0.000      0.000
REMARK SMILES Cc1cc(=O)oc2cc(O[C@@H](C)C(=O)N[C@H](CC(C)C)C(=O)OCCOCCOC(=O)c3ccc(-c4c5nc(c(-c6c(F)c(F)c(F)c(F)c6F)c6ccc([nH]6)c(-c6c(F)c(F)c(F)c(F)c6F)c6nc(c(-c7c(F)c(F)c(F)c(F)c7F)c7ccc4[nH]7)C=C6)C=C5)cc3)ccc12
REMARK SMILES IDX 25 1 24 2 23 3 21 4 22 5 16 6 15 7 13 8 14 9 11 11 12 12
REMARK SMILES IDX 10 13 9 14 1 15 2 16 3 17 97 18 4 19 7 20 96 21 5 22 6 23
REMARK SMILES IDX 8 24 95 25 17 26 18 27 19 28 20 29 26 30 27 31 28 32 29 33
REMARK SMILES IDX 30 34 31 35 32 36 33 37 94 38 34 39 93 40 35 41 36 42 37 43
REMARK SMILES IDX 87 44 38 45 92 46 86 47 88 48 39 49 91 50 85 51 84 52 40 54
REMARK SMILES IDX 72 55 52 56 71 57 53 58 56 59 70 60 89 61 54 62 55 63 69 65
REMARK SMILES IDX 90 66 57 67 41 68 42 69 50 70 43 71 44 72 48 73 51 74 45 75
REMARK SMILES IDX 46 76 49 77 47 78 73 79 74 80 82 81 75 82 76 83 80 84 83 85
REMARK SMILES IDX 77 86 78 87 81 88 79 89 58 90 59 91 67 92 60 93 61 94 65 95
REMARK SMILES IDX 68 96 62 97 63 98 66 99 64 100
REMARK H PARENT 15 10 88 53 56 64
REMARK Flexibility Score: inf
ROOT
ATOM      1  C   UNL A   1      35.468  22.889  23.584  1.00  0.00     0.202 C 
ENDROOT
BRANCH   1   2
ATOM      2  C   UNL A   1      34.972  24.410  23.815  1.00  0.00     0.261 C 
BRANCH   2   3
ATOM      3  O   UNL A   1      33.846  25.006  22.963  1.00  0.00    -0.462 OA
BRANCH   3   4
ATOM      4  C   UNL A   1      33.573  26.253  22.448  1.00  0.00     0.328 C 
ATOM      5  O   UNL A   1      33.674  26.525  21.248  1.00  0.00    -0.250 OA
BRANCH   4   6
ATOM      6  C   UNL A   1      32.596  27.183  23.101  1.00  0.00     0.192 C 
BRANCH   6   7
ATOM      7  N   UNL A   1      31.984  27.965  22.076  1.00  0.00    -0.339 N 
ATOM      8  C   UNL A   1      30.727  28.509  22.286  1.00  0.00     0.261 C 
ATOM      9  O   UNL A   1      30.487  29.534  21.631  1.00  0.00    -0.271 OA
ATOM     10  H   UNL A   1      32.453  28.117  21.223  1.00  0.00     0.164 HD
BRANCH   8  11
ATOM     11  C   UNL A   1      29.512  27.839  23.263  1.00  0.00     0.258 C 
ATOM     12  C   UNL A   1      28.194  28.568  22.994  1.00  0.00     0.064 C 
BRANCH  11  13
ATOM     13  O   UNL A   1      29.331  27.020  24.433  1.00  0.00    -0.481 OA
BRANCH  13  14
ATOM     14  C   UNL A   1      29.795  25.791  24.781  1.00  0.00     0.124 A 
ATOM     15  C   UNL A   1      32.276  21.258  23.731  1.00  0.00     0.045 C 
ATOM     16  C   UNL A   1      32.018  22.082  24.972  1.00  0.00    -0.033 A 
ATOM     17  C   UNL A   1      32.585  21.859  26.160  1.00  0.00     0.098 A 
ATOM     18  C   UNL A   1      31.147  23.246  24.917  1.00  0.00     0.021 A 
ATOM     19  C   UNL A   1      32.312  22.708  27.339  1.00  0.00     0.336 A 
ATOM     20  C   UNL A   1      30.744  23.979  26.046  1.00  0.00     0.142 A 
ATOM     21  C   UNL A   1      30.795  23.754  23.717  1.00  0.00     0.016 A 
ATOM     22  O   UNL A   1      33.020  22.617  28.335  1.00  0.00    -0.246 OA
ATOM     23  O   UNL A   1      31.210  23.554  27.303  1.00  0.00    -0.423 OA
ATOM     24  C   UNL A   1      30.031  25.222  26.003  1.00  0.00     0.094 A 
ATOM     25  C   UNL A   1      30.093  24.952  23.704  1.00  0.00     0.047 A 
ENDBRANCH  13  14
ENDBRANCH  11  13
ENDBRANCH   8  11
ENDBRANCH   6   7
BRANCH   6  26
ATOM     26  C   UNL A   1      33.485  27.715  24.307  1.00  0.00     0.040 C 
BRANCH  26  27
ATOM     27  C   UNL A   1      32.788  28.065  25.684  1.00  0.00    -0.015 C 
ATOM     28  C   UNL A   1      33.683  28.249  26.913  1.00  0.00     0.007 C 
ATOM     29  C   UNL A   1      31.887  29.328  25.614  1.00  0.00     0.007 C 
ENDBRANCH  26  27
ENDBRANCH   6  26
ENDBRANCH   4   6
ENDBRANCH   3   4
ENDBRANCH   2   3
ENDBRANCH   1   2
BRANCH   1  30
ATOM     30  O   UNL A   1      36.836  22.640  23.963  1.00  0.00    -0.374 OA
BRANCH  30  31
ATOM     31  C   UNL A   1      37.314  21.940  25.139  1.00  0.00     0.202 C 
BRANCH  31  32
ATOM     32  C   UNL A   1      38.446  20.878  25.258  1.00  0.00     0.261 C 
BRANCH  32  33
ATOM     33  O   UNL A   1      39.170  20.884  26.483  1.00  0.00    -0.460 OA
BRANCH  33  34
ATOM     34  C   UNL A   1      40.478  21.181  26.347  1.00  0.00     0.338 C 
ATOM     35  O   UNL A   1      41.264  20.708  25.567  1.00  0.00    -0.246 OA
BRANCH  34  36
ATOM     36  C   UNL A   1      40.753  22.390  27.144  1.00  0.00     0.060 A 
ATOM     37  C   UNL A   1      40.132  23.545  26.673  1.00  0.00     0.016 A 
ATOM     38  C   UNL A   1      41.600  22.423  28.257  1.00  0.00     0.016 A 
ATOM     39  C   UNL A   1      40.465  24.769  27.222  1.00  0.00     0.010 A 
ATOM     40  C   UNL A   1      41.922  23.663  28.823  1.00  0.00     0.010 A 
ATOM     41  C   UNL A   1      41.412  24.843  28.253  1.00  0.00    -0.014 A 
BRANCH  41  42
ATOM     42  C   UNL A   1      41.982  26.184  28.536  1.00  0.00     0.031 A 
ATOM     43  C   UNL A   1      43.304  26.558  27.919  1.00  0.00     0.074 A 
ATOM     44  C   UNL A   1      41.233  27.117  29.152  1.00  0.00     0.049 A 
ATOM     45  N   UNL A   1      43.899  27.723  27.873  1.00  0.00    -0.248 NA
ATOM     46  C   UNL A   1      44.050  25.480  27.250  1.00  0.00     0.031 C 
ATOM     47  C   UNL A   1      39.909  26.885  29.727  1.00  0.00     0.029 A 
ATOM     48  N   UNL A   1      41.460  28.454  29.351  1.00  0.00    -0.354 N 
ATOM     49  C   UNL A   1      45.079  27.518  27.169  1.00  0.00     0.074 A 
ATOM     50  C   UNL A   1      45.143  26.110  26.849  1.00  0.00     0.031 C 
ATOM     51  C   UNL A   1      39.424  28.052  30.183  1.00  0.00     0.029 A 
ATOM     52  C   UNL A   1      40.417  29.101  29.965  1.00  0.00     0.049 A 
ATOM     53  H   UNL A   1      42.291  28.907  29.080  1.00  0.00     0.167 HD
ATOM     54  C   UNL A   1      46.014  28.426  26.801  1.00  0.00     0.037 A 
ATOM     55  C   UNL A   1      40.282  30.395  30.315  1.00  0.00     0.037 A 
ATOM     56  C   UNL A   1      45.945  29.828  27.114  1.00  0.00     0.049 A 
ATOM     57  C   UNL A   1      41.382  31.366  29.975  1.00  0.00     0.074 A 
ATOM     58  C   UNL A   1      46.845  30.829  26.793  1.00  0.00     0.029 A 
ATOM     59  N   UNL A   1      44.918  30.429  27.827  1.00  0.00    -0.354 N 
ATOM     60  N   UNL A   1      42.488  31.164  29.302  1.00  0.00    -0.248 NA
ATOM     61  C   UNL A   1      41.208  32.750  30.439  1.00  0.00     0.031 C 
ATOM     62  C   UNL A   1      46.394  32.022  27.365  1.00  0.00     0.029 A 
ATOM     63  C   UNL A   1      45.177  31.781  27.983  1.00  0.00     0.049 A 
ATOM     64  H   UNL A   1      44.121  29.963  28.171  1.00  0.00     0.167 HD
ATOM     65  C   UNL A   1      43.128  32.396  29.237  1.00  0.00     0.074 A 
ATOM     66  C   UNL A   1      42.274  33.343  29.923  1.00  0.00     0.031 C 
ATOM     67  C   UNL A   1      44.315  32.715  28.664  1.00  0.00     0.037 A 
BRANCH  54  68
ATOM     68  C   UNL A   1      47.211  27.923  26.043  1.00  0.00     0.064 A 
ATOM     69  C   UNL A   1      47.195  27.771  24.648  1.00  0.00     0.173 A 
ATOM     70  C   UNL A   1      48.401  27.621  26.722  1.00  0.00     0.173 A 
ATOM     71  F   UNL A   1      46.077  28.030  23.952  1.00  0.00    -0.203 F 
ATOM     72  C   UNL A   1      48.318  27.309  23.965  1.00  0.00     0.198 A 
ATOM     73  C   UNL A   1      49.532  27.193  26.031  1.00  0.00     0.198 A 
ATOM     74  F   UNL A   1      48.471  27.751  28.055  1.00  0.00    -0.203 F 
ATOM     75  F   UNL A   1      48.264  27.122  22.639  1.00  0.00    -0.200 F 
ATOM     76  C   UNL A   1      49.487  27.030  24.655  1.00  0.00     0.200 A 
ATOM     77  F   UNL A   1      50.665  26.936  26.700  1.00  0.00    -0.200 F 
ATOM     78  F   UNL A   1      50.569  26.594  23.996  1.00  0.00    -0.200 F 
ENDBRANCH  54  68
BRANCH  55  79
ATOM     79  C   UNL A   1      39.064  30.844  31.040  1.00  0.00     0.064 A 
ATOM     80  C   UNL A   1      37.978  31.416  30.361  1.00  0.00     0.173 A 
ATOM     81  C   UNL A   1      38.972  30.730  32.435  1.00  0.00     0.173 A 
ATOM     82  F   UNL A   1      38.025  31.568  29.030  1.00  0.00    -0.203 F 
ATOM     83  C   UNL A   1      36.859  31.876  31.054  1.00  0.00     0.198 A 
ATOM     84  C   UNL A   1      37.839  31.158  33.123  1.00  0.00     0.198 A 
ATOM     85  F   UNL A   1      39.983  30.192  33.133  1.00  0.00    -0.203 F 
ATOM     86  F   UNL A   1      35.857  32.465  30.387  1.00  0.00    -0.200 F 
ATOM     87  C   UNL A   1      36.788  31.740  32.432  1.00  0.00     0.200 A 
ATOM     88  F   UNL A   1      37.770  31.010  34.452  1.00  0.00    -0.200 F 
ATOM     89  F   UNL A   1      35.710  32.178  33.097  1.00  0.00    -0.200 F 
ENDBRANCH  55  79
BRANCH  67  90
ATOM     90  C   UNL A   1      44.745  34.153  28.716  1.00  0.00     0.064 A 
ATOM     91  C   UNL A   1      45.609  34.631  29.713  1.00  0.00     0.173 A 
ATOM     92  C   UNL A   1      44.317  35.058  27.733  1.00  0.00     0.173 A 
ATOM     93  F   UNL A   1      46.039  33.811  30.684  1.00  0.00    -0.203 F 
ATOM     94  C   UNL A   1      46.000  35.968  29.742  1.00  0.00     0.198 A 
ATOM     95  C   UNL A   1      44.739  36.385  27.744  1.00  0.00     0.198 A 
ATOM     96  F   UNL A   1      43.498  34.653  26.750  1.00  0.00    -0.203 F 
ATOM     97  F   UNL A   1      46.778  36.414  30.738  1.00  0.00    -0.200 F 
ATOM     98  C   UNL A   1      45.571  36.841  28.753  1.00  0.00     0.200 A 
ATOM     99  F   UNL A   1      44.339  37.222  26.777  1.00  0.00    -0.200 F 
ATOM    100  F   UNL A   1      45.954  38.125  28.780  1.00  0.00    -0.200 F 
ENDBRANCH  67  90
ENDBRANCH  41  42
ENDBRANCH  34  36
ENDBRANCH  33  34
ENDBRANCH  32  33
ENDBRANCH  31  32
ENDBRANCH  30  31
ENDBRANCH   1  30
TORSDOF 20
ENDMDL
MODEL 2
REMARK VINA RESULT:     -11.7      0.672      1.999
REMARK SMILES Cc1cc(=O)oc2cc(O[C@@H](C)C(=O)N[C@H](CC(C)C)C(=O)OCCOCCOC(=O)c3ccc(-c4c5nc(c(-c6c(F)c(F)c(F)c(F)c6F)c6ccc([nH]6)c(-c6c(F)c(F)c(F)c(F)c6F)c6nc(c(-c7c(F)c(F)c(F)c(F)c7F)c7ccc4[nH]7)C=C6)C=C5)cc3)ccc12
REMARK SMILES IDX 25 1 24 2 23 3 21 4 22 5 16 6 15 7 13 8 14 9 11 11 12 12
REMARK SMILES IDX 10 13 9 14 1 15 2 16 3 17 97 18 4 19 7 20 96 21 5 22 6 23
REMARK SMILES IDX 8 24 95 25 17 26 18 27 19 28 20 29 26 30 27 31 28 32 29 33
REMARK SMILES IDX 30 34 31 35 32 36 33 37 94 38 34 39 93 40 35 41 36 42 37 43
REMARK SMILES IDX 87 44 38 45 92 46 86 47 88 48 39 49 91 50 85 51 84 52 40 54
REMARK SMILES IDX 72 55 52 56 71 57 53 58 56 59 70 60 89 61 54 62 55 63 69 65
REMARK SMILES IDX 90 66 57 67 41 68 42 69 50 70 43 71 44 72 48 73 51 74 45 75
REMARK SMILES IDX 46 76 49 77 47 78 73 79 74 80 82 81 75 82 76 83 80 84 83 85
REMARK SMILES IDX 77 86 78 87 81 88 79 89 58 90 59 91 67 92 60 93 61 94 65 95
REMARK SMILES IDX 68 96 62 97 63 98 66 99 64 100
REMARK H PARENT 15 10 88 53 56 64
REMARK Flexibility Score: inf
ROOT
ATOM      1  C   UNL A   1      35.769  22.008  24.550  1.00  0.00     0.202 C 
ENDROOT
BRANCH   1   2
ATOM      2  C   UNL A   1      35.630  23.612  24.692  1.00  0.00     0.261 C 
BRANCH   2   3
ATOM      3  O   UNL A   1      34.332  24.326  24.297  1.00  0.00    -0.462 OA
BRANCH   3   4
ATOM      4  C   UNL A   1      34.024  25.437  23.545  1.00  0.00     0.328 C 
ATOM      5  O   UNL A   1      33.947  25.418  22.313  1.00  0.00    -0.250 OA
BRANCH   4   6
ATOM      6  C   UNL A   1      33.191  26.557  24.091  1.00  0.00     0.192 C 
BRANCH   6   7
ATOM      7  N   UNL A   1      33.113  27.572  23.091  1.00  0.00    -0.339 N 
ATOM      8  C   UNL A   1      31.946  28.305  22.948  1.00  0.00     0.261 C 
ATOM      9  O   UNL A   1      32.097  29.437  22.465  1.00  0.00    -0.271 OA
ATOM     10  H   UNL A   1      33.884  27.749  22.505  1.00  0.00     0.164 HD
BRANCH   8  11
ATOM     11  C   UNL A   1      30.379  27.745  23.284  1.00  0.00     0.258 C 
ATOM     12  C   UNL A   1      29.379  28.876  23.036  1.00  0.00     0.064 C 
BRANCH  11  13
ATOM     13  O   UNL A   1      29.684  26.684  23.964  1.00  0.00    -0.481 OA
BRANCH  13  14
ATOM     14  C   UNL A   1      30.086  25.481  24.455  1.00  0.00     0.124 A 
ATOM     15  C   UNL A   1      32.353  20.747  23.953  1.00  0.00     0.045 C 
ATOM     16  C   UNL A   1      32.127  21.718  25.090  1.00  0.00    -0.033 A 
ATOM     17  C   UNL A   1      32.674  21.604  26.302  1.00  0.00     0.098 A 
ATOM     18  C   UNL A   1      31.313  22.907  24.893  1.00  0.00     0.021 A 
ATOM     19  C   UNL A   1      32.434  22.592  27.375  1.00  0.00     0.336 A 
ATOM     20  C   UNL A   1      30.938  23.781  25.928  1.00  0.00     0.142 A 
ATOM     21  C   UNL A   1      30.995  23.292  23.639  1.00  0.00     0.016 A 
ATOM     22  O   UNL A   1      33.129  22.582  28.384  1.00  0.00    -0.246 OA
ATOM     23  O   UNL A   1      31.374  23.480  27.230  1.00  0.00    -0.423 OA
ATOM     24  C   UNL A   1      30.287  25.044  25.736  1.00  0.00     0.094 A 
ATOM     25  C   UNL A   1      30.352  24.513  23.483  1.00  0.00     0.047 A 
ENDBRANCH  13  14
ENDBRANCH  11  13
ENDBRANCH   8  11
ENDBRANCH   6   7
BRANCH   6  26
ATOM     26  C   UNL A   1      33.827  26.692  25.542  1.00  0.00     0.040 C 
BRANCH  26  27
ATOM     27  C   UNL A   1      33.389  27.897  26.469  1.00  0.00    -0.015 C 
ATOM     28  C   UNL A   1      33.671  29.319  25.977  1.00  0.00     0.007 C 
ATOM     29  C   UNL A   1      31.884  27.863  26.851  1.00  0.00     0.007 C 
ENDBRANCH  26  27
ENDBRANCH   6  26
ENDBRANCH   4   6
ENDBRANCH   3   4
ENDBRANCH   2   3
ENDBRANCH   1   2
BRANCH   1  30
ATOM     30  O   UNL A   1      37.119  21.536  24.375  1.00  0.00    -0.374 OA
BRANCH  30  31
ATOM     31  C   UNL A   1      38.137  21.374  25.395  1.00  0.00     0.202 C 
BRANCH  31  32
ATOM     32  C   UNL A   1      39.246  20.288  25.511  1.00  0.00     0.261 C 
BRANCH  32  33
ATOM     33  O   UNL A   1      40.071  20.372  26.667  1.00  0.00    -0.460 OA
BRANCH  33  34
ATOM     34  C   UNL A   1      41.303  20.866  26.428  1.00  0.00     0.338 C 
ATOM     35  O   UNL A   1      42.105  20.487  25.615  1.00  0.00    -0.246 OA
BRANCH  34  36
ATOM     36  C   UNL A   1      41.426  22.141  27.157  1.00  0.00     0.060 A 
ATOM     37  C   UNL A   1      40.896  23.242  26.487  1.00  0.00     0.016 A 
ATOM     38  C   UNL A   1      42.060  22.282  28.396  1.00  0.00     0.016 A 
ATOM     39  C   UNL A   1      41.121  24.513  26.981  1.00  0.00     0.010 A 
ATOM     40  C   UNL A   1      42.271  23.570  28.904  1.00  0.00     0.010 A 
ATOM     41  C   UNL A   1      41.868  24.690  28.154  1.00  0.00    -0.014 A 
BRANCH  41  42
ATOM     42  C   UNL A   1      42.373  26.059  28.420  1.00  0.00     0.031 A 
ATOM     43  C   UNL A   1      43.674  26.489  27.795  1.00  0.00     0.074 A 
ATOM     44  C   UNL A   1      41.583  26.962  29.029  1.00  0.00     0.049 A 
ATOM     45  N   UNL A   1      44.213  27.682  27.734  1.00  0.00    -0.248 NA
ATOM     46  C   UNL A   1      44.470  25.441  27.136  1.00  0.00     0.031 C 
ATOM     47  C   UNL A   1      40.272  26.674  29.611  1.00  0.00     0.029 A 
ATOM     48  N   UNL A   1      41.746  28.311  29.212  1.00  0.00    -0.354 N 
ATOM     49  C   UNL A   1      45.399  27.525  27.028  1.00  0.00     0.074 A 
ATOM     50  C   UNL A   1      45.530  26.118  26.723  1.00  0.00     0.031 C 
ATOM     51  C   UNL A   1      39.733  27.821  30.055  1.00  0.00     0.029 A 
ATOM     52  C   UNL A   1      40.674  28.914  29.823  1.00  0.00     0.049 A 
ATOM     53  H   UNL A   1      42.553  28.800  28.932  1.00  0.00     0.167 HD
ATOM     54  C   UNL A   1      46.288  28.473  26.646  1.00  0.00     0.037 A 
ATOM     55  C   UNL A   1      40.478  30.204  30.158  1.00  0.00     0.037 A 
ATOM     56  C   UNL A   1      46.153  29.873  26.944  1.00  0.00     0.049 A 
ATOM     57  C   UNL A   1      41.529  31.223  29.803  1.00  0.00     0.074 A 
ATOM     58  C   UNL A   1      47.003  30.912  26.608  1.00  0.00     0.029 A 
ATOM     59  N   UNL A   1      45.100  30.432  27.654  1.00  0.00    -0.354 N 
ATOM     60  N   UNL A   1      42.642  31.066  29.129  1.00  0.00    -0.248 NA
ATOM     61  C   UNL A   1      41.290  32.602  30.252  1.00  0.00     0.031 C 
ATOM     62  C   UNL A   1      46.496  32.089  27.169  1.00  0.00     0.029 A 
ATOM     63  C   UNL A   1      45.294  31.797  27.793  1.00  0.00     0.049 A 
ATOM     64  H   UNL A   1      44.327  29.933  28.006  1.00  0.00     0.167 HD
ATOM     65  C   UNL A   1      43.222  32.327  29.048  1.00  0.00     0.074 A 
ATOM     66  C   UNL A   1      42.325  33.240  29.725  1.00  0.00     0.031 C 
ATOM     67  C   UNL A   1      44.390  32.696  28.466  1.00  0.00     0.037 A 
BRANCH  54  68
ATOM     68  C   UNL A   1      47.505  28.019  25.890  1.00  0.00     0.064 A 
ATOM     69  C   UNL A   1      48.720  27.742  26.536  1.00  0.00     0.173 A 
ATOM     70  C   UNL A   1      47.443  27.828  24.501  1.00  0.00     0.173 A 
ATOM     71  F   UNL A   1      48.838  27.925  27.860  1.00  0.00    -0.203 F 
ATOM     72  C   UNL A   1      49.833  27.317  25.816  1.00  0.00     0.198 A 
ATOM     73  C   UNL A   1      48.549  27.369  23.790  1.00  0.00     0.198 A 
ATOM     74  F   UNL A   1      46.306  28.075  23.834  1.00  0.00    -0.203 F 
ATOM     75  F   UNL A   1      50.998  27.109  26.447  1.00  0.00    -0.200 F 
ATOM     76  C   UNL A   1      49.745  27.122  24.446  1.00  0.00     0.200 A 
ATOM     77  F   UNL A   1      48.457  27.169  22.468  1.00  0.00    -0.200 F 
ATOM     78  F   UNL A   1      50.815  26.704  23.756  1.00  0.00    -0.200 F 
ENDBRANCH  54  68
BRANCH  55  79
ATOM     79  C   UNL A   1      39.242  30.602  30.882  1.00  0.00     0.064 A 
ATOM     80  C   UNL A   1      39.149  30.509  32.277  1.00  0.00     0.173 A 
ATOM     81  C   UNL A   1      38.115  31.064  30.184  1.00  0.00     0.173 A 
ATOM     82  F   UNL A   1      40.189  30.052  32.989  1.00  0.00    -0.203 F 
ATOM     83  C   UNL A   1      37.970  30.841  32.943  1.00  0.00     0.198 A 
ATOM     84  C   UNL A   1      36.950  31.429  30.853  1.00  0.00     0.198 A 
ATOM     85  F   UNL A   1      38.151  31.171  28.847  1.00  0.00    -0.203 F 
ATOM     86  F   UNL A   1      37.891  30.694  34.273  1.00  0.00    -0.200 F 
ATOM     87  C   UNL A   1      36.875  31.307  32.231  1.00  0.00     0.200 A 
ATOM     88  F   UNL A   1      35.901  31.893  30.162  1.00  0.00    -0.200 F 
ATOM     89  F   UNL A   1      35.744  31.630  32.872  1.00  0.00    -0.200 F 
ENDBRANCH  55  79
BRANCH  67  90
ATOM     90  C   UNL A   1      44.751  34.154  28.501  1.00  0.00     0.064 A 
ATOM     91  C   UNL A   1      44.252  35.063  27.557  1.00  0.00     0.173 A 
ATOM     92  C   UNL A   1      45.579  34.655  29.519  1.00  0.00     0.173 A 
ATOM     93  F   UNL A   1      43.466  34.635  26.557  1.00  0.00    -0.203 F 
ATOM     94  C   UNL A   1      44.596  36.412  27.609  1.00  0.00     0.198 A 
ATOM     95  C   UNL A   1      45.890  36.010  29.589  1.00  0.00     0.198 A 
ATOM     96  F   UNL A   1      46.075  33.832  30.454  1.00  0.00    -0.203 F 
ATOM     97  F   UNL A   1      44.154  37.250  26.661  1.00  0.00    -0.200 F 
ATOM     98  C   UNL A   1      45.407  36.886  28.630  1.00  0.00     0.200 A 
ATOM     99  F   UNL A   1      46.658  36.469  30.587  1.00  0.00    -0.200 F 
ATOM    100  F   UNL A   1      45.730  38.185  28.681  1.00  0.00    -0.200 F 
ENDBRANCH  67  90
ENDBRANCH  41  42
ENDBRANCH  34  36
ENDBRANCH  33  34
ENDBRANCH  32  33
ENDBRANCH  31  32
ENDBRANCH  30  31
ENDBRANCH   1  30
TORSDOF 20
ENDMDL
MODEL 3
REMARK VINA RESULT:     -11.7      4.561      9.873
REMARK SMILES Cc1cc(=O)oc2cc(O[C@@H](C)C(=O)N[C@H](CC(C)C)C(=O)OCCOCCOC(=O)c3ccc(-c4c5nc(c(-c6c(F)c(F)c(F)c(F)c6F)c6ccc([nH]6)c(-c6c(F)c(F)c(F)c(F)c6F)c6nc(c(-c7c(F)c(F)c(F)c(F)c7F)c7ccc4[nH]7)C=C6)C=C5)cc3)ccc12
REMARK SMILES IDX 25 1 24 2 23 3 21 4 22 5 16 6 15 7 13 8 14 9 11 11 12 12
REMARK SMILES IDX 10 13 9 14 1 15 2 16 3 17 97 18 4 19 7 20 96 21 5 22 6 23
REMARK SMILES IDX 8 24 95 25 17 26 18 27 19 28 20 29 26 30 27 31 28 32 29 33
REMARK SMILES IDX 30 34 31 35 32 36 33 37 94 38 34 39 93 40 35 41 36 42 37 43
REMARK SMILES IDX 87 44 38 45 92 46 86 47 88 48 39 49 91 50 85 51 84 52 40 54
REMARK SMILES IDX 72 55 52 56 71 57 53 58 56 59 70 60 89 61 54 62 55 63 69 65
REMARK SMILES IDX 90 66 57 67 41 68 42 69 50 70 43 71 44 72 48 73 51 74 45 75
REMARK SMILES IDX 46 76 49 77 47 78 73 79 74 80 82 81 75 82 76 83 80 84 83 85
REMARK SMILES IDX 77 86 78 87 81 88 79 89 58 90 59 91 67 92 60 93 61 94 65 95
REMARK SMILES IDX 68 96 62 97 63 98 66 99 64 100
REMARK H PARENT 15 10 88 53 56 64
REMARK Flexibility Score: inf
ROOT
ATOM      1  C   UNL A   1      33.068  29.873  27.195  1.00  0.00     0.202 C 
ENDROOT
BRANCH   1   2
ATOM      2  C   UNL A   1      32.638  28.467  27.865  1.00  0.00     0.261 C 
BRANCH   2   3
ATOM      3  O   UNL A   1      31.898  27.402  27.048  1.00  0.00    -0.462 OA
BRANCH   3   4
ATOM      4  C   UNL A   1      32.221  26.600  25.976  1.00  0.00     0.328 C 
ATOM      5  O   UNL A   1      33.234  25.896  25.941  1.00  0.00    -0.250 OA
BRANCH   4   6
ATOM      6  C   UNL A   1      31.173  26.033  25.068  1.00  0.00     0.192 C 
BRANCH   6   7
ATOM      7  N   UNL A   1      30.715  27.083  24.218  1.00  0.00    -0.339 N 
ATOM      8  C   UNL A   1      31.152  27.141  22.904  1.00  0.00     0.261 C 
ATOM      9  O   UNL A   1      30.377  27.713  22.122  1.00  0.00    -0.271 OA
ATOM     10  H   UNL A   1      30.094  27.764  24.564  1.00  0.00     0.164 HD
BRANCH   8  11
ATOM     11  C   UNL A   1      32.653  26.592  22.336  1.00  0.00     0.258 C 
ATOM     12  C   UNL A   1      33.529  27.797  21.987  1.00  0.00     0.064 C 
BRANCH  11  13
ATOM     13  O   UNL A   1      33.300  25.414  21.818  1.00  0.00    -0.481 OA
BRANCH  13  14
ATOM     14  C   UNL A   1      33.626  24.218  22.376  1.00  0.00     0.124 A 
ATOM     15  C   UNL A   1      36.310  21.227  25.790  1.00  0.00     0.045 C 
ATOM     16  C   UNL A   1      34.985  21.116  25.072  1.00  0.00    -0.033 A 
ATOM     17  C   UNL A   1      34.061  20.188  25.328  1.00  0.00     0.098 A 
ATOM     18  C   UNL A   1      34.611  22.092  24.060  1.00  0.00     0.021 A 
ATOM     19  C   UNL A   1      32.771  20.134  24.607  1.00  0.00     0.336 A 
ATOM     20  C   UNL A   1      33.468  21.982  23.249  1.00  0.00     0.142 A 
ATOM     21  C   UNL A   1      35.306  23.244  23.961  1.00  0.00     0.016 A 
ATOM     22  O   UNL A   1      31.865  19.424  25.027  1.00  0.00    -0.246 OA
ATOM     23  O   UNL A   1      32.645  20.857  23.427  1.00  0.00    -0.423 OA
ATOM     24  C   UNL A   1      32.986  23.008  22.371  1.00  0.00     0.094 A 
ATOM     25  C   UNL A   1      34.826  24.215  23.093  1.00  0.00     0.047 A 
ENDBRANCH  13  14
ENDBRANCH  11  13
ENDBRANCH   8  11
ENDBRANCH   6   7
BRANCH   6  26
ATOM     26  C   UNL A   1      30.310  25.212  26.121  1.00  0.00     0.040 C 
BRANCH  26  27
ATOM     27  C   UNL A   1      30.457  23.637  26.181  1.00  0.00    -0.015 C 
ATOM     28  C   UNL A   1      31.839  23.057  26.494  1.00  0.00     0.007 C 
ATOM     29  C   UNL A   1      29.472  22.965  27.175  1.00  0.00     0.007 C 
ENDBRANCH  26  27
ENDBRANCH   6  26
ENDBRANCH   4   6
ENDBRANCH   3   4
ENDBRANCH   2   3
ENDBRANCH   1   2
BRANCH   1  30
ATOM     30  O   UNL A   1      32.089  30.435  26.299  1.00  0.00    -0.374 OA
BRANCH  30  31
ATOM     31  C   UNL A   1      31.325  31.655  26.478  1.00  0.00     0.202 C 
BRANCH  31  32
ATOM     32  C   UNL A   1      31.820  33.073  26.886  1.00  0.00     0.261 C 
BRANCH  32  33
ATOM     33  O   UNL A   1      33.043  33.113  27.611  1.00  0.00    -0.460 OA
BRANCH  33  34
ATOM     34  C   UNL A   1      33.193  34.212  28.377  1.00  0.00     0.338 C 
ATOM     35  O   UNL A   1      32.441  35.148  28.479  1.00  0.00    -0.246 OA
BRANCH  34  36
ATOM     36  C   UNL A   1      34.322  33.975  29.294  1.00  0.00     0.060 A 
ATOM     37  C   UNL A   1      35.560  34.380  28.800  1.00  0.00     0.016 A 
ATOM     38  C   UNL A   1      34.206  33.352  30.541  1.00  0.00     0.016 A 
ATOM     39  C   UNL A   1      36.711  34.038  29.485  1.00  0.00     0.010 A 
ATOM     40  C   UNL A   1      35.373  33.023  31.241  1.00  0.00     0.010 A 
ATOM     41  C   UNL A   1      36.629  33.299  30.673  1.00  0.00    -0.014 A 
BRANCH  41  42
ATOM     42  C   UNL A   1      37.884  32.664  31.148  1.00  0.00     0.031 A 
ATOM     43  C   UNL A   1      38.384  32.987  32.531  1.00  0.00     0.074 A 
ATOM     44  C   UNL A   1      38.442  31.664  30.441  1.00  0.00     0.049 A 
ATOM     45  N   UNL A   1      39.341  32.419  33.222  1.00  0.00    -0.248 NA
ATOM     46  C   UNL A   1      37.707  34.085  33.240  1.00  0.00     0.031 C 
ATOM     47  C   UNL A   1      37.998  31.220  29.120  1.00  0.00     0.029 A 
ATOM     48  N   UNL A   1      39.467  30.812  30.759  1.00  0.00    -0.354 N 
ATOM     49  C   UNL A   1      39.373  33.084  34.441  1.00  0.00     0.074 A 
ATOM     50  C   UNL A   1      38.377  34.130  34.381  1.00  0.00     0.031 C 
ATOM     51  C   UNL A   1      38.725  30.151  28.755  1.00  0.00     0.029 A 
ATOM     52  C   UNL A   1      39.707  29.861  29.798  1.00  0.00     0.049 A 
ATOM     53  H   UNL A   1      39.983  30.875  31.595  1.00  0.00     0.167 HD
ATOM     54  C   UNL A   1      40.148  32.832  35.523  1.00  0.00     0.037 A 
ATOM     55  C   UNL A   1      40.619  28.870  29.764  1.00  0.00     0.037 A 
ATOM     56  C   UNL A   1      41.134  31.786  35.584  1.00  0.00     0.049 A 
ATOM     57  C   UNL A   1      41.532  28.672  30.945  1.00  0.00     0.074 A 
ATOM     58  C   UNL A   1      41.975  31.454  36.631  1.00  0.00     0.029 A 
ATOM     59  N   UNL A   1      41.416  30.906  34.549  1.00  0.00    -0.354 N 
ATOM     60  N   UNL A   1      41.549  29.300  32.095  1.00  0.00    -0.248 NA
ATOM     61  C   UNL A   1      42.549  27.618  30.824  1.00  0.00     0.031 C 
ATOM     62  C   UNL A   1      42.808  30.413  36.208  1.00  0.00     0.029 A 
ATOM     63  C   UNL A   1      42.440  30.050  34.922  1.00  0.00     0.049 A 
ATOM     64  H   UNL A   1      40.956  30.891  33.678  1.00  0.00     0.167 HD
ATOM     65  C   UNL A   1      42.555  28.702  32.844  1.00  0.00     0.074 A 
ATOM     66  C   UNL A   1      43.112  27.648  32.023  1.00  0.00     0.031 C 
ATOM     67  C   UNL A   1      42.981  28.999  34.097  1.00  0.00     0.037 A 
BRANCH  54  68
ATOM     68  C   UNL A   1      39.980  33.723  36.721  1.00  0.00     0.064 A 
ATOM     69  C   UNL A   1      40.725  34.902  36.879  1.00  0.00     0.173 A 
ATOM     70  C   UNL A   1      39.035  33.409  37.710  1.00  0.00     0.173 A 
ATOM     71  F   UNL A   1      41.654  35.241  35.972  1.00  0.00    -0.203 F 
ATOM     72  C   UNL A   1      40.549  35.717  37.994  1.00  0.00     0.198 A 
ATOM     73  C   UNL A   1      38.837  34.245  38.805  1.00  0.00     0.198 A 
ATOM     74  F   UNL A   1      38.294  32.295  37.607  1.00  0.00    -0.203 F 
ATOM     75  F   UNL A   1      41.309  36.810  38.150  1.00  0.00    -0.200 F 
ATOM     76  C   UNL A   1      39.600  35.394  38.952  1.00  0.00     0.200 A 
ATOM     77  F   UNL A   1      37.909  33.936  39.722  1.00  0.00    -0.200 F 
ATOM     78  F   UNL A   1      39.425  36.183  40.019  1.00  0.00    -0.200 F 
ENDBRANCH  54  68
BRANCH  55  79
ATOM     79  C   UNL A   1      40.723  27.999  28.563  1.00  0.00     0.064 A 
ATOM     80  C   UNL A   1      41.479  28.380  27.446  1.00  0.00     0.173 A 
ATOM     81  C   UNL A   1      40.045  26.772  28.502  1.00  0.00     0.173 A 
ATOM     82  F   UNL A   1      42.127  29.554  27.444  1.00  0.00    -0.203 F 
ATOM     83  C   UNL A   1      41.533  27.578  26.307  1.00  0.00     0.198 A 
ATOM     84  C   UNL A   1      40.128  25.955  27.378  1.00  0.00     0.198 A 
ATOM     85  F   UNL A   1      39.306  26.360  29.544  1.00  0.00    -0.203 F 
ATOM     86  F   UNL A   1      42.221  27.990  25.233  1.00  0.00    -0.200 F 
ATOM     87  C   UNL A   1      40.864  26.364  26.277  1.00  0.00     0.200 A 
ATOM     88  F   UNL A   1      39.492  24.777  27.361  1.00  0.00    -0.200 F 
ATOM     89  F   UNL A   1      40.920  25.591  25.184  1.00  0.00    -0.200 F 
ENDBRANCH  55  79
BRANCH  67  90
ATOM     90  C   UNL A   1      44.078  28.150  34.675  1.00  0.00     0.064 A 
ATOM     91  C   UNL A   1      45.426  28.529  34.598  1.00  0.00     0.173 A 
ATOM     92  C   UNL A   1      43.770  26.958  35.350  1.00  0.00     0.173 A 
ATOM     93  F   UNL A   1      45.776  29.653  33.954  1.00  0.00    -0.203 F 
ATOM     94  C   UNL A   1      46.427  27.729  35.144  1.00  0.00     0.198 A 
ATOM     95  C   UNL A   1      44.770  26.181  35.927  1.00  0.00     0.198 A 
ATOM     96  F   UNL A   1      42.496  26.553  35.463  1.00  0.00    -0.203 F 
ATOM     97  F   UNL A   1      47.713  28.082  35.006  1.00  0.00    -0.200 F 
ATOM     98  C   UNL A   1      46.098  26.560  35.815  1.00  0.00     0.200 A 
ATOM     99  F   UNL A   1      44.448  25.062  36.591  1.00  0.00    -0.200 F 
ATOM    100  F   UNL A   1      47.063  25.797  36.346  1.00  0.00    -0.200 F 
ENDBRANCH  67  90
ENDBRANCH  41  42
ENDBRANCH  34  36
ENDBRANCH  33  34
ENDBRANCH  32  33
ENDBRANCH  31  32
ENDBRANCH  30  31
ENDBRANCH   1  30
TORSDOF 20
ENDMDL
