MODEL 1
REMARK VINA RESULT:     -11.3      0.000      0.000
REMARK SMILES CC[C@@H](NS(=O)(=O)c1cc(C)ccc1C)C(=O)OCCOCCOC(=O)c1ccc(-c2c3nc(c(-c4c(F)c(F)c(F)c(F)c4F)c4ccc([nH]4)c(-c4c(F)c(F)c(F)c(F)c4F)c4nc(c(-c5c(F)c(F)c(F)c(F)c5F)c5ccc2[nH]5)C=C4)C=C3)cc1
REMARK SMILES IDX 20 1 19 2 18 3 16 4 17 5 3 6 2 7 1 8 4 9 5 11 6 12 7 13 8 14
REMARK SMILES IDX 9 15 14 16 10 17 13 18 15 19 11 20 12 21 21 22 22 23 23 24
REMARK SMILES IDX 24 25 25 26 26 27 27 28 28 29 89 30 29 31 88 32 30 33 31 34
REMARK SMILES IDX 32 35 82 36 33 37 87 38 81 39 83 40 34 41 86 42 80 43 79 44
REMARK SMILES IDX 35 46 67 47 47 48 66 49 48 50 51 51 65 52 84 53 49 54 50 55
REMARK SMILES IDX 64 57 85 58 52 59 36 60 37 61 45 62 38 63 39 64 43 65 46 66
REMARK SMILES IDX 40 67 41 68 44 69 42 70 68 71 69 72 77 73 70 74 71 75 75 76
REMARK SMILES IDX 78 77 72 78 73 79 76 80 74 81 53 82 54 83 62 84 55 85 56 86
REMARK SMILES IDX 60 87 63 88 57 89 58 90 61 91 59 92
REMARK H PARENT 4 10 83 45 51 56
REMARK Flexibility Score: inf
ROOT
ATOM      1  C   UNL A   1      37.943  22.024  25.570  1.00  0.00     0.202 C 
ENDROOT
BRANCH   1   2
ATOM      2  C   UNL A   1      36.573  22.587  25.869  1.00  0.00     0.261 C 
BRANCH   2   3
ATOM      3  O   UNL A   1      35.626  21.510  25.768  1.00  0.00    -0.462 OA
BRANCH   3   4
ATOM      4  C   UNL A   1      34.438  21.534  26.448  1.00  0.00     0.324 C 
ATOM      5  O   UNL A   1      34.220  21.556  27.649  1.00  0.00    -0.250 OA
BRANCH   4   6
ATOM      6  C   UNL A   1      33.296  21.293  25.520  1.00  0.00     0.179 C 
BRANCH   6   7
ATOM      7  C   UNL A   1      33.081  19.801  25.315  1.00  0.00     0.028 C 
ATOM      8  C   UNL A   1      32.544  19.478  23.931  1.00  0.00     0.006 C 
ENDBRANCH   6   7
BRANCH   6   9
ATOM      9  N   UNL A   1      32.200  21.845  26.247  1.00  0.00    -0.197 NA
ATOM     10  H   UNL A   1      32.431  21.729  27.234  1.00  0.00     0.142 HD
BRANCH   9  11
ATOM     11  S   UNL A   1      31.709  23.407  26.077  1.00  0.00     0.241 S 
ATOM     12  O   UNL A   1      30.717  23.316  25.038  1.00  0.00    -0.207 OA
ATOM     13  O   UNL A   1      31.343  23.583  27.471  1.00  0.00    -0.207 OA
BRANCH  11  14
ATOM     14  C   UNL A   1      33.041  24.839  25.535  1.00  0.00     0.085 A 
ATOM     15  C   UNL A   1      32.409  26.436  26.233  1.00  0.00     0.025 A 
ATOM     16  C   UNL A   1      33.629  24.795  23.759  1.00  0.00    -0.031 A 
ATOM     17  C   UNL A   1      32.196  27.926  25.168  1.00  0.00    -0.050 A 
ATOM     18  C   UNL A   1      33.400  26.291  22.643  1.00  0.00     0.005 A 
ATOM     19  C   UNL A   1      34.339  23.632  23.165  1.00  0.00     0.046 C 
ATOM     20  C   UNL A   1      31.861  29.241  25.813  1.00  0.00     0.044 C 
ATOM     21  C   UNL A   1      32.600  27.840  23.370  1.00  0.00     0.004 A 
ENDBRANCH  11  14
ENDBRANCH   9  11
ENDBRANCH   6   9
ENDBRANCH   4   6
ENDBRANCH   3   4
ENDBRANCH   2   3
ENDBRANCH   1   2
BRANCH   1  22
ATOM     22  O   UNL A   1      37.650  20.756  25.049  1.00  0.00    -0.374 OA
BRANCH  22  23
ATOM     23  C   UNL A   1      38.565  19.689  25.147  1.00  0.00     0.202 C 
BRANCH  23  24
ATOM     24  C   UNL A   1      39.813  20.253  25.783  1.00  0.00     0.261 C 
BRANCH  24  25
ATOM     25  O   UNL A   1      40.828  19.203  25.839  1.00  0.00    -0.460 OA
BRANCH  25  26
ATOM     26  C   UNL A   1      42.121  19.593  25.585  1.00  0.00     0.338 C 
ATOM     27  O   UNL A   1      42.837  19.059  24.751  1.00  0.00    -0.246 OA
BRANCH  26  28
ATOM     28  C   UNL A   1      42.624  20.607  26.594  1.00  0.00     0.060 A 
ATOM     29  C   UNL A   1      41.984  20.786  27.832  1.00  0.00     0.016 A 
ATOM     30  C   UNL A   1      43.497  21.602  26.178  1.00  0.00     0.016 A 
ATOM     31  C   UNL A   1      42.104  22.013  28.552  1.00  0.00     0.010 A 
ATOM     32  C   UNL A   1      43.459  22.857  26.803  1.00  0.00     0.010 A 
ATOM     33  C   UNL A   1      42.722  23.140  27.977  1.00  0.00    -0.014 A 
BRANCH  33  34
ATOM     34  C   UNL A   1      43.124  24.609  28.729  1.00  0.00     0.031 A 
ATOM     35  C   UNL A   1      41.600  25.312  27.913  1.00  0.00     0.074 A 
ATOM     36  C   UNL A   1      44.396  25.458  29.815  1.00  0.00     0.049 A 
ATOM     37  N   UNL A   1      41.558  26.367  27.111  1.00  0.00    -0.248 NA
ATOM     38  C   UNL A   1      40.206  24.861  28.196  1.00  0.00     0.031 C 
ATOM     39  C   UNL A   1      45.982  25.439  30.252  1.00  0.00     0.029 A 
ATOM     40  N   UNL A   1      44.252  26.579  30.940  1.00  0.00    -0.354 N 
ATOM     41  C   UNL A   1      40.339  26.966  27.372  1.00  0.00     0.074 A 
ATOM     42  C   UNL A   1      39.471  25.873  27.714  1.00  0.00     0.031 C 
ATOM     43  C   UNL A   1      46.247  25.983  31.479  1.00  0.00     0.029 A 
ATOM     44  C   UNL A   1      45.042  26.480  32.097  1.00  0.00     0.049 A 
ATOM     45  H   UNL A   1      43.622  27.326  30.825  1.00  0.00     0.167 HD
ATOM     46  C   UNL A   1      40.240  28.287  27.737  1.00  0.00     0.037 A 
ATOM     47  C   UNL A   1      45.017  27.324  33.182  1.00  0.00     0.037 A 
ATOM     48  C   UNL A   1      41.453  29.080  27.554  1.00  0.00     0.049 A 
ATOM     49  C   UNL A   1      44.455  28.588  32.624  1.00  0.00     0.074 A 
ATOM     50  C   UNL A   1      42.315  29.356  26.511  1.00  0.00     0.029 A 
ATOM     51  N   UNL A   1      42.031  29.677  28.660  1.00  0.00    -0.354 N 
ATOM     52  N   UNL A   1      45.079  29.310  31.730  1.00  0.00    -0.248 NA
ATOM     53  C   UNL A   1      43.018  28.803  32.712  1.00  0.00     0.031 C 
ATOM     54  C   UNL A   1      43.524  29.865  27.082  1.00  0.00     0.029 A 
ATOM     55  C   UNL A   1      43.377  29.899  28.467  1.00  0.00     0.049 A 
ATOM     56  H   UNL A   1      41.543  29.913  29.482  1.00  0.00     0.167 HD
ATOM     57  C   UNL A   1      44.083  29.743  30.864  1.00  0.00     0.074 A 
ATOM     58  C   UNL A   1      42.832  29.495  31.584  1.00  0.00     0.031 C 
ATOM     59  C   UNL A   1      44.364  29.958  29.537  1.00  0.00     0.037 A 
BRANCH  46  60
ATOM     60  C   UNL A   1      39.110  28.851  28.582  1.00  0.00     0.064 A 
ATOM     61  C   UNL A   1      39.035  28.495  29.945  1.00  0.00     0.173 A 
ATOM     62  C   UNL A   1      37.979  29.519  28.065  1.00  0.00     0.173 A 
ATOM     63  F   UNL A   1      40.030  27.807  30.522  1.00  0.00    -0.203 F 
ATOM     64  C   UNL A   1      37.905  28.766  30.722  1.00  0.00     0.198 A 
ATOM     65  C   UNL A   1      36.878  29.842  28.861  1.00  0.00     0.198 A 
ATOM     66  F   UNL A   1      37.857  29.788  26.759  1.00  0.00    -0.203 F 
ATOM     67  F   UNL A   1      37.840  28.312  31.982  1.00  0.00    -0.200 F 
ATOM     68  C   UNL A   1      36.831  29.447  30.183  1.00  0.00     0.200 A 
ATOM     69  F   UNL A   1      35.831  30.480  28.316  1.00  0.00    -0.200 F 
ATOM     70  F   UNL A   1      35.735  29.679  30.917  1.00  0.00    -0.200 F 
ENDBRANCH  46  60
BRANCH  47  71
ATOM     71  C   UNL A   1      44.765  26.992  34.648  1.00  0.00     0.064 A 
ATOM     72  C   UNL A   1      45.482  27.673  35.650  1.00  0.00     0.173 A 
ATOM     73  C   UNL A   1      43.740  26.166  35.150  1.00  0.00     0.173 A 
ATOM     74  F   UNL A   1      46.413  28.573  35.302  1.00  0.00    -0.203 F 
ATOM     75  C   UNL A   1      45.225  27.502  37.027  1.00  0.00     0.198 A 
ATOM     76  C   UNL A   1      43.513  25.946  36.520  1.00  0.00     0.198 A 
ATOM     77  F   UNL A   1      42.820  25.661  34.337  1.00  0.00    -0.203 F 
ATOM     78  F   UNL A   1      45.899  28.229  37.930  1.00  0.00    -0.200 F 
ATOM     79  C   UNL A   1      44.254  26.621  37.463  1.00  0.00     0.200 A 
ATOM     80  F   UNL A   1      42.520  25.131  36.918  1.00  0.00    -0.200 F 
ATOM     81  F   UNL A   1      43.993  26.472  38.771  1.00  0.00    -0.200 F 
ENDBRANCH  47  71
BRANCH  59  82
ATOM     82  C   UNL A   1      45.845  29.925  29.149  1.00  0.00     0.064 A 
ATOM     83  C   UNL A   1      46.441  28.774  28.622  1.00  0.00     0.173 A 
ATOM     84  C   UNL A   1      46.666  31.044  29.160  1.00  0.00     0.173 A 
ATOM     85  F   UNL A   1      45.648  27.795  28.242  1.00  0.00    -0.203 F 
ATOM     86  C   UNL A   1      47.790  28.647  28.302  1.00  0.00     0.198 A 
ATOM     87  C   UNL A   1      48.010  30.968  28.746  1.00  0.00     0.198 A 
ATOM     88  F   UNL A   1      46.155  32.237  29.488  1.00  0.00    -0.203 F 
ATOM     89  F   UNL A   1      48.280  27.480  27.853  1.00  0.00    -0.200 F 
ATOM     90  C   UNL A   1      48.585  29.762  28.367  1.00  0.00     0.200 A 
ATOM     91  F   UNL A   1      48.740  32.088  28.661  1.00  0.00    -0.200 F 
ATOM     92  F   UNL A   1      49.869  29.695  27.985  1.00  0.00    -0.200 F 
ENDBRANCH  59  82
ENDBRANCH  33  34
ENDBRANCH  26  28
ENDBRANCH  25  26
ENDBRANCH  24  25
ENDBRANCH  23  24
ENDBRANCH  22  23
ENDBRANCH   1  22
TORSDOF 18
ENDMDL
MODEL 2
REMARK VINA RESULT:     -11.3      3.831      8.932
REMARK SMILES CC[C@@H](NS(=O)(=O)c1cc(C)ccc1C)C(=O)OCCOCCOC(=O)c1ccc(-c2c3nc(c(-c4c(F)c(F)c(F)c(F)c4F)c4ccc([nH]4)c(-c4c(F)c(F)c(F)c(F)c4F)c4nc(c(-c5c(F)c(F)c(F)c(F)c5F)c5ccc2[nH]5)C=C4)C=C3)cc1
REMARK SMILES IDX 20 1 19 2 18 3 16 4 17 5 3 6 2 7 1 8 4 9 5 11 6 12 7 13 8 14
REMARK SMILES IDX 9 15 14 16 10 17 13 18 15 19 11 20 12 21 21 22 22 23 23 24
REMARK SMILES IDX 24 25 25 26 26 27 27 28 28 29 89 30 29 31 88 32 30 33 31 34
REMARK SMILES IDX 32 35 82 36 33 37 87 38 81 39 83 40 34 41 86 42 80 43 79 44
REMARK SMILES IDX 35 46 67 47 47 48 66 49 48 50 51 51 65 52 84 53 49 54 50 55
REMARK SMILES IDX 64 57 85 58 52 59 36 60 37 61 45 62 38 63 39 64 43 65 46 66
REMARK SMILES IDX 40 67 41 68 44 69 42 70 68 71 69 72 77 73 70 74 71 75 75 76
REMARK SMILES IDX 78 77 72 78 73 79 76 80 74 81 53 82 54 83 62 84 55 85 56 86
REMARK SMILES IDX 60 87 63 88 57 89 58 90 61 91 59 92
REMARK H PARENT 4 10 83 45 51 56
REMARK Flexibility Score: inf
ROOT
ATOM      1  C   UNL A   1      32.868  30.584  26.257  1.00  0.00     0.202 C 
ENDROOT
BRANCH   1   2
ATOM      2  C   UNL A   1      32.880  29.300  25.463  1.00  0.00     0.261 C 
BRANCH   2   3
ATOM      3  O   UNL A   1      31.631  28.627  25.698  1.00  0.00    -0.462 OA
BRANCH   3   4
ATOM      4  C   UNL A   1      31.550  27.527  26.509  1.00  0.00     0.324 C 
ATOM      5  O   UNL A   1      31.372  27.449  27.714  1.00  0.00    -0.250 OA
BRANCH   4   6
ATOM      6  C   UNL A   1      31.948  26.297  25.766  1.00  0.00     0.179 C 
BRANCH   6   7
ATOM      7  C   UNL A   1      33.421  26.356  25.387  1.00  0.00     0.028 C 
ATOM      8  C   UNL A   1      33.653  26.063  23.915  1.00  0.00     0.006 C 
ENDBRANCH   6   7
BRANCH   6   9
ATOM      9  N   UNL A   1      31.739  25.279  26.742  1.00  0.00    -0.197 NA
ATOM     10  H   UNL A   1      30.928  25.574  27.287  1.00  0.00     0.142 HD
BRANCH   9  11
ATOM     11  S   UNL A   1      31.471  23.703  26.350  1.00  0.00     0.241 S 
ATOM     12  O   UNL A   1      31.005  23.142  27.591  1.00  0.00    -0.207 OA
ATOM     13  O   UNL A   1      30.566  23.992  25.253  1.00  0.00    -0.207 OA
BRANCH  11  14
ATOM     14  C   UNL A   1      33.001  22.547  25.686  1.00  0.00     0.085 A 
ATOM     15  C   UNL A   1      34.520  23.121  26.579  1.00  0.00     0.025 A 
ATOM     16  C   UNL A   1      33.086  22.266  23.837  1.00  0.00    -0.031 A 
ATOM     17  C   UNL A   1      36.053  23.576  25.661  1.00  0.00    -0.050 A 
ATOM     18  C   UNL A   1      34.628  22.747  22.872  1.00  0.00     0.005 A 
ATOM     19  C   UNL A   1      31.998  21.617  23.060  1.00  0.00     0.046 C 
ATOM     20  C   UNL A   1      37.311  23.854  26.435  1.00  0.00     0.044 C 
ATOM     21  C   UNL A   1      36.089  23.478  23.819  1.00  0.00     0.004 A 
ENDBRANCH  11  14
ENDBRANCH   9  11
ENDBRANCH   6   9
ENDBRANCH   4   6
ENDBRANCH   3   4
ENDBRANCH   2   3
ENDBRANCH   1   2
BRANCH   1  22
ATOM     22  O   UNL A   1      31.667  31.187  25.854  1.00  0.00    -0.374 OA
BRANCH  22  23
ATOM     23  C   UNL A   1      31.132  32.295  26.540  1.00  0.00     0.202 C 
BRANCH  23  24
ATOM     24  C   UNL A   1      32.144  32.677  27.592  1.00  0.00     0.261 C 
BRANCH  24  25
ATOM     25  O   UNL A   1      32.217  34.135  27.669  1.00  0.00    -0.460 OA
BRANCH  25  26
ATOM     26  C   UNL A   1      33.022  34.652  28.656  1.00  0.00     0.338 C 
ATOM     27  O   UNL A   1      32.875  35.768  29.132  1.00  0.00    -0.246 OA
BRANCH  26  28
ATOM     28  C   UNL A   1      34.229  33.777  28.929  1.00  0.00     0.060 A 
ATOM     29  C   UNL A   1      34.452  33.213  30.197  1.00  0.00     0.016 A 
ATOM     30  C   UNL A   1      35.299  33.802  28.046  1.00  0.00     0.016 A 
ATOM     31  C   UNL A   1      35.764  32.833  30.612  1.00  0.00     0.010 A 
ATOM     32  C   UNL A   1      36.598  33.593  28.531  1.00  0.00     0.010 A 
ATOM     33  C   UNL A   1      36.898  33.158  29.844  1.00  0.00    -0.014 A 
BRANCH  33  34
ATOM     34  C   UNL A   1      38.498  32.637  30.069  1.00  0.00     0.031 A 
ATOM     35  C   UNL A   1      37.903  30.950  29.536  1.00  0.00     0.074 A 
ATOM     36  C   UNL A   1      40.206  33.180  30.624  1.00  0.00     0.049 A 
ATOM     37  N   UNL A   1      38.020  29.825  30.226  1.00  0.00    -0.248 NA
ATOM     38  C   UNL A   1      37.361  30.636  28.182  1.00  0.00     0.031 C 
ATOM     39  C   UNL A   1      41.002  34.245  31.592  1.00  0.00     0.029 A 
ATOM     40  N   UNL A   1      41.664  32.771  30.126  1.00  0.00    -0.354 N 
ATOM     41  C   UNL A   1      38.199  28.837  29.274  1.00  0.00     0.074 A 
ATOM     42  C   UNL A   1      37.449  29.299  28.138  1.00  0.00     0.031 C 
ATOM     43  C   UNL A   1      42.288  34.519  31.212  1.00  0.00     0.029 A 
ATOM     44  C   UNL A   1      42.652  33.765  30.037  1.00  0.00     0.049 A 
ATOM     45  H   UNL A   1      41.868  31.839  29.884  1.00  0.00     0.167 HD
ATOM     46  C   UNL A   1      39.276  27.986  29.302  1.00  0.00     0.037 A 
ATOM     47  C   UNL A   1      43.940  33.603  29.586  1.00  0.00     0.037 A 
ATOM     48  C   UNL A   1      40.052  27.997  30.540  1.00  0.00     0.049 A 
ATOM     49  C   UNL A   1      44.195  32.147  29.781  1.00  0.00     0.074 A 
ATOM     50  C   UNL A   1      39.786  27.825  31.884  1.00  0.00     0.029 A 
ATOM     51  N   UNL A   1      41.388  28.352  30.484  1.00  0.00    -0.354 N 
ATOM     52  N   UNL A   1      44.245  31.586  30.962  1.00  0.00    -0.248 NA
ATOM     53  C   UNL A   1      43.936  31.245  28.669  1.00  0.00     0.031 C 
ATOM     54  C   UNL A   1      40.897  28.360  32.609  1.00  0.00     0.029 A 
ATOM     55  C   UNL A   1      41.829  28.845  31.694  1.00  0.00     0.049 A 
ATOM     56  H   UNL A   1      41.953  28.265  29.683  1.00  0.00     0.167 HD
ATOM     57  C   UNL A   1      43.609  30.361  30.801  1.00  0.00     0.074 A 
ATOM     58  C   UNL A   1      43.546  30.164  29.352  1.00  0.00     0.031 C 
ATOM     59  C   UNL A   1      42.922  29.795  31.847  1.00  0.00     0.037 A 
BRANCH  46  60
ATOM     60  C   UNL A   1      39.864  27.321  28.069  1.00  0.00     0.064 A 
ATOM     61  C   UNL A   1      39.907  25.913  28.008  1.00  0.00     0.173 A 
ATOM     62  C   UNL A   1      40.595  27.995  27.066  1.00  0.00     0.173 A 
ATOM     63  F   UNL A   1      39.295  25.175  28.946  1.00  0.00    -0.203 F 
ATOM     64  C   UNL A   1      40.646  25.234  27.036  1.00  0.00     0.198 A 
ATOM     65  C   UNL A   1      41.281  27.312  26.059  1.00  0.00     0.198 A 
ATOM     66  F   UNL A   1      40.757  29.324  27.086  1.00  0.00    -0.203 F 
ATOM     67  F   UNL A   1      40.742  23.897  27.086  1.00  0.00    -0.200 F 
ATOM     68  C   UNL A   1      41.325  25.933  26.056  1.00  0.00     0.200 A 
ATOM     69  F   UNL A   1      41.958  28.005  25.132  1.00  0.00    -0.200 F 
ATOM     70  F   UNL A   1      42.059  25.284  25.142  1.00  0.00    -0.200 F 
ENDBRANCH  46  60
BRANCH  47  71
ATOM     71  C   UNL A   1      44.657  34.330  28.454  1.00  0.00     0.064 A 
ATOM     72  C   UNL A   1      45.840  35.044  28.723  1.00  0.00     0.173 A 
ATOM     73  C   UNL A   1      44.356  34.233  27.081  1.00  0.00     0.173 A 
ATOM     74  F   UNL A   1      46.297  35.119  29.981  1.00  0.00    -0.203 F 
ATOM     75  C   UNL A   1      46.619  35.646  27.711  1.00  0.00     0.198 A 
ATOM     76  C   UNL A   1      45.094  34.875  26.071  1.00  0.00     0.198 A 
ATOM     77  F   UNL A   1      43.428  33.387  26.651  1.00  0.00    -0.203 F 
ATOM     78  F   UNL A   1      47.770  36.257  28.026  1.00  0.00    -0.200 F 
ATOM     79  C   UNL A   1      46.234  35.579  26.386  1.00  0.00     0.200 A 
ATOM     80  F   UNL A   1      44.733  34.743  24.783  1.00  0.00    -0.200 F 
ATOM     81  F   UNL A   1      46.983  36.132  25.420  1.00  0.00    -0.200 F 
ENDBRANCH  47  71
BRANCH  59  82
ATOM     82  C   UNL A   1      43.106  30.462  33.213  1.00  0.00     0.064 A 
ATOM     83  C   UNL A   1      42.184  31.392  33.706  1.00  0.00     0.173 A 
ATOM     84  C   UNL A   1      44.103  30.109  34.112  1.00  0.00     0.173 A 
ATOM     85  F   UNL A   1      41.033  31.502  33.080  1.00  0.00    -0.203 F 
ATOM     86  C   UNL A   1      42.312  32.084  34.908  1.00  0.00     0.198 A 
ATOM     87  C   UNL A   1      44.198  30.721  35.376  1.00  0.00     0.198 A 
ATOM     88  F   UNL A   1      44.943  29.110  33.810  1.00  0.00    -0.203 F 
ATOM     89  F   UNL A   1      41.400  33.001  35.270  1.00  0.00    -0.200 F 
ATOM     90  C   UNL A   1      43.336  31.743  35.753  1.00  0.00     0.200 A 
ATOM     91  F   UNL A   1      45.101  30.276  36.260  1.00  0.00    -0.200 F 
ATOM     92  F   UNL A   1      43.439  32.329  36.955  1.00  0.00    -0.200 F 
ENDBRANCH  59  82
ENDBRANCH  33  34
ENDBRANCH  26  28
ENDBRANCH  25  26
ENDBRANCH  24  25
ENDBRANCH  23  24
ENDBRANCH  22  23
ENDBRANCH   1  22
TORSDOF 18
ENDMDL
MODEL 3
REMARK VINA RESULT:     -11.0      4.542      9.110
REMARK SMILES CC[C@@H](NS(=O)(=O)c1cc(C)ccc1C)C(=O)OCCOCCOC(=O)c1ccc(-c2c3nc(c(-c4c(F)c(F)c(F)c(F)c4F)c4ccc([nH]4)c(-c4c(F)c(F)c(F)c(F)c4F)c4nc(c(-c5c(F)c(F)c(F)c(F)c5F)c5ccc2[nH]5)C=C4)C=C3)cc1
REMARK SMILES IDX 20 1 19 2 18 3 16 4 17 5 3 6 2 7 1 8 4 9 5 11 6 12 7 13 8 14
REMARK SMILES IDX 9 15 14 16 10 17 13 18 15 19 11 20 12 21 21 22 22 23 23 24
REMARK SMILES IDX 24 25 25 26 26 27 27 28 28 29 89 30 29 31 88 32 30 33 31 34
REMARK SMILES IDX 32 35 82 36 33 37 87 38 81 39 83 40 34 41 86 42 80 43 79 44
REMARK SMILES IDX 35 46 67 47 47 48 66 49 48 50 51 51 65 52 84 53 49 54 50 55
REMARK SMILES IDX 64 57 85 58 52 59 36 60 37 61 45 62 38 63 39 64 43 65 46 66
REMARK SMILES IDX 40 67 41 68 44 69 42 70 68 71 69 72 77 73 70 74 71 75 75 76
REMARK SMILES IDX 78 77 72 78 73 79 76 80 74 81 53 82 54 83 62 84 55 85 56 86
REMARK SMILES IDX 60 87 63 88 57 89 58 90 61 91 59 92
REMARK H PARENT 4 10 83 45 51 56
REMARK Flexibility Score: inf
ROOT
ATOM      1  C   UNL A   1      35.975  21.643  25.778  1.00  0.00     0.202 C 
ENDROOT
BRANCH   1   2
ATOM      2  C   UNL A   1      34.967  21.343  24.695  1.00  0.00     0.261 C 
BRANCH   2   3
ATOM      3  O   UNL A   1      34.459  22.598  24.209  1.00  0.00    -0.462 OA
BRANCH   3   4
ATOM      4  C   UNL A   1      33.123  22.793  23.986  1.00  0.00     0.324 C 
ATOM      5  O   UNL A   1      32.352  22.198  23.250  1.00  0.00    -0.250 OA
BRANCH   4   6
ATOM      6  C   UNL A   1      32.665  24.063  24.621  1.00  0.00     0.179 C 
BRANCH   6   7
ATOM      7  C   UNL A   1      33.138  24.137  26.066  1.00  0.00     0.028 C 
ATOM      8  C   UNL A   1      32.334  23.235  26.986  1.00  0.00     0.006 C 
ENDBRANCH   6   7
BRANCH   6   9
ATOM      9  N   UNL A   1      33.340  25.047  23.839  1.00  0.00    -0.197 NA
ATOM     10  H   UNL A   1      33.764  24.543  23.059  1.00  0.00     0.142 HD
BRANCH   9  11
ATOM     11  S   UNL A   1      32.574  26.344  23.177  1.00  0.00     0.241 S 
ATOM     12  O   UNL A   1      33.649  27.281  22.980  1.00  0.00    -0.207 OA
ATOM     13  O   UNL A   1      31.990  25.605  22.073  1.00  0.00    -0.207 OA
BRANCH  11  14
ATOM     14  C   UNL A   1      31.109  27.295  24.210  1.00  0.00     0.085 A 
ATOM     15  C   UNL A   1      29.838  27.813  22.965  1.00  0.00     0.025 A 
ATOM     16  C   UNL A   1      31.671  28.531  25.499  1.00  0.00    -0.031 A 
ATOM     17  C   UNL A   1      29.246  29.557  22.870  1.00  0.00    -0.050 A 
ATOM     18  C   UNL A   1      31.105  30.323  25.411  1.00  0.00     0.005 A 
ATOM     19  C   UNL A   1      32.524  28.165  26.661  1.00  0.00     0.046 C 
ATOM     20  C   UNL A   1      28.085  29.885  21.974  1.00  0.00     0.044 C 
ATOM     21  C   UNL A   1      29.932  30.827  24.019  1.00  0.00     0.004 A 
ENDBRANCH  11  14
ENDBRANCH   9  11
ENDBRANCH   6   9
ENDBRANCH   4   6
ENDBRANCH   3   4
ENDBRANCH   2   3
ENDBRANCH   1   2
BRANCH   1  22
ATOM     22  O   UNL A   1      36.875  22.505  25.135  1.00  0.00    -0.374 OA
BRANCH  22  23
ATOM     23  C   UNL A   1      37.464  23.592  25.809  1.00  0.00     0.202 C 
BRANCH  23  24
ATOM     24  C   UNL A   1      38.803  23.110  26.312  1.00  0.00     0.261 C 
BRANCH  24  25
ATOM     25  O   UNL A   1      39.164  23.878  27.501  1.00  0.00    -0.460 OA
BRANCH  25  26
ATOM     26  C   UNL A   1      40.466  24.314  27.572  1.00  0.00     0.338 C 
ATOM     27  O   UNL A   1      41.433  23.586  27.410  1.00  0.00    -0.246 OA
BRANCH  26  28
ATOM     28  C   UNL A   1      40.566  25.739  28.081  1.00  0.00     0.060 A 
ATOM     29  C   UNL A   1      41.533  26.111  29.030  1.00  0.00     0.016 A 
ATOM     30  C   UNL A   1      39.500  26.606  27.884  1.00  0.00     0.016 A 
ATOM     31  C   UNL A   1      41.341  27.250  29.868  1.00  0.00     0.010 A 
ATOM     32  C   UNL A   1      39.243  27.608  28.831  1.00  0.00     0.010 A 
ATOM     33  C   UNL A   1      40.113  27.940  29.896  1.00  0.00    -0.014 A 
BRANCH  33  34
ATOM     34  C   UNL A   1      39.756  29.407  30.672  1.00  0.00     0.031 A 
ATOM     35  C   UNL A   1      41.495  29.928  30.238  1.00  0.00     0.074 A 
ATOM     36  C   UNL A   1      38.438  30.332  31.634  1.00  0.00     0.049 A 
ATOM     37  N   UNL A   1      42.424  30.337  31.090  1.00  0.00    -0.248 NA
ATOM     38  C   UNL A   1      42.001  30.100  28.846  1.00  0.00     0.031 C 
ATOM     39  C   UNL A   1      37.144  30.129  32.630  1.00  0.00     0.029 A 
ATOM     40  N   UNL A   1      38.035  31.874  31.669  1.00  0.00    -0.354 N 
ATOM     41  C   UNL A   1      43.156  31.283  30.394  1.00  0.00     0.074 A 
ATOM     42  C   UNL A   1      43.107  30.837  29.029  1.00  0.00     0.031 C 
ATOM     43  C   UNL A   1      36.245  31.160  32.623  1.00  0.00     0.029 A 
ATOM     44  C   UNL A   1      36.674  32.216  31.739  1.00  0.00     0.049 A 
ATOM     45  H   UNL A   1      38.727  32.573  31.642  1.00  0.00     0.167 HD
ATOM     46  C   UNL A   1      43.343  32.557  30.874  1.00  0.00     0.037 A 
ATOM     47  C   UNL A   1      36.147  33.485  31.731  1.00  0.00     0.037 A 
ATOM     48  C   UNL A   1      42.976  32.759  32.273  1.00  0.00     0.049 A 
ATOM     49  C   UNL A   1      37.277  34.334  32.208  1.00  0.00     0.074 A 
ATOM     50  C   UNL A   1      43.298  32.176  33.483  1.00  0.00     0.029 A 
ATOM     51  N   UNL A   1      41.990  33.682  32.575  1.00  0.00    -0.354 N 
ATOM     52  N   UNL A   1      37.769  34.249  33.417  1.00  0.00    -0.248 NA
ATOM     53  C   UNL A   1      38.152  34.939  31.216  1.00  0.00     0.031 C 
ATOM     54  C   UNL A   1      42.294  32.566  34.424  1.00  0.00     0.029 A 
ATOM     55  C   UNL A   1      41.377  33.389  33.775  1.00  0.00     0.049 A 
ATOM     56  H   UNL A   1      41.755  34.449  32.006  1.00  0.00     0.167 HD
ATOM     57  C   UNL A   1      39.142  34.387  33.253  1.00  0.00     0.074 A 
ATOM     58  C   UNL A   1      39.302  34.920  31.899  1.00  0.00     0.031 C 
ATOM     59  C   UNL A   1      40.009  33.756  34.111  1.00  0.00     0.037 A 
BRANCH  46  60
ATOM     60  C   UNL A   1      43.581  33.770  29.991  1.00  0.00     0.064 A 
ATOM     61  C   UNL A   1      44.853  34.378  29.996  1.00  0.00     0.173 A 
ATOM     62  C   UNL A   1      42.563  34.494  29.333  1.00  0.00     0.173 A 
ATOM     63  F   UNL A   1      45.877  33.802  30.642  1.00  0.00    -0.203 F 
ATOM     64  C   UNL A   1      45.082  35.627  29.412  1.00  0.00     0.198 A 
ATOM     65  C   UNL A   1      42.810  35.713  28.697  1.00  0.00     0.198 A 
ATOM     66  F   UNL A   1      41.283  34.104  29.374  1.00  0.00    -0.203 F 
ATOM     67  F   UNL A   1      46.282  36.211  29.538  1.00  0.00    -0.200 F 
ATOM     68  C   UNL A   1      44.063  36.290  28.755  1.00  0.00     0.200 A 
ATOM     69  F   UNL A   1      41.805  36.357  28.087  1.00  0.00    -0.200 F 
ATOM     70  F   UNL A   1      44.272  37.501  28.222  1.00  0.00    -0.200 F 
ENDBRANCH  46  60
BRANCH  47  71
ATOM     71  C   UNL A   1      35.125  34.091  30.777  1.00  0.00     0.064 A 
ATOM     72  C   UNL A   1      34.072  34.876  31.288  1.00  0.00     0.173 A 
ATOM     73  C   UNL A   1      35.201  34.098  29.370  1.00  0.00     0.173 A 
ATOM     74  F   UNL A   1      33.953  35.041  32.613  1.00  0.00    -0.203 F 
ATOM     75  C   UNL A   1      33.156  35.560  30.462  1.00  0.00     0.198 A 
ATOM     76  C   UNL A   1      34.261  34.731  28.538  1.00  0.00     0.198 A 
ATOM     77  F   UNL A   1      36.275  33.624  28.750  1.00  0.00    -0.203 F 
ATOM     78  F   UNL A   1      32.215  36.343  31.011  1.00  0.00    -0.200 F 
ATOM     79  C   UNL A   1      33.237  35.471  29.086  1.00  0.00     0.200 A 
ATOM     80  F   UNL A   1      34.399  34.680  27.202  1.00  0.00    -0.200 F 
ATOM     81  F   UNL A   1      32.380  36.138  28.298  1.00  0.00    -0.200 F 
ENDBRANCH  47  71
BRANCH  59  82
ATOM     82  C   UNL A   1      39.380  33.120  35.354  1.00  0.00     0.064 A 
ATOM     83  C   UNL A   1      38.950  33.894  36.437  1.00  0.00     0.173 A 
ATOM     84  C   UNL A   1      39.067  31.771  35.452  1.00  0.00     0.173 A 
ATOM     85  F   UNL A   1      38.876  35.197  36.266  1.00  0.00    -0.203 F 
ATOM     86  C   UNL A   1      38.426  33.389  37.624  1.00  0.00     0.198 A 
ATOM     87  C   UNL A   1      38.444  31.247  36.601  1.00  0.00     0.198 A 
ATOM     88  F   UNL A   1      39.282  30.964  34.406  1.00  0.00    -0.203 F 
ATOM     89  F   UNL A   1      38.092  34.212  38.631  1.00  0.00    -0.200 F 
ATOM     90  C   UNL A   1      38.171  32.044  37.705  1.00  0.00     0.200 A 
ATOM     91  F   UNL A   1      38.053  29.966  36.614  1.00  0.00    -0.200 F 
ATOM     92  F   UNL A   1      37.587  31.535  38.800  1.00  0.00    -0.200 F 
ENDBRANCH  59  82
ENDBRANCH  33  34
ENDBRANCH  26  28
ENDBRANCH  25  26
ENDBRANCH  24  25
ENDBRANCH  23  24
ENDBRANCH  22  23
ENDBRANCH   1  22
TORSDOF 18
ENDMDL
