MODEL 1
REMARK VINA RESULT:     -10.2      0.000      0.000
REMARK SMILES CCCC(=O)N(c1cc2sc(=O)oc2c2ccccc12)S(=O)(=O)c1ccc(C(=O)OCCOCCOC(=O)c2ccc(-c3c4nc(c(-c5c(F)c(F)c(F)c(F)c5F)c5ccc([nH]5)c(-c5c(F)c(F)c(F)c(F)c5F)c5nc(c(-c6c(F)c(F)c(F)c(F)c6F)c6ccc3[nH]6)C=C5)C=C4)cc2)cc1
REMARK SMILES IDX 31 1 30 2 28 3 29 4 27 5 24 6 25 7 103 8 26 9 102 10 21 11
REMARK SMILES IDX 22 12 23 13 6 14 4 15 5 16 3 17 2 18 1 19 7 20 8 21 20 22
REMARK SMILES IDX 9 23 15 24 19 25 10 26 14 27 16 28 18 29 11 30 13 31 17 32
REMARK SMILES IDX 12 33 32 34 33 35 34 36 35 37 36 38 37 39 38 40 39 41 40 42
REMARK SMILES IDX 101 43 41 44 100 45 42 46 43 47 44 48 94 49 45 50 99 51
REMARK SMILES IDX 93 52 95 53 46 54 98 55 92 56 91 57 47 59 79 60 59 61 78 62
REMARK SMILES IDX 60 63 63 64 77 65 96 66 61 67 62 68 76 70 97 71 64 72 48 73
REMARK SMILES IDX 49 74 57 75 50 76 51 77 55 78 58 79 52 80 53 81 56 82 54 83
REMARK SMILES IDX 80 84 81 85 89 86 82 87 83 88 87 89 90 90 84 91 85 92 88 93
REMARK SMILES IDX 86 94 65 95 66 96 74 97 67 98 68 99 72 100 75 101 69 102
REMARK SMILES IDX 70 103 73 104 71 105
REMARK H PARENT 95 58 63 69
REMARK Flexibility Score: inf
ROOT
ATOM      1  C   UNL A   1      36.353  31.454  28.674  1.00  0.00     0.261 C 
ENDROOT
BRANCH   1   2
ATOM      2  O   UNL A   1      37.117  30.451  27.986  1.00  0.00    -0.460 OA
BRANCH   2   3
ATOM      3  C   UNL A   1      37.486  29.402  28.765  1.00  0.00     0.338 C 
ATOM      4  O   UNL A   1      36.881  28.966  29.731  1.00  0.00    -0.246 OA
BRANCH   3   5
ATOM      5  C   UNL A   1      38.685  28.716  28.221  1.00  0.00     0.060 A 
ATOM      6  C   UNL A   1      40.894  27.513  26.999  1.00  0.00     0.088 A 
ATOM      7  C   UNL A   1      40.511  28.797  26.610  1.00  0.00     0.023 A 
ATOM      8  C   UNL A   1      40.188  26.832  28.006  1.00  0.00     0.023 A 
ATOM      9  C   UNL A   1      39.413  29.397  27.230  1.00  0.00     0.017 A 
ATOM     10  C   UNL A   1      39.084  27.437  28.623  1.00  0.00     0.017 A 
BRANCH   6  11
ATOM     11  S   UNL A   1      42.200  26.673  26.102  1.00  0.00     0.270 S 
ATOM     12  O   UNL A   1      43.192  27.693  25.843  1.00  0.00    -0.201 OA
ATOM     13  O   UNL A   1      41.543  25.962  25.020  1.00  0.00    -0.201 OA
BRANCH  11  14
ATOM     14  N   UNL A   1      42.863  25.493  27.126  1.00  0.00    -0.202 N 
BRANCH  14  15
ATOM     15  C   UNL A   1      43.639  25.949  28.246  1.00  0.00     0.241 C 
ATOM     16  O   UNL A   1      44.576  26.727  28.088  1.00  0.00    -0.273 OA
BRANCH  15  17
ATOM     17  C   UNL A   1      43.357  25.420  29.649  1.00  0.00     0.101 C 
BRANCH  17  18
ATOM     18  C   UNL A   1      44.504  25.591  30.643  1.00  0.00     0.006 C 
ATOM     19  C   UNL A   1      44.603  24.422  31.614  1.00  0.00     0.004 C 
ENDBRANCH  17  18
ENDBRANCH  15  17
ENDBRANCH  14  15
BRANCH  14  20
ATOM     20  C   UNL A   1      42.994  24.137  26.680  1.00  0.00     0.070 A 
ATOM     21  C   UNL A   1      41.960  23.223  26.913  1.00  0.00     0.051 A 
ATOM     22  C   UNL A   1      44.166  23.761  25.944  1.00  0.00     0.010 A 
ATOM     23  C   UNL A   1      42.122  21.922  26.473  1.00  0.00     0.080 A 
ATOM     24  C   UNL A   1      44.266  22.442  25.433  1.00  0.00     0.028 A 
ATOM     25  C   UNL A   1      45.229  24.651  25.657  1.00  0.00     0.011 A 
ATOM     26  S   UNL A   1      41.020  20.579  26.680  1.00  0.00    -0.052 S 
ATOM     27  C   UNL A   1      43.252  21.536  25.759  1.00  0.00     0.157 A 
ATOM     28  C   UNL A   1      45.338  22.095  24.584  1.00  0.00     0.013 A 
ATOM     29  C   UNL A   1      46.266  24.303  24.789  1.00  0.00     0.001 A 
ATOM     30  C   UNL A   1      42.206  19.541  25.878  1.00  0.00     0.396 A 
ATOM     31  O   UNL A   1      43.326  20.191  25.375  1.00  0.00    -0.413 OA
ATOM     32  C   UNL A   1      46.309  23.032  24.236  1.00  0.00     0.001 A 
ATOM     33  O   UNL A   1      42.055  18.329  25.801  1.00  0.00    -0.233 OA
ENDBRANCH  14  20
ENDBRANCH  11  14
ENDBRANCH   6  11
ENDBRANCH   3   5
ENDBRANCH   2   3
ENDBRANCH   1   2
BRANCH   1  34
ATOM     34  C   UNL A   1      36.876  32.884  28.460  1.00  0.00     0.202 C 
BRANCH  34  35
ATOM     35  O   UNL A   1      36.126  33.951  29.032  1.00  0.00    -0.374 OA
BRANCH  35  36
ATOM     36  C   UNL A   1      34.714  33.781  29.171  1.00  0.00     0.202 C 
BRANCH  36  37
ATOM     37  C   UNL A   1      34.030  34.433  30.379  1.00  0.00     0.261 C 
BRANCH  37  38
ATOM     38  O   UNL A   1      34.882  34.409  31.535  1.00  0.00    -0.460 OA
BRANCH  38  39
ATOM     39  C   UNL A   1      34.732  33.329  32.343  1.00  0.00     0.338 C 
ATOM     40  O   UNL A   1      33.726  32.898  32.854  1.00  0.00    -0.246 OA
BRANCH  39  41
ATOM     41  C   UNL A   1      36.025  32.631  32.361  1.00  0.00     0.060 A 
ATOM     42  C   UNL A   1      37.213  33.345  32.225  1.00  0.00     0.016 A 
ATOM     43  C   UNL A   1      36.028  31.243  32.520  1.00  0.00     0.016 A 
ATOM     44  C   UNL A   1      38.422  32.653  32.261  1.00  0.00     0.010 A 
ATOM     45  C   UNL A   1      37.231  30.553  32.507  1.00  0.00     0.010 A 
ATOM     46  C   UNL A   1      38.437  31.255  32.414  1.00  0.00    -0.014 A 
BRANCH  46  47
ATOM     47  C   UNL A   1      39.729  30.585  32.664  1.00  0.00     0.031 A 
ATOM     48  C   UNL A   1      40.830  30.962  31.717  1.00  0.00     0.074 A 
ATOM     49  C   UNL A   1      40.064  30.117  33.883  1.00  0.00     0.049 A 
ATOM     50  N   UNL A   1      41.562  32.032  31.861  1.00  0.00    -0.248 NA
ATOM     51  C   UNL A   1      40.980  30.323  30.410  1.00  0.00     0.031 C 
ATOM     52  C   UNL A   1      39.692  30.777  35.139  1.00  0.00     0.029 A 
ATOM     53  N   UNL A   1      40.969  29.151  34.256  1.00  0.00    -0.354 N 
ATOM     54  C   UNL A   1      42.232  32.239  30.669  1.00  0.00     0.074 A 
ATOM     55  C   UNL A   1      41.850  31.145  29.802  1.00  0.00     0.031 C 
ATOM     56  C   UNL A   1      40.502  30.320  36.117  1.00  0.00     0.029 A 
ATOM     57  C   UNL A   1      41.342  29.245  35.595  1.00  0.00     0.049 A 
ATOM     58  H   UNL A   1      41.318  28.466  33.641  1.00  0.00     0.167 HD
ATOM     59  C   UNL A   1      43.061  33.296  30.452  1.00  0.00     0.037 A 
ATOM     60  C   UNL A   1      42.575  28.923  36.075  1.00  0.00     0.037 A 
ATOM     61  C   UNL A   1      43.223  34.205  31.546  1.00  0.00     0.049 A 
ATOM     62  C   UNL A   1      43.392  30.074  35.534  1.00  0.00     0.074 A 
ATOM     63  C   UNL A   1      42.718  35.421  31.951  1.00  0.00     0.029 A 
ATOM     64  N   UNL A   1      44.090  33.845  32.550  1.00  0.00    -0.354 N 
ATOM     65  N   UNL A   1      43.440  31.287  36.019  1.00  0.00    -0.248 NA
ATOM     66  C   UNL A   1      43.903  29.942  34.167  1.00  0.00     0.031 C 
ATOM     67  C   UNL A   1      42.933  35.468  33.367  1.00  0.00     0.029 A 
ATOM     68  C   UNL A   1      43.520  34.258  33.727  1.00  0.00     0.049 A 
ATOM     69  H   UNL A   1      44.952  33.383  32.445  1.00  0.00     0.167 HD
ATOM     70  C   UNL A   1      43.744  32.108  34.932  1.00  0.00     0.074 A 
ATOM     71  C   UNL A   1      44.034  31.216  33.829  1.00  0.00     0.031 C 
ATOM     72  C   UNL A   1      43.571  33.462  34.931  1.00  0.00     0.037 A 
BRANCH  59  73
ATOM     73  C   UNL A   1      43.948  33.435  29.281  1.00  0.00     0.064 A 
ATOM     74  C   UNL A   1      43.535  34.301  28.258  1.00  0.00     0.173 A 
ATOM     75  C   UNL A   1      45.038  32.595  29.039  1.00  0.00     0.173 A 
ATOM     76  F   UNL A   1      42.476  35.106  28.452  1.00  0.00    -0.203 F 
ATOM     77  C   UNL A   1      44.159  34.300  27.017  1.00  0.00     0.198 A 
ATOM     78  C   UNL A   1      45.672  32.605  27.796  1.00  0.00     0.198 A 
ATOM     79  F   UNL A   1      45.456  31.739  29.981  1.00  0.00    -0.203 F 
ATOM     80  F   UNL A   1      43.704  35.099  26.043  1.00  0.00    -0.200 F 
ATOM     81  C   UNL A   1      45.222  33.444  26.783  1.00  0.00     0.200 A 
ATOM     82  F   UNL A   1      46.699  31.776  27.561  1.00  0.00    -0.200 F 
ATOM     83  F   UNL A   1      45.804  33.418  25.576  1.00  0.00    -0.200 F 
ENDBRANCH  59  73
BRANCH  60  84
ATOM     84  C   UNL A   1      42.979  27.484  35.925  1.00  0.00     0.064 A 
ATOM     85  C   UNL A   1      42.031  26.482  36.230  1.00  0.00     0.173 A 
ATOM     86  C   UNL A   1      44.235  27.027  35.502  1.00  0.00     0.173 A 
ATOM     87  F   UNL A   1      40.846  26.816  36.764  1.00  0.00    -0.203 F 
ATOM     88  C   UNL A   1      42.276  25.131  35.987  1.00  0.00     0.198 A 
ATOM     89  C   UNL A   1      44.472  25.676  35.230  1.00  0.00     0.198 A 
ATOM     90  F   UNL A   1      45.257  27.876  35.324  1.00  0.00    -0.203 F 
ATOM     91  F   UNL A   1      41.327  24.221  36.248  1.00  0.00    -0.200 F 
ATOM     92  C   UNL A   1      43.486  24.732  35.450  1.00  0.00     0.200 A 
ATOM     93  F   UNL A   1      45.655  25.298  34.724  1.00  0.00    -0.200 F 
ATOM     94  F   UNL A   1      43.702  23.444  35.150  1.00  0.00    -0.200 F 
ENDBRANCH  60  84
BRANCH  72  95
ATOM     95  C   UNL A   1      43.187  34.068  36.234  1.00  0.00     0.064 A 
ATOM     96  C   UNL A   1      44.173  34.532  37.113  1.00  0.00     0.173 A 
ATOM     97  C   UNL A   1      41.842  34.242  36.598  1.00  0.00     0.173 A 
ATOM     98  F   UNL A   1      45.472  34.398  36.803  1.00  0.00    -0.203 F 
ATOM     99  C   UNL A   1      43.828  35.170  38.299  1.00  0.00     0.198 A 
ATOM    100  C   UNL A   1      41.501  34.906  37.772  1.00  0.00     0.198 A 
ATOM    101  F   UNL A   1      40.853  33.799  35.806  1.00  0.00    -0.203 F 
ATOM    102  F   UNL A   1      44.787  35.617  39.122  1.00  0.00    -0.200 F 
ATOM    103  C   UNL A   1      42.493  35.371  38.621  1.00  0.00     0.200 A 
ATOM    104  F   UNL A   1      40.211  35.116  38.072  1.00  0.00    -0.200 F 
ATOM    105  F   UNL A   1      42.164  36.026  39.742  1.00  0.00    -0.200 F 
ENDBRANCH  72  95
ENDBRANCH  46  47
ENDBRANCH  39  41
ENDBRANCH  38  39
ENDBRANCH  37  38
ENDBRANCH  36  37
ENDBRANCH  35  36
ENDBRANCH  34  35
ENDBRANCH   1  34
TORSDOF 20
ENDMDL
MODEL 2
REMARK VINA RESULT:      -9.8      3.288      7.920
REMARK SMILES CCCC(=O)N(c1cc2sc(=O)oc2c2ccccc12)S(=O)(=O)c1ccc(C(=O)OCCOCCOC(=O)c2ccc(-c3c4nc(c(-c5c(F)c(F)c(F)c(F)c5F)c5ccc([nH]5)c(-c5c(F)c(F)c(F)c(F)c5F)c5nc(c(-c6c(F)c(F)c(F)c(F)c6F)c6ccc3[nH]6)C=C5)C=C4)cc2)cc1
REMARK SMILES IDX 31 1 30 2 28 3 29 4 27 5 24 6 25 7 103 8 26 9 102 10 21 11
REMARK SMILES IDX 22 12 23 13 6 14 4 15 5 16 3 17 2 18 1 19 7 20 8 21 20 22
REMARK SMILES IDX 9 23 15 24 19 25 10 26 14 27 16 28 18 29 11 30 13 31 17 32
REMARK SMILES IDX 12 33 32 34 33 35 34 36 35 37 36 38 37 39 38 40 39 41 40 42
REMARK SMILES IDX 101 43 41 44 100 45 42 46 43 47 44 48 94 49 45 50 99 51
REMARK SMILES IDX 93 52 95 53 46 54 98 55 92 56 91 57 47 59 79 60 59 61 78 62
REMARK SMILES IDX 60 63 63 64 77 65 96 66 61 67 62 68 76 70 97 71 64 72 48 73
REMARK SMILES IDX 49 74 57 75 50 76 51 77 55 78 58 79 52 80 53 81 56 82 54 83
REMARK SMILES IDX 80 84 81 85 89 86 82 87 83 88 87 89 90 90 84 91 85 92 88 93
REMARK SMILES IDX 86 94 65 95 66 96 74 97 67 98 68 99 72 100 75 101 69 102
REMARK SMILES IDX 70 103 73 104 71 105
REMARK H PARENT 95 58 63 69
REMARK Flexibility Score: inf
ROOT
ATOM      1  C   UNL A   1      49.979  28.972  28.515  1.00  0.00     0.261 C 
ENDROOT
BRANCH   1   2
ATOM      2  O   UNL A   1      48.592  28.599  28.540  1.00  0.00    -0.460 OA
BRANCH   2   3
ATOM      3  C   UNL A   1      48.271  27.715  29.519  1.00  0.00     0.338 C 
ATOM      4  O   UNL A   1      48.878  27.535  30.563  1.00  0.00    -0.246 OA
BRANCH   3   5
ATOM      5  C   UNL A   1      46.973  27.050  29.248  1.00  0.00     0.060 A 
ATOM      6  C   UNL A   1      44.448  25.995  28.670  1.00  0.00     0.088 A 
ATOM      7  C   UNL A   1      44.982  26.984  27.844  1.00  0.00     0.023 A 
ATOM      8  C   UNL A   1      45.174  25.520  29.776  1.00  0.00     0.023 A 
ATOM      9  C   UNL A   1      46.248  27.500  28.131  1.00  0.00     0.017 A 
ATOM     10  C   UNL A   1      46.442  26.044  30.063  1.00  0.00     0.017 A 
BRANCH   6  11
ATOM     11  S   UNL A   1      42.764  25.439  28.403  1.00  0.00     0.270 S 
ATOM     12  O   UNL A   1      41.944  26.610  28.623  1.00  0.00    -0.201 OA
ATOM     13  O   UNL A   1      42.609  24.242  29.210  1.00  0.00    -0.201 OA
BRANCH  11  14
ATOM     14  N   UNL A   1      42.624  24.954  26.782  1.00  0.00    -0.202 N 
BRANCH  14  15
ATOM     15  C   UNL A   1      41.884  25.808  25.897  1.00  0.00     0.241 C 
ATOM     16  O   UNL A   1      40.700  25.590  25.653  1.00  0.00    -0.273 OA
BRANCH  15  17
ATOM     17  C   UNL A   1      42.573  26.968  25.186  1.00  0.00     0.101 C 
BRANCH  17  18
ATOM     18  C   UNL A   1      41.900  28.327  25.370  1.00  0.00     0.006 C 
ATOM     19  C   UNL A   1      42.614  29.187  26.405  1.00  0.00     0.004 C 
ENDBRANCH  17  18
ENDBRANCH  15  17
ENDBRANCH  14  15
BRANCH  14  20
ATOM     20  C   UNL A   1      42.867  23.591  26.411  1.00  0.00     0.070 A 
ATOM     21  C   UNL A   1      41.876  22.623  26.617  1.00  0.00     0.051 A 
ATOM     22  C   UNL A   1      44.109  23.257  25.775  1.00  0.00     0.010 A 
ATOM     23  C   UNL A   1      42.147  21.318  26.252  1.00  0.00     0.080 A 
ATOM     24  C   UNL A   1      44.324  21.926  25.335  1.00  0.00     0.028 A 
ATOM     25  C   UNL A   1      45.134  24.199  25.519  1.00  0.00     0.011 A 
ATOM     26  S   UNL A   1      41.115  19.918  26.447  1.00  0.00    -0.052 S 
ATOM     27  C   UNL A   1      43.345  20.973  25.635  1.00  0.00     0.157 A 
ATOM     28  C   UNL A   1      45.472  21.611  24.579  1.00  0.00     0.013 A 
ATOM     29  C   UNL A   1      46.249  23.880  24.741  1.00  0.00     0.001 A 
ATOM     30  C   UNL A   1      42.415  18.923  25.778  1.00  0.00     0.396 A 
ATOM     31  O   UNL A   1      43.527  19.621  25.322  1.00  0.00    -0.413 OA
ATOM     32  C   UNL A   1      46.407  22.591  24.254  1.00  0.00     0.001 A 
ATOM     33  O   UNL A   1      42.343  17.702  25.750  1.00  0.00    -0.233 OA
ENDBRANCH  14  20
ENDBRANCH  11  14
ENDBRANCH   6  11
ENDBRANCH   3   5
ENDBRANCH   2   3
ENDBRANCH   1   2
BRANCH   1  34
ATOM     34  C   UNL A   1      50.236  30.427  28.939  1.00  0.00     0.202 C 
BRANCH  34  35
ATOM     35  O   UNL A   1      49.107  31.222  29.281  1.00  0.00    -0.374 OA
BRANCH  35  36
ATOM     36  C   UNL A   1      49.294  32.291  30.211  1.00  0.00     0.202 C 
BRANCH  36  37
ATOM     37  C   UNL A   1      48.771  33.679  29.821  1.00  0.00     0.261 C 
BRANCH  37  38
ATOM     38  O   UNL A   1      48.016  34.270  30.892  1.00  0.00    -0.460 OA
BRANCH  38  39
ATOM     39  C   UNL A   1      46.929  34.986  30.509  1.00  0.00     0.338 C 
ATOM     40  O   UNL A   1      46.879  36.113  30.075  1.00  0.00    -0.246 OA
BRANCH  39  41
ATOM     41  C   UNL A   1      45.783  34.068  30.544  1.00  0.00     0.060 A 
ATOM     42  C   UNL A   1      45.445  33.409  31.723  1.00  0.00     0.016 A 
ATOM     43  C   UNL A   1      45.047  33.881  29.372  1.00  0.00     0.016 A 
ATOM     44  C   UNL A   1      44.342  32.557  31.725  1.00  0.00     0.010 A 
ATOM     45  C   UNL A   1      43.979  32.994  29.366  1.00  0.00     0.010 A 
ATOM     46  C   UNL A   1      43.597  32.354  30.549  1.00  0.00    -0.014 A 
BRANCH  46  47
ATOM     47  C   UNL A   1      42.319  31.621  30.640  1.00  0.00     0.031 A 
ATOM     48  C   UNL A   1      42.414  30.258  31.261  1.00  0.00     0.074 A 
ATOM     49  C   UNL A   1      41.133  32.261  30.676  1.00  0.00     0.049 A 
ATOM     50  N   UNL A   1      42.413  30.059  32.549  1.00  0.00    -0.248 NA
ATOM     51  C   UNL A   1      42.804  29.081  30.486  1.00  0.00     0.031 C 
ATOM     52  C   UNL A   1      40.920  33.545  31.353  1.00  0.00     0.029 A 
ATOM     53  N   UNL A   1      39.867  31.824  30.361  1.00  0.00    -0.354 N 
ATOM     54  C   UNL A   1      42.837  28.760  32.767  1.00  0.00     0.074 A 
ATOM     55  C   UNL A   1      43.055  28.187  31.456  1.00  0.00     0.031 C 
ATOM     56  C   UNL A   1      39.597  33.702  31.566  1.00  0.00     0.029 A 
ATOM     57  C   UNL A   1      38.865  32.612  30.922  1.00  0.00     0.049 A 
ATOM     58  H   UNL A   1      39.688  31.036  29.799  1.00  0.00     0.167 HD
ATOM     59  C   UNL A   1      42.990  28.223  34.008  1.00  0.00     0.037 A 
ATOM     60  C   UNL A   1      37.655  32.143  31.334  1.00  0.00     0.037 A 
ATOM     61  C   UNL A   1      42.676  29.081  35.109  1.00  0.00     0.049 A 
ATOM     62  C   UNL A   1      38.063  31.382  32.575  1.00  0.00     0.074 A 
ATOM     63  C   UNL A   1      43.345  29.888  36.004  1.00  0.00     0.029 A 
ATOM     64  N   UNL A   1      41.350  29.235  35.438  1.00  0.00    -0.354 N 
ATOM     65  N   UNL A   1      38.343  31.897  33.744  1.00  0.00    -0.248 NA
ATOM     66  C   UNL A   1      38.522  30.003  32.390  1.00  0.00     0.031 C 
ATOM     67  C   UNL A   1      42.369  30.828  36.468  1.00  0.00     0.029 A 
ATOM     68  C   UNL A   1      41.184  30.549  35.793  1.00  0.00     0.049 A 
ATOM     69  H   UNL A   1      40.656  28.538  35.423  1.00  0.00     0.167 HD
ATOM     70  C   UNL A   1      39.234  31.002  34.339  1.00  0.00     0.074 A 
ATOM     71  C   UNL A   1      39.286  29.851  33.461  1.00  0.00     0.031 C 
ATOM     72  C   UNL A   1      40.017  31.310  35.413  1.00  0.00     0.037 A 
BRANCH  59  73
ATOM     73  C   UNL A   1      43.235  26.792  34.274  1.00  0.00     0.064 A 
ATOM     74  C   UNL A   1      42.135  26.009  34.653  1.00  0.00     0.173 A 
ATOM     75  C   UNL A   1      44.513  26.240  34.388  1.00  0.00     0.173 A 
ATOM     76  F   UNL A   1      40.893  26.518  34.574  1.00  0.00    -0.203 F 
ATOM     77  C   UNL A   1      42.304  24.732  35.171  1.00  0.00     0.198 A 
ATOM     78  C   UNL A   1      44.681  24.952  34.898  1.00  0.00     0.198 A 
ATOM     79  F   UNL A   1      45.594  26.959  34.055  1.00  0.00    -0.203 F 
ATOM     80  F   UNL A   1      41.237  24.031  35.577  1.00  0.00    -0.200 F 
ATOM     81  C   UNL A   1      43.579  24.207  35.303  1.00  0.00     0.200 A 
ATOM     82  F   UNL A   1      45.912  24.439  35.032  1.00  0.00    -0.200 F 
ATOM     83  F   UNL A   1      43.747  22.988  35.835  1.00  0.00    -0.200 F 
ENDBRANCH  59  73
BRANCH  60  84
ATOM     84  C   UNL A   1      36.781  31.560  30.261  1.00  0.00     0.064 A 
ATOM     85  C   UNL A   1      35.576  32.222  29.940  1.00  0.00     0.173 A 
ATOM     86  C   UNL A   1      37.052  30.394  29.530  1.00  0.00     0.173 A 
ATOM     87  F   UNL A   1      35.167  33.272  30.670  1.00  0.00    -0.203 F 
ATOM     88  C   UNL A   1      34.777  31.828  28.866  1.00  0.00     0.198 A 
ATOM     89  C   UNL A   1      36.268  30.016  28.436  1.00  0.00     0.198 A 
ATOM     90  F   UNL A   1      38.087  29.605  29.844  1.00  0.00    -0.203 F 
ATOM     91  F   UNL A   1      33.666  32.517  28.570  1.00  0.00    -0.200 F 
ATOM     92  C   UNL A   1      35.145  30.745  28.090  1.00  0.00     0.200 A 
ATOM     93  F   UNL A   1      36.626  28.953  27.700  1.00  0.00    -0.200 F 
ATOM     94  F   UNL A   1      34.420  30.403  27.017  1.00  0.00    -0.200 F 
ENDBRANCH  60  84
BRANCH  72  95
ATOM     95  C   UNL A   1      39.757  32.630  36.048  1.00  0.00     0.064 A 
ATOM     96  C   UNL A   1      38.836  32.736  37.098  1.00  0.00     0.173 A 
ATOM     97  C   UNL A   1      40.453  33.785  35.661  1.00  0.00     0.173 A 
ATOM     98  F   UNL A   1      38.154  31.656  37.511  1.00  0.00    -0.203 F 
ATOM     99  C   UNL A   1      38.638  33.947  37.753  1.00  0.00     0.198 A 
ATOM    100  C   UNL A   1      40.273  34.987  36.337  1.00  0.00     0.198 A 
ATOM    101  F   UNL A   1      41.333  33.749  34.646  1.00  0.00    -0.203 F 
ATOM    102  F   UNL A   1      37.760  34.025  38.762  1.00  0.00    -0.200 F 
ATOM    103  C   UNL A   1      39.369  35.067  37.383  1.00  0.00     0.200 A 
ATOM    104  F   UNL A   1      40.993  36.064  35.990  1.00  0.00    -0.200 F 
ATOM    105  F   UNL A   1      39.209  36.221  38.045  1.00  0.00    -0.200 F 
ENDBRANCH  72  95
ENDBRANCH  46  47
ENDBRANCH  39  41
ENDBRANCH  38  39
ENDBRANCH  37  38
ENDBRANCH  36  37
ENDBRANCH  35  36
ENDBRANCH  34  35
ENDBRANCH   1  34
TORSDOF 20
ENDMDL
MODEL 3
REMARK VINA RESULT:      -9.8      5.452      9.132
REMARK SMILES CCCC(=O)N(c1cc2sc(=O)oc2c2ccccc12)S(=O)(=O)c1ccc(C(=O)OCCOCCOC(=O)c2ccc(-c3c4nc(c(-c5c(F)c(F)c(F)c(F)c5F)c5ccc([nH]5)c(-c5c(F)c(F)c(F)c(F)c5F)c5nc(c(-c6c(F)c(F)c(F)c(F)c6F)c6ccc3[nH]6)C=C5)C=C4)cc2)cc1
REMARK SMILES IDX 31 1 30 2 28 3 29 4 27 5 24 6 25 7 103 8 26 9 102 10 21 11
REMARK SMILES IDX 22 12 23 13 6 14 4 15 5 16 3 17 2 18 1 19 7 20 8 21 20 22
REMARK SMILES IDX 9 23 15 24 19 25 10 26 14 27 16 28 18 29 11 30 13 31 17 32
REMARK SMILES IDX 12 33 32 34 33 35 34 36 35 37 36 38 37 39 38 40 39 41 40 42
REMARK SMILES IDX 101 43 41 44 100 45 42 46 43 47 44 48 94 49 45 50 99 51
REMARK SMILES IDX 93 52 95 53 46 54 98 55 92 56 91 57 47 59 79 60 59 61 78 62
REMARK SMILES IDX 60 63 63 64 77 65 96 66 61 67 62 68 76 70 97 71 64 72 48 73
REMARK SMILES IDX 49 74 57 75 50 76 51 77 55 78 58 79 52 80 53 81 56 82 54 83
REMARK SMILES IDX 80 84 81 85 89 86 82 87 83 88 87 89 90 90 84 91 85 92 88 93
REMARK SMILES IDX 86 94 65 95 66 96 74 97 67 98 68 99 72 100 75 101 69 102
REMARK SMILES IDX 70 103 73 104 71 105
REMARK H PARENT 95 58 63 69
REMARK Flexibility Score: inf
ROOT
ATOM      1  C   UNL A   1      34.263  32.431  28.333  1.00  0.00     0.261 C 
ENDROOT
BRANCH   1   2
ATOM      2  O   UNL A   1      34.159  31.167  27.658  1.00  0.00    -0.460 OA
BRANCH   2   3
ATOM      3  C   UNL A   1      32.904  30.866  27.234  1.00  0.00     0.338 C 
ATOM      4  O   UNL A   1      32.043  31.660  26.889  1.00  0.00    -0.246 OA
BRANCH   3   5
ATOM      5  C   UNL A   1      32.714  29.401  27.093  1.00  0.00     0.060 A 
ATOM      6  C   UNL A   1      32.497  26.647  26.655  1.00  0.00     0.088 A 
ATOM      7  C   UNL A   1      33.728  27.276  26.467  1.00  0.00     0.023 A 
ATOM      8  C   UNL A   1      31.376  27.385  27.075  1.00  0.00     0.023 A 
ATOM      9  C   UNL A   1      33.834  28.649  26.697  1.00  0.00     0.017 A 
ATOM     10  C   UNL A   1      31.485  28.764  27.300  1.00  0.00     0.017 A 
BRANCH   6  11
ATOM     11  S   UNL A   1      32.313  24.919  26.212  1.00  0.00     0.270 S 
ATOM     12  O   UNL A   1      31.408  24.374  27.199  1.00  0.00    -0.201 OA
ATOM     13  O   UNL A   1      33.662  24.406  26.053  1.00  0.00    -0.201 OA
BRANCH  11  14
ATOM     14  N   UNL A   1      31.583  24.846  24.681  1.00  0.00    -0.202 N 
BRANCH  14  15
ATOM     15  C   UNL A   1      31.805  23.663  23.898  1.00  0.00     0.241 C 
ATOM     16  O   UNL A   1      32.313  23.731  22.782  1.00  0.00    -0.273 OA
BRANCH  15  17
ATOM     17  C   UNL A   1      31.349  22.300  24.410  1.00  0.00     0.101 C 
BRANCH  17  18
ATOM     18  C   UNL A   1      32.375  21.179  24.256  1.00  0.00     0.006 C 
ATOM     19  C   UNL A   1      33.219  20.994  25.510  1.00  0.00     0.004 C 
ENDBRANCH  17  18
ENDBRANCH  15  17
ENDBRANCH  14  15
BRANCH  14  20
ATOM     20  C   UNL A   1      31.123  26.043  24.040  1.00  0.00     0.070 A 
ATOM     21  C   UNL A   1      29.767  26.388  24.096  1.00  0.00     0.051 A 
ATOM     22  C   UNL A   1      32.080  26.899  23.403  1.00  0.00     0.010 A 
ATOM     23  C   UNL A   1      29.357  27.546  23.463  1.00  0.00     0.080 A 
ATOM     24  C   UNL A   1      31.642  28.122  22.834  1.00  0.00     0.028 A 
ATOM     25  C   UNL A   1      33.465  26.613  23.339  1.00  0.00     0.011 A 
ATOM     26  S   UNL A   1      27.729  28.176  23.335  1.00  0.00    -0.052 S 
ATOM     27  C   UNL A   1      30.269  28.390  22.838  1.00  0.00     0.157 A 
ATOM     28  C   UNL A   1      32.585  29.044  22.334  1.00  0.00     0.013 A 
ATOM     29  C   UNL A   1      34.390  27.549  22.871  1.00  0.00     0.001 A 
ATOM     30  C   UNL A   1      28.366  29.495  22.344  1.00  0.00     0.396 A 
ATOM     31  O   UNL A   1      29.749  29.528  22.210  1.00  0.00    -0.413 OA
ATOM     32  C   UNL A   1      33.951  28.773  22.388  1.00  0.00     0.001 A 
ATOM     33  O   UNL A   1      27.629  30.301  21.793  1.00  0.00    -0.233 OA
ENDBRANCH  14  20
ENDBRANCH  11  14
ENDBRANCH   6  11
ENDBRANCH   3   5
ENDBRANCH   2   3
ENDBRANCH   1   2
BRANCH   1  34
ATOM     34  C   UNL A   1      35.534  33.219  27.976  1.00  0.00     0.202 C 
BRANCH  34  35
ATOM     35  O   UNL A   1      36.279  33.786  29.048  1.00  0.00    -0.374 OA
BRANCH  35  36
ATOM     36  C   UNL A   1      36.427  33.017  30.244  1.00  0.00     0.202 C 
BRANCH  36  37
ATOM     37  C   UNL A   1      37.846  32.610  30.662  1.00  0.00     0.261 C 
BRANCH  37  38
ATOM     38  O   UNL A   1      37.818  31.654  31.734  1.00  0.00    -0.460 OA
BRANCH  38  39
ATOM     39  C   UNL A   1      37.638  30.364  31.355  1.00  0.00     0.338 C 
ATOM     40  O   UNL A   1      36.660  29.666  31.485  1.00  0.00    -0.246 OA
BRANCH  39  41
ATOM     41  C   UNL A   1      38.818  29.984  30.568  1.00  0.00     0.060 A 
ATOM     42  C   UNL A   1      40.098  30.173  31.083  1.00  0.00     0.016 A 
ATOM     43  C   UNL A   1      38.621  29.430  29.301  1.00  0.00     0.016 A 
ATOM     44  C   UNL A   1      41.196  29.787  30.316  1.00  0.00     0.010 A 
ATOM     45  C   UNL A   1      39.718  29.092  28.521  1.00  0.00     0.010 A 
ATOM     46  C   UNL A   1      41.011  29.235  29.035  1.00  0.00    -0.014 A 
BRANCH  46  47
ATOM     47  C   UNL A   1      42.175  28.643  28.346  1.00  0.00     0.031 A 
ATOM     48  C   UNL A   1      43.221  29.627  27.913  1.00  0.00     0.074 A 
ATOM     49  C   UNL A   1      42.542  27.361  28.543  1.00  0.00     0.049 A 
ATOM     50  N   UNL A   1      44.150  30.078  28.710  1.00  0.00    -0.248 NA
ATOM     51  C   UNL A   1      43.111  30.373  26.660  1.00  0.00     0.031 C 
ATOM     52  C   UNL A   1      42.433  26.671  29.833  1.00  0.00     0.029 A 
ATOM     53  N   UNL A   1      43.286  26.510  27.758  1.00  0.00    -0.354 N 
ATOM     54  C   UNL A   1      44.719  31.182  28.099  1.00  0.00     0.074 A 
ATOM     55  C   UNL A   1      44.051  31.319  26.823  1.00  0.00     0.031 C 
ATOM     56  C   UNL A   1      43.242  25.591  29.809  1.00  0.00     0.029 A 
ATOM     57  C   UNL A   1      43.808  25.433  28.471  1.00  0.00     0.049 A 
ATOM     58  H   UNL A   1      43.434  26.648  26.795  1.00  0.00     0.167 HD
ATOM     59  C   UNL A   1      45.703  31.927  28.671  1.00  0.00     0.037 A 
ATOM     60  C   UNL A   1      45.003  24.837  28.202  1.00  0.00     0.037 A 
ATOM     61  C   UNL A   1      46.144  31.503  29.965  1.00  0.00     0.049 A 
ATOM     62  C   UNL A   1      45.958  25.907  28.680  1.00  0.00     0.074 A 
ATOM     63  C   UNL A   1      45.920  31.832  31.284  1.00  0.00     0.029 A 
ATOM     64  N   UNL A   1      47.030  30.452  30.022  1.00  0.00    -0.354 N 
ATOM     65  N   UNL A   1      46.282  26.159  29.922  1.00  0.00    -0.248 NA
ATOM     66  C   UNL A   1      46.289  26.974  27.733  1.00  0.00     0.031 C 
ATOM     67  C   UNL A   1      46.287  30.667  32.032  1.00  0.00     0.029 A 
ATOM     68  C   UNL A   1      46.673  29.698  31.110  1.00  0.00     0.049 A 
ATOM     69  H   UNL A   1      47.774  30.277  29.404  1.00  0.00     0.167 HD
ATOM     70  C   UNL A   1      46.617  27.514  29.948  1.00  0.00     0.074 A 
ATOM     71  C   UNL A   1      46.619  27.949  28.566  1.00  0.00     0.031 C 
ATOM     72  C   UNL A   1      46.701  28.254  31.091  1.00  0.00     0.037 A 
BRANCH  59  73
ATOM     73  C   UNL A   1      46.472  32.973  27.970  1.00  0.00     0.064 A 
ATOM     74  C   UNL A   1      45.896  34.250  27.885  1.00  0.00     0.173 A 
ATOM     75  C   UNL A   1      47.610  32.707  27.206  1.00  0.00     0.173 A 
ATOM     76  F   UNL A   1      44.788  34.531  28.592  1.00  0.00    -0.203 F 
ATOM     77  C   UNL A   1      46.413  35.217  27.033  1.00  0.00     0.198 A 
ATOM     78  C   UNL A   1      48.135  33.684  26.359  1.00  0.00     0.198 A 
ATOM     79  F   UNL A   1      48.183  31.496  27.242  1.00  0.00    -0.203 F 
ATOM     80  F   UNL A   1      45.806  36.408  26.933  1.00  0.00    -0.200 F 
ATOM     81  C   UNL A   1      47.527  34.931  26.262  1.00  0.00     0.200 A 
ATOM     82  F   UNL A   1      49.211  33.412  25.608  1.00  0.00    -0.200 F 
ATOM     83  F   UNL A   1      48.006  35.852  25.414  1.00  0.00    -0.200 F 
ENDBRANCH  59  73
BRANCH  60  84
ATOM     84  C   UNL A   1      45.113  24.175  26.858  1.00  0.00     0.064 A 
ATOM     85  C   UNL A   1      43.981  23.509  26.339  1.00  0.00     0.173 A 
ATOM     86  C   UNL A   1      46.259  24.152  26.050  1.00  0.00     0.173 A 
ATOM     87  F   UNL A   1      42.879  23.367  27.092  1.00  0.00    -0.203 F 
ATOM     88  C   UNL A   1      43.954  22.989  25.045  1.00  0.00     0.198 A 
ATOM     89  C   UNL A   1      46.225  23.657  24.743  1.00  0.00     0.198 A 
ATOM     90  F   UNL A   1      47.431  24.621  26.497  1.00  0.00    -0.203 F 
ATOM     91  F   UNL A   1      42.840  22.408  24.580  1.00  0.00    -0.200 F 
ATOM     92  C   UNL A   1      45.067  23.098  24.233  1.00  0.00     0.200 A 
ATOM     93  F   UNL A   1      47.316  23.753  23.968  1.00  0.00    -0.200 F 
ATOM     94  F   UNL A   1      45.026  22.662  22.967  1.00  0.00    -0.200 F 
ENDBRANCH  60  84
BRANCH  72  95
ATOM     95  C   UNL A   1      46.574  27.496  32.365  1.00  0.00     0.064 A 
ATOM     96  C   UNL A   1      45.313  27.283  32.935  1.00  0.00     0.173 A 
ATOM     97  C   UNL A   1      47.691  26.931  33.001  1.00  0.00     0.173 A 
ATOM     98  F   UNL A   1      44.215  27.795  32.358  1.00  0.00    -0.203 F 
ATOM     99  C   UNL A   1      45.171  26.511  34.084  1.00  0.00     0.198 A 
ATOM    100  C   UNL A   1      47.542  26.137  34.133  1.00  0.00     0.198 A 
ATOM    101  F   UNL A   1      48.928  27.120  32.512  1.00  0.00    -0.203 F 
ATOM    102  F   UNL A   1      43.955  26.310  34.608  1.00  0.00    -0.200 F 
ATOM    103  C   UNL A   1      46.283  25.926  34.672  1.00  0.00     0.200 A 
ATOM    104  F   UNL A   1      48.615  25.557  34.689  1.00  0.00    -0.200 F 
ATOM    105  F   UNL A   1      46.139  25.146  35.752  1.00  0.00    -0.200 F 
ENDBRANCH  72  95
ENDBRANCH  46  47
ENDBRANCH  39  41
ENDBRANCH  38  39
ENDBRANCH  37  38
ENDBRANCH  36  37
ENDBRANCH  35  36
ENDBRANCH  34  35
ENDBRANCH   1  34
TORSDOF 20
ENDMDL
