MODEL 1
REMARK VINA RESULT:     -13.5      0.000      0.000
REMARK SMILES C[C@H]1CS(=O)(=O)N(c2cccc(C(=O)Nc3ccc(O)c(C(=O)OCCOCCOC(=O)c4ccc(-c5c6nc(c(-c7c(F)c(F)c(F)c(F)c7F)c7ccc([nH]7)c(-c7c(F)c(F)c(F)c(F)c7F)c7nc(c(-c8c(F)c(F)c(F)c(F)c8F)c8ccc5[nH]8)C=C7)C=C6)cc4)c3)c2)C1=O
REMARK SMILES IDX 26 1 25 2 24 3 22 4 23 5 21 6 16 7 17 8 96 9 18 10 19 11
REMARK SMILES IDX 15 12 13 13 14 14 12 16 8 17 9 18 97 19 10 20 11 21 7 22
REMARK SMILES IDX 1 23 2 24 3 25 98 26 4 27 99 28 5 29 6 30 20 31 27 33 28 34
REMARK SMILES IDX 29 35 30 36 31 37 32 38 33 39 34 40 95 41 35 42 94 43 36 44
REMARK SMILES IDX 37 45 38 46 88 47 39 48 93 49 87 50 89 51 40 52 92 53 86 54
REMARK SMILES IDX 85 55 41 57 73 58 53 59 72 60 54 61 57 62 71 63 90 64 55 65
REMARK SMILES IDX 56 66 70 68 91 69 58 70 42 71 43 72 51 73 44 74 45 75 49 76
REMARK SMILES IDX 52 77 46 78 47 79 50 80 48 81 74 82 75 83 83 84 76 85 77 86
REMARK SMILES IDX 81 87 84 88 78 89 79 90 82 91 80 92 59 93 60 94 68 95 61 96
REMARK SMILES IDX 62 97 66 98 69 99 63 100 64 101 67 102 65 103
REMARK H PARENT 15 15 20 32 89 56 57 67
REMARK Flexibility Score: inf
ROOT
ATOM      1  C   UNL A   1      39.865  19.695  25.781  1.00  0.00     0.202 C 
ENDROOT
BRANCH   1   2
ATOM      2  C   UNL A   1      39.178  21.067  25.760  1.00  0.00     0.261 C 
BRANCH   2   3
ATOM      3  O   UNL A   1      37.997  21.197  24.962  1.00  0.00    -0.460 OA
BRANCH   3   4
ATOM      4  C   UNL A   1      37.185  22.206  25.350  1.00  0.00     0.342 C 
ATOM      5  O   UNL A   1      37.452  23.122  26.114  1.00  0.00    -0.246 OA
BRANCH   4   6
ATOM      6  C   UNL A   1      35.870  22.155  24.714  1.00  0.00     0.103 A 
ATOM      7  C   UNL A   1      33.514  22.265  25.091  1.00  0.00     0.042 A 
ATOM      8  C   UNL A   1      33.315  22.699  23.775  1.00  0.00     0.030 A 
ATOM      9  C   UNL A   1      34.771  21.838  25.505  1.00  0.00     0.045 A 
ATOM     10  C   UNL A   1      34.415  22.915  22.942  1.00  0.00     0.049 A 
ATOM     11  C   UNL A   1      35.693  22.716  23.444  1.00  0.00     0.130 A 
BRANCH   7  12
ATOM     12  N   UNL A   1      32.459  22.416  25.999  1.00  0.00    -0.322 N 
ATOM     13  C   UNL A   1      31.919  23.563  26.553  1.00  0.00     0.255 C 
ATOM     14  O   UNL A   1      31.131  23.444  27.492  1.00  0.00    -0.269 OA
ATOM     15  H   UNL A   1      32.037  21.575  26.288  1.00  0.00     0.170 HD
BRANCH  13  16
ATOM     16  C   UNL A   1      32.190  24.943  26.024  1.00  0.00     0.042 A 
ATOM     17  C   UNL A   1      31.531  27.036  24.914  1.00  0.00     0.061 A 
ATOM     18  C   UNL A   1      32.857  27.472  25.020  1.00  0.00     0.027 A 
ATOM     19  C   UNL A   1      31.202  25.796  25.490  1.00  0.00     0.041 A 
ATOM     20  C   UNL A   1      33.834  26.675  25.623  1.00  0.00     0.003 A 
ATOM     21  C   UNL A   1      33.507  25.408  26.104  1.00  0.00     0.014 A 
BRANCH  17  22
ATOM     22  N   UNL A   1      30.570  27.803  24.168  1.00  0.00    -0.207 N 
ATOM     23  C   UNL A   1      27.021  28.264  23.413  1.00  0.00     0.019 C 
ATOM     24  C   UNL A   1      28.490  28.297  22.986  1.00  0.00     0.094 C 
ATOM     25  C   UNL A   1      29.125  29.668  23.214  1.00  0.00     0.173 C 
ATOM     26  C   UNL A   1      29.349  27.253  23.701  1.00  0.00     0.244 C 
ATOM     27  S   UNL A   1      30.809  29.397  23.717  1.00  0.00     0.242 S 
ATOM     28  O   UNL A   1      29.023  26.075  23.792  1.00  0.00    -0.273 OA
ATOM     29  O   UNL A   1      31.652  29.414  22.541  1.00  0.00    -0.206 OA
ATOM     30  O   UNL A   1      31.079  30.223  24.872  1.00  0.00    -0.206 OA
ENDBRANCH  17  22
ENDBRANCH  13  16
ENDBRANCH   7  12
BRANCH  11  31
ATOM     31  O   UNL A   1      36.738  23.152  22.675  1.00  0.00    -0.507 OA
ATOM     32  H   UNL A   1      36.640  23.220  21.747  1.00  0.00     0.293 HD
ENDBRANCH  11  31
ENDBRANCH   4   6
ENDBRANCH   3   4
ENDBRANCH   2   3
ENDBRANCH   1   2
BRANCH   1  33
ATOM     33  O   UNL A   1      41.276  19.610  25.884  1.00  0.00    -0.374 OA
BRANCH  33  34
ATOM     34  C   UNL A   1      42.015  20.671  26.478  1.00  0.00     0.202 C 
BRANCH  34  35
ATOM     35  C   UNL A   1      43.033  21.490  25.669  1.00  0.00     0.261 C 
BRANCH  35  36
ATOM     36  O   UNL A   1      42.486  22.649  25.021  1.00  0.00    -0.460 OA
BRANCH  36  37
ATOM     37  C   UNL A   1      43.253  23.763  25.111  1.00  0.00     0.338 C 
ATOM     38  O   UNL A   1      44.307  23.987  24.540  1.00  0.00    -0.246 OA
BRANCH  37  39
ATOM     39  C   UNL A   1      42.534  24.806  25.865  1.00  0.00     0.060 A 
ATOM     40  C   UNL A   1      42.992  26.128  25.756  1.00  0.00     0.016 A 
ATOM     41  C   UNL A   1      41.504  24.475  26.744  1.00  0.00     0.016 A 
ATOM     42  C   UNL A   1      42.455  27.121  26.570  1.00  0.00     0.010 A 
ATOM     43  C   UNL A   1      40.987  25.467  27.581  1.00  0.00     0.010 A 
ATOM     44  C   UNL A   1      41.495  26.778  27.528  1.00  0.00    -0.014 A 
BRANCH  44  45
ATOM     45  C   UNL A   1      41.206  27.707  28.643  1.00  0.00     0.031 A 
ATOM     46  C   UNL A   1      42.059  27.605  29.876  1.00  0.00     0.074 A 
ATOM     47  C   UNL A   1      40.206  28.600  28.570  1.00  0.00     0.049 A 
ATOM     48  N   UNL A   1      41.915  28.184  31.040  1.00  0.00    -0.248 NA
ATOM     49  C   UNL A   1      43.233  26.721  29.784  1.00  0.00     0.031 C 
ATOM     50  C   UNL A   1      39.363  28.833  27.400  1.00  0.00     0.029 A 
ATOM     51  N   UNL A   1      39.719  29.462  29.519  1.00  0.00    -0.354 N 
ATOM     52  C   UNL A   1      42.966  27.719  31.820  1.00  0.00     0.074 A 
ATOM     53  C   UNL A   1      43.734  26.805  31.006  1.00  0.00     0.031 C 
ATOM     54  C   UNL A   1      38.438  29.759  27.711  1.00  0.00     0.029 A 
ATOM     55  C   UNL A   1      38.601  30.147  29.112  1.00  0.00     0.049 A 
ATOM     56  H   UNL A   1      40.131  29.580  30.406  1.00  0.00     0.167 HD
ATOM     57  C   UNL A   1      43.259  28.026  33.105  1.00  0.00     0.037 A 
ATOM     58  C   UNL A   1      37.785  30.960  29.811  1.00  0.00     0.037 A 
ATOM     59  C   UNL A   1      42.482  28.929  33.909  1.00  0.00     0.049 A 
ATOM     60  C   UNL A   1      38.085  31.226  31.265  1.00  0.00     0.074 A 
ATOM     61  C   UNL A   1      42.679  29.303  35.225  1.00  0.00     0.029 A 
ATOM     62  N   UNL A   1      41.352  29.598  33.463  1.00  0.00    -0.354 N 
ATOM     63  N   UNL A   1      39.073  30.780  32.003  1.00  0.00    -0.248 NA
ATOM     64  C   UNL A   1      37.153  32.107  31.985  1.00  0.00     0.031 C 
ATOM     65  C   UNL A   1      41.641  30.167  35.590  1.00  0.00     0.029 A 
ATOM     66  C   UNL A   1      40.830  30.373  34.485  1.00  0.00     0.049 A 
ATOM     67  H   UNL A   1      40.976  29.532  32.556  1.00  0.00     0.167 HD
ATOM     68  C   UNL A   1      38.904  31.352  33.258  1.00  0.00     0.074 A 
ATOM     69  C   UNL A   1      37.717  32.179  33.183  1.00  0.00     0.031 C 
ATOM     70  C   UNL A   1      39.664  31.210  34.372  1.00  0.00     0.037 A 
BRANCH  57  71
ATOM     71  C   UNL A   1      44.443  27.345  33.725  1.00  0.00     0.064 A 
ATOM     72  C   UNL A   1      44.328  26.103  34.368  1.00  0.00     0.173 A 
ATOM     73  C   UNL A   1      45.711  27.941  33.669  1.00  0.00     0.173 A 
ATOM     74  F   UNL A   1      43.132  25.503  34.467  1.00  0.00    -0.203 F 
ATOM     75  C   UNL A   1      45.436  25.494  34.951  1.00  0.00     0.198 A 
ATOM     76  C   UNL A   1      46.822  27.316  34.229  1.00  0.00     0.198 A 
ATOM     77  F   UNL A   1      45.875  29.129  33.069  1.00  0.00    -0.203 F 
ATOM     78  F   UNL A   1      45.294  24.332  35.602  1.00  0.00    -0.200 F 
ATOM     79  C   UNL A   1      46.682  26.098  34.876  1.00  0.00     0.200 A 
ATOM     80  F   UNL A   1      48.028  27.896  34.148  1.00  0.00    -0.200 F 
ATOM     81  F   UNL A   1      47.748  25.508  35.436  1.00  0.00    -0.200 F 
ENDBRANCH  57  71
BRANCH  58  82
ATOM     82  C   UNL A   1      36.593  31.561  29.156  1.00  0.00     0.064 A 
ATOM     83  C   UNL A   1      35.474  30.781  28.836  1.00  0.00     0.173 A 
ATOM     84  C   UNL A   1      36.555  32.924  28.824  1.00  0.00     0.173 A 
ATOM     85  F   UNL A   1      35.474  29.468  29.110  1.00  0.00    -0.203 F 
ATOM     86  C   UNL A   1      34.370  31.336  28.193  1.00  0.00     0.198 A 
ATOM     87  C   UNL A   1      35.439  33.484  28.207  1.00  0.00     0.198 A 
ATOM     88  F   UNL A   1      37.601  33.714  29.108  1.00  0.00    -0.203 F 
ATOM     89  F   UNL A   1      33.331  30.558  27.858  1.00  0.00    -0.200 F 
ATOM     90  C   UNL A   1      34.350  32.688  27.884  1.00  0.00     0.200 A 
ATOM     91  F   UNL A   1      35.419  34.793  27.921  1.00  0.00    -0.200 F 
ATOM     92  F   UNL A   1      33.285  33.222  27.270  1.00  0.00    -0.200 F 
ENDBRANCH  58  82
BRANCH  70  93
ATOM     93  C   UNL A   1      39.281  32.012  35.581  1.00  0.00     0.064 A 
ATOM     94  C   UNL A   1      39.707  33.336  35.754  1.00  0.00     0.173 A 
ATOM     95  C   UNL A   1      38.411  31.467  36.538  1.00  0.00     0.173 A 
ATOM     96  F   UNL A   1      40.548  33.896  34.873  1.00  0.00    -0.203 F 
ATOM     97  C   UNL A   1      39.287  34.082  36.854  1.00  0.00     0.198 A 
ATOM     98  C   UNL A   1      37.972  32.224  37.620  1.00  0.00     0.198 A 
ATOM     99  F   UNL A   1      37.969  30.207  36.410  1.00  0.00    -0.203 F 
ATOM    100  F   UNL A   1      39.732  35.335  37.019  1.00  0.00    -0.200 F 
ATOM    101  C   UNL A   1      38.414  33.529  37.779  1.00  0.00     0.200 A 
ATOM    102  F   UNL A   1      37.117  31.693  38.503  1.00  0.00    -0.200 F 
ATOM    103  F   UNL A   1      37.998  34.254  38.826  1.00  0.00    -0.200 F 
ENDBRANCH  70  93
ENDBRANCH  44  45
ENDBRANCH  37  39
ENDBRANCH  36  37
ENDBRANCH  35  36
ENDBRANCH  34  35
ENDBRANCH  33  34
ENDBRANCH   1  33
TORSDOF 18
ENDMDL
MODEL 2
REMARK VINA RESULT:     -12.9      4.379      8.279
REMARK SMILES C[C@H]1CS(=O)(=O)N(c2cccc(C(=O)Nc3ccc(O)c(C(=O)OCCOCCOC(=O)c4ccc(-c5c6nc(c(-c7c(F)c(F)c(F)c(F)c7F)c7ccc([nH]7)c(-c7c(F)c(F)c(F)c(F)c7F)c7nc(c(-c8c(F)c(F)c(F)c(F)c8F)c8ccc5[nH]8)C=C7)C=C6)cc4)c3)c2)C1=O
REMARK SMILES IDX 26 1 25 2 24 3 22 4 23 5 21 6 16 7 17 8 96 9 18 10 19 11
REMARK SMILES IDX 15 12 13 13 14 14 12 16 8 17 9 18 97 19 10 20 11 21 7 22
REMARK SMILES IDX 1 23 2 24 3 25 98 26 4 27 99 28 5 29 6 30 20 31 27 33 28 34
REMARK SMILES IDX 29 35 30 36 31 37 32 38 33 39 34 40 95 41 35 42 94 43 36 44
REMARK SMILES IDX 37 45 38 46 88 47 39 48 93 49 87 50 89 51 40 52 92 53 86 54
REMARK SMILES IDX 85 55 41 57 73 58 53 59 72 60 54 61 57 62 71 63 90 64 55 65
REMARK SMILES IDX 56 66 70 68 91 69 58 70 42 71 43 72 51 73 44 74 45 75 49 76
REMARK SMILES IDX 52 77 46 78 47 79 50 80 48 81 74 82 75 83 83 84 76 85 77 86
REMARK SMILES IDX 81 87 84 88 78 89 79 90 82 91 80 92 59 93 60 94 68 95 61 96
REMARK SMILES IDX 62 97 66 98 69 99 63 100 64 101 67 102 65 103
REMARK H PARENT 15 15 20 32 89 56 57 67
REMARK Flexibility Score: inf
ROOT
ATOM      1  C   UNL A   1      36.096  23.007  25.168  1.00  0.00     0.202 C 
ENDROOT
BRANCH   1   2
ATOM      2  C   UNL A   1      35.627  22.718  26.601  1.00  0.00     0.261 C 
BRANCH   2   3
ATOM      3  O   UNL A   1      34.427  23.362  27.041  1.00  0.00    -0.460 OA
BRANCH   3   4
ATOM      4  C   UNL A   1      33.371  22.526  27.158  1.00  0.00     0.342 C 
ATOM      5  O   UNL A   1      32.798  22.192  28.185  1.00  0.00    -0.246 OA
BRANCH   4   6
ATOM      6  C   UNL A   1      32.886  22.037  25.868  1.00  0.00     0.103 A 
ATOM      7  C   UNL A   1      32.791  22.479  23.523  1.00  0.00     0.042 A 
ATOM      8  C   UNL A   1      32.643  21.112  23.263  1.00  0.00     0.030 A 
ATOM      9  C   UNL A   1      32.748  22.952  24.831  1.00  0.00     0.045 A 
ATOM     10  C   UNL A   1      32.672  20.198  24.318  1.00  0.00     0.049 A 
ATOM     11  C   UNL A   1      32.873  20.662  25.610  1.00  0.00     0.130 A 
BRANCH   7  12
ATOM     12  N   UNL A   1      33.131  23.318  22.455  1.00  0.00    -0.322 N 
ATOM     13  C   UNL A   1      32.581  24.525  22.062  1.00  0.00     0.255 C 
ATOM     14  O   UNL A   1      32.903  24.985  20.966  1.00  0.00    -0.269 OA
ATOM     15  H   UNL A   1      33.877  22.999  21.898  1.00  0.00     0.170 HD
BRANCH  13  16
ATOM     16  C   UNL A   1      31.665  25.339  22.931  1.00  0.00     0.042 A 
ATOM     17  C   UNL A   1      31.170  27.200  24.460  1.00  0.00     0.061 A 
ATOM     18  C   UNL A   1      29.861  26.717  24.572  1.00  0.00     0.027 A 
ATOM     19  C   UNL A   1      32.038  26.538  23.574  1.00  0.00     0.041 A 
ATOM     20  C   UNL A   1      29.448  25.578  23.876  1.00  0.00     0.003 A 
ATOM     21  C   UNL A   1      30.350  24.880  23.076  1.00  0.00     0.014 A 
BRANCH  17  22
ATOM     22  N   UNL A   1      31.619  28.286  25.289  1.00  0.00    -0.207 N 
ATOM     23  C   UNL A   1      31.028  31.755  26.287  1.00  0.00     0.019 C 
ATOM     24  C   UNL A   1      31.983  30.594  26.000  1.00  0.00     0.094 C 
ATOM     25  C   UNL A   1      32.276  29.767  27.251  1.00  0.00     0.173 C 
ATOM     26  C   UNL A   1      31.472  29.646  24.916  1.00  0.00     0.244 C 
ATOM     27  S   UNL A   1      32.416  28.069  26.745  1.00  0.00     0.242 S 
ATOM     28  O   UNL A   1      31.045  30.040  23.837  1.00  0.00    -0.273 OA
ATOM     29  O   UNL A   1      33.806  27.783  26.463  1.00  0.00    -0.206 OA
ATOM     30  O   UNL A   1      31.629  27.257  27.646  1.00  0.00    -0.206 OA
ENDBRANCH  17  22
ENDBRANCH  13  16
ENDBRANCH   7  12
BRANCH  11  31
ATOM     31  O   UNL A   1      33.119  19.725  26.577  1.00  0.00    -0.507 OA
ATOM     32  H   UNL A   1      33.650  19.944  27.317  1.00  0.00     0.293 HD
ENDBRANCH  11  31
ENDBRANCH   4   6
ENDBRANCH   3   4
ENDBRANCH   2   3
ENDBRANCH   1   2
BRANCH   1  33
ATOM     33  O   UNL A   1      36.333  21.936  24.270  1.00  0.00    -0.374 OA
BRANCH  33  34
ATOM     34  C   UNL A   1      36.536  20.618  24.767  1.00  0.00     0.202 C 
BRANCH  34  35
ATOM     35  C   UNL A   1      37.925  20.131  25.206  1.00  0.00     0.261 C 
BRANCH  35  36
ATOM     36  O   UNL A   1      38.900  21.175  25.365  1.00  0.00    -0.460 OA
BRANCH  36  37
ATOM     37  C   UNL A   1      39.816  20.950  26.338  1.00  0.00     0.338 C 
ATOM     38  O   UNL A   1      40.410  19.911  26.574  1.00  0.00    -0.246 OA
BRANCH  37  39
ATOM     39  C   UNL A   1      40.176  22.221  26.990  1.00  0.00     0.060 A 
ATOM     40  C   UNL A   1      39.593  23.399  26.501  1.00  0.00     0.016 A 
ATOM     41  C   UNL A   1      41.149  22.266  27.988  1.00  0.00     0.016 A 
ATOM     42  C   UNL A   1      40.021  24.638  26.969  1.00  0.00     0.010 A 
ATOM     43  C   UNL A   1      41.599  23.510  28.436  1.00  0.00     0.010 A 
ATOM     44  C   UNL A   1      41.070  24.696  27.894  1.00  0.00    -0.014 A 
BRANCH  44  45
ATOM     45  C   UNL A   1      41.794  25.969  28.104  1.00  0.00     0.031 A 
ATOM     46  C   UNL A   1      41.070  27.075  28.820  1.00  0.00     0.074 A 
ATOM     47  C   UNL A   1      43.047  26.144  27.656  1.00  0.00     0.049 A 
ATOM     48  N   UNL A   1      41.414  28.324  28.989  1.00  0.00    -0.248 NA
ATOM     49  C   UNL A   1      39.773  26.720  29.421  1.00  0.00     0.031 C 
ATOM     50  C   UNL A   1      43.867  25.121  27.013  1.00  0.00     0.029 A 
ATOM     51  N   UNL A   1      43.839  27.265  27.658  1.00  0.00    -0.354 N 
ATOM     52  C   UNL A   1      40.371  28.906  29.698  1.00  0.00     0.074 A 
ATOM     53  C   UNL A   1      39.377  27.881  29.919  1.00  0.00     0.031 C 
ATOM     54  C   UNL A   1      45.041  25.671  26.653  1.00  0.00     0.029 A 
ATOM     55  C   UNL A   1      45.032  27.091  27.003  1.00  0.00     0.049 A 
ATOM     56  H   UNL A   1      43.577  28.111  28.089  1.00  0.00     0.167 HD
ATOM     57  C   UNL A   1      40.252  30.186  30.120  1.00  0.00     0.037 A 
ATOM     58  C   UNL A   1      45.983  27.992  26.689  1.00  0.00     0.037 A 
ATOM     59  C   UNL A   1      41.243  31.201  29.886  1.00  0.00     0.049 A 
ATOM     60  C   UNL A   1      45.794  29.431  27.100  1.00  0.00     0.074 A 
ATOM     61  C   UNL A   1      41.222  32.533  30.257  1.00  0.00     0.029 A 
ATOM     62  N   UNL A   1      42.436  30.988  29.211  1.00  0.00    -0.354 N 
ATOM     63  N   UNL A   1      44.804  29.981  27.762  1.00  0.00    -0.248 NA
ATOM     64  C   UNL A   1      46.854  30.375  26.718  1.00  0.00     0.031 C 
ATOM     65  C   UNL A   1      42.385  33.137  29.769  1.00  0.00     0.029 A 
ATOM     66  C   UNL A   1      43.155  32.169  29.141  1.00  0.00     0.049 A 
ATOM     67  H   UNL A   1      42.729  30.126  28.837  1.00  0.00     0.167 HD
ATOM     68  C   UNL A   1      45.138  31.323  27.907  1.00  0.00     0.074 A 
ATOM     69  C   UNL A   1      46.423  31.504  27.265  1.00  0.00     0.031 C 
ATOM     70  C   UNL A   1      44.446  32.314  28.521  1.00  0.00     0.037 A 
BRANCH  57  71
ATOM     71  C   UNL A   1      38.991  30.563  30.838  1.00  0.00     0.064 A 
ATOM     72  C   UNL A   1      37.848  30.994  30.148  1.00  0.00     0.173 A 
ATOM     73  C   UNL A   1      38.923  30.484  32.237  1.00  0.00     0.173 A 
ATOM     74  F   UNL A   1      37.871  31.108  28.811  1.00  0.00    -0.203 F 
ATOM     75  C   UNL A   1      36.692  31.354  30.834  1.00  0.00     0.198 A 
ATOM     76  C   UNL A   1      37.755  30.818  32.918  1.00  0.00     0.198 A 
ATOM     77  F   UNL A   1      39.988  30.080  32.945  1.00  0.00    -0.203 F 
ATOM     78  F   UNL A   1      35.628  31.810  30.158  1.00  0.00    -0.200 F 
ATOM     79  C   UNL A   1      36.644  31.260  32.217  1.00  0.00     0.200 A 
ATOM     80  F   UNL A   1      37.708  30.718  34.254  1.00  0.00    -0.200 F 
ATOM     81  F   UNL A   1      35.528  31.605  32.875  1.00  0.00    -0.200 F 
ENDBRANCH  57  71
BRANCH  58  82
ATOM     82  C   UNL A   1      47.186  27.570  25.924  1.00  0.00     0.064 A 
ATOM     83  C   UNL A   1      48.361  27.184  26.582  1.00  0.00     0.173 A 
ATOM     84  C   UNL A   1      47.191  27.558  24.522  1.00  0.00     0.173 A 
ATOM     85  F   UNL A   1      48.415  27.203  27.922  1.00  0.00    -0.203 F 
ATOM     86  C   UNL A   1      49.501  26.820  25.868  1.00  0.00     0.198 A 
ATOM     87  C   UNL A   1      48.321  27.167  23.808  1.00  0.00     0.198 A 
ATOM     88  F   UNL A   1      46.092  27.921  23.843  1.00  0.00    -0.203 F 
ATOM     89  F   UNL A   1      50.625  26.497  26.522  1.00  0.00    -0.200 F 
ATOM     90  C   UNL A   1      49.478  26.806  24.480  1.00  0.00     0.200 A 
ATOM     91  F   UNL A   1      48.290  27.143  22.468  1.00  0.00    -0.200 F 
ATOM     92  F   UNL A   1      50.572  26.450  23.794  1.00  0.00    -0.200 F 
ENDBRANCH  58  82
BRANCH  70  93
ATOM     93  C   UNL A   1      45.087  33.669  28.589  1.00  0.00     0.064 A 
ATOM     94  C   UNL A   1      44.813  34.665  27.641  1.00  0.00     0.173 A 
ATOM     95  C   UNL A   1      45.929  33.994  29.664  1.00  0.00     0.173 A 
ATOM     96  F   UNL A   1      44.024  34.398  26.590  1.00  0.00    -0.203 F 
ATOM     97  C   UNL A   1      45.372  35.935  27.761  1.00  0.00     0.198 A 
ATOM     98  C   UNL A   1      46.464  35.271  29.794  1.00  0.00     0.198 A 
ATOM     99  F   UNL A   1      46.214  33.075  30.600  1.00  0.00    -0.203 F 
ATOM    100  F   UNL A   1      45.124  36.864  26.827  1.00  0.00    -0.200 F 
ATOM    101  C   UNL A   1      46.188  36.239  28.841  1.00  0.00     0.200 A 
ATOM    102  F   UNL A   1      47.239  35.567  30.846  1.00  0.00    -0.200 F 
ATOM    103  F   UNL A   1      46.711  37.467  28.962  1.00  0.00    -0.200 F 
ENDBRANCH  70  93
ENDBRANCH  44  45
ENDBRANCH  37  39
ENDBRANCH  36  37
ENDBRANCH  35  36
ENDBRANCH  34  35
ENDBRANCH  33  34
ENDBRANCH   1  33
TORSDOF 18
ENDMDL
MODEL 3
REMARK VINA RESULT:     -12.9      4.279      6.300
REMARK SMILES C[C@H]1CS(=O)(=O)N(c2cccc(C(=O)Nc3ccc(O)c(C(=O)OCCOCCOC(=O)c4ccc(-c5c6nc(c(-c7c(F)c(F)c(F)c(F)c7F)c7ccc([nH]7)c(-c7c(F)c(F)c(F)c(F)c7F)c7nc(c(-c8c(F)c(F)c(F)c(F)c8F)c8ccc5[nH]8)C=C7)C=C6)cc4)c3)c2)C1=O
REMARK SMILES IDX 26 1 25 2 24 3 22 4 23 5 21 6 16 7 17 8 96 9 18 10 19 11
REMARK SMILES IDX 15 12 13 13 14 14 12 16 8 17 9 18 97 19 10 20 11 21 7 22
REMARK SMILES IDX 1 23 2 24 3 25 98 26 4 27 99 28 5 29 6 30 20 31 27 33 28 34
REMARK SMILES IDX 29 35 30 36 31 37 32 38 33 39 34 40 95 41 35 42 94 43 36 44
REMARK SMILES IDX 37 45 38 46 88 47 39 48 93 49 87 50 89 51 40 52 92 53 86 54
REMARK SMILES IDX 85 55 41 57 73 58 53 59 72 60 54 61 57 62 71 63 90 64 55 65
REMARK SMILES IDX 56 66 70 68 91 69 58 70 42 71 43 72 51 73 44 74 45 75 49 76
REMARK SMILES IDX 52 77 46 78 47 79 50 80 48 81 74 82 75 83 83 84 76 85 77 86
REMARK SMILES IDX 81 87 84 88 78 89 79 90 82 91 80 92 59 93 60 94 68 95 61 96
REMARK SMILES IDX 62 97 66 98 69 99 63 100 64 101 67 102 65 103
REMARK H PARENT 15 15 20 32 89 56 57 67
REMARK Flexibility Score: inf
ROOT
ATOM      1  C   UNL A   1      37.063  22.500  24.878  1.00  0.00     0.202 C 
ENDROOT
BRANCH   1   2
ATOM      2  C   UNL A   1      36.499  22.459  26.305  1.00  0.00     0.261 C 
BRANCH   2   3
ATOM      3  O   UNL A   1      35.187  22.996  26.507  1.00  0.00    -0.460 OA
BRANCH   3   4
ATOM      4  C   UNL A   1      34.235  22.054  26.695  1.00  0.00     0.342 C 
ATOM      5  O   UNL A   1      33.995  21.436  27.722  1.00  0.00    -0.246 OA
BRANCH   4   6
ATOM      6  C   UNL A   1      33.413  21.830  25.507  1.00  0.00     0.103 A 
ATOM      7  C   UNL A   1      32.946  22.576  23.287  1.00  0.00     0.042 A 
ATOM      8  C   UNL A   1      32.470  21.304  22.950  1.00  0.00     0.030 A 
ATOM      9  C   UNL A   1      33.263  22.879  24.607  1.00  0.00     0.045 A 
ATOM     10  C   UNL A   1      32.520  20.273  23.891  1.00  0.00     0.049 A 
ATOM     11  C   UNL A   1      33.065  20.525  25.142  1.00  0.00     0.130 A 
BRANCH   7  12
ATOM     12  N   UNL A   1      33.233  23.467  22.246  1.00  0.00    -0.322 N 
ATOM     13  C   UNL A   1      32.642  24.676  21.922  1.00  0.00     0.255 C 
ATOM     14  O   UNL A   1      32.918  25.189  20.837  1.00  0.00    -0.269 OA
ATOM     15  H   UNL A   1      33.967  23.190  21.652  1.00  0.00     0.170 HD
BRANCH  13  16
ATOM     16  C   UNL A   1      31.736  25.430  22.853  1.00  0.00     0.042 A 
ATOM     17  C   UNL A   1      31.238  27.233  24.449  1.00  0.00     0.061 A 
ATOM     18  C   UNL A   1      29.957  26.693  24.611  1.00  0.00     0.027 A 
ATOM     19  C   UNL A   1      32.090  26.628  23.507  1.00  0.00     0.041 A 
ATOM     20  C   UNL A   1      29.559  25.554  23.906  1.00  0.00     0.003 A 
ATOM     21  C   UNL A   1      30.450  24.913  23.047  1.00  0.00     0.014 A 
BRANCH  17  22
ATOM     22  N   UNL A   1      31.682  28.317  25.284  1.00  0.00    -0.207 N 
ATOM     23  C   UNL A   1      31.028  31.753  26.353  1.00  0.00     0.019 C 
ATOM     24  C   UNL A   1      32.005  30.623  26.022  1.00  0.00     0.094 C 
ATOM     25  C   UNL A   1      32.353  29.785  27.251  1.00  0.00     0.173 C 
ATOM     26  C   UNL A   1      31.489  29.678  24.936  1.00  0.00     0.244 C 
ATOM     27  S   UNL A   1      32.524  28.099  26.714  1.00  0.00     0.242 S 
ATOM     28  O   UNL A   1      31.023  30.078  23.876  1.00  0.00    -0.273 OA
ATOM     29  O   UNL A   1      33.912  27.854  26.390  1.00  0.00    -0.206 OA
ATOM     30  O   UNL A   1      31.782  27.253  27.622  1.00  0.00    -0.206 OA
ENDBRANCH  17  22
ENDBRANCH  13  16
ENDBRANCH   7  12
BRANCH  11  31
ATOM     31  O   UNL A   1      33.301  19.443  25.948  1.00  0.00    -0.507 OA
ATOM     32  H   UNL A   1      34.179  19.165  26.112  1.00  0.00     0.293 HD
ENDBRANCH  11  31
ENDBRANCH   4   6
ENDBRANCH   3   4
ENDBRANCH   2   3
ENDBRANCH   1   2
BRANCH   1  33
ATOM     33  O   UNL A   1      37.773  21.387  24.365  1.00  0.00    -0.374 OA
BRANCH  33  34
ATOM     34  C   UNL A   1      37.778  20.153  25.074  1.00  0.00     0.202 C 
BRANCH  34  35
ATOM     35  C   UNL A   1      39.076  19.559  25.641  1.00  0.00     0.261 C 
BRANCH  35  36
ATOM     36  O   UNL A   1      40.164  20.491  25.744  1.00  0.00    -0.460 OA
BRANCH  36  37
ATOM     37  C   UNL A   1      40.778  20.514  26.952  1.00  0.00     0.338 C 
ATOM     38  O   UNL A   1      41.346  19.593  27.514  1.00  0.00    -0.246 OA
BRANCH  37  39
ATOM     39  C   UNL A   1      40.855  21.899  27.449  1.00  0.00     0.060 A 
ATOM     40  C   UNL A   1      40.009  22.854  26.866  1.00  0.00     0.016 A 
ATOM     41  C   UNL A   1      41.814  22.272  28.390  1.00  0.00     0.016 A 
ATOM     42  C   UNL A   1      40.155  24.202  27.182  1.00  0.00     0.010 A 
ATOM     43  C   UNL A   1      41.980  23.627  28.683  1.00  0.00     0.010 A 
ATOM     44  C   UNL A   1      41.184  24.596  28.045  1.00  0.00    -0.014 A 
BRANCH  44  45
ATOM     45  C   UNL A   1      41.605  26.014  28.086  1.00  0.00     0.031 A 
ATOM     46  C   UNL A   1      42.954  26.359  27.519  1.00  0.00     0.074 A 
ATOM     47  C   UNL A   1      40.823  26.962  28.625  1.00  0.00     0.049 A 
ATOM     48  N   UNL A   1      43.619  27.483  27.574  1.00  0.00    -0.248 NA
ATOM     49  C   UNL A   1      43.650  25.281  26.796  1.00  0.00     0.031 C 
ATOM     50  C   UNL A   1      39.471  26.754  29.139  1.00  0.00     0.029 A 
ATOM     51  N   UNL A   1      41.072  28.292  28.850  1.00  0.00    -0.354 N 
ATOM     52  C   UNL A   1      44.815  27.241  26.912  1.00  0.00     0.074 A 
ATOM     53  C   UNL A   1      44.793  25.865  26.472  1.00  0.00     0.031 C 
ATOM     54  C   UNL A   1      39.018  27.913  29.649  1.00  0.00     0.029 A 
ATOM     55  C   UNL A   1      40.066  28.927  29.535  1.00  0.00     0.049 A 
ATOM     56  H   UNL A   1      41.891  28.748  28.549  1.00  0.00     0.167 HD
ATOM     57  C   UNL A   1      45.845  28.093  26.697  1.00  0.00     0.037 A 
ATOM     58  C   UNL A   1      40.023  30.174  30.044  1.00  0.00     0.037 A 
ATOM     59  C   UNL A   1      45.861  29.458  27.148  1.00  0.00     0.049 A 
ATOM     60  C   UNL A   1      41.213  31.083  29.861  1.00  0.00     0.074 A 
ATOM     61  C   UNL A   1      46.855  30.407  26.998  1.00  0.00     0.029 A 
ATOM     62  N   UNL A   1      44.826  30.063  27.846  1.00  0.00    -0.354 N 
ATOM     63  N   UNL A   1      42.346  30.850  29.243  1.00  0.00    -0.248 NA
ATOM     64  C   UNL A   1      41.119  32.426  30.451  1.00  0.00     0.031 C 
ATOM     65  C   UNL A   1      46.438  31.576  27.643  1.00  0.00     0.029 A 
ATOM     66  C   UNL A   1      45.163  31.371  28.147  1.00  0.00     0.049 A 
ATOM     67  H   UNL A   1      43.977  29.628  28.091  1.00  0.00     0.167 HD
ATOM     68  C   UNL A   1      43.082  32.026  29.337  1.00  0.00     0.074 A 
ATOM     69  C   UNL A   1      42.268  32.970  30.072  1.00  0.00     0.031 C 
ATOM     70  C   UNL A   1      44.320  32.300  28.854  1.00  0.00     0.037 A 
BRANCH  57  71
ATOM     71  C   UNL A   1      47.047  27.557  25.980  1.00  0.00     0.064 A 
ATOM     72  C   UNL A   1      47.182  27.655  24.587  1.00  0.00     0.173 A 
ATOM     73  C   UNL A   1      48.085  26.944  26.699  1.00  0.00     0.173 A 
ATOM     74  F   UNL A   1      46.207  28.212  23.853  1.00  0.00    -0.203 F 
ATOM     75  C   UNL A   1      48.299  27.137  23.938  1.00  0.00     0.198 A 
ATOM     76  C   UNL A   1      49.214  26.453  26.050  1.00  0.00     0.198 A 
ATOM     77  F   UNL A   1      48.004  26.823  28.032  1.00  0.00    -0.203 F 
ATOM     78  F   UNL A   1      48.384  27.197  22.602  1.00  0.00    -0.200 F 
ATOM     79  C   UNL A   1      49.317  26.543  24.670  1.00  0.00     0.200 A 
ATOM     80  F   UNL A   1      50.200  25.886  26.759  1.00  0.00    -0.200 F 
ATOM     81  F   UNL A   1      50.394  26.047  24.043  1.00  0.00    -0.200 F 
ENDBRANCH  57  71
BRANCH  58  82
ATOM     82  C   UNL A   1      38.824  30.631  30.796  1.00  0.00     0.064 A 
ATOM     83  C   UNL A   1      37.728  31.199  30.133  1.00  0.00     0.173 A 
ATOM     84  C   UNL A   1      38.757  30.523  32.193  1.00  0.00     0.173 A 
ATOM     85  F   UNL A   1      37.756  31.347  28.801  1.00  0.00    -0.203 F 
ATOM     86  C   UNL A   1      36.618  31.658  30.839  1.00  0.00     0.198 A 
ATOM     87  C   UNL A   1      37.635  30.956  32.896  1.00  0.00     0.198 A 
ATOM     88  F   UNL A   1      39.780  29.988  32.876  1.00  0.00    -0.203 F 
ATOM     89  F   UNL A   1      35.602  32.236  30.185  1.00  0.00    -0.200 F 
ATOM     90  C   UNL A   1      36.569  31.530  32.220  1.00  0.00     0.200 A 
ATOM     91  F   UNL A   1      37.587  30.819  34.228  1.00  0.00    -0.200 F 
ATOM     92  F   UNL A   1      35.499  31.967  32.898  1.00  0.00    -0.200 F 
ENDBRANCH  58  82
BRANCH  70  93
ATOM     93  C   UNL A   1      44.846  33.692  29.043  1.00  0.00     0.064 A 
ATOM     94  C   UNL A   1      44.549  34.723  28.141  1.00  0.00     0.173 A 
ATOM     95  C   UNL A   1      45.593  34.010  30.188  1.00  0.00     0.173 A 
ATOM     96  F   UNL A   1      43.848  34.465  27.027  1.00  0.00    -0.203 F 
ATOM     97  C   UNL A   1      44.997  36.022  28.371  1.00  0.00     0.198 A 
ATOM     98  C   UNL A   1      46.015  35.314  30.428  1.00  0.00     0.198 A 
ATOM     99  F   UNL A   1      45.895  33.058  31.084  1.00  0.00    -0.203 F 
ATOM    100  F   UNL A   1      44.730  36.987  27.480  1.00  0.00    -0.200 F 
ATOM    101  C   UNL A   1      45.720  36.317  29.517  1.00  0.00     0.200 A 
ATOM    102  F   UNL A   1      46.700  35.600  31.543  1.00  0.00    -0.200 F 
ATOM    103  F   UNL A   1      46.134  37.571  29.745  1.00  0.00    -0.200 F 
ENDBRANCH  70  93
ENDBRANCH  44  45
ENDBRANCH  37  39
ENDBRANCH  36  37
ENDBRANCH  35  36
ENDBRANCH  34  35
ENDBRANCH  33  34
ENDBRANCH   1  33
TORSDOF 18
ENDMDL
