MODEL 1
REMARK VINA RESULT:     -11.3      0.000      0.000
REMARK SMILES CCC(CC)COc1cc2c(cc1Cl)C=C(C(=O)OCCOCCOC(=O)c1ccc(-c3c4nc(c(-c5c(F)c(F)c(F)c(F)c5F)c5ccc([nH]5)c(-c5c(F)c(F)c(F)c(F)c5F)c5nc(c(-c6c(F)c(F)c(F)c(F)c6F)c6ccc3[nH]6)C=C5)C=C4)cc1)[C@@H](C(F)(F)F)O2
REMARK SMILES IDX 21 1 20 2 19 3 17 4 18 5 16 6 8 7 9 8 13 9 10 10 12 11 14 12
REMARK SMILES IDX 11 13 96 14 15 15 91 16 7 17 6 18 3 19 2 20 1 21 4 22 5 23
REMARK SMILES IDX 92 24 93 25 94 26 95 27 22 28 23 29 24 30 25 31 26 32 27 33
REMARK SMILES IDX 28 34 29 35 90 36 30 37 89 38 31 39 32 40 33 41 83 42 34 43
REMARK SMILES IDX 88 44 82 45 84 46 35 47 87 48 81 49 80 50 36 52 68 53 48 54
REMARK SMILES IDX 67 55 49 56 52 57 66 58 85 59 50 60 51 61 65 63 86 64 53 65
REMARK SMILES IDX 37 66 38 67 46 68 39 69 40 70 44 71 47 72 41 73 42 74 45 75
REMARK SMILES IDX 43 76 69 77 70 78 78 79 71 80 72 81 76 82 79 83 73 84 74 85
REMARK SMILES IDX 77 86 75 87 54 88 55 89 63 90 56 91 57 92 61 93 64 94 58 95
REMARK SMILES IDX 59 96 62 97 60 98
REMARK H PARENT 84 51 52 62
REMARK Flexibility Score: inf
ROOT
ATOM      1  C   UNL A   1      33.900  29.373  26.541  1.00  0.00     0.202 C 
ENDROOT
BRANCH   1   2
ATOM      2  C   UNL A   1      33.015  28.782  25.438  1.00  0.00     0.261 C 
BRANCH   2   3
ATOM      3  O   UNL A   1      33.132  27.356  25.322  1.00  0.00    -0.460 OA
BRANCH   3   4
ATOM      4  C   UNL A   1      32.054  26.696  25.803  1.00  0.00     0.338 C 
ATOM      5  O   UNL A   1      30.984  27.195  26.123  1.00  0.00    -0.246 OA
BRANCH   4   6
ATOM      6  C   UNL A   1      32.264  25.241  25.799  1.00  0.00     0.087 C 
ATOM      7  C   UNL A   1      34.699  20.983  24.984  1.00  0.00     0.141 A 
ATOM      8  C   UNL A   1      33.337  21.254  25.191  1.00  0.00     0.095 A 
ATOM      9  C   UNL A   1      35.618  22.040  24.969  1.00  0.00     0.083 A 
ATOM     10  C   UNL A   1      32.934  22.562  25.481  1.00  0.00     0.131 A 
ATOM     11  C   UNL A   1      35.241  23.289  25.437  1.00  0.00     0.036 A 
ATOM     12  Cl  UNL A   1      37.214  21.890  24.332  1.00  0.00    -0.080 Cl
ATOM     13  C   UNL A   1      33.901  23.542  25.708  1.00  0.00     0.019 A 
ATOM     14  O   UNL A   1      31.593  22.859  25.525  1.00  0.00    -0.475 OA
ATOM     15  C   UNL A   1      33.517  24.881  26.092  1.00  0.00     0.027 C 
ATOM     16  C   UNL A   1      31.232  24.269  25.299  1.00  0.00     0.316 C 
BRANCH   7  17
ATOM     17  O   UNL A   1      35.111  19.707  24.703  1.00  0.00    -0.492 OA
BRANCH  17  18
ATOM     18  C   UNL A   1      34.043  18.725  24.745  1.00  0.00     0.233 C 
BRANCH  18  19
ATOM     19  C   UNL A   1      34.421  17.368  24.090  1.00  0.00     0.026 C 
BRANCH  19  20
ATOM     20  C   UNL A   1      34.366  16.211  25.117  1.00  0.00     0.003 C 
ATOM     21  C   UNL A   1      32.947  15.754  25.429  1.00  0.00     0.004 C 
ENDBRANCH  19  20
BRANCH  19  22
ATOM     22  C   UNL A   1      33.590  17.051  22.825  1.00  0.00     0.003 C 
ATOM     23  C   UNL A   1      32.499  18.053  22.480  1.00  0.00     0.004 C 
ENDBRANCH  19  22
ENDBRANCH  18  19
ENDBRANCH  17  18
ENDBRANCH   7  17
BRANCH  16  24
ATOM     24  C   UNL A   1      30.901  24.534  23.821  1.00  0.00     0.430 C 
ATOM     25  F   UNL A   1      31.981  24.984  23.140  1.00  0.00    -0.167 F 
ATOM     26  F   UNL A   1      30.499  23.395  23.203  1.00  0.00    -0.167 F 
ATOM     27  F   UNL A   1      29.912  25.443  23.670  1.00  0.00    -0.167 F 
ENDBRANCH  16  24
ENDBRANCH   4   6
ENDBRANCH   3   4
ENDBRANCH   2   3
ENDBRANCH   1   2
BRANCH   1  28
ATOM     28  O   UNL A   1      33.526  30.611  27.131  1.00  0.00    -0.374 OA
BRANCH  28  29
ATOM     29  C   UNL A   1      32.209  31.116  26.928  1.00  0.00     0.202 C 
BRANCH  29  30
ATOM     30  C   UNL A   1      31.951  32.623  27.061  1.00  0.00     0.261 C 
BRANCH  30  31
ATOM     31  O   UNL A   1      33.149  33.412  27.139  1.00  0.00    -0.460 OA
BRANCH  31  32
ATOM     32  C   UNL A   1      33.246  34.183  28.253  1.00  0.00     0.338 C 
ATOM     33  O   UNL A   1      32.456  35.022  28.648  1.00  0.00    -0.246 OA
BRANCH  32  34
ATOM     34  C   UNL A   1      34.393  33.730  29.059  1.00  0.00     0.060 A 
ATOM     35  C   UNL A   1      34.235  32.738  30.026  1.00  0.00     0.016 A 
ATOM     36  C   UNL A   1      35.656  34.269  28.784  1.00  0.00     0.016 A 
ATOM     37  C   UNL A   1      35.361  32.268  30.707  1.00  0.00     0.010 A 
ATOM     38  C   UNL A   1      36.779  33.798  29.465  1.00  0.00     0.010 A 
ATOM     39  C   UNL A   1      36.641  32.780  30.417  1.00  0.00    -0.014 A 
BRANCH  39  40
ATOM     40  C   UNL A   1      37.838  32.153  31.029  1.00  0.00     0.031 A 
ATOM     41  C   UNL A   1      38.295  32.518  32.407  1.00  0.00     0.074 A 
ATOM     42  C   UNL A   1      38.512  31.233  30.313  1.00  0.00     0.049 A 
ATOM     43  N   UNL A   1      39.251  31.983  33.122  1.00  0.00    -0.248 NA
ATOM     44  C   UNL A   1      37.596  33.631  33.067  1.00  0.00     0.031 C 
ATOM     45  C   UNL A   1      38.184  30.835  28.942  1.00  0.00     0.029 A 
ATOM     46  N   UNL A   1      39.594  30.454  30.638  1.00  0.00    -0.354 N 
ATOM     47  C   UNL A   1      39.253  32.670  34.327  1.00  0.00     0.074 A 
ATOM     48  C   UNL A   1      38.243  33.703  34.225  1.00  0.00     0.031 C 
ATOM     49  C   UNL A   1      39.016  29.855  28.561  1.00  0.00     0.029 A 
ATOM     50  C   UNL A   1      39.954  29.576  29.645  1.00  0.00     0.049 A 
ATOM     51  H   UNL A   1      40.065  30.518  31.499  1.00  0.00     0.167 HD
ATOM     52  C   UNL A   1      40.013  32.439  35.424  1.00  0.00     0.037 A 
ATOM     53  C   UNL A   1      40.923  28.641  29.616  1.00  0.00     0.037 A 
ATOM     54  C   UNL A   1      41.027  31.418  35.511  1.00  0.00     0.049 A 
ATOM     55  C   UNL A   1      41.785  28.439  30.832  1.00  0.00     0.074 A 
ATOM     56  C   UNL A   1      41.821  31.083  36.594  1.00  0.00     0.029 A 
ATOM     57  N   UNL A   1      41.396  30.576  34.471  1.00  0.00    -0.354 N 
ATOM     58  N   UNL A   1      41.717  29.033  31.999  1.00  0.00    -0.248 NA
ATOM     59  C   UNL A   1      42.852  27.434  30.732  1.00  0.00     0.031 C 
ATOM     60  C   UNL A   1      42.709  30.081  36.193  1.00  0.00     0.029 A 
ATOM     61  C   UNL A   1      42.430  29.748  34.878  1.00  0.00     0.049 A 
ATOM     62  H   UNL A   1      40.984  30.569  33.577  1.00  0.00     0.167 HD
ATOM     63  C   UNL A   1      42.716  28.463  32.775  1.00  0.00     0.074 A 
ATOM     64  C   UNL A   1      43.363  27.461  31.955  1.00  0.00     0.031 C 
ATOM     65  C   UNL A   1      43.067  28.751  34.053  1.00  0.00     0.037 A 
BRANCH  52  66
ATOM     66  C   UNL A   1      39.773  33.291  36.638  1.00  0.00     0.064 A 
ATOM     67  C   UNL A   1      38.840  32.916  37.617  1.00  0.00     0.173 A 
ATOM     68  C   UNL A   1      40.546  34.438  36.875  1.00  0.00     0.173 A 
ATOM     69  F   UNL A   1      38.073  31.830  37.437  1.00  0.00    -0.203 F 
ATOM     70  C   UNL A   1      38.679  33.666  38.779  1.00  0.00     0.198 A 
ATOM     71  C   UNL A   1      40.403  35.169  38.052  1.00  0.00     0.198 A 
ATOM     72  F   UNL A   1      41.462  34.835  35.977  1.00  0.00    -0.203 F 
ATOM     73  F   UNL A   1      37.761  33.304  39.685  1.00  0.00    -0.200 F 
ATOM     74  C   UNL A   1      39.467  34.785  39.000  1.00  0.00     0.200 A 
ATOM     75  F   UNL A   1      41.179  36.239  38.272  1.00  0.00    -0.200 F 
ATOM     76  F   UNL A   1      39.327  35.493  40.129  1.00  0.00    -0.200 F 
ENDBRANCH  52  66
BRANCH  53  77
ATOM     77  C   UNL A   1      41.095  27.800  28.403  1.00  0.00     0.064 A 
ATOM     78  C   UNL A   1      40.385  26.600  28.253  1.00  0.00     0.173 A 
ATOM     79  C   UNL A   1      41.949  28.188  27.360  1.00  0.00     0.173 A 
ATOM     80  F   UNL A   1      39.569  26.179  29.230  1.00  0.00    -0.203 F 
ATOM     81  C   UNL A   1      40.529  25.818  27.110  1.00  0.00     0.198 A 
ATOM     82  C   UNL A   1      42.069  27.419  26.204  1.00  0.00     0.198 A 
ATOM     83  F   UNL A   1      42.647  29.329  27.453  1.00  0.00    -0.203 F 
ATOM     84  F   UNL A   1      39.864  24.659  27.006  1.00  0.00    -0.200 F 
ATOM     85  C   UNL A   1      41.364  26.232  26.083  1.00  0.00     0.200 A 
ATOM     86  F   UNL A   1      42.863  27.832  25.208  1.00  0.00    -0.200 F 
ATOM     87  F   UNL A   1      41.490  25.486  24.978  1.00  0.00    -0.200 F 
ENDBRANCH  53  77
BRANCH  65  88
ATOM     88  C   UNL A   1      44.200  27.972  34.659  1.00  0.00     0.064 A 
ATOM     89  C   UNL A   1      43.987  26.728  35.269  1.00  0.00     0.173 A 
ATOM     90  C   UNL A   1      45.521  28.433  34.551  1.00  0.00     0.173 A 
ATOM     91  F   UNL A   1      42.742  26.249  35.411  1.00  0.00    -0.203 F 
ATOM     92  C   UNL A   1      45.054  25.977  35.756  1.00  0.00     0.198 A 
ATOM     93  C   UNL A   1      46.588  27.666  35.010  1.00  0.00     0.198 A 
ATOM     94  F   UNL A   1      45.780  29.614  33.969  1.00  0.00    -0.203 F 
ATOM     95  F   UNL A   1      44.824  24.805  36.364  1.00  0.00    -0.200 F 
ATOM     96  C   UNL A   1      46.354  26.441  35.615  1.00  0.00     0.200 A 
ATOM     97  F   UNL A   1      47.844  28.107  34.855  1.00  0.00    -0.200 F 
ATOM     98  F   UNL A   1      47.381  25.705  36.062  1.00  0.00    -0.200 F 
ENDBRANCH  65  88
ENDBRANCH  39  40
ENDBRANCH  32  34
ENDBRANCH  31  32
ENDBRANCH  30  31
ENDBRANCH  29  30
ENDBRANCH  28  29
ENDBRANCH   1  28
TORSDOF 20
ENDMDL
MODEL 2
REMARK VINA RESULT:     -11.2      3.038      9.009
REMARK SMILES CCC(CC)COc1cc2c(cc1Cl)C=C(C(=O)OCCOCCOC(=O)c1ccc(-c3c4nc(c(-c5c(F)c(F)c(F)c(F)c5F)c5ccc([nH]5)c(-c5c(F)c(F)c(F)c(F)c5F)c5nc(c(-c6c(F)c(F)c(F)c(F)c6F)c6ccc3[nH]6)C=C5)C=C4)cc1)[C@@H](C(F)(F)F)O2
REMARK SMILES IDX 21 1 20 2 19 3 17 4 18 5 16 6 8 7 9 8 13 9 10 10 12 11 14 12
REMARK SMILES IDX 11 13 96 14 15 15 91 16 7 17 6 18 3 19 2 20 1 21 4 22 5 23
REMARK SMILES IDX 92 24 93 25 94 26 95 27 22 28 23 29 24 30 25 31 26 32 27 33
REMARK SMILES IDX 28 34 29 35 90 36 30 37 89 38 31 39 32 40 33 41 83 42 34 43
REMARK SMILES IDX 88 44 82 45 84 46 35 47 87 48 81 49 80 50 36 52 68 53 48 54
REMARK SMILES IDX 67 55 49 56 52 57 66 58 85 59 50 60 51 61 65 63 86 64 53 65
REMARK SMILES IDX 37 66 38 67 46 68 39 69 40 70 44 71 47 72 41 73 42 74 45 75
REMARK SMILES IDX 43 76 69 77 70 78 78 79 71 80 72 81 76 82 79 83 73 84 74 85
REMARK SMILES IDX 77 86 75 87 54 88 55 89 63 90 56 91 57 92 61 93 64 94 58 95
REMARK SMILES IDX 59 96 62 97 60 98
REMARK H PARENT 84 51 52 62
REMARK Flexibility Score: inf
ROOT
ATOM      1  C   UNL A   1      39.153  22.181  26.376  1.00  0.00     0.202 C 
ENDROOT
BRANCH   1   2
ATOM      2  C   UNL A   1      38.235  21.454  25.387  1.00  0.00     0.261 C 
BRANCH   2   3
ATOM      3  O   UNL A   1      36.931  22.047  25.285  1.00  0.00    -0.460 OA
BRANCH   3   4
ATOM      4  C   UNL A   1      35.969  21.155  24.954  1.00  0.00     0.338 C 
ATOM      5  O   UNL A   1      36.064  19.936  25.001  1.00  0.00    -0.246 OA
BRANCH   4   6
ATOM      6  C   UNL A   1      34.703  21.824  24.622  1.00  0.00     0.087 C 
ATOM      7  C   UNL A   1      31.758  25.547  23.141  1.00  0.00     0.141 A 
ATOM      8  C   UNL A   1      31.487  24.375  23.866  1.00  0.00     0.095 A 
ATOM      9  C   UNL A   1      33.069  25.816  22.730  1.00  0.00     0.083 A 
ATOM     10  C   UNL A   1      32.513  23.447  24.076  1.00  0.00     0.131 A 
ATOM     11  C   UNL A   1      34.027  24.815  22.779  1.00  0.00     0.036 A 
ATOM     12  Cl  UNL A   1      33.591  27.376  22.209  1.00  0.00    -0.080 Cl
ATOM     13  C   UNL A   1      33.740  23.625  23.437  1.00  0.00     0.019 A 
ATOM     14  O   UNL A   1      32.294  22.382  24.917  1.00  0.00    -0.475 OA
ATOM     15  C   UNL A   1      34.789  22.640  23.568  1.00  0.00     0.027 C 
ATOM     16  C   UNL A   1      33.493  21.768  25.513  1.00  0.00     0.316 C 
BRANCH   7  17
ATOM     17  O   UNL A   1      30.765  26.465  22.923  1.00  0.00    -0.492 OA
BRANCH  17  18
ATOM     18  C   UNL A   1      30.354  27.177  24.120  1.00  0.00     0.233 C 
BRANCH  18  19
ATOM     19  C   UNL A   1      30.478  28.721  23.998  1.00  0.00     0.026 C 
BRANCH  19  20
ATOM     20  C   UNL A   1      31.614  29.268  24.895  1.00  0.00     0.003 C 
ATOM     21  C   UNL A   1      32.354  28.177  25.658  1.00  0.00     0.004 C 
ENDBRANCH  19  20
BRANCH  19  22
ATOM     22  C   UNL A   1      30.617  29.205  22.537  1.00  0.00     0.003 C 
ATOM     23  C   UNL A   1      29.461  30.035  22.000  1.00  0.00     0.004 C 
ENDBRANCH  19  22
ENDBRANCH  18  19
ENDBRANCH  17  18
ENDBRANCH   7  17
BRANCH  16  24
ATOM     24  C   UNL A   1      33.802  22.366  26.895  1.00  0.00     0.430 C 
ATOM     25  F   UNL A   1      32.674  22.746  27.538  1.00  0.00    -0.167 F 
ATOM     26  F   UNL A   1      34.414  21.453  27.691  1.00  0.00    -0.167 F 
ATOM     27  F   UNL A   1      34.615  23.443  26.821  1.00  0.00    -0.167 F 
ENDBRANCH  16  24
ENDBRANCH   4   6
ENDBRANCH   3   4
ENDBRANCH   2   3
ENDBRANCH   1   2
BRANCH   1  28
ATOM     28  O   UNL A   1      40.029  21.411  27.189  1.00  0.00    -0.374 OA
BRANCH  28  29
ATOM     29  C   UNL A   1      41.232  20.892  26.628  1.00  0.00     0.202 C 
BRANCH  29  30
ATOM     30  C   UNL A   1      42.040  21.754  25.648  1.00  0.00     0.261 C 
BRANCH  30  31
ATOM     31  O   UNL A   1      43.108  22.490  26.268  1.00  0.00    -0.460 OA
BRANCH  31  32
ATOM     32  C   UNL A   1      43.326  23.722  25.738  1.00  0.00     0.338 C 
ATOM     33  O   UNL A   1      43.742  23.990  24.626  1.00  0.00    -0.246 OA
BRANCH  32  34
ATOM     34  C   UNL A   1      42.802  24.745  26.659  1.00  0.00     0.060 A 
ATOM     35  C   UNL A   1      41.754  24.448  27.531  1.00  0.00     0.016 A 
ATOM     36  C   UNL A   1      43.424  26.000  26.688  1.00  0.00     0.016 A 
ATOM     37  C   UNL A   1      41.344  25.413  28.453  1.00  0.00     0.010 A 
ATOM     38  C   UNL A   1      43.012  26.962  27.610  1.00  0.00     0.010 A 
ATOM     39  C   UNL A   1      41.982  26.667  28.513  1.00  0.00    -0.014 A 
BRANCH  39  40
ATOM     40  C   UNL A   1      41.644  27.613  29.605  1.00  0.00     0.031 A 
ATOM     41  C   UNL A   1      40.502  28.573  29.483  1.00  0.00     0.074 A 
ATOM     42  C   UNL A   1      42.391  27.586  30.725  1.00  0.00     0.049 A 
ATOM     43  N   UNL A   1      40.012  29.382  30.388  1.00  0.00    -0.248 NA
ATOM     44  C   UNL A   1      39.826  28.643  28.179  1.00  0.00     0.031 C 
ATOM     45  C   UNL A   1      43.557  26.724  30.932  1.00  0.00     0.029 A 
ATOM     46  N   UNL A   1      42.276  28.282  31.902  1.00  0.00    -0.354 N 
ATOM     47  C   UNL A   1      38.952  30.037  29.776  1.00  0.00     0.074 A 
ATOM     48  C   UNL A   1      38.909  29.576  28.403  1.00  0.00     0.031 C 
ATOM     49  C   UNL A   1      44.020  26.909  32.177  1.00  0.00     0.029 A 
ATOM     50  C   UNL A   1      43.206  27.921  32.845  1.00  0.00     0.049 A 
ATOM     51  H   UNL A   1      41.591  28.972  32.054  1.00  0.00     0.167 HD
ATOM     52  C   UNL A   1      38.084  30.921  30.322  1.00  0.00     0.037 A 
ATOM     53  C   UNL A   1      43.377  28.348  34.110  1.00  0.00     0.037 A 
ATOM     54  C   UNL A   1      38.145  31.384  31.685  1.00  0.00     0.049 A 
ATOM     55  C   UNL A   1      42.426  29.367  34.676  1.00  0.00     0.074 A 
ATOM     56  C   UNL A   1      37.286  32.250  32.340  1.00  0.00     0.029 A 
ATOM     57  N   UNL A   1      39.128  31.032  32.600  1.00  0.00    -0.354 N 
ATOM     58  N   UNL A   1      41.373  29.912  34.117  1.00  0.00    -0.248 NA
ATOM     59  C   UNL A   1      42.683  29.827  36.048  1.00  0.00     0.031 C 
ATOM     60  C   UNL A   1      37.780  32.467  33.629  1.00  0.00     0.029 A 
ATOM     61  C   UNL A   1      38.915  31.691  33.801  1.00  0.00     0.049 A 
ATOM     62  H   UNL A   1      39.868  30.406  32.422  1.00  0.00     0.167 HD
ATOM     63  C   UNL A   1      40.831  30.761  35.072  1.00  0.00     0.074 A 
ATOM     64  C   UNL A   1      41.660  30.645  36.253  1.00  0.00     0.031 C 
ATOM     65  C   UNL A   1      39.746  31.568  34.972  1.00  0.00     0.037 A 
BRANCH  52  66
ATOM     66  C   UNL A   1      36.972  31.440  29.457  1.00  0.00     0.064 A 
ATOM     67  C   UNL A   1      35.890  30.623  29.094  1.00  0.00     0.173 A 
ATOM     68  C   UNL A   1      36.935  32.787  29.066  1.00  0.00     0.173 A 
ATOM     69  F   UNL A   1      35.877  29.327  29.439  1.00  0.00    -0.203 F 
ATOM     70  C   UNL A   1      34.822  31.132  28.360  1.00  0.00     0.198 A 
ATOM     71  C   UNL A   1      35.852  33.299  28.356  1.00  0.00     0.198 A 
ATOM     72  F   UNL A   1      37.939  33.616  29.395  1.00  0.00    -0.203 F 
ATOM     73  F   UNL A   1      33.814  30.325  28.001  1.00  0.00    -0.200 F 
ATOM     74  C   UNL A   1      34.799  32.471  28.000  1.00  0.00     0.200 A 
ATOM     75  F   UNL A   1      35.823  34.598  28.026  1.00  0.00    -0.200 F 
ATOM     76  F   UNL A   1      33.759  32.964  27.313  1.00  0.00    -0.200 F 
ENDBRANCH  52  66
BRANCH  53  77
ATOM     77  C   UNL A   1      44.472  27.775  34.936  1.00  0.00     0.064 A 
ATOM     78  C   UNL A   1      45.721  28.407  35.013  1.00  0.00     0.173 A 
ATOM     79  C   UNL A   1      44.285  26.604  35.686  1.00  0.00     0.173 A 
ATOM     80  F   UNL A   1      45.954  29.519  34.301  1.00  0.00    -0.203 F 
ATOM     81  C   UNL A   1      46.744  27.884  35.800  1.00  0.00     0.198 A 
ATOM     82  C   UNL A   1      45.299  26.099  36.496  1.00  0.00     0.198 A 
ATOM     83  F   UNL A   1      43.107  25.965  35.651  1.00  0.00    -0.203 F 
ATOM     84  F   UNL A   1      47.940  28.488  35.830  1.00  0.00    -0.200 F 
ATOM     85  C   UNL A   1      46.530  26.736  36.549  1.00  0.00     0.200 A 
ATOM     86  F   UNL A   1      45.082  25.000  37.231  1.00  0.00    -0.200 F 
ATOM     87  F   UNL A   1      47.510  26.242  37.317  1.00  0.00    -0.200 F 
ENDBRANCH  53  77
BRANCH  65  88
ATOM     88  C   UNL A   1      39.376  32.392  36.173  1.00  0.00     0.064 A 
ATOM     89  C   UNL A   1      39.954  33.649  36.402  1.00  0.00     0.173 A 
ATOM     90  C   UNL A   1      38.372  31.960  37.053  1.00  0.00     0.173 A 
ATOM     91  F   UNL A   1      40.928  34.102  35.599  1.00  0.00    -0.203 F 
ATOM     92  C   UNL A   1      39.545  34.441  37.473  1.00  0.00     0.198 A 
ATOM     93  C   UNL A   1      37.943  32.767  38.104  1.00  0.00     0.198 A 
ATOM     94  F   UNL A   1      37.782  30.769  36.874  1.00  0.00    -0.203 F 
ATOM     95  F   UNL A   1      40.133  35.625  37.691  1.00  0.00    -0.200 F 
ATOM     96  C   UNL A   1      38.533  34.004  38.315  1.00  0.00     0.200 A 
ATOM     97  F   UNL A   1      36.953  32.352  38.904  1.00  0.00    -0.200 F 
ATOM     98  F   UNL A   1      38.124  34.778  39.330  1.00  0.00    -0.200 F 
ENDBRANCH  65  88
ENDBRANCH  39  40
ENDBRANCH  32  34
ENDBRANCH  31  32
ENDBRANCH  30  31
ENDBRANCH  29  30
ENDBRANCH  28  29
ENDBRANCH   1  28
TORSDOF 20
ENDMDL
MODEL 3
REMARK VINA RESULT:     -11.0      4.878     10.742
REMARK SMILES CCC(CC)COc1cc2c(cc1Cl)C=C(C(=O)OCCOCCOC(=O)c1ccc(-c3c4nc(c(-c5c(F)c(F)c(F)c(F)c5F)c5ccc([nH]5)c(-c5c(F)c(F)c(F)c(F)c5F)c5nc(c(-c6c(F)c(F)c(F)c(F)c6F)c6ccc3[nH]6)C=C5)C=C4)cc1)[C@@H](C(F)(F)F)O2
REMARK SMILES IDX 21 1 20 2 19 3 17 4 18 5 16 6 8 7 9 8 13 9 10 10 12 11 14 12
REMARK SMILES IDX 11 13 96 14 15 15 91 16 7 17 6 18 3 19 2 20 1 21 4 22 5 23
REMARK SMILES IDX 92 24 93 25 94 26 95 27 22 28 23 29 24 30 25 31 26 32 27 33
REMARK SMILES IDX 28 34 29 35 90 36 30 37 89 38 31 39 32 40 33 41 83 42 34 43
REMARK SMILES IDX 88 44 82 45 84 46 35 47 87 48 81 49 80 50 36 52 68 53 48 54
REMARK SMILES IDX 67 55 49 56 52 57 66 58 85 59 50 60 51 61 65 63 86 64 53 65
REMARK SMILES IDX 37 66 38 67 46 68 39 69 40 70 44 71 47 72 41 73 42 74 45 75
REMARK SMILES IDX 43 76 69 77 70 78 78 79 71 80 72 81 76 82 79 83 73 84 74 85
REMARK SMILES IDX 77 86 75 87 54 88 55 89 63 90 56 91 57 92 61 93 64 94 58 95
REMARK SMILES IDX 59 96 62 97 60 98
REMARK H PARENT 84 51 52 62
REMARK Flexibility Score: inf
ROOT
ATOM      1  C   UNL A   1      36.419  21.828  25.744  1.00  0.00     0.202 C 
ENDROOT
BRANCH   1   2
ATOM      2  C   UNL A   1      35.116  21.182  25.257  1.00  0.00     0.261 C 
BRANCH   2   3
ATOM      3  O   UNL A   1      34.583  21.806  24.079  1.00  0.00    -0.460 OA
BRANCH   3   4
ATOM      4  C   UNL A   1      33.258  21.583  23.917  1.00  0.00     0.338 C 
ATOM      5  O   UNL A   1      32.703  20.493  23.910  1.00  0.00    -0.246 OA
BRANCH   4   6
ATOM      6  C   UNL A   1      32.502  22.842  23.858  1.00  0.00     0.087 C 
ATOM      7  C   UNL A   1      31.822  27.737  23.314  1.00  0.00     0.141 A 
ATOM      8  C   UNL A   1      31.024  26.745  23.906  1.00  0.00     0.095 A 
ATOM      9  C   UNL A   1      33.062  27.390  22.765  1.00  0.00     0.083 A 
ATOM     10  C   UNL A   1      31.435  25.409  23.845  1.00  0.00     0.131 A 
ATOM     11  C   UNL A   1      33.369  26.055  22.545  1.00  0.00     0.036 A 
ATOM     12  Cl  UNL A   1      34.284  28.548  22.391  1.00  0.00    -0.080 Cl
ATOM     13  C   UNL A   1      32.544  25.068  23.071  1.00  0.00     0.019 A 
ATOM     14  O   UNL A   1      30.742  24.459  24.557  1.00  0.00    -0.475 OA
ATOM     15  C   UNL A   1      32.942  23.687  22.921  1.00  0.00     0.027 C 
ATOM     16  C   UNL A   1      31.483  23.231  24.893  1.00  0.00     0.316 C 
BRANCH   7  17
ATOM     17  O   UNL A   1      31.434  29.051  23.362  1.00  0.00    -0.492 OA
BRANCH  17  18
ATOM     18  C   UNL A   1      31.032  29.494  24.685  1.00  0.00     0.233 C 
BRANCH  18  19
ATOM     19  C   UNL A   1      32.222  29.679  25.667  1.00  0.00     0.026 C 
BRANCH  19  20
ATOM     20  C   UNL A   1      32.069  30.973  26.501  1.00  0.00     0.003 C 
ATOM     21  C   UNL A   1      33.322  31.327  27.292  1.00  0.00     0.004 C 
ENDBRANCH  19  20
BRANCH  19  22
ATOM     22  C   UNL A   1      32.467  28.444  26.563  1.00  0.00     0.003 C 
ATOM     23  C   UNL A   1      31.405  28.167  27.616  1.00  0.00     0.004 C 
ENDBRANCH  19  22
ENDBRANCH  18  19
ENDBRANCH  17  18
ENDBRANCH   7  17
BRANCH  16  24
ATOM     24  C   UNL A   1      32.126  23.325  26.286  1.00  0.00     0.430 C 
ATOM     25  F   UNL A   1      32.304  22.103  26.837  1.00  0.00    -0.167 F 
ATOM     26  F   UNL A   1      33.351  23.902  26.215  1.00  0.00    -0.167 F 
ATOM     27  F   UNL A   1      31.385  24.060  27.146  1.00  0.00    -0.167 F 
ENDBRANCH  16  24
ENDBRANCH   4   6
ENDBRANCH   3   4
ENDBRANCH   2   3
ENDBRANCH   1   2
BRANCH   1  28
ATOM     28  O   UNL A   1      37.652  21.374  25.204  1.00  0.00    -0.374 OA
BRANCH  28  29
ATOM     29  C   UNL A   1      37.786  20.012  24.806  1.00  0.00     0.202 C 
BRANCH  29  30
ATOM     30  C   UNL A   1      38.937  19.170  25.374  1.00  0.00     0.261 C 
BRANCH  30  31
ATOM     31  O   UNL A   1      39.737  19.863  26.347  1.00  0.00    -0.460 OA
BRANCH  31  32
ATOM     32  C   UNL A   1      41.078  19.709  26.189  1.00  0.00     0.338 C 
ATOM     33  O   UNL A   1      41.667  18.743  25.740  1.00  0.00    -0.246 OA
BRANCH  32  34
ATOM     34  C   UNL A   1      41.750  20.988  26.475  1.00  0.00     0.060 A 
ATOM     35  C   UNL A   1      41.961  21.924  25.464  1.00  0.00     0.016 A 
ATOM     36  C   UNL A   1      42.111  21.270  27.800  1.00  0.00     0.016 A 
ATOM     37  C   UNL A   1      42.518  23.162  25.789  1.00  0.00     0.010 A 
ATOM     38  C   UNL A   1      42.667  22.508  28.122  1.00  0.00     0.010 A 
ATOM     39  C   UNL A   1      42.856  23.470  27.121  1.00  0.00    -0.014 A 
BRANCH  39  40
ATOM     40  C   UNL A   1      43.289  24.845  27.470  1.00  0.00     0.031 A 
ATOM     41  C   UNL A   1      44.689  25.313  27.217  1.00  0.00     0.074 A 
ATOM     42  C   UNL A   1      42.386  25.678  28.021  1.00  0.00     0.049 A 
ATOM     43  N   UNL A   1      45.191  26.512  27.361  1.00  0.00    -0.248 NA
ATOM     44  C   UNL A   1      45.653  24.306  26.748  1.00  0.00     0.031 C 
ATOM     45  C   UNL A   1      41.008  25.313  28.356  1.00  0.00     0.029 A 
ATOM     46  N   UNL A   1      42.479  26.999  28.379  1.00  0.00    -0.354 N 
ATOM     47  C   UNL A   1      46.520  26.416  26.975  1.00  0.00     0.074 A 
ATOM     48  C   UNL A   1      46.764  25.026  26.647  1.00  0.00     0.031 C 
ATOM     49  C   UNL A   1      40.372  26.396  28.827  1.00  0.00     0.029 A 
ATOM     50  C   UNL A   1      41.302  27.522  28.856  1.00  0.00     0.049 A 
ATOM     51  H   UNL A   1      43.310  27.521  28.301  1.00  0.00     0.167 HD
ATOM     52  C   UNL A   1      47.441  27.404  26.880  1.00  0.00     0.037 A 
ATOM     53  C   UNL A   1      41.002  28.771  29.259  1.00  0.00     0.037 A 
ATOM     54  C   UNL A   1      47.192  28.782  27.223  1.00  0.00     0.049 A 
ATOM     55  C   UNL A   1      42.058  29.839  29.188  1.00  0.00     0.074 A 
ATOM     56  C   UNL A   1      48.052  29.863  27.123  1.00  0.00     0.029 A 
ATOM     57  N   UNL A   1      46.002  29.268  27.745  1.00  0.00    -0.354 N 
ATOM     58  N   UNL A   1      43.286  29.757  28.735  1.00  0.00    -0.248 NA
ATOM     59  C   UNL A   1      41.688  31.174  29.678  1.00  0.00     0.031 C 
ATOM     60  C   UNL A   1      47.403  30.988  27.638  1.00  0.00     0.029 A 
ATOM     61  C   UNL A   1      46.118  30.625  28.005  1.00  0.00     0.049 A 
ATOM     62  H   UNL A   1      45.194  28.728  27.907  1.00  0.00     0.167 HD
ATOM     63  C   UNL A   1      43.827  31.027  28.866  1.00  0.00     0.074 A 
ATOM     64  C   UNL A   1      42.788  31.869  29.422  1.00  0.00     0.031 C 
ATOM     65  C   UNL A   1      45.076  31.454  28.558  1.00  0.00     0.037 A 
BRANCH  52  66
ATOM     66  C   UNL A   1      48.806  27.048  26.367  1.00  0.00     0.064 A 
ATOM     67  C   UNL A   1      49.791  26.526  27.220  1.00  0.00     0.173 A 
ATOM     68  C   UNL A   1      49.105  27.137  24.999  1.00  0.00     0.173 A 
ATOM     69  F   UNL A   1      49.558  26.424  28.537  1.00  0.00    -0.203 F 
ATOM     70  C   UNL A   1      51.028  26.122  26.725  1.00  0.00     0.198 A 
ATOM     71  C   UNL A   1      50.333  26.704  24.503  1.00  0.00     0.198 A 
ATOM     72  F   UNL A   1      48.196  27.618  24.137  1.00  0.00    -0.203 F 
ATOM     73  F   UNL A   1      51.962  25.653  27.563  1.00  0.00    -0.200 F 
ATOM     74  C   UNL A   1      51.294  26.201  25.366  1.00  0.00     0.200 A 
ATOM     75  F   UNL A   1      50.581  26.765  23.187  1.00  0.00    -0.200 F 
ATOM     76  F   UNL A   1      52.477  25.791  24.888  1.00  0.00    -0.200 F 
ENDBRANCH  52  66
BRANCH  53  77
ATOM     77  C   UNL A   1      39.625  29.080  29.724  1.00  0.00     0.064 A 
ATOM     78  C   UNL A   1      39.274  28.945  31.075  1.00  0.00     0.173 A 
ATOM     79  C   UNL A   1      38.641  29.542  28.838  1.00  0.00     0.173 A 
ATOM     80  F   UNL A   1      40.176  28.490  31.958  1.00  0.00    -0.203 F 
ATOM     81  C   UNL A   1      37.991  29.251  31.519  1.00  0.00     0.198 A 
ATOM     82  C   UNL A   1      37.366  29.877  29.289  1.00  0.00     0.198 A 
ATOM     83  F   UNL A   1      38.927  29.694  27.537  1.00  0.00    -0.203 F 
ATOM     84  F   UNL A   1      37.672  29.081  32.810  1.00  0.00    -0.200 F 
ATOM     85  C   UNL A   1      37.039  29.726  30.628  1.00  0.00     0.200 A 
ATOM     86  F   UNL A   1      36.457  30.352  28.427  1.00  0.00    -0.200 F 
ATOM     87  F   UNL A   1      35.809  30.034  31.058  1.00  0.00    -0.200 F 
ENDBRANCH  53  77
BRANCH  65  88
ATOM     88  C   UNL A   1      45.401  32.901  28.804  1.00  0.00     0.064 A 
ATOM     89  C   UNL A   1      46.027  33.318  29.987  1.00  0.00     0.173 A 
ATOM     90  C   UNL A   1      45.165  33.864  27.811  1.00  0.00     0.173 A 
ATOM     91  F   UNL A   1      46.261  32.439  30.974  1.00  0.00    -0.203 F 
ATOM     92  C   UNL A   1      46.397  34.648  30.171  1.00  0.00     0.198 A 
ATOM     93  C   UNL A   1      45.565  35.186  27.985  1.00  0.00     0.198 A 
ATOM     94  F   UNL A   1      44.576  33.516  26.656  1.00  0.00    -0.203 F 
ATOM     95  F   UNL A   1      46.965  35.030  31.324  1.00  0.00    -0.200 F 
ATOM     96  C   UNL A   1      46.177  35.578  29.166  1.00  0.00     0.200 A 
ATOM     97  F   UNL A   1      45.369  36.079  27.005  1.00  0.00    -0.200 F 
ATOM     98  F   UNL A   1      46.557  36.852  29.335  1.00  0.00    -0.200 F 
ENDBRANCH  65  88
ENDBRANCH  39  40
ENDBRANCH  32  34
ENDBRANCH  31  32
ENDBRANCH  30  31
ENDBRANCH  29  30
ENDBRANCH  28  29
ENDBRANCH   1  28
TORSDOF 20
ENDMDL
