MODEL 1
REMARK VINA RESULT:     -12.1      0.000      0.000
REMARK SMILES Cc1cccc(O[C@H](C)C(=O)N2CCC[C@@H](C(=O)OCCOCCOC(=O)c3ccc(-c4c5nc(c(-c6c(F)c(F)c(F)c(F)c6F)c6ccc([nH]6)c(-c6c(F)c(F)c(F)c(F)c6F)c6nc(c(-c7c(F)c(F)c(F)c(F)c7F)c7ccc4[nH]7)C=C6)C=C5)cc3)C2)c1
REMARK SMILES IDX 21 1 20 2 19 3 17 4 18 5 16 6 12 7 13 8 91 9 14 10 15 11
REMARK SMILES IDX 10 12 11 13 8 14 9 15 7 16 6 17 1 18 2 19 3 20 92 21 4 22
REMARK SMILES IDX 5 23 22 24 23 25 24 26 25 27 26 28 27 29 28 30 29 31 90 32
REMARK SMILES IDX 30 33 89 34 31 35 32 36 33 37 83 38 34 39 88 40 82 41 84 42
REMARK SMILES IDX 35 43 87 44 81 45 80 46 36 48 68 49 48 50 67 51 49 52 52 53
REMARK SMILES IDX 66 54 85 55 50 56 51 57 65 59 86 60 53 61 37 62 38 63 46 64
REMARK SMILES IDX 39 65 40 66 44 67 47 68 41 69 42 70 45 71 43 72 69 73 70 74
REMARK SMILES IDX 78 75 71 76 72 77 76 78 79 79 73 80 74 81 77 82 75 83 54 84
REMARK SMILES IDX 55 85 63 86 56 87 57 88 61 89 64 90 58 91 59 92 62 93 60 94
REMARK H PARENT 84 47 52 58
REMARK Flexibility Score: inf
ROOT
ATOM      1  C   UNL A   1      33.786  33.691  27.796  1.00  0.00     0.202 C 
ENDROOT
BRANCH   1   2
ATOM      2  C   UNL A   1      34.075  32.293  28.264  1.00  0.00     0.261 C 
BRANCH   2   3
ATOM      3  O   UNL A   1      33.262  31.246  27.689  1.00  0.00    -0.463 OA
BRANCH   3   4
ATOM      4  C   UNL A   1      33.819  30.083  27.242  1.00  0.00     0.310 C 
ATOM      5  O   UNL A   1      34.965  29.717  27.427  1.00  0.00    -0.252 OA
BRANCH   4   6
ATOM      6  C   UNL A   1      32.823  29.329  26.411  1.00  0.00     0.119 C 
ATOM      7  N   UNL A   1      32.647  27.905  24.441  1.00  0.00    -0.339 N 
ATOM      8  C   UNL A   1      31.731  26.986  25.105  1.00  0.00     0.119 C 
ATOM      9  C   UNL A   1      33.568  28.586  25.300  1.00  0.00     0.134 C 
ATOM     10  C   UNL A   1      31.019  27.611  26.309  1.00  0.00     0.022 C 
ATOM     11  C   UNL A   1      31.986  28.356  27.235  1.00  0.00     0.019 C 
BRANCH   7  12
ATOM     12  C   UNL A   1      32.510  28.254  23.114  1.00  0.00     0.263 C 
ATOM     13  O   UNL A   1      33.297  29.043  22.586  1.00  0.00    -0.271 OA
BRANCH  12  14
ATOM     14  C   UNL A   1      31.311  27.657  22.299  1.00  0.00     0.259 C 
ATOM     15  C   UNL A   1      31.459  26.184  21.928  1.00  0.00     0.064 C 
BRANCH  14  16
ATOM     16  O   UNL A   1      30.035  28.226  22.589  1.00  0.00    -0.481 OA
BRANCH  16  17
ATOM     17  C   UNL A   1      29.619  29.503  22.753  1.00  0.00     0.120 A 
ATOM     18  C   UNL A   1      28.007  31.982  20.313  1.00  0.00     0.044 C 
ATOM     19  C   UNL A   1      28.559  31.383  21.572  1.00  0.00    -0.047 A 
ATOM     20  C   UNL A   1      28.612  32.145  22.736  1.00  0.00     0.003 A 
ATOM     21  C   UNL A   1      29.080  30.076  21.590  1.00  0.00     0.049 A 
ATOM     22  C   UNL A   1      29.136  31.593  23.897  1.00  0.00     0.004 A 
ATOM     23  C   UNL A   1      29.599  30.269  23.906  1.00  0.00     0.046 A 
ENDBRANCH  16  17
ENDBRANCH  14  16
ENDBRANCH  12  14
ENDBRANCH   7  12
ENDBRANCH   4   6
ENDBRANCH   3   4
ENDBRANCH   2   3
ENDBRANCH   1   2
BRANCH   1  24
ATOM     24  O   UNL A   1      32.905  34.341  28.681  1.00  0.00    -0.374 OA
BRANCH  24  25
ATOM     25  C   UNL A   1      33.033  35.755  28.739  1.00  0.00     0.202 C 
BRANCH  25  26
ATOM     26  C   UNL A   1      32.892  36.313  30.164  1.00  0.00     0.261 C 
BRANCH  26  27
ATOM     27  O   UNL A   1      32.870  35.239  31.134  1.00  0.00    -0.460 OA
BRANCH  27  28
ATOM     28  C   UNL A   1      33.936  35.159  31.979  1.00  0.00     0.338 C 
ATOM     29  O   UNL A   1      34.366  36.092  32.652  1.00  0.00    -0.246 OA
BRANCH  28  30
ATOM     30  C   UNL A   1      34.694  33.895  31.733  1.00  0.00     0.060 A 
ATOM     31  C   UNL A   1      34.600  32.817  32.638  1.00  0.00     0.016 A 
ATOM     32  C   UNL A   1      35.768  33.963  30.858  1.00  0.00     0.016 A 
ATOM     33  C   UNL A   1      35.671  31.916  32.783  1.00  0.00     0.010 A 
ATOM     34  C   UNL A   1      36.880  33.202  31.144  1.00  0.00     0.010 A 
ATOM     35  C   UNL A   1      36.856  32.173  32.104  1.00  0.00    -0.014 A 
BRANCH  35  36
ATOM     36  C   UNL A   1      38.152  31.497  32.266  1.00  0.00     0.031 A 
ATOM     37  C   UNL A   1      38.356  30.256  31.471  1.00  0.00     0.074 A 
ATOM     38  C   UNL A   1      39.232  32.129  32.795  1.00  0.00     0.049 A 
ATOM     39  N   UNL A   1      39.442  29.569  31.470  1.00  0.00    -0.248 NA
ATOM     40  C   UNL A   1      37.324  29.647  30.621  1.00  0.00     0.031 C 
ATOM     41  C   UNL A   1      40.639  31.974  32.396  1.00  0.00     0.029 A 
ATOM     42  N   UNL A   1      39.309  33.132  33.773  1.00  0.00    -0.354 N 
ATOM     43  C   UNL A   1      39.399  28.730  30.384  1.00  0.00     0.074 A 
ATOM     44  C   UNL A   1      38.020  28.699  29.989  1.00  0.00     0.031 C 
ATOM     45  C   UNL A   1      41.438  32.622  33.261  1.00  0.00     0.029 A 
ATOM     46  C   UNL A   1      40.595  33.091  34.344  1.00  0.00     0.049 A 
ATOM     47  H   UNL A   1      38.589  33.757  34.018  1.00  0.00     0.167 HD
ATOM     48  C   UNL A   1      40.584  28.292  29.877  1.00  0.00     0.037 A 
ATOM     49  C   UNL A   1      40.765  32.875  35.675  1.00  0.00     0.037 A 
ATOM     50  C   UNL A   1      41.680  28.606  30.809  1.00  0.00     0.049 A 
ATOM     51  C   UNL A   1      41.466  31.572  35.849  1.00  0.00     0.074 A 
ATOM     52  C   UNL A   1      42.743  29.490  30.773  1.00  0.00     0.029 A 
ATOM     53  N   UNL A   1      41.574  28.182  32.139  1.00  0.00    -0.354 N 
ATOM     54  N   UNL A   1      41.438  30.662  34.917  1.00  0.00    -0.248 NA
ATOM     55  C   UNL A   1      42.317  31.215  36.974  1.00  0.00     0.031 C 
ATOM     56  C   UNL A   1      43.194  29.677  32.116  1.00  0.00     0.029 A 
ATOM     57  C   UNL A   1      42.445  28.870  32.963  1.00  0.00     0.049 A 
ATOM     58  H   UNL A   1      40.955  27.481  32.450  1.00  0.00     0.167 HD
ATOM     59  C   UNL A   1      42.297  29.671  35.235  1.00  0.00     0.074 A 
ATOM     60  C   UNL A   1      42.795  30.031  36.553  1.00  0.00     0.031 C 
ATOM     61  C   UNL A   1      42.494  28.614  34.404  1.00  0.00     0.037 A 
BRANCH  48  62
ATOM     62  C   UNL A   1      40.790  27.741  28.476  1.00  0.00     0.064 A 
ATOM     63  C   UNL A   1      40.291  26.461  28.145  1.00  0.00     0.173 A 
ATOM     64  C   UNL A   1      41.541  28.353  27.445  1.00  0.00     0.173 A 
ATOM     65  F   UNL A   1      39.582  25.747  29.029  1.00  0.00    -0.203 F 
ATOM     66  C   UNL A   1      40.516  25.860  26.899  1.00  0.00     0.198 A 
ATOM     67  C   UNL A   1      41.719  27.775  26.183  1.00  0.00     0.198 A 
ATOM     68  F   UNL A   1      42.192  29.507  27.619  1.00  0.00    -0.203 F 
ATOM     69  F   UNL A   1      40.057  24.623  26.666  1.00  0.00    -0.200 F 
ATOM     70  C   UNL A   1      41.216  26.524  25.912  1.00  0.00     0.200 A 
ATOM     71  F   UNL A   1      42.408  28.437  25.241  1.00  0.00    -0.200 F 
ATOM     72  F   UNL A   1      41.420  25.955  24.717  1.00  0.00    -0.200 F 
ENDBRANCH  48  62
BRANCH  49  73
ATOM     73  C   UNL A   1      39.673  33.487  36.477  1.00  0.00     0.064 A 
ATOM     74  C   UNL A   1      38.723  32.569  36.966  1.00  0.00     0.173 A 
ATOM     75  C   UNL A   1      39.890  34.654  37.226  1.00  0.00     0.173 A 
ATOM     76  F   UNL A   1      38.472  31.438  36.287  1.00  0.00    -0.203 F 
ATOM     77  C   UNL A   1      38.188  32.704  38.242  1.00  0.00     0.198 A 
ATOM     78  C   UNL A   1      39.344  34.782  38.508  1.00  0.00     0.198 A 
ATOM     79  F   UNL A   1      40.770  35.573  36.806  1.00  0.00    -0.203 F 
ATOM     80  F   UNL A   1      37.435  31.720  38.745  1.00  0.00    -0.200 F 
ATOM     81  C   UNL A   1      38.544  33.780  39.035  1.00  0.00     0.200 A 
ATOM     82  F   UNL A   1      39.689  35.820  39.285  1.00  0.00    -0.200 F 
ATOM     83  F   UNL A   1      38.178  33.810  40.326  1.00  0.00    -0.200 F 
ENDBRANCH  49  73
BRANCH  61  84
ATOM     84  C   UNL A   1      42.822  27.268  34.960  1.00  0.00     0.064 A 
ATOM     85  C   UNL A   1      41.847  26.263  35.124  1.00  0.00     0.173 A 
ATOM     86  C   UNL A   1      44.152  26.885  35.201  1.00  0.00     0.173 A 
ATOM     87  F   UNL A   1      40.572  26.447  34.749  1.00  0.00    -0.203 F 
ATOM     88  C   UNL A   1      42.162  25.012  35.636  1.00  0.00     0.198 A 
ATOM     89  C   UNL A   1      44.475  25.604  35.637  1.00  0.00     0.198 A 
ATOM     90  F   UNL A   1      45.175  27.726  34.989  1.00  0.00    -0.203 F 
ATOM     91  F   UNL A   1      41.185  24.124  35.860  1.00  0.00    -0.200 F 
ATOM     92  C   UNL A   1      43.477  24.682  35.891  1.00  0.00     0.200 A 
ATOM     93  F   UNL A   1      45.760  25.264  35.797  1.00  0.00    -0.200 F 
ATOM     94  F   UNL A   1      43.785  23.466  36.358  1.00  0.00    -0.200 F 
ENDBRANCH  61  84
ENDBRANCH  35  36
ENDBRANCH  28  30
ENDBRANCH  27  28
ENDBRANCH  26  27
ENDBRANCH  25  26
ENDBRANCH  24  25
ENDBRANCH   1  24
TORSDOF 18
ENDMDL
MODEL 2
REMARK VINA RESULT:     -12.0      6.682     12.359
REMARK SMILES Cc1cccc(O[C@H](C)C(=O)N2CCC[C@@H](C(=O)OCCOCCOC(=O)c3ccc(-c4c5nc(c(-c6c(F)c(F)c(F)c(F)c6F)c6ccc([nH]6)c(-c6c(F)c(F)c(F)c(F)c6F)c6nc(c(-c7c(F)c(F)c(F)c(F)c7F)c7ccc4[nH]7)C=C6)C=C5)cc3)C2)c1
REMARK SMILES IDX 21 1 20 2 19 3 17 4 18 5 16 6 12 7 13 8 91 9 14 10 15 11
REMARK SMILES IDX 10 12 11 13 8 14 9 15 7 16 6 17 1 18 2 19 3 20 92 21 4 22
REMARK SMILES IDX 5 23 22 24 23 25 24 26 25 27 26 28 27 29 28 30 29 31 90 32
REMARK SMILES IDX 30 33 89 34 31 35 32 36 33 37 83 38 34 39 88 40 82 41 84 42
REMARK SMILES IDX 35 43 87 44 81 45 80 46 36 48 68 49 48 50 67 51 49 52 52 53
REMARK SMILES IDX 66 54 85 55 50 56 51 57 65 59 86 60 53 61 37 62 38 63 46 64
REMARK SMILES IDX 39 65 40 66 44 67 47 68 41 69 42 70 45 71 43 72 69 73 70 74
REMARK SMILES IDX 78 75 71 76 72 77 76 78 79 79 73 80 74 81 77 82 75 83 54 84
REMARK SMILES IDX 55 85 63 86 56 87 57 88 61 89 64 90 58 91 59 92 62 93 60 94
REMARK H PARENT 84 47 52 58
REMARK Flexibility Score: inf
ROOT
ATOM      1  C   UNL A   1      40.781  19.614  26.938  1.00  0.00     0.202 C 
ENDROOT
BRANCH   1   2
ATOM      2  C   UNL A   1      40.523  20.772  26.017  1.00  0.00     0.261 C 
BRANCH   2   3
ATOM      3  O   UNL A   1      39.197  21.344  26.064  1.00  0.00    -0.463 OA
BRANCH   3   4
ATOM      4  C   UNL A   1      38.160  20.785  25.375  1.00  0.00     0.310 C 
ATOM      5  O   UNL A   1      38.115  19.648  24.943  1.00  0.00    -0.252 OA
BRANCH   4   6
ATOM      6  C   UNL A   1      37.084  21.808  25.157  1.00  0.00     0.119 C 
ATOM      7  N   UNL A   1      34.704  22.198  25.500  1.00  0.00    -0.339 N 
ATOM      8  C   UNL A   1      34.926  23.561  25.966  1.00  0.00     0.119 C 
ATOM      9  C   UNL A   1      35.774  21.280  25.745  1.00  0.00     0.134 C 
ATOM     10  C   UNL A   1      36.273  24.137  25.518  1.00  0.00     0.022 C 
ATOM     11  C   UNL A   1      37.432  23.164  25.761  1.00  0.00     0.019 C 
BRANCH   7  12
ATOM     12  C   UNL A   1      33.633  21.856  24.700  1.00  0.00     0.263 C 
ATOM     13  O   UNL A   1      33.640  22.114  23.494  1.00  0.00    -0.271 OA
BRANCH  12  14
ATOM     14  C   UNL A   1      32.389  21.169  25.362  1.00  0.00     0.259 C 
ATOM     15  C   UNL A   1      31.262  22.123  25.751  1.00  0.00     0.064 C 
BRANCH  14  16
ATOM     16  O   UNL A   1      32.118  19.841  24.917  1.00  0.00    -0.481 OA
BRANCH  16  17
ATOM     17  C   UNL A   1      32.890  18.735  24.816  1.00  0.00     0.120 A 
ATOM     18  C   UNL A   1      32.225  15.078  25.756  1.00  0.00     0.044 C 
ATOM     19  C   UNL A   1      32.899  16.310  25.229  1.00  0.00    -0.047 A 
ATOM     20  C   UNL A   1      34.194  16.228  24.723  1.00  0.00     0.003 A 
ATOM     21  C   UNL A   1      32.269  17.566  25.286  1.00  0.00     0.049 A 
ATOM     22  C   UNL A   1      34.821  17.371  24.248  1.00  0.00     0.004 A 
ATOM     23  C   UNL A   1      34.153  18.604  24.264  1.00  0.00     0.046 A 
ENDBRANCH  16  17
ENDBRANCH  14  16
ENDBRANCH  12  14
ENDBRANCH   7  12
ENDBRANCH   4   6
ENDBRANCH   3   4
ENDBRANCH   2   3
ENDBRANCH   1   2
BRANCH   1  24
ATOM     24  O   UNL A   1      42.163  19.386  27.077  1.00  0.00    -0.374 OA
BRANCH  24  25
ATOM     25  C   UNL A   1      42.653  18.211  26.447  1.00  0.00     0.202 C 
BRANCH  25  26
ATOM     26  C   UNL A   1      43.946  18.449  25.652  1.00  0.00     0.261 C 
BRANCH  26  27
ATOM     27  O   UNL A   1      43.805  19.593  24.777  1.00  0.00    -0.460 OA
BRANCH  27  28
ATOM     28  C   UNL A   1      44.749  20.569  24.893  1.00  0.00     0.338 C 
ATOM     29  O   UNL A   1      45.947  20.366  25.069  1.00  0.00    -0.246 OA
BRANCH  28  30
ATOM     30  C   UNL A   1      44.095  21.897  25.098  1.00  0.00     0.060 A 
ATOM     31  C   UNL A   1      44.321  22.954  24.192  1.00  0.00     0.016 A 
ATOM     32  C   UNL A   1      43.618  22.175  26.371  1.00  0.00     0.016 A 
ATOM     33  C   UNL A   1      44.241  24.290  24.626  1.00  0.00     0.010 A 
ATOM     34  C   UNL A   1      43.734  23.468  26.833  1.00  0.00     0.010 A 
ATOM     35  C   UNL A   1      44.046  24.542  25.979  1.00  0.00    -0.014 A 
BRANCH  35  36
ATOM     36  C   UNL A   1      44.139  25.833  26.677  1.00  0.00     0.031 A 
ATOM     37  C   UNL A   1      42.882  26.625  26.774  1.00  0.00     0.074 A 
ATOM     38  C   UNL A   1      45.176  26.133  27.502  1.00  0.00     0.049 A 
ATOM     39  N   UNL A   1      42.785  27.753  27.382  1.00  0.00    -0.248 NA
ATOM     40  C   UNL A   1      41.612  26.228  26.153  1.00  0.00     0.031 C 
ATOM     41  C   UNL A   1      45.123  26.903  28.753  1.00  0.00     0.029 A 
ATOM     42  N   UNL A   1      46.521  25.740  27.450  1.00  0.00    -0.354 N 
ATOM     43  C   UNL A   1      41.449  28.005  27.575  1.00  0.00     0.074 A 
ATOM     44  C   UNL A   1      40.768  27.126  26.667  1.00  0.00     0.031 C 
ATOM     45  C   UNL A   1      46.369  27.145  29.198  1.00  0.00     0.029 A 
ATOM     46  C   UNL A   1      47.281  26.679  28.171  1.00  0.00     0.049 A 
ATOM     47  H   UNL A   1      46.873  24.945  26.989  1.00  0.00     0.167 HD
ATOM     48  C   UNL A   1      41.103  28.829  28.600  1.00  0.00     0.037 A 
ATOM     49  C   UNL A   1      48.279  27.383  27.573  1.00  0.00     0.037 A 
ATOM     50  C   UNL A   1      42.297  29.514  29.124  1.00  0.00     0.049 A 
ATOM     51  C   UNL A   1      47.895  28.821  27.565  1.00  0.00     0.074 A 
ATOM     52  C   UNL A   1      43.010  29.424  30.306  1.00  0.00     0.029 A 
ATOM     53  N   UNL A   1      43.113  30.220  28.232  1.00  0.00    -0.354 N 
ATOM     54  N   UNL A   1      46.648  29.186  27.668  1.00  0.00    -0.248 NA
ATOM     55  C   UNL A   1      48.821  29.943  27.555  1.00  0.00     0.031 C 
ATOM     56  C   UNL A   1      44.305  29.981  30.072  1.00  0.00     0.029 A 
ATOM     57  C   UNL A   1      44.364  30.459  28.768  1.00  0.00     0.049 A 
ATOM     58  H   UNL A   1      42.830  30.510  27.334  1.00  0.00     0.167 HD
ATOM     59  C   UNL A   1      46.587  30.525  27.829  1.00  0.00     0.074 A 
ATOM     60  C   UNL A   1      47.966  30.969  27.707  1.00  0.00     0.031 C 
ATOM     61  C   UNL A   1      45.399  31.161  28.006  1.00  0.00     0.037 A 
BRANCH  48  62
ATOM     62  C   UNL A   1      39.730  28.896  29.249  1.00  0.00     0.064 A 
ATOM     63  C   UNL A   1      38.643  29.448  28.536  1.00  0.00     0.173 A 
ATOM     64  C   UNL A   1      39.425  28.537  30.583  1.00  0.00     0.173 A 
ATOM     65  F   UNL A   1      38.786  29.859  27.269  1.00  0.00    -0.203 F 
ATOM     66  C   UNL A   1      37.372  29.614  29.103  1.00  0.00     0.198 A 
ATOM     67  C   UNL A   1      38.142  28.653  31.131  1.00  0.00     0.198 A 
ATOM     68  F   UNL A   1      40.355  28.115  31.445  1.00  0.00    -0.203 F 
ATOM     69  F   UNL A   1      36.396  30.190  28.388  1.00  0.00    -0.200 F 
ATOM     70  C   UNL A   1      37.117  29.201  30.395  1.00  0.00     0.200 A 
ATOM     71  F   UNL A   1      37.919  28.251  32.391  1.00  0.00    -0.200 F 
ATOM     72  F   UNL A   1      35.899  29.348  30.933  1.00  0.00    -0.200 F 
ENDBRANCH  48  62
BRANCH  49  73
ATOM     73  C   UNL A   1      48.980  26.574  26.540  1.00  0.00     0.064 A 
ATOM     74  C   UNL A   1      48.913  27.108  25.238  1.00  0.00     0.173 A 
ATOM     75  C   UNL A   1      50.105  25.800  26.865  1.00  0.00     0.173 A 
ATOM     76  F   UNL A   1      47.857  27.853  24.872  1.00  0.00    -0.203 F 
ATOM     77  C   UNL A   1      50.010  27.058  24.386  1.00  0.00     0.198 A 
ATOM     78  C   UNL A   1      51.203  25.752  25.999  1.00  0.00     0.198 A 
ATOM     79  F   UNL A   1      50.219  25.252  28.082  1.00  0.00    -0.203 F 
ATOM     80  F   UNL A   1      49.977  27.733  23.232  1.00  0.00    -0.200 F 
ATOM     81  C   UNL A   1      51.175  26.430  24.790  1.00  0.00     0.200 A 
ATOM     82  F   UNL A   1      52.337  25.150  26.386  1.00  0.00    -0.200 F 
ATOM     83  F   UNL A   1      52.289  26.544  24.048  1.00  0.00    -0.200 F 
ENDBRANCH  49  73
BRANCH  61  84
ATOM     84  C   UNL A   1      45.204  32.552  27.500  1.00  0.00     0.064 A 
ATOM     85  C   UNL A   1      44.426  32.836  26.360  1.00  0.00     0.173 A 
ATOM     86  C   UNL A   1      45.663  33.662  28.230  1.00  0.00     0.173 A 
ATOM     87  F   UNL A   1      43.778  31.873  25.687  1.00  0.00    -0.203 F 
ATOM     88  C   UNL A   1      44.246  34.134  25.900  1.00  0.00     0.198 A 
ATOM     89  C   UNL A   1      45.412  34.964  27.810  1.00  0.00     0.198 A 
ATOM     90  F   UNL A   1      46.334  33.516  29.382  1.00  0.00    -0.203 F 
ATOM     91  F   UNL A   1      43.575  34.344  24.760  1.00  0.00    -0.200 F 
ATOM     92  C   UNL A   1      44.738  35.198  26.626  1.00  0.00     0.200 A 
ATOM     93  F   UNL A   1      45.816  35.992  28.568  1.00  0.00    -0.200 F 
ATOM     94  F   UNL A   1      44.540  36.451  26.199  1.00  0.00    -0.200 F 
ENDBRANCH  61  84
ENDBRANCH  35  36
ENDBRANCH  28  30
ENDBRANCH  27  28
ENDBRANCH  26  27
ENDBRANCH  25  26
ENDBRANCH  24  25
ENDBRANCH   1  24
TORSDOF 18
ENDMDL
MODEL 3
REMARK VINA RESULT:     -11.9      5.854     11.610
REMARK SMILES Cc1cccc(O[C@H](C)C(=O)N2CCC[C@@H](C(=O)OCCOCCOC(=O)c3ccc(-c4c5nc(c(-c6c(F)c(F)c(F)c(F)c6F)c6ccc([nH]6)c(-c6c(F)c(F)c(F)c(F)c6F)c6nc(c(-c7c(F)c(F)c(F)c(F)c7F)c7ccc4[nH]7)C=C6)C=C5)cc3)C2)c1
REMARK SMILES IDX 21 1 20 2 19 3 17 4 18 5 16 6 12 7 13 8 91 9 14 10 15 11
REMARK SMILES IDX 10 12 11 13 8 14 9 15 7 16 6 17 1 18 2 19 3 20 92 21 4 22
REMARK SMILES IDX 5 23 22 24 23 25 24 26 25 27 26 28 27 29 28 30 29 31 90 32
REMARK SMILES IDX 30 33 89 34 31 35 32 36 33 37 83 38 34 39 88 40 82 41 84 42
REMARK SMILES IDX 35 43 87 44 81 45 80 46 36 48 68 49 48 50 67 51 49 52 52 53
REMARK SMILES IDX 66 54 85 55 50 56 51 57 65 59 86 60 53 61 37 62 38 63 46 64
REMARK SMILES IDX 39 65 40 66 44 67 47 68 41 69 42 70 45 71 43 72 69 73 70 74
REMARK SMILES IDX 78 75 71 76 72 77 76 78 79 79 73 80 74 81 77 82 75 83 54 84
REMARK SMILES IDX 55 85 63 86 56 87 57 88 61 89 64 90 58 91 59 92 62 93 60 94
REMARK H PARENT 84 47 52 58
REMARK Flexibility Score: inf
ROOT
ATOM      1  C   UNL A   1      40.815  19.893  26.726  1.00  0.00     0.202 C 
ENDROOT
BRANCH   1   2
ATOM      2  C   UNL A   1      40.445  21.314  26.415  1.00  0.00     0.261 C 
BRANCH   2   3
ATOM      3  O   UNL A   1      39.111  21.531  25.903  1.00  0.00    -0.463 OA
BRANCH   3   4
ATOM      4  C   UNL A   1      38.466  22.719  26.090  1.00  0.00     0.310 C 
ATOM      5  O   UNL A   1      38.904  23.690  26.679  1.00  0.00    -0.252 OA
BRANCH   4   6
ATOM      6  C   UNL A   1      37.081  22.641  25.518  1.00  0.00     0.119 C 
ATOM      7  N   UNL A   1      35.024  23.925  25.278  1.00  0.00    -0.339 N 
ATOM      8  C   UNL A   1      34.862  23.530  23.885  1.00  0.00     0.119 C 
ATOM      9  C   UNL A   1      36.374  23.978  25.751  1.00  0.00     0.134 C 
ATOM     10  C   UNL A   1      35.632  22.256  23.527  1.00  0.00     0.022 C 
ATOM     11  C   UNL A   1      37.078  22.286  24.035  1.00  0.00     0.019 C 
BRANCH   7  12
ATOM     12  C   UNL A   1      33.955  24.043  26.142  1.00  0.00     0.263 C 
ATOM     13  O   UNL A   1      33.812  23.251  27.077  1.00  0.00    -0.271 OA
BRANCH  12  14
ATOM     14  C   UNL A   1      32.905  25.179  25.889  1.00  0.00     0.259 C 
ATOM     15  C   UNL A   1      31.532  24.931  26.508  1.00  0.00     0.064 C 
BRANCH  14  16
ATOM     16  O   UNL A   1      33.446  26.495  25.781  1.00  0.00    -0.481 OA
BRANCH  16  17
ATOM     17  C   UNL A   1      32.902  27.723  25.945  1.00  0.00     0.120 A 
ATOM     18  C   UNL A   1      30.395  29.696  23.820  1.00  0.00     0.044 C 
ATOM     19  C   UNL A   1      31.322  29.314  24.936  1.00  0.00    -0.047 A 
ATOM     20  C   UNL A   1      31.549  30.205  25.981  1.00  0.00     0.003 A 
ATOM     21  C   UNL A   1      32.015  28.091  24.921  1.00  0.00     0.049 A 
ATOM     22  C   UNL A   1      32.418  29.856  27.007  1.00  0.00     0.004 A 
ATOM     23  C   UNL A   1      33.056  28.607  27.000  1.00  0.00     0.046 A 
ENDBRANCH  16  17
ENDBRANCH  14  16
ENDBRANCH  12  14
ENDBRANCH   7  12
ENDBRANCH   4   6
ENDBRANCH   3   4
ENDBRANCH   2   3
ENDBRANCH   1   2
BRANCH   1  24
ATOM     24  O   UNL A   1      41.643  19.361  25.718  1.00  0.00    -0.374 OA
BRANCH  24  25
ATOM     25  C   UNL A   1      42.583  18.389  26.153  1.00  0.00     0.202 C 
BRANCH  25  26
ATOM     26  C   UNL A   1      43.911  18.449  25.381  1.00  0.00     0.261 C 
BRANCH  26  27
ATOM     27  O   UNL A   1      43.944  19.605  24.510  1.00  0.00    -0.460 OA
BRANCH  27  28
ATOM     28  C   UNL A   1      44.847  20.577  24.822  1.00  0.00     0.338 C 
ATOM     29  O   UNL A   1      46.028  20.374  25.090  1.00  0.00    -0.246 OA
BRANCH  28  30
ATOM     30  C   UNL A   1      44.141  21.863  25.106  1.00  0.00     0.060 A 
ATOM     31  C   UNL A   1      44.198  22.929  24.185  1.00  0.00     0.016 A 
ATOM     32  C   UNL A   1      43.795  22.115  26.426  1.00  0.00     0.016 A 
ATOM     33  C   UNL A   1      44.087  24.259  24.631  1.00  0.00     0.010 A 
ATOM     34  C   UNL A   1      43.885  23.413  26.877  1.00  0.00     0.010 A 
ATOM     35  C   UNL A   1      44.033  24.503  25.999  1.00  0.00    -0.014 A 
BRANCH  35  36
ATOM     36  C   UNL A   1      44.126  25.799  26.687  1.00  0.00     0.031 A 
ATOM     37  C   UNL A   1      42.868  26.588  26.786  1.00  0.00     0.074 A 
ATOM     38  C   UNL A   1      45.166  26.106  27.505  1.00  0.00     0.049 A 
ATOM     39  N   UNL A   1      42.770  27.720  27.387  1.00  0.00    -0.248 NA
ATOM     40  C   UNL A   1      41.595  26.183  26.174  1.00  0.00     0.031 C 
ATOM     41  C   UNL A   1      45.118  26.885  28.751  1.00  0.00     0.029 A 
ATOM     42  N   UNL A   1      46.512  25.717  27.448  1.00  0.00    -0.354 N 
ATOM     43  C   UNL A   1      41.435  27.969  27.584  1.00  0.00     0.074 A 
ATOM     44  C   UNL A   1      40.751  27.083  26.686  1.00  0.00     0.031 C 
ATOM     45  C   UNL A   1      46.366  27.133  29.187  1.00  0.00     0.029 A 
ATOM     46  C   UNL A   1      47.274  26.662  28.159  1.00  0.00     0.049 A 
ATOM     47  H   UNL A   1      46.864  24.919  26.990  1.00  0.00     0.167 HD
ATOM     48  C   UNL A   1      41.092  28.800  28.606  1.00  0.00     0.037 A 
ATOM     49  C   UNL A   1      48.267  27.365  27.551  1.00  0.00     0.037 A 
ATOM     50  C   UNL A   1      42.287  29.491  29.119  1.00  0.00     0.049 A 
ATOM     51  C   UNL A   1      47.879  28.802  27.535  1.00  0.00     0.074 A 
ATOM     52  C   UNL A   1      43.006  29.411  30.298  1.00  0.00     0.029 A 
ATOM     53  N   UNL A   1      43.096  30.193  28.218  1.00  0.00    -0.354 N 
ATOM     54  N   UNL A   1      46.631  29.165  27.642  1.00  0.00    -0.248 NA
ATOM     55  C   UNL A   1      48.802  29.926  27.513  1.00  0.00     0.031 C 
ATOM     56  C   UNL A   1      44.299  29.970  30.053  1.00  0.00     0.029 A 
ATOM     57  C   UNL A   1      44.350  30.439  28.746  1.00  0.00     0.049 A 
ATOM     58  H   UNL A   1      42.809  30.477  27.319  1.00  0.00     0.167 HD
ATOM     59  C   UNL A   1      46.567  30.504  27.794  1.00  0.00     0.074 A 
ATOM     60  C   UNL A   1      47.945  30.951  27.662  1.00  0.00     0.031 C 
ATOM     61  C   UNL A   1      45.379  31.139  27.974  1.00  0.00     0.037 A 
BRANCH  48  62
ATOM     62  C   UNL A   1      39.723  28.868  29.262  1.00  0.00     0.064 A 
ATOM     63  C   UNL A   1      38.644  29.465  28.574  1.00  0.00     0.173 A 
ATOM     64  C   UNL A   1      39.414  28.465  30.583  1.00  0.00     0.173 A 
ATOM     65  F   UNL A   1      38.790  29.920  27.322  1.00  0.00    -0.203 F 
ATOM     66  C   UNL A   1      37.378  29.633  29.151  1.00  0.00     0.198 A 
ATOM     67  C   UNL A   1      38.135  28.584  31.139  1.00  0.00     0.198 A 
ATOM     68  F   UNL A   1      40.339  27.995  31.425  1.00  0.00    -0.203 F 
ATOM     69  F   UNL A   1      36.410  30.252  28.461  1.00  0.00    -0.200 F 
ATOM     70  C   UNL A   1      37.119  29.178  30.427  1.00  0.00     0.200 A 
ATOM     71  F   UNL A   1      37.909  28.140  32.385  1.00  0.00    -0.200 F 
ATOM     72  F   UNL A   1      35.905  29.327  30.975  1.00  0.00    -0.200 F 
ENDBRANCH  48  62
BRANCH  49  73
ATOM     73  C   UNL A   1      48.964  26.551  26.519  1.00  0.00     0.064 A 
ATOM     74  C   UNL A   1      48.827  27.037  25.204  1.00  0.00     0.173 A 
ATOM     75  C   UNL A   1      50.132  25.836  26.827  1.00  0.00     0.173 A 
ATOM     76  F   UNL A   1      47.728  27.724  24.853  1.00  0.00    -0.203 F 
ATOM     77  C   UNL A   1      49.895  27.002  24.314  1.00  0.00     0.198 A 
ATOM     78  C   UNL A   1      51.199  25.804  25.924  1.00  0.00     0.198 A 
ATOM     79  F   UNL A   1      50.314  25.336  28.057  1.00  0.00    -0.203 F 
ATOM     80  F   UNL A   1      49.791  27.636  23.141  1.00  0.00    -0.200 F 
ATOM     81  C   UNL A   1      51.099  26.438  24.694  1.00  0.00     0.200 A 
ATOM     82  F   UNL A   1      52.372  25.264  26.287  1.00  0.00    -0.200 F 
ATOM     83  F   UNL A   1      52.180  26.574  23.909  1.00  0.00    -0.200 F 
ENDBRANCH  49  73
BRANCH  61  84
ATOM     84  C   UNL A   1      45.178  32.525  27.459  1.00  0.00     0.064 A 
ATOM     85  C   UNL A   1      44.419  32.797  26.303  1.00  0.00     0.173 A 
ATOM     86  C   UNL A   1      45.610  33.643  28.194  1.00  0.00     0.173 A 
ATOM     87  F   UNL A   1      43.795  31.825  25.621  1.00  0.00    -0.203 F 
ATOM     88  C   UNL A   1      44.232  34.091  25.836  1.00  0.00     0.198 A 
ATOM     89  C   UNL A   1      45.352  34.941  27.765  1.00  0.00     0.198 A 
ATOM     90  F   UNL A   1      46.260  33.509  29.359  1.00  0.00    -0.203 F 
ATOM     91  F   UNL A   1      43.581  34.290  24.683  1.00  0.00    -0.200 F 
ATOM     92  C   UNL A   1      44.698  35.163  26.568  1.00  0.00     0.200 A 
ATOM     93  F   UNL A   1      45.729  35.976  28.527  1.00  0.00    -0.200 F 
ATOM     94  F   UNL A   1      44.494  36.413  26.132  1.00  0.00    -0.200 F 
ENDBRANCH  61  84
ENDBRANCH  35  36
ENDBRANCH  28  30
ENDBRANCH  27  28
ENDBRANCH  26  27
ENDBRANCH  25  26
ENDBRANCH  24  25
ENDBRANCH   1  24
TORSDOF 18
ENDMDL
