MODEL 1
REMARK VINA RESULT:     -12.1      0.000      0.000
REMARK SMILES O=C(COc1ccc(-c2cc3cc(Br)ccc3oc2=O)cc1)OCCOCCOC(=O)c1ccc(-c2c3nc(c(-c4c(F)c(F)c(F)c(F)c4F)c4ccc([nH]4)c(-c4c(F)c(F)c(F)c(F)c4F)c4nc(c(-c5c(F)c(F)c(F)c(F)c5F)c5ccc2[nH]5)C=C4)C=C3)cc1
REMARK SMILES IDX 25 1 24 2 23 3 2 4 1 5 3 6 4 7 5 8 6 9 22 10 7 11 21 12 8 13
REMARK SMILES IDX 9 14 10 15 19 16 11 17 18 18 20 19 12 20 17 21 13 22 16 23
REMARK SMILES IDX 14 24 15 25 26 26 27 27 28 28 29 29 30 30 31 31 32 32 33 33
REMARK SMILES IDX 94 34 34 35 93 36 35 37 36 38 37 39 87 40 38 41 92 42 86 43
REMARK SMILES IDX 88 44 39 45 91 46 85 47 84 48 40 50 72 51 52 52 71 53 53 54
REMARK SMILES IDX 56 55 70 56 89 57 54 58 55 59 69 61 90 62 57 63 41 64 42 65
REMARK SMILES IDX 50 66 43 67 44 68 48 69 51 70 45 71 46 72 49 73 47 74 73 75
REMARK SMILES IDX 74 76 82 77 75 78 76 79 80 80 83 81 77 82 78 83 81 84 79 85
REMARK SMILES IDX 58 86 59 87 67 88 60 89 61 90 65 91 68 92 62 93 63 94 66 95
REMARK SMILES IDX 64 96
REMARK H PARENT 88 49 56 60
REMARK Flexibility Score: inf
ROOT
ATOM      1  C   UNL A   1      36.924  21.946  25.226  1.00  0.00     0.202 C 
ENDROOT
BRANCH   1   2
ATOM      2  C   UNL A   1      35.923  22.634  26.158  1.00  0.00     0.261 C 
BRANCH   2   3
ATOM      3  O   UNL A   1      35.137  21.722  26.929  1.00  0.00    -0.461 OA
BRANCH   3   4
ATOM      4  C   UNL A   1      33.803  21.578  26.749  1.00  0.00     0.344 C 
ATOM      5  O   UNL A   1      33.027  22.328  27.343  1.00  0.00    -0.248 OA
BRANCH   4   6
ATOM      6  C   UNL A   1      33.278  20.485  25.814  1.00  0.00     0.351 C 
BRANCH   6   7
ATOM      7  O   UNL A   1      33.338  20.651  24.407  1.00  0.00    -0.482 OA
BRANCH   7   8
ATOM      8  C   UNL A   1      33.060  21.904  23.945  1.00  0.00     0.120 A 
ATOM      9  C   UNL A   1      31.754  22.356  24.126  1.00  0.00     0.047 A 
ATOM     10  C   UNL A   1      33.963  22.711  23.269  1.00  0.00     0.047 A 
ATOM     11  C   UNL A   1      31.348  23.582  23.579  1.00  0.00     0.013 A 
ATOM     12  C   UNL A   1      33.577  23.945  22.776  1.00  0.00     0.013 A 
ATOM     13  C   UNL A   1      32.251  24.370  22.850  1.00  0.00    -0.011 A 
BRANCH  13  14
ATOM     14  C   UNL A   1      31.741  25.492  22.004  1.00  0.00     0.068 A 
ATOM     15  C   UNL A   1      31.048  26.552  22.487  1.00  0.00     0.028 A 
ATOM     16  C   UNL A   1      32.817  26.036  21.097  1.00  0.00     0.344 A 
ATOM     17  C   UNL A   1      31.895  27.443  23.318  1.00  0.00     0.019 A 
ATOM     18  O   UNL A   1      33.676  26.946  21.739  1.00  0.00    -0.422 OA
ATOM     19  O   UNL A   1      32.986  25.641  19.951  1.00  0.00    -0.246 OA
ATOM     20  C   UNL A   1      31.453  28.018  24.508  1.00  0.00     0.027 A 
ATOM     21  C   UNL A   1      33.248  27.530  22.956  1.00  0.00     0.138 A 
ATOM     22  C   UNL A   1      32.394  28.617  25.350  1.00  0.00     0.018 A 
ATOM     23  C   UNL A   1      34.187  28.118  23.794  1.00  0.00     0.049 A 
ATOM     24  Br  UNL A   1      31.832  29.334  27.009  1.00  0.00    -0.051 Br
ATOM     25  C   UNL A   1      33.753  28.651  25.011  1.00  0.00     0.019 A 
ENDBRANCH  13  14
ENDBRANCH   7   8
ENDBRANCH   6   7
ENDBRANCH   4   6
ENDBRANCH   3   4
ENDBRANCH   2   3
ENDBRANCH   1   2
BRANCH   1  26
ATOM     26  O   UNL A   1      36.922  20.523  25.180  1.00  0.00    -0.374 OA
BRANCH  26  27
ATOM     27  C   UNL A   1      38.106  19.843  24.750  1.00  0.00     0.202 C 
BRANCH  27  28
ATOM     28  C   UNL A   1      39.191  19.516  25.775  1.00  0.00     0.261 C 
BRANCH  28  29
ATOM     29  O   UNL A   1      40.241  20.494  25.780  1.00  0.00    -0.460 OA
BRANCH  29  30
ATOM     30  C   UNL A   1      40.968  20.523  26.916  1.00  0.00     0.338 C 
ATOM     31  O   UNL A   1      41.614  19.604  27.410  1.00  0.00    -0.246 OA
BRANCH  30  32
ATOM     32  C   UNL A   1      41.050  21.899  27.424  1.00  0.00     0.060 A 
ATOM     33  C   UNL A   1      40.347  22.888  26.723  1.00  0.00     0.016 A 
ATOM     34  C   UNL A   1      41.873  22.230  28.503  1.00  0.00     0.016 A 
ATOM     35  C   UNL A   1      40.530  24.226  27.043  1.00  0.00     0.010 A 
ATOM     36  C   UNL A   1      42.065  23.575  28.817  1.00  0.00     0.010 A 
ATOM     37  C   UNL A   1      41.437  24.574  28.052  1.00  0.00    -0.014 A 
BRANCH  37  38
ATOM     38  C   UNL A   1      41.884  25.977  28.160  1.00  0.00     0.031 A 
ATOM     39  C   UNL A   1      43.214  26.348  27.568  1.00  0.00     0.074 A 
ATOM     40  C   UNL A   1      41.106  26.900  28.746  1.00  0.00     0.049 A 
ATOM     41  N   UNL A   1      43.838  27.497  27.576  1.00  0.00    -0.248 NA
ATOM     42  C   UNL A   1      43.942  25.273  26.872  1.00  0.00     0.031 C 
ATOM     43  C   UNL A   1      39.781  26.650  29.310  1.00  0.00     0.029 A 
ATOM     44  N   UNL A   1      41.324  28.234  28.968  1.00  0.00    -0.354 N 
ATOM     45  C   UNL A   1      45.031  27.281  26.898  1.00  0.00     0.074 A 
ATOM     46  C   UNL A   1      45.059  25.888  26.515  1.00  0.00     0.031 C 
ATOM     47  C   UNL A   1      39.309  27.795  29.831  1.00  0.00     0.029 A 
ATOM     48  C   UNL A   1      40.311  28.845  29.662  1.00  0.00     0.049 A 
ATOM     49  H   UNL A   1      42.131  28.708  28.661  1.00  0.00     0.167 HD
ATOM     50  C   UNL A   1      46.010  28.172  26.616  1.00  0.00     0.037 A 
ATOM     51  C   UNL A   1      40.222  30.106  30.125  1.00  0.00     0.037 A 
ATOM     52  C   UNL A   1      45.966  29.557  27.003  1.00  0.00     0.049 A 
ATOM     53  C   UNL A   1      41.353  31.064  29.853  1.00  0.00     0.074 A 
ATOM     54  C   UNL A   1      46.895  30.553  26.760  1.00  0.00     0.029 A 
ATOM     55  N   UNL A   1      44.933  30.138  27.726  1.00  0.00    -0.354 N 
ATOM     56  N   UNL A   1      42.470  30.861  29.195  1.00  0.00    -0.248 NA
ATOM     57  C   UNL A   1      41.208  32.426  30.382  1.00  0.00     0.031 C 
ATOM     58  C   UNL A   1      46.445  31.726  27.375  1.00  0.00     0.029 A 
ATOM     59  C   UNL A   1      45.212  31.473  27.958  1.00  0.00     0.049 A 
ATOM     60  H   UNL A   1      44.123  29.669  28.029  1.00  0.00     0.167 HD
ATOM     61  C   UNL A   1      43.148  32.072  29.208  1.00  0.00     0.074 A 
ATOM     62  C   UNL A   1      42.310  33.008  29.930  1.00  0.00     0.031 C 
ATOM     63  C   UNL A   1      44.355  32.384  28.674  1.00  0.00     0.037 A 
BRANCH  50  64
ATOM     64  C   UNL A   1      47.216  27.669  25.881  1.00  0.00     0.064 A 
ATOM     65  C   UNL A   1      47.293  27.697  24.480  1.00  0.00     0.173 A 
ATOM     66  C   UNL A   1      48.319  27.168  26.588  1.00  0.00     0.173 A 
ATOM     67  F   UNL A   1      46.258  28.149  23.756  1.00  0.00    -0.203 F 
ATOM     68  C   UNL A   1      48.421  27.221  23.814  1.00  0.00     0.198 A 
ATOM     69  C   UNL A   1      49.455  26.718  25.921  1.00  0.00     0.198 A 
ATOM     70  F   UNL A   1      48.296  27.116  27.928  1.00  0.00    -0.203 F 
ATOM     71  F   UNL A   1      48.453  27.215  22.475  1.00  0.00    -0.200 F 
ATOM     72  C   UNL A   1      49.503  26.739  24.535  1.00  0.00     0.200 A 
ATOM     73  F   UNL A   1      50.504  26.260  26.619  1.00  0.00    -0.200 F 
ATOM     74  F   UNL A   1      50.589  26.285  23.894  1.00  0.00    -0.200 F 
ENDBRANCH  50  64
BRANCH  51  75
ATOM     75  C   UNL A   1      39.028  30.528  30.899  1.00  0.00     0.064 A 
ATOM     76  C   UNL A   1      38.993  30.417  32.295  1.00  0.00     0.173 A 
ATOM     77  C   UNL A   1      37.894  31.052  30.258  1.00  0.00     0.173 A 
ATOM     78  F   UNL A   1      40.043  29.902  32.951  1.00  0.00    -0.203 F 
ATOM     79  C   UNL A   1      37.865  30.799  33.020  1.00  0.00     0.198 A 
ATOM     80  C   UNL A   1      36.779  31.459  30.986  1.00  0.00     0.198 A 
ATOM     81  F   UNL A   1      37.877  31.181  28.923  1.00  0.00    -0.203 F 
ATOM     82  F   UNL A   1      37.843  30.643  34.351  1.00  0.00    -0.200 F 
ATOM     83  C   UNL A   1      36.762  31.325  32.365  1.00  0.00     0.200 A 
ATOM     84  F   UNL A   1      35.720  31.980  30.349  1.00  0.00    -0.200 F 
ATOM     85  F   UNL A   1      35.681  31.698  33.063  1.00  0.00    -0.200 F 
ENDBRANCH  51  75
BRANCH  63  86
ATOM     86  C   UNL A   1      44.821  33.803  28.819  1.00  0.00     0.064 A 
ATOM     87  C   UNL A   1      45.609  34.211  29.904  1.00  0.00     0.173 A 
ATOM     88  C   UNL A   1      44.512  34.754  27.835  1.00  0.00     0.173 A 
ATOM     89  F   UNL A   1      45.919  33.341  30.878  1.00  0.00    -0.203 F 
ATOM     90  C   UNL A   1      46.050  35.527  30.012  1.00  0.00     0.198 A 
ATOM     91  C   UNL A   1      44.980  36.061  27.930  1.00  0.00     0.198 A 
ATOM     92  F   UNL A   1      43.768  34.410  26.772  1.00  0.00    -0.203 F 
ATOM     93  F   UNL A   1      46.763  35.907  31.081  1.00  0.00    -0.200 F 
ATOM     94  C   UNL A   1      45.741  36.448  29.022  1.00  0.00     0.200 A 
ATOM     95  F   UNL A   1      44.692  36.946  26.966  1.00  0.00    -0.200 F 
ATOM     96  F   UNL A   1      46.173  37.712  29.124  1.00  0.00    -0.200 F 
ENDBRANCH  63  86
ENDBRANCH  37  38
ENDBRANCH  30  32
ENDBRANCH  29  30
ENDBRANCH  28  29
ENDBRANCH  27  28
ENDBRANCH  26  27
ENDBRANCH   1  26
TORSDOF 17
ENDMDL
MODEL 2
REMARK VINA RESULT:     -12.1      4.365      6.880
REMARK SMILES O=C(COc1ccc(-c2cc3cc(Br)ccc3oc2=O)cc1)OCCOCCOC(=O)c1ccc(-c2c3nc(c(-c4c(F)c(F)c(F)c(F)c4F)c4ccc([nH]4)c(-c4c(F)c(F)c(F)c(F)c4F)c4nc(c(-c5c(F)c(F)c(F)c(F)c5F)c5ccc2[nH]5)C=C4)C=C3)cc1
REMARK SMILES IDX 25 1 24 2 23 3 2 4 1 5 3 6 4 7 5 8 6 9 22 10 7 11 21 12 8 13
REMARK SMILES IDX 9 14 10 15 19 16 11 17 18 18 20 19 12 20 17 21 13 22 16 23
REMARK SMILES IDX 14 24 15 25 26 26 27 27 28 28 29 29 30 30 31 31 32 32 33 33
REMARK SMILES IDX 94 34 34 35 93 36 35 37 36 38 37 39 87 40 38 41 92 42 86 43
REMARK SMILES IDX 88 44 39 45 91 46 85 47 84 48 40 50 72 51 52 52 71 53 53 54
REMARK SMILES IDX 56 55 70 56 89 57 54 58 55 59 69 61 90 62 57 63 41 64 42 65
REMARK SMILES IDX 50 66 43 67 44 68 48 69 51 70 45 71 46 72 49 73 47 74 73 75
REMARK SMILES IDX 74 76 82 77 75 78 76 79 80 80 83 81 77 82 78 83 81 84 79 85
REMARK SMILES IDX 58 86 59 87 67 88 60 89 61 90 65 91 68 92 62 93 63 94 66 95
REMARK SMILES IDX 64 96
REMARK H PARENT 88 49 56 60
REMARK Flexibility Score: inf
ROOT
ATOM      1  C   UNL A   1      43.495  19.884  25.598  1.00  0.00     0.202 C 
ENDROOT
BRANCH   1   2
ATOM      2  C   UNL A   1      42.379  20.737  26.207  1.00  0.00     0.261 C 
BRANCH   2   3
ATOM      3  O   UNL A   1      41.234  19.980  26.608  1.00  0.00    -0.461 OA
BRANCH   3   4
ATOM      4  C   UNL A   1      40.018  20.141  26.036  1.00  0.00     0.344 C 
ATOM      5  O   UNL A   1      39.509  19.204  25.420  1.00  0.00    -0.248 OA
BRANCH   4   6
ATOM      6  C   UNL A   1      39.296  21.487  26.158  1.00  0.00     0.351 C 
BRANCH   6   7
ATOM      7  O   UNL A   1      38.408  21.921  25.141  1.00  0.00    -0.482 OA
BRANCH   7   8
ATOM      8  C   UNL A   1      37.113  22.109  25.524  1.00  0.00     0.120 A 
ATOM      9  C   UNL A   1      36.272  21.001  25.438  1.00  0.00     0.047 A 
ATOM     10  C   UNL A   1      36.582  23.325  25.928  1.00  0.00     0.047 A 
ATOM     11  C   UNL A   1      34.901  21.131  25.699  1.00  0.00     0.013 A 
ATOM     12  C   UNL A   1      35.238  23.442  26.238  1.00  0.00     0.013 A 
ATOM     13  C   UNL A   1      34.359  22.375  26.054  1.00  0.00    -0.011 A 
BRANCH  13  14
ATOM     14  C   UNL A   1      32.879  22.580  26.009  1.00  0.00     0.068 A 
ATOM     15  C   UNL A   1      32.281  23.796  26.017  1.00  0.00     0.028 A 
ATOM     16  C   UNL A   1      32.241  21.773  24.906  1.00  0.00     0.344 A 
ATOM     17  C   UNL A   1      32.513  24.541  24.755  1.00  0.00     0.019 A 
ATOM     18  O   UNL A   1      32.336  22.386  23.644  1.00  0.00    -0.422 OA
ATOM     19  O   UNL A   1      31.783  20.651  25.079  1.00  0.00    -0.246 OA
ATOM     20  C   UNL A   1      32.793  25.906  24.720  1.00  0.00     0.027 A 
ATOM     21  C   UNL A   1      32.635  23.769  23.590  1.00  0.00     0.138 A 
ATOM     22  C   UNL A   1      33.258  26.462  23.524  1.00  0.00     0.018 A 
ATOM     23  C   UNL A   1      33.102  24.317  22.402  1.00  0.00     0.049 A 
ATOM     24  Br  UNL A   1      33.723  28.295  23.473  1.00  0.00    -0.051 Br
ATOM     25  C   UNL A   1      33.432  25.674  22.378  1.00  0.00     0.019 A 
ENDBRANCH  13  14
ENDBRANCH   7   8
ENDBRANCH   6   7
ENDBRANCH   4   6
ENDBRANCH   3   4
ENDBRANCH   2   3
ENDBRANCH   1   2
BRANCH   1  26
ATOM     26  O   UNL A   1      44.457  20.532  24.774  1.00  0.00    -0.374 OA
BRANCH  26  27
ATOM     27  C   UNL A   1      45.527  21.253  25.394  1.00  0.00     0.202 C 
BRANCH  27  28
ATOM     28  C   UNL A   1      45.643  22.760  25.161  1.00  0.00     0.261 C 
BRANCH  28  29
ATOM     29  O   UNL A   1      44.688  23.499  25.936  1.00  0.00    -0.460 OA
BRANCH  29  30
ATOM     30  C   UNL A   1      43.615  23.924  25.238  1.00  0.00     0.338 C 
ATOM     31  O   UNL A   1      43.195  23.478  24.174  1.00  0.00    -0.246 OA
BRANCH  30  32
ATOM     32  C   UNL A   1      42.862  24.911  26.024  1.00  0.00     0.060 A 
ATOM     33  C   UNL A   1      43.371  26.216  26.077  1.00  0.00     0.016 A 
ATOM     34  C   UNL A   1      41.740  24.546  26.771  1.00  0.00     0.016 A 
ATOM     35  C   UNL A   1      42.810  27.143  26.944  1.00  0.00     0.010 A 
ATOM     36  C   UNL A   1      41.184  25.474  27.651  1.00  0.00     0.010 A 
ATOM     37  C   UNL A   1      41.753  26.753  27.777  1.00  0.00    -0.014 A 
BRANCH  37  38
ATOM     38  C   UNL A   1      41.389  27.614  28.921  1.00  0.00     0.031 A 
ATOM     39  C   UNL A   1      42.208  27.514  30.176  1.00  0.00     0.074 A 
ATOM     40  C   UNL A   1      40.371  28.484  28.826  1.00  0.00     0.049 A 
ATOM     41  N   UNL A   1      42.057  28.128  31.320  1.00  0.00    -0.248 NA
ATOM     42  C   UNL A   1      43.354  26.589  30.137  1.00  0.00     0.031 C 
ATOM     43  C   UNL A   1      39.546  28.689  27.637  1.00  0.00     0.029 A 
ATOM     44  N   UNL A   1      39.857  29.352  29.752  1.00  0.00    -0.354 N 
ATOM     45  C   UNL A   1      43.079  27.660  32.136  1.00  0.00     0.074 A 
ATOM     46  C   UNL A   1      43.829  26.691  31.369  1.00  0.00     0.031 C 
ATOM     47  C   UNL A   1      38.614  29.616  27.912  1.00  0.00     0.029 A 
ATOM     48  C   UNL A   1      38.760  30.043  29.302  1.00  0.00     0.049 A 
ATOM     49  H   UNL A   1      40.236  29.468  30.653  1.00  0.00     0.167 HD
ATOM     50  C   UNL A   1      43.368  28.017  33.409  1.00  0.00     0.037 A 
ATOM     51  C   UNL A   1      37.958  30.904  29.954  1.00  0.00     0.037 A 
ATOM     52  C   UNL A   1      42.613  28.984  34.160  1.00  0.00     0.049 A 
ATOM     53  C   UNL A   1      38.262  31.238  31.391  1.00  0.00     0.074 A 
ATOM     54  C   UNL A   1      42.822  29.432  35.451  1.00  0.00     0.029 A 
ATOM     55  N   UNL A   1      41.493  29.649  33.679  1.00  0.00    -0.354 N 
ATOM     56  N   UNL A   1      39.241  30.808  32.153  1.00  0.00    -0.248 NA
ATOM     57  C   UNL A   1      37.355  32.181  32.059  1.00  0.00     0.031 C 
ATOM     58  C   UNL A   1      41.801  30.334  35.769  1.00  0.00     0.029 A 
ATOM     59  C   UNL A   1      40.986  30.487  34.657  1.00  0.00     0.049 A 
ATOM     60  H   UNL A   1      41.115  29.540  32.777  1.00  0.00     0.167 HD
ATOM     61  C   UNL A   1      39.083  31.445  33.376  1.00  0.00     0.074 A 
ATOM     62  C   UNL A   1      37.921  32.300  33.251  1.00  0.00     0.031 C 
ATOM     63  C   UNL A   1      39.830  31.333  34.503  1.00  0.00     0.037 A 
BRANCH  50  64
ATOM     64  C   UNL A   1      44.527  27.336  34.075  1.00  0.00     0.064 A 
ATOM     65  C   UNL A   1      45.826  27.866  34.019  1.00  0.00     0.173 A 
ATOM     66  C   UNL A   1      44.334  26.148  34.794  1.00  0.00     0.173 A 
ATOM     67  F   UNL A   1      46.068  28.990  33.329  1.00  0.00    -0.203 F 
ATOM     68  C   UNL A   1      46.891  27.217  34.641  1.00  0.00     0.198 A 
ATOM     69  C   UNL A   1      45.396  25.517  35.436  1.00  0.00     0.198 A 
ATOM     70  F   UNL A   1      43.113  25.598  34.876  1.00  0.00    -0.203 F 
ATOM     71  F   UNL A   1      48.130  27.716  34.535  1.00  0.00    -0.200 F 
ATOM     72  C   UNL A   1      46.674  26.048  35.353  1.00  0.00     0.200 A 
ATOM     73  F   UNL A   1      45.183  24.391  36.133  1.00  0.00    -0.200 F 
ATOM     74  F   UNL A   1      47.699  25.427  35.955  1.00  0.00    -0.200 F 
ENDBRANCH  50  64
BRANCH  51  75
ATOM     75  C   UNL A   1      36.789  31.499  29.258  1.00  0.00     0.064 A 
ATOM     76  C   UNL A   1      35.662  30.728  28.946  1.00  0.00     0.173 A 
ATOM     77  C   UNL A   1      36.774  32.854  28.891  1.00  0.00     0.173 A 
ATOM     78  F   UNL A   1      35.638  29.423  29.257  1.00  0.00    -0.203 F 
ATOM     79  C   UNL A   1      34.572  31.283  28.278  1.00  0.00     0.198 A 
ATOM     80  C   UNL A   1      35.673  33.414  28.249  1.00  0.00     0.198 A 
ATOM     81  F   UNL A   1      37.828  33.637  29.169  1.00  0.00    -0.203 F 
ATOM     82  F   UNL A   1      33.524  30.512  27.955  1.00  0.00    -0.200 F 
ATOM     83  C   UNL A   1      34.576  32.627  27.936  1.00  0.00     0.200 A 
ATOM     84  F   UNL A   1      35.676  34.717  27.932  1.00  0.00    -0.200 F 
ATOM     85  F   UNL A   1      33.525  33.162  27.300  1.00  0.00    -0.200 F 
ENDBRANCH  51  75
BRANCH  63  86
ATOM     86  C   UNL A   1      39.433  32.183  35.674  1.00  0.00     0.064 A 
ATOM     87  C   UNL A   1      39.940  33.478  35.848  1.00  0.00     0.173 A 
ATOM     88  C   UNL A   1      38.498  31.710  36.607  1.00  0.00     0.173 A 
ATOM     89  F   UNL A   1      40.847  33.970  34.990  1.00  0.00    -0.203 F 
ATOM     90  C   UNL A   1      39.544  34.260  36.930  1.00  0.00     0.198 A 
ATOM     91  C   UNL A   1      38.082  32.505  37.670  1.00  0.00     0.198 A 
ATOM     92  F   UNL A   1      37.977  30.480  36.479  1.00  0.00    -0.203 F 
ATOM     93  F   UNL A   1      40.076  35.478  37.103  1.00  0.00    -0.200 F 
ATOM     94  C   UNL A   1      38.611  33.776  37.834  1.00  0.00     0.200 A 
ATOM     95  F   UNL A   1      37.170  32.042  38.535  1.00  0.00    -0.200 F 
ATOM     96  F   UNL A   1      38.225  34.534  38.870  1.00  0.00    -0.200 F 
ENDBRANCH  63  86
ENDBRANCH  37  38
ENDBRANCH  30  32
ENDBRANCH  29  30
ENDBRANCH  28  29
ENDBRANCH  27  28
ENDBRANCH  26  27
ENDBRANCH   1  26
TORSDOF 17
ENDMDL
MODEL 3
REMARK VINA RESULT:     -12.0      3.956      9.241
REMARK SMILES O=C(COc1ccc(-c2cc3cc(Br)ccc3oc2=O)cc1)OCCOCCOC(=O)c1ccc(-c2c3nc(c(-c4c(F)c(F)c(F)c(F)c4F)c4ccc([nH]4)c(-c4c(F)c(F)c(F)c(F)c4F)c4nc(c(-c5c(F)c(F)c(F)c(F)c5F)c5ccc2[nH]5)C=C4)C=C3)cc1
REMARK SMILES IDX 25 1 24 2 23 3 2 4 1 5 3 6 4 7 5 8 6 9 22 10 7 11 21 12 8 13
REMARK SMILES IDX 9 14 10 15 19 16 11 17 18 18 20 19 12 20 17 21 13 22 16 23
REMARK SMILES IDX 14 24 15 25 26 26 27 27 28 28 29 29 30 30 31 31 32 32 33 33
REMARK SMILES IDX 94 34 34 35 93 36 35 37 36 38 37 39 87 40 38 41 92 42 86 43
REMARK SMILES IDX 88 44 39 45 91 46 85 47 84 48 40 50 72 51 52 52 71 53 53 54
REMARK SMILES IDX 56 55 70 56 89 57 54 58 55 59 69 61 90 62 57 63 41 64 42 65
REMARK SMILES IDX 50 66 43 67 44 68 48 69 51 70 45 71 46 72 49 73 47 74 73 75
REMARK SMILES IDX 74 76 82 77 75 78 76 79 80 80 83 81 77 82 78 83 81 84 79 85
REMARK SMILES IDX 58 86 59 87 67 88 60 89 61 90 65 91 68 92 62 93 63 94 66 95
REMARK SMILES IDX 64 96
REMARK H PARENT 88 49 56 60
REMARK Flexibility Score: inf
ROOT
ATOM      1  C   UNL A   1      33.240  36.491  31.380  1.00  0.00     0.202 C 
ENDROOT
BRANCH   1   2
ATOM      2  C   UNL A   1      33.075  36.293  29.871  1.00  0.00     0.261 C 
BRANCH   2   3
ATOM      3  O   UNL A   1      32.794  34.942  29.499  1.00  0.00    -0.461 OA
BRANCH   3   4
ATOM      4  C   UNL A   1      33.715  34.144  28.908  1.00  0.00     0.344 C 
ATOM      5  O   UNL A   1      34.912  34.328  29.135  1.00  0.00    -0.248 OA
BRANCH   4   6
ATOM      6  C   UNL A   1      33.257  33.029  27.962  1.00  0.00     0.351 C 
BRANCH   6   7
ATOM      7  O   UNL A   1      33.811  31.727  28.064  1.00  0.00    -0.482 OA
BRANCH   7   8
ATOM      8  C   UNL A   1      33.327  30.805  27.183  1.00  0.00     0.120 A 
ATOM      9  C   UNL A   1      34.141  29.703  26.928  1.00  0.00     0.047 A 
ATOM     10  C   UNL A   1      32.128  30.928  26.498  1.00  0.00     0.047 A 
ATOM     11  C   UNL A   1      33.777  28.767  25.951  1.00  0.00     0.013 A 
ATOM     12  C   UNL A   1      31.742  29.975  25.571  1.00  0.00     0.013 A 
ATOM     13  C   UNL A   1      32.589  28.924  25.222  1.00  0.00    -0.011 A 
BRANCH  13  14
ATOM     14  C   UNL A   1      32.371  28.125  23.978  1.00  0.00     0.068 A 
ATOM     15  C   UNL A   1      33.041  26.985  23.680  1.00  0.00     0.028 A 
ATOM     16  C   UNL A   1      30.905  27.857  23.741  1.00  0.00     0.344 A 
ATOM     17  C   UNL A   1      32.663  25.864  24.575  1.00  0.00     0.019 A 
ATOM     18  O   UNL A   1      30.410  26.775  24.490  1.00  0.00    -0.422 OA
ATOM     19  O   UNL A   1      30.198  28.577  23.048  1.00  0.00    -0.246 OA
ATOM     20  C   UNL A   1      33.589  24.964  25.099  1.00  0.00     0.027 A 
ATOM     21  C   UNL A   1      31.339  25.859  25.041  1.00  0.00     0.138 A 
ATOM     22  C   UNL A   1      33.186  24.115  26.133  1.00  0.00     0.018 A 
ATOM     23  C   UNL A   1      30.936  25.021  26.073  1.00  0.00     0.049 A 
ATOM     24  Br  UNL A   1      34.447  22.941  26.916  1.00  0.00    -0.051 Br
ATOM     25  C   UNL A   1      31.878  24.154  26.634  1.00  0.00     0.019 A 
ENDBRANCH  13  14
ENDBRANCH   7   8
ENDBRANCH   6   7
ENDBRANCH   4   6
ENDBRANCH   3   4
ENDBRANCH   2   3
ENDBRANCH   1   2
BRANCH   1  26
ATOM     26  O   UNL A   1      34.098  35.598  32.081  1.00  0.00    -0.374 OA
BRANCH  26  27
ATOM     27  C   UNL A   1      33.549  34.391  32.621  1.00  0.00     0.202 C 
BRANCH  27  28
ATOM     28  C   UNL A   1      34.434  33.492  33.483  1.00  0.00     0.261 C 
BRANCH  28  29
ATOM     29  O   UNL A   1      35.308  32.676  32.690  1.00  0.00    -0.460 OA
BRANCH  29  30
ATOM     30  C   UNL A   1      36.435  32.290  33.323  1.00  0.00     0.338 C 
ATOM     31  O   UNL A   1      36.712  32.442  34.508  1.00  0.00    -0.246 OA
BRANCH  30  32
ATOM     32  C   UNL A   1      37.258  31.466  32.426  1.00  0.00     0.060 A 
ATOM     33  C   UNL A   1      38.163  30.575  33.020  1.00  0.00     0.016 A 
ATOM     34  C   UNL A   1      37.214  31.629  31.040  1.00  0.00     0.016 A 
ATOM     35  C   UNL A   1      39.090  29.905  32.234  1.00  0.00     0.010 A 
ATOM     36  C   UNL A   1      38.153  30.965  30.252  1.00  0.00     0.010 A 
ATOM     37  C   UNL A   1      39.125  30.147  30.855  1.00  0.00    -0.014 A 
BRANCH  37  38
ATOM     38  C   UNL A   1      40.306  29.711  30.081  1.00  0.00     0.031 A 
ATOM     39  C   UNL A   1      41.417  30.698  29.863  1.00  0.00     0.074 A 
ATOM     40  C   UNL A   1      40.393  28.456  29.615  1.00  0.00     0.049 A 
ATOM     41  N   UNL A   1      42.526  30.566  29.184  1.00  0.00    -0.248 NA
ATOM     42  C   UNL A   1      41.252  32.018  30.495  1.00  0.00     0.031 C 
ATOM     43  C   UNL A   1      39.390  27.411  29.813  1.00  0.00     0.029 A 
ATOM     44  N   UNL A   1      41.372  27.851  28.871  1.00  0.00    -0.354 N 
ATOM     45  C   UNL A   1      43.185  31.783  29.299  1.00  0.00     0.074 A 
ATOM     46  C   UNL A   1      42.342  32.652  30.090  1.00  0.00     0.031 C 
ATOM     47  C   UNL A   1      39.799  26.294  29.189  1.00  0.00     0.029 A 
ATOM     48  C   UNL A   1      41.074  26.557  28.526  1.00  0.00     0.049 A 
ATOM     49  H   UNL A   1      42.206  28.302  28.609  1.00  0.00     0.167 HD
ATOM     50  C   UNL A   1      44.390  32.138  28.796  1.00  0.00     0.037 A 
ATOM     51  C   UNL A   1      41.751  25.698  27.743  1.00  0.00     0.037 A 
ATOM     52  C   UNL A   1      45.218  31.261  28.012  1.00  0.00     0.049 A 
ATOM     53  C   UNL A   1      43.061  26.136  27.141  1.00  0.00     0.074 A 
ATOM     54  C   UNL A   1      46.462  31.509  27.462  1.00  0.00     0.029 A 
ATOM     55  N   UNL A   1      44.875  29.962  27.662  1.00  0.00    -0.354 N 
ATOM     56  N   UNL A   1      43.689  27.282  27.268  1.00  0.00    -0.248 NA
ATOM     57  C   UNL A   1      43.759  25.162  26.292  1.00  0.00     0.031 C 
ATOM     58  C   UNL A   1      46.852  30.376  26.740  1.00  0.00     0.029 A 
ATOM     59  C   UNL A   1      45.873  29.403  26.883  1.00  0.00     0.049 A 
ATOM     60  H   UNL A   1      44.044  29.506  27.928  1.00  0.00     0.167 HD
ATOM     61  C   UNL A   1      44.864  27.158  26.540  1.00  0.00     0.074 A 
ATOM     62  C   UNL A   1      44.867  25.821  25.982  1.00  0.00     0.031 C 
ATOM     63  C   UNL A   1      45.852  28.067  26.347  1.00  0.00     0.037 A 
BRANCH  50  64
ATOM     64  C   UNL A   1      44.866  33.537  29.053  1.00  0.00     0.064 A 
ATOM     65  C   UNL A   1      45.656  33.855  30.168  1.00  0.00     0.173 A 
ATOM     66  C   UNL A   1      44.543  34.570  28.162  1.00  0.00     0.173 A 
ATOM     67  F   UNL A   1      45.978  32.906  31.061  1.00  0.00    -0.203 F 
ATOM     68  C   UNL A   1      46.086  35.161  30.393  1.00  0.00     0.198 A 
ATOM     69  C   UNL A   1      44.996  35.869  28.375  1.00  0.00     0.198 A 
ATOM     70  F   UNL A   1      43.787  34.321  27.082  1.00  0.00    -0.203 F 
ATOM     71  F   UNL A   1      46.801  35.450  31.489  1.00  0.00    -0.200 F 
ATOM     72  C   UNL A   1      45.761  36.165  29.494  1.00  0.00     0.200 A 
ATOM     73  F   UNL A   1      44.689  36.838  27.500  1.00  0.00    -0.200 F 
ATOM     74  F   UNL A   1      46.179  37.421  29.708  1.00  0.00    -0.200 F 
ENDBRANCH  50  64
BRANCH  51  75
ATOM     75  C   UNL A   1      41.198  24.346  27.476  1.00  0.00     0.064 A 
ATOM     76  C   UNL A   1      40.080  24.171  26.649  1.00  0.00     0.173 A 
ATOM     77  C   UNL A   1      41.776  23.199  28.042  1.00  0.00     0.173 A 
ATOM     78  F   UNL A   1      39.479  25.238  26.102  1.00  0.00    -0.203 F 
ATOM     79  C   UNL A   1      39.552  22.903  26.412  1.00  0.00     0.198 A 
ATOM     80  C   UNL A   1      41.264  21.931  27.782  1.00  0.00     0.198 A 
ATOM     81  F   UNL A   1      42.849  23.312  28.840  1.00  0.00    -0.203 F 
ATOM     82  F   UNL A   1      38.457  22.769  25.651  1.00  0.00    -0.200 F 
ATOM     83  C   UNL A   1      40.148  21.784  26.974  1.00  0.00     0.200 A 
ATOM     84  F   UNL A   1      41.852  20.851  28.317  1.00  0.00    -0.200 F 
ATOM     85  F   UNL A   1      39.643  20.565  26.740  1.00  0.00    -0.200 F 
ENDBRANCH  51  75
BRANCH  63  86
ATOM     86  C   UNL A   1      47.032  27.630  25.530  1.00  0.00     0.064 A 
ATOM     87  C   UNL A   1      47.078  27.823  24.142  1.00  0.00     0.173 A 
ATOM     88  C   UNL A   1      48.150  27.053  26.151  1.00  0.00     0.173 A 
ATOM     89  F   UNL A   1      46.028  28.359  23.500  1.00  0.00    -0.203 F 
ATOM     90  C   UNL A   1      48.190  27.431  23.402  1.00  0.00     0.198 A 
ATOM     91  C   UNL A   1      49.272  26.690  25.413  1.00  0.00     0.198 A 
ATOM     92  F   UNL A   1      48.159  26.856  27.478  1.00  0.00    -0.203 F 
ATOM     93  F   UNL A   1      48.193  27.583  22.071  1.00  0.00    -0.200 F 
ATOM     94  C   UNL A   1      49.288  26.872  24.038  1.00  0.00     0.200 A 
ATOM     95  F   UNL A   1      50.337  26.163  26.031  1.00  0.00    -0.200 F 
ATOM     96  F   UNL A   1      50.360  26.502  23.326  1.00  0.00    -0.200 F 
ENDBRANCH  63  86
ENDBRANCH  37  38
ENDBRANCH  30  32
ENDBRANCH  29  30
ENDBRANCH  28  29
ENDBRANCH  27  28
ENDBRANCH  26  27
ENDBRANCH   1  26
TORSDOF 17
ENDMDL
