MODEL 1
REMARK VINA RESULT:     -12.2      0.000      0.000
REMARK SMILES Cc1ccc([C@@H](CC(=O)OCCOCCOC(=O)c2ccc(-c3c4nc(c(-c5c(F)c(F)c(F)c(F)c5F)c5ccc([nH]5)c(-c5c(F)c(F)c(F)c(F)c5F)c5nc(c(-c6c(F)c(F)c(F)c(F)c6F)c6ccc3[nH]6)C=C5)C=C4)cc2)NC(=O)c2ccc(OC(F)F)cc2)cc1
REMARK SMILES IDX 11 1 10 2 8 3 9 4 7 5 6 6 5 7 1 8 2 9 3 10 96 11 4 12 95 13
REMARK SMILES IDX 82 14 83 15 84 17 85 18 86 19 94 20 87 21 93 22 88 23 89 24
REMARK SMILES IDX 90 25 91 26 92 27 12 28 13 29 14 30 15 31 16 32 17 33 18 34
REMARK SMILES IDX 19 35 20 36 81 37 21 38 80 39 22 40 23 41 24 42 74 43 25 44
REMARK SMILES IDX 79 45 73 46 75 47 26 48 78 49 72 50 71 51 27 53 59 54 39 55
REMARK SMILES IDX 58 56 40 57 43 58 57 59 76 60 41 61 42 62 56 64 77 65 44 66
REMARK SMILES IDX 28 67 29 68 37 69 30 70 31 71 35 72 38 73 32 74 33 75 36 76
REMARK SMILES IDX 34 77 60 78 61 79 69 80 62 81 63 82 67 83 70 84 64 85 65 86
REMARK SMILES IDX 68 87 66 88 45 89 46 90 54 91 47 92 48 93 52 94 55 95 49 96
REMARK SMILES IDX 50 97 53 98 51 99
REMARK H PARENT 82 16 75 52 43 63
REMARK Flexibility Score: inf
ROOT
ATOM      1  C   UNL A   1      32.043  27.947  23.500  1.00  0.00     0.261 C 
ENDROOT
BRANCH   1   2
ATOM      2  O   UNL A   1      33.372  27.450  23.377  1.00  0.00    -0.463 OA
BRANCH   2   3
ATOM      3  C   UNL A   1      33.554  26.470  22.449  1.00  0.00     0.308 C 
ATOM      4  O   UNL A   1      33.661  26.628  21.253  1.00  0.00    -0.252 OA
BRANCH   3   5
ATOM      5  C   UNL A   1      33.606  25.135  23.139  1.00  0.00     0.152 C 
BRANCH   5   6
ATOM      6  C   UNL A   1      34.278  25.221  24.533  1.00  0.00     0.123 C 
BRANCH   6   7
ATOM      7  C   UNL A   1      35.441  24.205  24.648  1.00  0.00    -0.025 A 
ATOM      8  C   UNL A   1      38.168  20.854  25.125  1.00  0.00     0.044 C 
ATOM      9  C   UNL A   1      37.318  22.073  24.907  1.00  0.00    -0.051 A 
ATOM     10  C   UNL A   1      37.174  23.021  25.918  1.00  0.00     0.004 A 
ATOM     11  C   UNL A   1      36.557  22.219  23.745  1.00  0.00     0.004 A 
ATOM     12  C   UNL A   1      36.278  24.085  25.773  1.00  0.00     0.006 A 
ATOM     13  C   UNL A   1      35.636  23.270  23.616  1.00  0.00     0.006 A 
ENDBRANCH   6   7
BRANCH   6  14
ATOM     14  N   UNL A   1      33.338  25.119  25.664  1.00  0.00    -0.345 N 
ATOM     15  C   UNL A   1      32.509  24.133  26.112  1.00  0.00     0.251 C 
ATOM     16  H   UNL A   1      33.300  25.936  26.213  1.00  0.00     0.164 HD
ATOM     17  O   UNL A   1      31.587  24.418  26.872  1.00  0.00    -0.269 OA
BRANCH  15  18
ATOM     18  C   UNL A   1      32.703  22.741  25.713  1.00  0.00     0.040 A 
ATOM     19  C   UNL A   1      32.082  22.275  24.556  1.00  0.00     0.017 A 
ATOM     20  C   UNL A   1      33.389  21.863  26.549  1.00  0.00     0.017 A 
ATOM     21  C   UNL A   1      32.245  20.941  24.186  1.00  0.00     0.047 A 
ATOM     22  C   UNL A   1      33.580  20.539  26.157  1.00  0.00     0.047 A 
ATOM     23  C   UNL A   1      33.025  20.075  24.964  1.00  0.00     0.126 A 
BRANCH  23  24
ATOM     24  O   UNL A   1      33.143  18.809  24.467  1.00  0.00    -0.435 OA
BRANCH  24  25
ATOM     25  C   UNL A   1      34.419  18.185  24.550  1.00  0.00     0.542 C 
ATOM     26  F   UNL A   1      34.594  17.344  23.502  1.00  0.00    -0.167 F 
ATOM     27  F   UNL A   1      35.397  19.122  24.515  1.00  0.00    -0.167 F 
ENDBRANCH  24  25
ENDBRANCH  23  24
ENDBRANCH  15  18
ENDBRANCH   6  14
ENDBRANCH   5   6
ENDBRANCH   3   5
ENDBRANCH   2   3
ENDBRANCH   1   2
BRANCH   1  28
ATOM     28  C   UNL A   1      31.743  28.448  24.883  1.00  0.00     0.202 C 
BRANCH  28  29
ATOM     29  O   UNL A   1      32.929  28.322  25.651  1.00  0.00    -0.374 OA
BRANCH  29  30
ATOM     30  C   UNL A   1      32.823  28.709  27.015  1.00  0.00     0.202 C 
BRANCH  30  31
ATOM     31  C   UNL A   1      32.809  30.228  27.264  1.00  0.00     0.261 C 
BRANCH  31  32
ATOM     32  O   UNL A   1      34.068  30.819  26.869  1.00  0.00    -0.460 OA
BRANCH  32  33
ATOM     33  C   UNL A   1      34.897  31.222  27.875  1.00  0.00     0.338 C 
ATOM     34  O   UNL A   1      35.054  32.377  28.239  1.00  0.00    -0.246 OA
BRANCH  33  35
ATOM     35  C   UNL A   1      35.833  30.106  28.225  1.00  0.00     0.060 A 
ATOM     36  C   UNL A   1      36.035  29.734  29.570  1.00  0.00     0.016 A 
ATOM     37  C   UNL A   1      36.775  29.752  27.270  1.00  0.00     0.016 A 
ATOM     38  C   UNL A   1      37.249  29.141  29.975  1.00  0.00     0.010 A 
ATOM     39  C   UNL A   1      38.017  29.345  27.705  1.00  0.00     0.010 A 
ATOM     40  C   UNL A   1      38.277  29.012  29.046  1.00  0.00    -0.014 A 
BRANCH  40  41
ATOM     41  C   UNL A   1      39.673  28.608  29.281  1.00  0.00     0.031 A 
ATOM     42  C   UNL A   1      40.085  27.241  28.842  1.00  0.00     0.074 A 
ATOM     43  C   UNL A   1      40.670  29.484  29.582  1.00  0.00     0.049 A 
ATOM     44  N   UNL A   1      41.188  26.678  29.208  1.00  0.00    -0.248 NA
ATOM     45  C   UNL A   1      39.284  26.386  27.964  1.00  0.00     0.031 C 
ATOM     46  C   UNL A   1      42.069  29.357  29.161  1.00  0.00     0.029 A 
ATOM     47  N   UNL A   1      40.671  30.682  30.316  1.00  0.00    -0.354 N 
ATOM     48  C   UNL A   1      41.390  25.605  28.373  1.00  0.00     0.074 A 
ATOM     49  C   UNL A   1      40.144  25.412  27.676  1.00  0.00     0.031 C 
ATOM     50  C   UNL A   1      42.824  30.240  29.828  1.00  0.00     0.029 A 
ATOM     51  C   UNL A   1      41.981  30.876  30.811  1.00  0.00     0.049 A 
ATOM     52  H   UNL A   1      39.900  31.276  30.458  1.00  0.00     0.167 HD
ATOM     53  C   UNL A   1      42.638  25.082  28.223  1.00  0.00     0.037 A 
ATOM     54  C   UNL A   1      42.243  31.108  32.128  1.00  0.00     0.037 A 
ATOM     55  C   UNL A   1      43.641  25.856  28.954  1.00  0.00     0.049 A 
ATOM     56  C   UNL A   1      43.156  30.077  32.705  1.00  0.00     0.074 A 
ATOM     57  C   UNL A   1      44.579  26.806  28.581  1.00  0.00     0.029 A 
ATOM     58  N   UNL A   1      43.554  25.953  30.332  1.00  0.00    -0.354 N 
ATOM     59  N   UNL A   1      43.780  29.190  31.990  1.00  0.00    -0.248 NA
ATOM     60  C   UNL A   1      43.283  29.849  34.138  1.00  0.00     0.031 C 
ATOM     61  C   UNL A   1      45.113  27.398  29.762  1.00  0.00     0.029 A 
ATOM     62  C   UNL A   1      44.510  26.804  30.856  1.00  0.00     0.049 A 
ATOM     63  H   UNL A   1      42.890  25.470  30.875  1.00  0.00     0.167 HD
ATOM     64  C   UNL A   1      44.165  28.168  32.803  1.00  0.00     0.074 A 
ATOM     65  C   UNL A   1      43.873  28.645  34.147  1.00  0.00     0.031 C 
ATOM     66  C   UNL A   1      44.589  26.969  32.303  1.00  0.00     0.037 A 
BRANCH  53  67
ATOM     67  C   UNL A   1      42.958  24.032  27.186  1.00  0.00     0.064 A 
ATOM     68  C   UNL A   1      42.645  22.676  27.403  1.00  0.00     0.173 A 
ATOM     69  C   UNL A   1      43.587  24.304  25.953  1.00  0.00     0.173 A 
ATOM     70  F   UNL A   1      41.945  22.281  28.473  1.00  0.00    -0.203 F 
ATOM     71  C   UNL A   1      43.038  21.668  26.522  1.00  0.00     0.198 A 
ATOM     72  C   UNL A   1      44.039  23.292  25.103  1.00  0.00     0.198 A 
ATOM     73  F   UNL A   1      43.744  25.562  25.515  1.00  0.00    -0.203 F 
ATOM     74  F   UNL A   1      42.709  20.395  26.783  1.00  0.00    -0.200 F 
ATOM     75  C   UNL A   1      43.771  21.970  25.393  1.00  0.00     0.200 A 
ATOM     76  F   UNL A   1      44.733  23.605  23.999  1.00  0.00    -0.200 F 
ATOM     77  F   UNL A   1      44.190  20.995  24.573  1.00  0.00    -0.200 F 
ENDBRANCH  53  67
BRANCH  54  78
ATOM     78  C   UNL A   1      41.079  31.734  32.814  1.00  0.00     0.064 A 
ATOM     79  C   UNL A   1      40.907  33.098  32.539  1.00  0.00     0.173 A 
ATOM     80  C   UNL A   1      39.938  30.961  33.090  1.00  0.00     0.173 A 
ATOM     81  F   UNL A   1      41.972  33.876  32.281  1.00  0.00    -0.203 F 
ATOM     82  C   UNL A   1      39.639  33.576  32.253  1.00  0.00     0.198 A 
ATOM     83  C   UNL A   1      38.665  31.488  32.881  1.00  0.00     0.198 A 
ATOM     84  F   UNL A   1      40.056  29.656  33.371  1.00  0.00    -0.203 F 
ATOM     85  F   UNL A   1      39.504  34.748  31.640  1.00  0.00    -0.200 F 
ATOM     86  C   UNL A   1      38.522  32.775  32.400  1.00  0.00     0.200 A 
ATOM     87  F   UNL A   1      37.585  30.701  32.993  1.00  0.00    -0.200 F 
ATOM     88  F   UNL A   1      37.328  33.218  31.980  1.00  0.00    -0.200 F 
ENDBRANCH  54  78
BRANCH  66  89
ATOM     89  C   UNL A   1      45.021  25.837  33.191  1.00  0.00     0.064 A 
ATOM     90  C   UNL A   1      46.339  25.350  33.183  1.00  0.00     0.173 A 
ATOM     91  C   UNL A   1      44.127  25.151  34.041  1.00  0.00     0.173 A 
ATOM     92  F   UNL A   1      47.234  25.789  32.286  1.00  0.00    -0.203 F 
ATOM     93  C   UNL A   1      46.770  24.377  34.083  1.00  0.00     0.198 A 
ATOM     94  C   UNL A   1      44.544  24.132  34.890  1.00  0.00     0.198 A 
ATOM     95  F   UNL A   1      42.823  25.446  34.098  1.00  0.00    -0.203 F 
ATOM     96  F   UNL A   1      48.063  24.031  34.112  1.00  0.00    -0.200 F 
ATOM     97  C   UNL A   1      45.873  23.773  34.941  1.00  0.00     0.200 A 
ATOM     98  F   UNL A   1      43.645  23.512  35.668  1.00  0.00    -0.200 F 
ATOM     99  F   UNL A   1      46.284  22.836  35.805  1.00  0.00    -0.200 F 
ENDBRANCH  66  89
ENDBRANCH  40  41
ENDBRANCH  33  35
ENDBRANCH  32  33
ENDBRANCH  31  32
ENDBRANCH  30  31
ENDBRANCH  29  30
ENDBRANCH  28  29
ENDBRANCH   1  28
TORSDOF 20
ENDMDL
MODEL 2
REMARK VINA RESULT:     -11.7      1.967      2.812
REMARK SMILES Cc1ccc([C@@H](CC(=O)OCCOCCOC(=O)c2ccc(-c3c4nc(c(-c5c(F)c(F)c(F)c(F)c5F)c5ccc([nH]5)c(-c5c(F)c(F)c(F)c(F)c5F)c5nc(c(-c6c(F)c(F)c(F)c(F)c6F)c6ccc3[nH]6)C=C5)C=C4)cc2)NC(=O)c2ccc(OC(F)F)cc2)cc1
REMARK SMILES IDX 11 1 10 2 8 3 9 4 7 5 6 6 5 7 1 8 2 9 3 10 96 11 4 12 95 13
REMARK SMILES IDX 82 14 83 15 84 17 85 18 86 19 94 20 87 21 93 22 88 23 89 24
REMARK SMILES IDX 90 25 91 26 92 27 12 28 13 29 14 30 15 31 16 32 17 33 18 34
REMARK SMILES IDX 19 35 20 36 81 37 21 38 80 39 22 40 23 41 24 42 74 43 25 44
REMARK SMILES IDX 79 45 73 46 75 47 26 48 78 49 72 50 71 51 27 53 59 54 39 55
REMARK SMILES IDX 58 56 40 57 43 58 57 59 76 60 41 61 42 62 56 64 77 65 44 66
REMARK SMILES IDX 28 67 29 68 37 69 30 70 31 71 35 72 38 73 32 74 33 75 36 76
REMARK SMILES IDX 34 77 60 78 61 79 69 80 62 81 63 82 67 83 70 84 64 85 65 86
REMARK SMILES IDX 68 87 66 88 45 89 46 90 54 91 47 92 48 93 52 94 55 95 49 96
REMARK SMILES IDX 50 97 53 98 51 99
REMARK H PARENT 82 16 75 52 43 63
REMARK Flexibility Score: inf
ROOT
ATOM      1  C   UNL A   1      32.135  28.132  23.084  1.00  0.00     0.261 C 
ENDROOT
BRANCH   1   2
ATOM      2  O   UNL A   1      31.922  26.729  22.961  1.00  0.00    -0.463 OA
BRANCH   2   3
ATOM      3  C   UNL A   1      32.864  26.046  22.255  1.00  0.00     0.308 C 
ATOM      4  O   UNL A   1      33.327  26.367  21.183  1.00  0.00    -0.252 OA
BRANCH   3   5
ATOM      5  C   UNL A   1      33.258  24.812  23.016  1.00  0.00     0.152 C 
BRANCH   5   6
ATOM      6  C   UNL A   1      33.993  25.146  24.339  1.00  0.00     0.123 C 
BRANCH   6   7
ATOM      7  C   UNL A   1      35.223  24.226  24.535  1.00  0.00    -0.025 A 
ATOM      8  C   UNL A   1      38.174  21.126  25.293  1.00  0.00     0.044 C 
ATOM      9  C   UNL A   1      37.242  22.259  24.972  1.00  0.00    -0.051 A 
ATOM     10  C   UNL A   1      37.041  23.288  25.889  1.00  0.00     0.004 A 
ATOM     11  C   UNL A   1      36.464  22.240  23.811  1.00  0.00     0.004 A 
ATOM     12  C   UNL A   1      36.074  24.271  25.655  1.00  0.00     0.006 A 
ATOM     13  C   UNL A   1      35.473  23.210  23.595  1.00  0.00     0.006 A 
ENDBRANCH   6   7
BRANCH   6  14
ATOM     14  N   UNL A   1      33.120  25.167  25.527  1.00  0.00    -0.345 N 
ATOM     15  C   UNL A   1      32.348  24.227  26.142  1.00  0.00     0.251 C 
ATOM     16  H   UNL A   1      33.088  26.046  25.970  1.00  0.00     0.164 HD
ATOM     17  O   UNL A   1      31.460  24.585  26.913  1.00  0.00    -0.269 OA
BRANCH  15  18
ATOM     18  C   UNL A   1      32.561  22.800  25.910  1.00  0.00     0.040 A 
ATOM     19  C   UNL A   1      33.480  22.114  26.700  1.00  0.00     0.017 A 
ATOM     20  C   UNL A   1      31.951  22.171  24.827  1.00  0.00     0.017 A 
ATOM     21  C   UNL A   1      33.703  20.758  26.463  1.00  0.00     0.047 A 
ATOM     22  C   UNL A   1      32.149  20.807  24.617  1.00  0.00     0.047 A 
ATOM     23  C   UNL A   1      33.011  20.089  25.445  1.00  0.00     0.126 A 
BRANCH  23  24
ATOM     24  O   UNL A   1      33.286  18.755  25.349  1.00  0.00    -0.435 OA
BRANCH  24  25
ATOM     25  C   UNL A   1      34.298  18.355  24.433  1.00  0.00     0.542 C 
ATOM     26  F   UNL A   1      35.446  19.030  24.685  1.00  0.00    -0.167 F 
ATOM     27  F   UNL A   1      34.544  17.029  24.562  1.00  0.00    -0.167 F 
ENDBRANCH  24  25
ENDBRANCH  23  24
ENDBRANCH  15  18
ENDBRANCH   6  14
ENDBRANCH   5   6
ENDBRANCH   3   5
ENDBRANCH   2   3
ENDBRANCH   1   2
BRANCH   1  28
ATOM     28  C   UNL A   1      31.507  28.703  24.322  1.00  0.00     0.202 C 
BRANCH  28  29
ATOM     29  O   UNL A   1      32.393  29.682  24.840  1.00  0.00    -0.374 OA
BRANCH  29  30
ATOM     30  C   UNL A   1      32.528  29.703  26.255  1.00  0.00     0.202 C 
BRANCH  30  31
ATOM     31  C   UNL A   1      32.430  31.096  26.901  1.00  0.00     0.261 C 
BRANCH  31  32
ATOM     32  O   UNL A   1      33.636  31.399  27.639  1.00  0.00    -0.460 OA
BRANCH  32  33
ATOM     33  C   UNL A   1      33.714  32.640  28.201  1.00  0.00     0.338 C 
ATOM     34  O   UNL A   1      32.977  33.579  27.942  1.00  0.00    -0.246 OA
BRANCH  33  35
ATOM     35  C   UNL A   1      35.028  32.785  28.906  1.00  0.00     0.060 A 
ATOM     36  C   UNL A   1      36.117  33.417  28.269  1.00  0.00     0.016 A 
ATOM     37  C   UNL A   1      35.263  31.941  29.981  1.00  0.00     0.016 A 
ATOM     38  C   UNL A   1      37.442  33.083  28.619  1.00  0.00     0.010 A 
ATOM     39  C   UNL A   1      36.548  31.492  30.185  1.00  0.00     0.010 A 
ATOM     40  C   UNL A   1      37.659  32.058  29.535  1.00  0.00    -0.014 A 
BRANCH  40  41
ATOM     41  C   UNL A   1      38.933  31.418  29.902  1.00  0.00     0.031 A 
ATOM     42  C   UNL A   1      39.217  30.063  29.341  1.00  0.00     0.074 A 
ATOM     43  C   UNL A   1      39.981  32.088  30.452  1.00  0.00     0.049 A 
ATOM     44  N   UNL A   1      40.163  29.297  29.773  1.00  0.00    -0.248 NA
ATOM     45  C   UNL A   1      38.452  29.449  28.253  1.00  0.00     0.031 C 
ATOM     46  C   UNL A   1      41.398  31.794  30.214  1.00  0.00     0.029 A 
ATOM     47  N   UNL A   1      40.032  33.178  31.336  1.00  0.00    -0.354 N 
ATOM     48  C   UNL A   1      40.343  28.309  28.835  1.00  0.00     0.074 A 
ATOM     49  C   UNL A   1      39.206  28.392  27.955  1.00  0.00     0.031 C 
ATOM     50  C   UNL A   1      42.154  32.466  31.092  1.00  0.00     0.029 A 
ATOM     51  C   UNL A   1      41.263  33.109  32.028  1.00  0.00     0.049 A 
ATOM     52  H   UNL A   1      39.337  33.865  31.451  1.00  0.00     0.167 HD
ATOM     53  C   UNL A   1      41.515  27.618  28.788  1.00  0.00     0.037 A 
ATOM     54  C   UNL A   1      41.346  33.145  33.387  1.00  0.00     0.037 A 
ATOM     55  C   UNL A   1      42.489  28.138  29.748  1.00  0.00     0.049 A 
ATOM     56  C   UNL A   1      42.008  31.925  33.938  1.00  0.00     0.074 A 
ATOM     57  C   UNL A   1      43.594  28.967  29.640  1.00  0.00     0.029 A 
ATOM     58  N   UNL A   1      42.203  28.088  31.101  1.00  0.00    -0.354 N 
ATOM     59  N   UNL A   1      42.609  31.039  33.200  1.00  0.00    -0.248 NA
ATOM     60  C   UNL A   1      41.879  31.517  35.330  1.00  0.00     0.031 C 
ATOM     61  C   UNL A   1      44.015  29.330  30.952  1.00  0.00     0.029 A 
ATOM     62  C   UNL A   1      43.173  28.715  31.863  1.00  0.00     0.049 A 
ATOM     63  H   UNL A   1      41.403  27.656  31.477  1.00  0.00     0.167 HD
ATOM     64  C   UNL A   1      42.719  29.884  33.912  1.00  0.00     0.074 A 
ATOM     65  C   UNL A   1      42.290  30.243  35.255  1.00  0.00     0.031 C 
ATOM     66  C   UNL A   1      43.048  28.699  33.315  1.00  0.00     0.037 A 
BRANCH  53  67
ATOM     67  C   UNL A   1      41.846  26.658  27.671  1.00  0.00     0.064 A 
ATOM     68  C   UNL A   1      41.252  25.382  27.610  1.00  0.00     0.173 A 
ATOM     69  C   UNL A   1      42.756  26.938  26.630  1.00  0.00     0.173 A 
ATOM     70  F   UNL A   1      40.286  25.017  28.460  1.00  0.00    -0.203 F 
ATOM     71  C   UNL A   1      41.629  24.427  26.664  1.00  0.00     0.198 A 
ATOM     72  C   UNL A   1      43.181  25.963  25.724  1.00  0.00     0.198 A 
ATOM     73  F   UNL A   1      43.228  28.178  26.434  1.00  0.00    -0.203 F 
ATOM     74  F   UNL A   1      41.026  23.230  26.655  1.00  0.00    -0.200 F 
ATOM     75  C   UNL A   1      42.622  24.702  25.746  1.00  0.00     0.200 A 
ATOM     76  F   UNL A   1      44.135  26.254  24.827  1.00  0.00    -0.200 F 
ATOM     77  F   UNL A   1      43.017  23.767  24.871  1.00  0.00    -0.200 F 
ENDBRANCH  53  67
BRANCH  54  78
ATOM     78  C   UNL A   1      40.187  33.861  33.986  1.00  0.00     0.064 A 
ATOM     79  C   UNL A   1      39.151  33.024  34.427  1.00  0.00     0.173 A 
ATOM     80  C   UNL A   1      40.394  35.076  34.661  1.00  0.00     0.173 A 
ATOM     81  F   UNL A   1      38.911  31.858  33.803  1.00  0.00    -0.203 F 
ATOM     82  C   UNL A   1      38.573  33.258  35.664  1.00  0.00     0.198 A 
ATOM     83  C   UNL A   1      39.735  35.335  35.861  1.00  0.00     0.198 A 
ATOM     84  F   UNL A   1      41.363  35.913  34.266  1.00  0.00    -0.203 F 
ATOM     85  F   UNL A   1      37.876  32.291  36.254  1.00  0.00    -0.200 F 
ATOM     86  C   UNL A   1      38.875  34.394  36.392  1.00  0.00     0.200 A 
ATOM     87  F   UNL A   1      40.053  36.420  36.581  1.00  0.00    -0.200 F 
ATOM     88  F   UNL A   1      38.411  34.522  37.644  1.00  0.00    -0.200 F 
ENDBRANCH  54  78
BRANCH  66  89
ATOM     89  C   UNL A   1      43.178  27.419  34.092  1.00  0.00     0.064 A 
ATOM     90  C   UNL A   1      44.430  26.851  34.380  1.00  0.00     0.173 A 
ATOM     91  C   UNL A   1      42.060  26.675  34.527  1.00  0.00     0.173 A 
ATOM     92  F   UNL A   1      45.557  27.358  33.859  1.00  0.00    -0.203 F 
ATOM     93  C   UNL A   1      44.558  25.726  35.192  1.00  0.00     0.198 A 
ATOM     94  C   UNL A   1      42.189  25.514  35.280  1.00  0.00     0.198 A 
ATOM     95  F   UNL A   1      40.802  27.046  34.257  1.00  0.00    -0.203 F 
ATOM     96  F   UNL A   1      45.779  25.292  35.531  1.00  0.00    -0.200 F 
ATOM     97  C   UNL A   1      43.437  25.062  35.648  1.00  0.00     0.200 A 
ATOM     98  F   UNL A   1      41.090  24.846  35.656  1.00  0.00    -0.200 F 
ATOM     99  F   UNL A   1      43.559  23.979  36.427  1.00  0.00    -0.200 F 
ENDBRANCH  66  89
ENDBRANCH  40  41
ENDBRANCH  33  35
ENDBRANCH  32  33
ENDBRANCH  31  32
ENDBRANCH  30  31
ENDBRANCH  29  30
ENDBRANCH  28  29
ENDBRANCH   1  28
TORSDOF 20
ENDMDL
MODEL 3
REMARK VINA RESULT:     -11.5      1.720      2.691
REMARK SMILES Cc1ccc([C@@H](CC(=O)OCCOCCOC(=O)c2ccc(-c3c4nc(c(-c5c(F)c(F)c(F)c(F)c5F)c5ccc([nH]5)c(-c5c(F)c(F)c(F)c(F)c5F)c5nc(c(-c6c(F)c(F)c(F)c(F)c6F)c6ccc3[nH]6)C=C5)C=C4)cc2)NC(=O)c2ccc(OC(F)F)cc2)cc1
REMARK SMILES IDX 11 1 10 2 8 3 9 4 7 5 6 6 5 7 1 8 2 9 3 10 96 11 4 12 95 13
REMARK SMILES IDX 82 14 83 15 84 17 85 18 86 19 94 20 87 21 93 22 88 23 89 24
REMARK SMILES IDX 90 25 91 26 92 27 12 28 13 29 14 30 15 31 16 32 17 33 18 34
REMARK SMILES IDX 19 35 20 36 81 37 21 38 80 39 22 40 23 41 24 42 74 43 25 44
REMARK SMILES IDX 79 45 73 46 75 47 26 48 78 49 72 50 71 51 27 53 59 54 39 55
REMARK SMILES IDX 58 56 40 57 43 58 57 59 76 60 41 61 42 62 56 64 77 65 44 66
REMARK SMILES IDX 28 67 29 68 37 69 30 70 31 71 35 72 38 73 32 74 33 75 36 76
REMARK SMILES IDX 34 77 60 78 61 79 69 80 62 81 63 82 67 83 70 84 64 85 65 86
REMARK SMILES IDX 68 87 66 88 45 89 46 90 54 91 47 92 48 93 52 94 55 95 49 96
REMARK SMILES IDX 50 97 53 98 51 99
REMARK H PARENT 82 16 75 52 43 63
REMARK Flexibility Score: inf
ROOT
ATOM      1  C   UNL A   1      31.874  27.897  23.187  1.00  0.00     0.261 C 
ENDROOT
BRANCH   1   2
ATOM      2  O   UNL A   1      31.568  26.799  24.041  1.00  0.00    -0.463 OA
BRANCH   2   3
ATOM      3  C   UNL A   1      31.623  25.567  23.464  1.00  0.00     0.308 C 
ATOM      4  O   UNL A   1      30.676  24.896  23.120  1.00  0.00    -0.252 OA
BRANCH   3   5
ATOM      5  C   UNL A   1      33.060  25.152  23.312  1.00  0.00     0.152 C 
BRANCH   5   6
ATOM      6  C   UNL A   1      33.844  25.252  24.644  1.00  0.00     0.123 C 
BRANCH   6   7
ATOM      7  C   UNL A   1      34.996  24.217  24.684  1.00  0.00    -0.025 A 
ATOM      8  C   UNL A   1      37.700  20.829  25.002  1.00  0.00     0.044 C 
ATOM      9  C   UNL A   1      36.854  22.058  24.831  1.00  0.00    -0.051 A 
ATOM     10  C   UNL A   1      36.808  23.026  25.832  1.00  0.00     0.004 A 
ATOM     11  C   UNL A   1      36.004  22.197  23.731  1.00  0.00     0.004 A 
ATOM     12  C   UNL A   1      35.920  24.103  25.740  1.00  0.00     0.006 A 
ATOM     13  C   UNL A   1      35.092  23.261  23.658  1.00  0.00     0.006 A 
ENDBRANCH   6   7
BRANCH   6  14
ATOM     14  N   UNL A   1      32.998  25.188  25.850  1.00  0.00    -0.345 N 
ATOM     15  C   UNL A   1      32.291  24.188  26.450  1.00  0.00     0.251 C 
ATOM     16  H   UNL A   1      32.930  26.048  26.323  1.00  0.00     0.164 HD
ATOM     17  O   UNL A   1      31.403  24.473  27.250  1.00  0.00    -0.269 OA
BRANCH  15  18
ATOM     18  C   UNL A   1      32.574  22.783  26.165  1.00  0.00     0.040 A 
ATOM     19  C   UNL A   1      31.921  22.161  25.103  1.00  0.00     0.017 A 
ATOM     20  C   UNL A   1      33.385  22.046  27.025  1.00  0.00     0.017 A 
ATOM     21  C   UNL A   1      32.170  20.814  24.845  1.00  0.00     0.047 A 
ATOM     22  C   UNL A   1      33.660  20.709  26.742  1.00  0.00     0.047 A 
ATOM     23  C   UNL A   1      33.070  20.091  25.640  1.00  0.00     0.126 A 
BRANCH  23  24
ATOM     24  O   UNL A   1      33.261  18.795  25.253  1.00  0.00    -0.435 OA
BRANCH  24  25
ATOM     25  C   UNL A   1      33.654  18.561  23.906  1.00  0.00     0.542 C 
ATOM     26  F   UNL A   1      34.785  17.815  23.875  1.00  0.00    -0.167 F 
ATOM     27  F   UNL A   1      32.680  17.889  23.248  1.00  0.00    -0.167 F 
ENDBRANCH  24  25
ENDBRANCH  23  24
ENDBRANCH  15  18
ENDBRANCH   6  14
ENDBRANCH   5   6
ENDBRANCH   3   5
ENDBRANCH   2   3
ENDBRANCH   1   2
BRANCH   1  28
ATOM     28  C   UNL A   1      32.797  28.888  23.834  1.00  0.00     0.202 C 
BRANCH  28  29
ATOM     29  O   UNL A   1      32.511  28.897  25.223  1.00  0.00    -0.374 OA
BRANCH  29  30
ATOM     30  C   UNL A   1      31.483  29.789  25.635  1.00  0.00     0.202 C 
BRANCH  30  31
ATOM     31  C   UNL A   1      31.955  30.990  26.474  1.00  0.00     0.261 C 
BRANCH  31  32
ATOM     32  O   UNL A   1      32.964  30.579  27.425  1.00  0.00    -0.460 OA
BRANCH  32  33
ATOM     33  C   UNL A   1      33.810  31.549  27.877  1.00  0.00     0.338 C 
ATOM     34  O   UNL A   1      33.499  32.709  28.097  1.00  0.00    -0.246 OA
BRANCH  33  35
ATOM     35  C   UNL A   1      35.226  31.082  27.727  1.00  0.00     0.060 A 
ATOM     36  C   UNL A   1      35.531  29.705  27.734  1.00  0.00     0.016 A 
ATOM     37  C   UNL A   1      36.226  32.004  28.001  1.00  0.00     0.016 A 
ATOM     38  C   UNL A   1      36.798  29.255  28.161  1.00  0.00     0.010 A 
ATOM     39  C   UNL A   1      37.385  31.547  28.586  1.00  0.00     0.010 A 
ATOM     40  C   UNL A   1      37.708  30.181  28.660  1.00  0.00    -0.014 A 
BRANCH  40  41
ATOM     41  C   UNL A   1      38.995  29.925  29.330  1.00  0.00     0.031 A 
ATOM     42  C   UNL A   1      39.805  28.762  28.859  1.00  0.00     0.074 A 
ATOM     43  C   UNL A   1      39.626  30.835  30.119  1.00  0.00     0.049 A 
ATOM     44  N   UNL A   1      40.811  28.284  29.512  1.00  0.00    -0.248 NA
ATOM     45  C   UNL A   1      39.543  28.029  27.618  1.00  0.00     0.031 C 
ATOM     46  C   UNL A   1      41.079  30.997  30.236  1.00  0.00     0.029 A 
ATOM     47  N   UNL A   1      39.131  31.824  30.986  1.00  0.00    -0.354 N 
ATOM     48  C   UNL A   1      41.501  27.467  28.649  1.00  0.00     0.074 A 
ATOM     49  C   UNL A   1      40.632  27.271  27.516  1.00  0.00     0.031 C 
ATOM     50  C   UNL A   1      41.364  31.798  31.271  1.00  0.00     0.029 A 
ATOM     51  C   UNL A   1      40.125  32.074  31.958  1.00  0.00     0.049 A 
ATOM     52  H   UNL A   1      38.251  32.261  30.926  1.00  0.00     0.167 HD
ATOM     53  C   UNL A   1      42.806  27.164  28.892  1.00  0.00     0.037 A 
ATOM     54  C   UNL A   1      39.873  32.034  33.296  1.00  0.00     0.037 A 
ATOM     55  C   UNL A   1      43.319  27.879  30.060  1.00  0.00     0.049 A 
ATOM     56  C   UNL A   1      40.730  31.031  33.995  1.00  0.00     0.074 A 
ATOM     57  C   UNL A   1      44.109  29.006  30.224  1.00  0.00     0.029 A 
ATOM     58  N   UNL A   1      42.754  27.647  31.302  1.00  0.00    -0.354 N 
ATOM     59  N   UNL A   1      41.730  30.422  33.429  1.00  0.00    -0.248 NA
ATOM     60  C   UNL A   1      40.411  30.502  35.314  1.00  0.00     0.031 C 
ATOM     61  C   UNL A   1      44.078  29.380  31.599  1.00  0.00     0.029 A 
ATOM     62  C   UNL A   1      43.278  28.478  32.277  1.00  0.00     0.049 A 
ATOM     63  H   UNL A   1      42.062  26.969  31.472  1.00  0.00     0.167 HD
ATOM     64  C   UNL A   1      42.020  29.303  34.149  1.00  0.00     0.074 A 
ATOM     65  C   UNL A   1      41.200  29.419  35.346  1.00  0.00     0.031 C 
ATOM     66  C   UNL A   1      42.828  28.318  33.654  1.00  0.00     0.037 A 
BRANCH  53  67
ATOM     67  C   UNL A   1      43.667  26.430  27.892  1.00  0.00     0.064 A 
ATOM     68  C   UNL A   1      44.444  27.132  26.949  1.00  0.00     0.173 A 
ATOM     69  C   UNL A   1      43.760  25.025  27.807  1.00  0.00     0.173 A 
ATOM     70  F   UNL A   1      44.547  28.466  26.980  1.00  0.00    -0.203 F 
ATOM     71  C   UNL A   1      45.152  26.485  25.935  1.00  0.00     0.198 A 
ATOM     72  C   UNL A   1      44.414  24.380  26.755  1.00  0.00     0.198 A 
ATOM     73  F   UNL A   1      43.256  24.236  28.768  1.00  0.00    -0.203 F 
ATOM     74  F   UNL A   1      45.875  27.208  25.068  1.00  0.00    -0.200 F 
ATOM     75  C   UNL A   1      45.105  25.112  25.812  1.00  0.00     0.200 A 
ATOM     76  F   UNL A   1      44.373  23.043  26.662  1.00  0.00    -0.200 F 
ATOM     77  F   UNL A   1      45.745  24.497  24.808  1.00  0.00    -0.200 F 
ENDBRANCH  53  67
BRANCH  54  78
ATOM     78  C   UNL A   1      38.443  32.325  33.591  1.00  0.00     0.064 A 
ATOM     79  C   UNL A   1      38.103  33.684  33.535  1.00  0.00     0.173 A 
ATOM     80  C   UNL A   1      37.459  31.378  33.261  1.00  0.00     0.173 A 
ATOM     81  F   UNL A   1      39.010  34.623  33.854  1.00  0.00    -0.203 F 
ATOM     82  C   UNL A   1      36.941  34.064  32.882  1.00  0.00     0.198 A 
ATOM     83  C   UNL A   1      36.257  31.785  32.685  1.00  0.00     0.198 A 
ATOM     84  F   UNL A   1      37.736  30.068  33.313  1.00  0.00    -0.203 F 
ATOM     85  F   UNL A   1      36.791  35.328  32.497  1.00  0.00    -0.200 F 
ATOM     86  C   UNL A   1      36.030  33.124  32.438  1.00  0.00     0.200 A 
ATOM     87  F   UNL A   1      35.389  30.872  32.226  1.00  0.00    -0.200 F 
ATOM     88  F   UNL A   1      34.989  33.513  31.687  1.00  0.00    -0.200 F 
ENDBRANCH  54  78
BRANCH  66  89
ATOM     89  C   UNL A   1      43.160  27.082  34.442  1.00  0.00     0.064 A 
ATOM     90  C   UNL A   1      42.186  26.121  34.757  1.00  0.00     0.173 A 
ATOM     91  C   UNL A   1      44.448  26.836  34.966  1.00  0.00     0.173 A 
ATOM     92  F   UNL A   1      40.890  26.330  34.482  1.00  0.00    -0.203 F 
ATOM     93  C   UNL A   1      42.513  24.923  35.390  1.00  0.00     0.198 A 
ATOM     94  C   UNL A   1      44.756  25.671  35.658  1.00  0.00     0.198 A 
ATOM     95  F   UNL A   1      45.459  27.700  34.819  1.00  0.00    -0.203 F 
ATOM     96  F   UNL A   1      41.568  23.989  35.565  1.00  0.00    -0.200 F 
ATOM     97  C   UNL A   1      43.800  24.696  35.835  1.00  0.00     0.200 A 
ATOM     98  F   UNL A   1      45.995  25.499  36.141  1.00  0.00    -0.200 F 
ATOM     99  F   UNL A   1      44.115  23.546  36.445  1.00  0.00    -0.200 F 
ENDBRANCH  66  89
ENDBRANCH  40  41
ENDBRANCH  33  35
ENDBRANCH  32  33
ENDBRANCH  31  32
ENDBRANCH  30  31
ENDBRANCH  29  30
ENDBRANCH  28  29
ENDBRANCH   1  28
TORSDOF 20
ENDMDL
