MODEL 1
REMARK VINA RESULT:     -11.5      0.000      0.000
REMARK SMILES C[C@@H]1CCC[C@]1(Sc1ccc(F)cc1)C(=O)OCCOCCOC(=O)c1ccc(-c2c3nc(c(-c4c(F)c(F)c(F)c(F)c4F)c4ccc([nH]4)c(-c4c(F)c(F)c(F)c(F)c4F)c4nc(c(-c5c(F)c(F)c(F)c(F)c5F)c5ccc2[nH]5)C=C4)C=C3)cc1
REMARK SMILES IDX 20 1 19 2 18 3 17 4 15 5 16 6 6 7 1 8 2 9 3 10 4 11 5 12
REMARK SMILES IDX 7 13 8 14 9 15 14 16 10 17 13 18 11 19 12 20 21 21 22 22
REMARK SMILES IDX 23 23 24 24 25 25 26 26 27 27 88 28 28 29 87 30 29 31 30 32
REMARK SMILES IDX 31 33 81 34 32 35 86 36 80 37 82 38 33 39 85 40 79 41 78 42
REMARK SMILES IDX 34 44 66 45 46 46 65 47 47 48 50 49 64 50 83 51 48 52 49 53
REMARK SMILES IDX 63 55 84 56 51 57 35 58 36 59 44 60 37 61 38 62 42 63 45 64
REMARK SMILES IDX 39 65 40 66 43 67 41 68 67 69 68 70 76 71 69 72 70 73 74 74
REMARK SMILES IDX 77 75 71 76 72 77 75 78 73 79 52 80 53 81 61 82 54 83 55 84
REMARK SMILES IDX 59 85 62 86 56 87 57 88 60 89 58 90
REMARK H PARENT 82 43 50 54
REMARK Flexibility Score: inf
ROOT
ATOM      1  O   UNL A   1      32.696  29.611  24.752  1.00  0.00    -0.374 OA
ENDROOT
BRANCH   1   2
ATOM      2  C   UNL A   1      32.865  28.230  24.447  1.00  0.00     0.202 C 
BRANCH   2   3
ATOM      3  C   UNL A   1      32.718  27.213  25.584  1.00  0.00     0.261 C 
BRANCH   3   4
ATOM      4  O   UNL A   1      33.329  25.931  25.332  1.00  0.00    -0.462 OA
BRANCH   4   5
ATOM      5  C   UNL A   1      32.773  24.901  26.032  1.00  0.00     0.322 C 
ATOM      6  O   UNL A   1      31.885  25.061  26.868  1.00  0.00    -0.251 OA
BRANCH   5   7
ATOM      7  C   UNL A   1      33.425  23.519  25.764  1.00  0.00     0.120 C 
ATOM      8  C   UNL A   1      31.072  22.322  25.676  1.00  0.00     0.010 C 
ATOM      9  C   UNL A   1      32.554  22.310  25.319  1.00  0.00     0.014 C 
ATOM     10  C   UNL A   1      33.184  21.079  26.000  1.00  0.00     0.005 C 
ATOM     11  C   UNL A   1      33.898  21.572  27.242  1.00  0.00     0.002 C 
ATOM     12  C   UNL A   1      34.045  23.078  27.110  1.00  0.00     0.030 C 
BRANCH   7  13
ATOM     13  S   UNL A   1      34.728  23.955  24.451  1.00  0.00    -0.107 SA
BRANCH  13  14
ATOM     14  C   UNL A   1      36.200  23.117  24.979  1.00  0.00     0.009 A 
ATOM     15  C   UNL A   1      36.452  21.798  24.580  1.00  0.00     0.018 A 
ATOM     16  C   UNL A   1      37.162  23.803  25.726  1.00  0.00     0.018 A 
ATOM     17  C   UNL A   1      37.609  21.142  25.005  1.00  0.00     0.040 A 
ATOM     18  C   UNL A   1      38.333  23.157  26.129  1.00  0.00     0.040 A 
ATOM     19  C   UNL A   1      38.536  21.827  25.778  1.00  0.00     0.123 A 
ATOM     20  F   UNL A   1      39.647  21.200  26.186  1.00  0.00    -0.207 F 
ENDBRANCH  13  14
ENDBRANCH   7  13
ENDBRANCH   5   7
ENDBRANCH   4   5
ENDBRANCH   3   4
ENDBRANCH   2   3
ENDBRANCH   1   2
BRANCH   1  21
ATOM     21  C   UNL A   1      31.478  30.002  25.382  1.00  0.00     0.202 C 
BRANCH  21  22
ATOM     22  C   UNL A   1      31.527  31.264  26.256  1.00  0.00     0.261 C 
BRANCH  22  23
ATOM     23  O   UNL A   1      32.460  31.132  27.349  1.00  0.00    -0.460 OA
BRANCH  23  24
ATOM     24  C   UNL A   1      33.270  32.198  27.533  1.00  0.00     0.338 C 
ATOM     25  O   UNL A   1      32.939  33.374  27.623  1.00  0.00    -0.246 OA
BRANCH  24  26
ATOM     26  C   UNL A   1      34.650  31.761  27.818  1.00  0.00     0.060 A 
ATOM     27  C   UNL A   1      34.857  30.386  27.994  1.00  0.00     0.016 A 
ATOM     28  C   UNL A   1      35.696  32.663  28.020  1.00  0.00     0.016 A 
ATOM     29  C   UNL A   1      36.085  29.915  28.449  1.00  0.00     0.010 A 
ATOM     30  C   UNL A   1      36.932  32.188  28.484  1.00  0.00     0.010 A 
ATOM     31  C   UNL A   1      37.114  30.818  28.748  1.00  0.00    -0.014 A 
BRANCH  31  32
ATOM     32  C   UNL A   1      38.294  30.325  29.507  1.00  0.00     0.031 A 
ATOM     33  C   UNL A   1      38.480  30.772  30.934  1.00  0.00     0.074 A 
ATOM     34  C   UNL A   1      39.131  29.415  28.977  1.00  0.00     0.049 A 
ATOM     35  N   UNL A   1      39.406  30.436  31.796  1.00  0.00    -0.248 NA
ATOM     36  C   UNL A   1      37.481  31.716  31.465  1.00  0.00     0.031 C 
ATOM     37  C   UNL A   1      39.023  28.855  27.632  1.00  0.00     0.029 A 
ATOM     38  N   UNL A   1      40.227  28.788  29.517  1.00  0.00    -0.354 N 
ATOM     39  C   UNL A   1      39.099  31.119  32.966  1.00  0.00     0.074 A 
ATOM     40  C   UNL A   1      37.924  31.918  32.697  1.00  0.00     0.031 C 
ATOM     41  C   UNL A   1      40.008  27.957  27.454  1.00  0.00     0.029 A 
ATOM     42  C   UNL A   1      40.833  27.901  28.661  1.00  0.00     0.049 A 
ATOM     43  H   UNL A   1      40.549  28.958  30.432  1.00  0.00     0.167 HD
ATOM     44  C   UNL A   1      39.729  31.071  34.163  1.00  0.00     0.037 A 
ATOM     45  C   UNL A   1      41.931  27.138  28.829  1.00  0.00     0.037 A 
ATOM     46  C   UNL A   1      40.891  30.268  34.441  1.00  0.00     0.049 A 
ATOM     47  C   UNL A   1      42.666  27.170  30.145  1.00  0.00     0.074 A 
ATOM     48  C   UNL A   1      41.598  30.160  35.625  1.00  0.00     0.029 A 
ATOM     49  N   UNL A   1      41.513  29.436  33.524  1.00  0.00    -0.354 N 
ATOM     50  N   UNL A   1      42.369  27.821  31.242  1.00  0.00    -0.248 NA
ATOM     51  C   UNL A   1      43.888  26.357  30.246  1.00  0.00     0.031 C 
ATOM     52  C   UNL A   1      42.677  29.299  35.413  1.00  0.00     0.029 A 
ATOM     53  C   UNL A   1      42.610  28.827  34.112  1.00  0.00     0.049 A 
ATOM     54  H   UNL A   1      41.220  29.298  32.594  1.00  0.00     0.167 HD
ATOM     55  C   UNL A   1      43.346  27.478  32.169  1.00  0.00     0.074 A 
ATOM     56  C   UNL A   1      44.241  26.551  31.509  1.00  0.00     0.031 C 
ATOM     57  C   UNL A   1      43.486  27.894  33.451  1.00  0.00     0.037 A 
BRANCH  44  58
ATOM     58  C   UNL A   1      39.185  31.914  35.279  1.00  0.00     0.064 A 
ATOM     59  C   UNL A   1      39.545  33.265  35.387  1.00  0.00     0.173 A 
ATOM     60  C   UNL A   1      38.380  31.364  36.287  1.00  0.00     0.173 A 
ATOM     61  F   UNL A   1      40.317  33.837  34.451  1.00  0.00    -0.203 F 
ATOM     62  C   UNL A   1      39.136  34.030  36.476  1.00  0.00     0.198 A 
ATOM     63  C   UNL A   1      37.951  32.138  37.362  1.00  0.00     0.198 A 
ATOM     64  F   UNL A   1      37.998  30.080  36.220  1.00  0.00    -0.203 F 
ATOM     65  F   UNL A   1      39.524  35.309  36.579  1.00  0.00    -0.200 F 
ATOM     66  C   UNL A   1      38.339  33.467  37.462  1.00  0.00     0.200 A 
ATOM     67  F   UNL A   1      37.163  31.600  38.302  1.00  0.00    -0.200 F 
ATOM     68  F   UNL A   1      37.944  34.205  38.508  1.00  0.00    -0.200 F 
ENDBRANCH  44  58
BRANCH  45  69
ATOM     69  C   UNL A   1      42.407  26.272  27.718  1.00  0.00     0.064 A 
ATOM     70  C   UNL A   1      43.411  26.706  26.838  1.00  0.00     0.173 A 
ATOM     71  C   UNL A   1      41.873  24.991  27.517  1.00  0.00     0.173 A 
ATOM     72  F   UNL A   1      43.960  27.919  26.991  1.00  0.00    -0.203 F 
ATOM     73  C   UNL A   1      43.847  25.898  25.790  1.00  0.00     0.198 A 
ATOM     74  C   UNL A   1      42.331  24.175  26.485  1.00  0.00     0.198 A 
ATOM     75  F   UNL A   1      40.932  24.521  28.348  1.00  0.00    -0.203 F 
ATOM     76  F   UNL A   1      44.789  26.348  24.948  1.00  0.00    -0.200 F 
ATOM     77  C   UNL A   1      43.312  24.631  25.617  1.00  0.00     0.200 A 
ATOM     78  F   UNL A   1      41.831  22.940  26.340  1.00  0.00    -0.200 F 
ATOM     79  F   UNL A   1      43.746  23.848  24.620  1.00  0.00    -0.200 F 
ENDBRANCH  45  69
BRANCH  57  80
ATOM     80  C   UNL A   1      44.628  27.337  34.251  1.00  0.00     0.064 A 
ATOM     81  C   UNL A   1      44.463  26.158  34.996  1.00  0.00     0.173 A 
ATOM     82  C   UNL A   1      45.853  28.011  34.352  1.00  0.00     0.173 A 
ATOM     83  F   UNL A   1      43.306  25.480  34.941  1.00  0.00    -0.203 F 
ATOM     84  C   UNL A   1      45.477  25.684  35.823  1.00  0.00     0.198 A 
ATOM     85  C   UNL A   1      46.875  27.519  35.160  1.00  0.00     0.198 A 
ATOM     86  F   UNL A   1      46.063  29.137  33.654  1.00  0.00    -0.203 F 
ATOM     87  F   UNL A   1      45.283  24.577  36.554  1.00  0.00    -0.200 F 
ATOM     88  C   UNL A   1      46.683  26.363  35.902  1.00  0.00     0.200 A 
ATOM     89  F   UNL A   1      48.048  28.164  35.219  1.00  0.00    -0.200 F 
ATOM     90  F   UNL A   1      47.662  25.903  36.695  1.00  0.00    -0.200 F 
ENDBRANCH  57  80
ENDBRANCH  31  32
ENDBRANCH  24  26
ENDBRANCH  23  24
ENDBRANCH  22  23
ENDBRANCH  21  22
ENDBRANCH   1  21
TORSDOF 16
ENDMDL
MODEL 2
REMARK VINA RESULT:     -11.1      1.284      2.503
REMARK SMILES C[C@@H]1CCC[C@]1(Sc1ccc(F)cc1)C(=O)OCCOCCOC(=O)c1ccc(-c2c3nc(c(-c4c(F)c(F)c(F)c(F)c4F)c4ccc([nH]4)c(-c4c(F)c(F)c(F)c(F)c4F)c4nc(c(-c5c(F)c(F)c(F)c(F)c5F)c5ccc2[nH]5)C=C4)C=C3)cc1
REMARK SMILES IDX 20 1 19 2 18 3 17 4 15 5 16 6 6 7 1 8 2 9 3 10 4 11 5 12
REMARK SMILES IDX 7 13 8 14 9 15 14 16 10 17 13 18 11 19 12 20 21 21 22 22
REMARK SMILES IDX 23 23 24 24 25 25 26 26 27 27 88 28 28 29 87 30 29 31 30 32
REMARK SMILES IDX 31 33 81 34 32 35 86 36 80 37 82 38 33 39 85 40 79 41 78 42
REMARK SMILES IDX 34 44 66 45 46 46 65 47 47 48 50 49 64 50 83 51 48 52 49 53
REMARK SMILES IDX 63 55 84 56 51 57 35 58 36 59 44 60 37 61 38 62 42 63 45 64
REMARK SMILES IDX 39 65 40 66 43 67 41 68 67 69 68 70 76 71 69 72 70 73 74 74
REMARK SMILES IDX 77 75 71 76 72 77 75 78 73 79 52 80 53 81 61 82 54 83 55 84
REMARK SMILES IDX 59 85 62 86 56 87 57 88 60 89 58 90
REMARK H PARENT 82 43 50 54
REMARK Flexibility Score: inf
ROOT
ATOM      1  O   UNL A   1      32.749  28.530  25.953  1.00  0.00    -0.374 OA
ENDROOT
BRANCH   1   2
ATOM      2  C   UNL A   1      31.823  27.656  26.589  1.00  0.00     0.202 C 
BRANCH   2   3
ATOM      3  C   UNL A   1      30.769  26.959  25.722  1.00  0.00     0.261 C 
BRANCH   3   4
ATOM      4  O   UNL A   1      30.844  25.519  25.719  1.00  0.00    -0.462 OA
BRANCH   4   5
ATOM      5  C   UNL A   1      31.025  24.972  24.483  1.00  0.00     0.322 C 
ATOM      6  O   UNL A   1      30.179  25.034  23.593  1.00  0.00    -0.251 OA
BRANCH   5   7
ATOM      7  C   UNL A   1      32.344  24.171  24.325  1.00  0.00     0.120 C 
ATOM      8  C   UNL A   1      33.658  26.317  23.521  1.00  0.00     0.010 C 
ATOM      9  C   UNL A   1      33.694  24.912  24.112  1.00  0.00     0.014 C 
ATOM     10  C   UNL A   1      34.502  24.024  23.145  1.00  0.00     0.005 C 
ATOM     11  C   UNL A   1      33.503  23.223  22.335  1.00  0.00     0.002 C 
ATOM     12  C   UNL A   1      32.166  23.314  23.050  1.00  0.00     0.030 C 
BRANCH   7  13
ATOM     13  S   UNL A   1      32.364  23.139  25.921  1.00  0.00    -0.107 SA
BRANCH  13  14
ATOM     14  C   UNL A   1      33.010  21.560  25.430  1.00  0.00     0.009 A 
ATOM     15  C   UNL A   1      32.153  20.546  24.984  1.00  0.00     0.018 A 
ATOM     16  C   UNL A   1      34.393  21.352  25.402  1.00  0.00     0.018 A 
ATOM     17  C   UNL A   1      32.667  19.304  24.606  1.00  0.00     0.040 A 
ATOM     18  C   UNL A   1      34.910  20.119  24.998  1.00  0.00     0.040 A 
ATOM     19  C   UNL A   1      34.041  19.102  24.620  1.00  0.00     0.123 A 
ATOM     20  F   UNL A   1      34.536  17.912  24.257  1.00  0.00    -0.207 F 
ENDBRANCH  13  14
ENDBRANCH   7  13
ENDBRANCH   5   7
ENDBRANCH   4   5
ENDBRANCH   3   4
ENDBRANCH   2   3
ENDBRANCH   1   2
BRANCH   1  21
ATOM     21  C   UNL A   1      32.237  29.733  25.384  1.00  0.00     0.202 C 
BRANCH  21  22
ATOM     22  C   UNL A   1      31.778  30.820  26.367  1.00  0.00     0.261 C 
BRANCH  22  23
ATOM     23  O   UNL A   1      32.614  30.879  27.542  1.00  0.00    -0.460 OA
BRANCH  23  24
ATOM     24  C   UNL A   1      33.417  31.965  27.611  1.00  0.00     0.338 C 
ATOM     25  O   UNL A   1      33.075  33.140  27.610  1.00  0.00    -0.246 OA
BRANCH  24  26
ATOM     26  C   UNL A   1      34.809  31.566  27.893  1.00  0.00     0.060 A 
ATOM     27  C   UNL A   1      35.058  30.196  28.047  1.00  0.00     0.016 A 
ATOM     28  C   UNL A   1      35.825  32.498  28.111  1.00  0.00     0.016 A 
ATOM     29  C   UNL A   1      36.299  29.756  28.497  1.00  0.00     0.010 A 
ATOM     30  C   UNL A   1      37.075  32.054  28.570  1.00  0.00     0.010 A 
ATOM     31  C   UNL A   1      37.300  30.686  28.813  1.00  0.00    -0.014 A 
BRANCH  31  32
ATOM     32  C   UNL A   1      38.493  30.218  29.567  1.00  0.00     0.031 A 
ATOM     33  C   UNL A   1      38.685  30.684  30.987  1.00  0.00     0.074 A 
ATOM     34  C   UNL A   1      39.337  29.313  29.040  1.00  0.00     0.049 A 
ATOM     35  N   UNL A   1      39.623  30.370  31.845  1.00  0.00    -0.248 NA
ATOM     36  C   UNL A   1      37.679  31.620  31.516  1.00  0.00     0.031 C 
ATOM     37  C   UNL A   1      39.225  28.736  27.703  1.00  0.00     0.029 A 
ATOM     38  N   UNL A   1      40.447  28.707  29.577  1.00  0.00    -0.354 N 
ATOM     39  C   UNL A   1      39.318  31.063  33.010  1.00  0.00     0.074 A 
ATOM     40  C   UNL A   1      38.129  31.843  32.742  1.00  0.00     0.031 C 
ATOM     41  C   UNL A   1      40.221  27.850  27.527  1.00  0.00     0.029 A 
ATOM     42  C   UNL A   1      41.057  27.820  28.726  1.00  0.00     0.049 A 
ATOM     43  H   UNL A   1      40.774  28.893  30.487  1.00  0.00     0.167 HD
ATOM     44  C   UNL A   1      39.959  31.038  34.201  1.00  0.00     0.037 A 
ATOM     45  C   UNL A   1      42.168  27.073  28.893  1.00  0.00     0.037 A 
ATOM     46  C   UNL A   1      41.134  30.254  34.477  1.00  0.00     0.049 A 
ATOM     47  C   UNL A   1      42.913  27.130  30.202  1.00  0.00     0.074 A 
ATOM     48  C   UNL A   1      41.853  30.169  35.657  1.00  0.00     0.029 A 
ATOM     49  N   UNL A   1      41.760  29.420  33.565  1.00  0.00    -0.354 N 
ATOM     50  N   UNL A   1      42.617  27.791  31.294  1.00  0.00    -0.248 NA
ATOM     51  C   UNL A   1      44.148  26.336  30.301  1.00  0.00     0.031 C 
ATOM     52  C   UNL A   1      42.942  29.320  35.445  1.00  0.00     0.029 A 
ATOM     53  C   UNL A   1      42.870  28.833  34.149  1.00  0.00     0.049 A 
ATOM     54  H   UNL A   1      41.460  29.267  32.639  1.00  0.00     0.167 HD
ATOM     55  C   UNL A   1      43.607  27.471  32.216  1.00  0.00     0.074 A 
ATOM     56  C   UNL A   1      44.509  26.549  31.559  1.00  0.00     0.031 C 
ATOM     57  C   UNL A   1      43.753  27.904  33.492  1.00  0.00     0.037 A 
BRANCH  44  58
ATOM     58  C   UNL A   1      39.413  31.886  35.312  1.00  0.00     0.064 A 
ATOM     59  C   UNL A   1      39.815  33.223  35.446  1.00  0.00     0.173 A 
ATOM     60  C   UNL A   1      38.563  31.352  36.292  1.00  0.00     0.173 A 
ATOM     61  F   UNL A   1      40.631  33.779  34.537  1.00  0.00    -0.203 F 
ATOM     62  C   UNL A   1      39.403  33.989  36.532  1.00  0.00     0.198 A 
ATOM     63  C   UNL A   1      38.131  32.129  37.364  1.00  0.00     0.198 A 
ATOM     64  F   UNL A   1      38.141  30.082  36.199  1.00  0.00    -0.203 F 
ATOM     65  F   UNL A   1      39.830  35.253  36.661  1.00  0.00    -0.200 F 
ATOM     66  C   UNL A   1      38.561  33.442  37.490  1.00  0.00     0.200 A 
ATOM     67  F   UNL A   1      37.301  31.607  38.276  1.00  0.00    -0.200 F 
ATOM     68  F   UNL A   1      38.163  34.181  38.534  1.00  0.00    -0.200 F 
ENDBRANCH  44  58
BRANCH  45  69
ATOM     69  C   UNL A   1      42.645  26.201  27.788  1.00  0.00     0.064 A 
ATOM     70  C   UNL A   1      42.123  24.911  27.604  1.00  0.00     0.173 A 
ATOM     71  C   UNL A   1      43.626  26.641  26.889  1.00  0.00     0.173 A 
ATOM     72  F   UNL A   1      41.178  24.444  28.432  1.00  0.00    -0.203 F 
ATOM     73  C   UNL A   1      42.580  24.090  26.575  1.00  0.00     0.198 A 
ATOM     74  C   UNL A   1      44.061  25.829  25.844  1.00  0.00     0.198 A 
ATOM     75  F   UNL A   1      44.135  27.876  27.006  1.00  0.00    -0.203 F 
ATOM     76  F   UNL A   1      42.084  22.852  26.439  1.00  0.00    -0.200 F 
ATOM     77  C   UNL A   1      43.544  24.551  25.692  1.00  0.00     0.200 A 
ATOM     78  F   UNL A   1      44.971  26.289  24.975  1.00  0.00    -0.200 F 
ATOM     79  F   UNL A   1      43.969  23.767  24.691  1.00  0.00    -0.200 F 
ENDBRANCH  45  69
BRANCH  57  80
ATOM     80  C   UNL A   1      44.909  27.372  34.288  1.00  0.00     0.064 A 
ATOM     81  C   UNL A   1      46.149  28.031  34.264  1.00  0.00     0.173 A 
ATOM     82  C   UNL A   1      44.819  26.169  35.001  1.00  0.00     0.173 A 
ATOM     83  F   UNL A   1      46.290  29.181  33.588  1.00  0.00    -0.203 F 
ATOM     84  C   UNL A   1      47.258  27.496  34.912  1.00  0.00     0.198 A 
ATOM     85  C   UNL A   1      45.924  25.650  35.671  1.00  0.00     0.198 A 
ATOM     86  F   UNL A   1      43.654  25.506  35.062  1.00  0.00    -0.203 F 
ATOM     87  F   UNL A   1      48.441  28.123  34.843  1.00  0.00    -0.200 F 
ATOM     88  C   UNL A   1      47.145  26.307  35.617  1.00  0.00     0.200 A 
ATOM     89  F   UNL A   1      45.808  24.513  36.371  1.00  0.00    -0.200 F 
ATOM     90  F   UNL A   1      48.212  25.795  36.246  1.00  0.00    -0.200 F 
ENDBRANCH  57  80
ENDBRANCH  31  32
ENDBRANCH  24  26
ENDBRANCH  23  24
ENDBRANCH  22  23
ENDBRANCH  21  22
ENDBRANCH   1  21
TORSDOF 16
ENDMDL
MODEL 3
REMARK VINA RESULT:     -11.1      0.786      7.560
REMARK SMILES C[C@@H]1CCC[C@]1(Sc1ccc(F)cc1)C(=O)OCCOCCOC(=O)c1ccc(-c2c3nc(c(-c4c(F)c(F)c(F)c(F)c4F)c4ccc([nH]4)c(-c4c(F)c(F)c(F)c(F)c4F)c4nc(c(-c5c(F)c(F)c(F)c(F)c5F)c5ccc2[nH]5)C=C4)C=C3)cc1
REMARK SMILES IDX 20 1 19 2 18 3 17 4 15 5 16 6 6 7 1 8 2 9 3 10 4 11 5 12
REMARK SMILES IDX 7 13 8 14 9 15 14 16 10 17 13 18 11 19 12 20 21 21 22 22
REMARK SMILES IDX 23 23 24 24 25 25 26 26 27 27 88 28 28 29 87 30 29 31 30 32
REMARK SMILES IDX 31 33 81 34 32 35 86 36 80 37 82 38 33 39 85 40 79 41 78 42
REMARK SMILES IDX 34 44 66 45 46 46 65 47 47 48 50 49 64 50 83 51 48 52 49 53
REMARK SMILES IDX 63 55 84 56 51 57 35 58 36 59 44 60 37 61 38 62 42 63 45 64
REMARK SMILES IDX 39 65 40 66 43 67 41 68 67 69 68 70 76 71 69 72 70 73 74 74
REMARK SMILES IDX 77 75 71 76 72 77 75 78 73 79 52 80 53 81 61 82 54 83 55 84
REMARK SMILES IDX 59 85 62 86 56 87 57 88 60 89 58 90
REMARK H PARENT 82 43 50 54
REMARK Flexibility Score: inf
ROOT
ATOM      1  O   UNL A   1      32.617  28.680  24.272  1.00  0.00    -0.374 OA
ENDROOT
BRANCH   1   2
ATOM      2  C   UNL A   1      32.742  27.290  23.992  1.00  0.00     0.202 C 
BRANCH   2   3
ATOM      3  C   UNL A   1      34.010  26.567  24.461  1.00  0.00     0.261 C 
BRANCH   3   4
ATOM      4  O   UNL A   1      34.134  25.205  24.005  1.00  0.00    -0.462 OA
BRANCH   4   5
ATOM      5  C   UNL A   1      33.885  24.270  24.967  1.00  0.00     0.322 C 
ATOM      6  O   UNL A   1      33.616  24.562  26.131  1.00  0.00    -0.251 OA
BRANCH   5   7
ATOM      7  C   UNL A   1      34.073  22.803  24.498  1.00  0.00     0.120 C 
ATOM      8  C   UNL A   1      31.520  22.585  23.855  1.00  0.00     0.010 C 
ATOM      9  C   UNL A   1      32.951  22.083  23.698  1.00  0.00     0.014 C 
ATOM     10  C   UNL A   1      32.982  20.618  24.177  1.00  0.00     0.005 C 
ATOM     11  C   UNL A   1      33.562  20.618  25.576  1.00  0.00     0.002 C 
ATOM     12  C   UNL A   1      34.231  21.965  25.788  1.00  0.00     0.030 C 
BRANCH   7  13
ATOM     13  S   UNL A   1      35.677  22.923  23.486  1.00  0.00    -0.107 SA
BRANCH  13  14
ATOM     14  C   UNL A   1      36.977  22.698  24.672  1.00  0.00     0.009 A 
ATOM     15  C   UNL A   1      37.624  21.461  24.796  1.00  0.00     0.018 A 
ATOM     16  C   UNL A   1      37.425  23.785  25.430  1.00  0.00     0.018 A 
ATOM     17  C   UNL A   1      38.641  21.289  25.737  1.00  0.00     0.040 A 
ATOM     18  C   UNL A   1      38.461  23.621  26.351  1.00  0.00     0.040 A 
ATOM     19  C   UNL A   1      39.047  22.370  26.508  1.00  0.00     0.123 A 
ATOM     20  F   UNL A   1      40.024  22.207  27.409  1.00  0.00    -0.207 F 
ENDBRANCH  13  14
ENDBRANCH   7  13
ENDBRANCH   5   7
ENDBRANCH   4   5
ENDBRANCH   3   4
ENDBRANCH   2   3
ENDBRANCH   1   2
BRANCH   1  21
ATOM     21  C   UNL A   1      31.561  29.086  25.140  1.00  0.00     0.202 C 
BRANCH  21  22
ATOM     22  C   UNL A   1      31.680  30.483  25.766  1.00  0.00     0.261 C 
BRANCH  22  23
ATOM     23  O   UNL A   1      32.423  30.465  27.002  1.00  0.00    -0.460 OA
BRANCH  23  24
ATOM     24  C   UNL A   1      33.136  31.586  27.251  1.00  0.00     0.338 C 
ATOM     25  O   UNL A   1      32.719  32.737  27.283  1.00  0.00    -0.246 OA
BRANCH  24  26
ATOM     26  C   UNL A   1      34.504  31.248  27.688  1.00  0.00     0.060 A 
ATOM     27  C   UNL A   1      34.785  29.892  27.901  1.00  0.00     0.016 A 
ATOM     28  C   UNL A   1      35.455  32.223  27.992  1.00  0.00     0.016 A 
ATOM     29  C   UNL A   1      35.986  29.510  28.491  1.00  0.00     0.010 A 
ATOM     30  C   UNL A   1      36.664  31.837  28.592  1.00  0.00     0.010 A 
ATOM     31  C   UNL A   1      36.911  30.484  28.890  1.00  0.00    -0.014 A 
BRANCH  31  32
ATOM     32  C   UNL A   1      38.034  30.079  29.777  1.00  0.00     0.031 A 
ATOM     33  C   UNL A   1      39.115  29.187  29.223  1.00  0.00     0.074 A 
ATOM     34  C   UNL A   1      38.150  30.577  31.021  1.00  0.00     0.049 A 
ATOM     35  N   UNL A   1      40.205  28.747  29.799  1.00  0.00    -0.248 NA
ATOM     36  C   UNL A   1      38.951  28.741  27.829  1.00  0.00     0.031 C 
ATOM     37  C   UNL A   1      37.207  31.498  31.651  1.00  0.00     0.029 A 
ATOM     38  N   UNL A   1      39.125  30.390  31.971  1.00  0.00    -0.354 N 
ATOM     39  C   UNL A   1      40.855  27.980  28.840  1.00  0.00     0.074 A 
ATOM     40  C   UNL A   1      40.023  27.982  27.657  1.00  0.00     0.031 C 
ATOM     41  C   UNL A   1      37.655  31.806  32.881  1.00  0.00     0.029 A 
ATOM     42  C   UNL A   1      38.899  31.080  33.136  1.00  0.00     0.049 A 
ATOM     43  H   UNL A   1      39.911  29.814  31.830  1.00  0.00     0.167 HD
ATOM     44  C   UNL A   1      42.048  27.347  28.931  1.00  0.00     0.037 A 
ATOM     45  C   UNL A   1      39.612  31.117  34.281  1.00  0.00     0.037 A 
ATOM     46  C   UNL A   1      42.885  27.351  30.101  1.00  0.00     0.049 A 
ATOM     47  C   UNL A   1      40.893  30.331  34.386  1.00  0.00     0.074 A 
ATOM     48  C   UNL A   1      44.110  26.733  30.284  1.00  0.00     0.029 A 
ATOM     49  N   UNL A   1      42.587  28.008  31.284  1.00  0.00    -0.354 N 
ATOM     50  N   UNL A   1      41.497  29.607  33.475  1.00  0.00    -0.248 NA
ATOM     51  C   UNL A   1      41.594  30.367  35.679  1.00  0.00     0.031 C 
ATOM     52  C   UNL A   1      44.531  26.975  31.594  1.00  0.00     0.029 A 
ATOM     53  C   UNL A   1      43.595  27.791  32.210  1.00  0.00     0.049 A 
ATOM     54  H   UNL A   1      41.779  28.548  31.443  1.00  0.00     0.167 HD
ATOM     55  C   UNL A   1      42.657  29.128  34.071  1.00  0.00     0.074 A 
ATOM     56  C   UNL A   1      42.680  29.651  35.421  1.00  0.00     0.031 C 
ATOM     57  C   UNL A   1      43.616  28.328  33.545  1.00  0.00     0.037 A 
BRANCH  44  58
ATOM     58  C   UNL A   1      42.531  26.583  27.733  1.00  0.00     0.064 A 
ATOM     59  C   UNL A   1      42.159  25.242  27.550  1.00  0.00     0.173 A 
ATOM     60  C   UNL A   1      43.430  27.147  26.818  1.00  0.00     0.173 A 
ATOM     61  F   UNL A   1      41.305  24.655  28.402  1.00  0.00    -0.203 F 
ATOM     62  C   UNL A   1      42.686  24.489  26.505  1.00  0.00     0.198 A 
ATOM     63  C   UNL A   1      43.936  26.399  25.758  1.00  0.00     0.198 A 
ATOM     64  F   UNL A   1      43.806  28.429  26.944  1.00  0.00    -0.203 F 
ATOM     65  F   UNL A   1      42.347  23.200  26.371  1.00  0.00    -0.200 F 
ATOM     66  C   UNL A   1      43.574  25.068  25.610  1.00  0.00     0.200 A 
ATOM     67  F   UNL A   1      44.776  26.965  24.881  1.00  0.00    -0.200 F 
ATOM     68  F   UNL A   1      44.079  24.343  24.602  1.00  0.00    -0.200 F 
ENDBRANCH  44  58
BRANCH  45  69
ATOM     69  C   UNL A   1      39.128  31.933  35.426  1.00  0.00     0.064 A 
ATOM     70  C   UNL A   1      38.318  31.372  36.426  1.00  0.00     0.173 A 
ATOM     71  C   UNL A   1      39.472  33.286  35.549  1.00  0.00     0.173 A 
ATOM     72  F   UNL A   1      37.966  30.080  36.359  1.00  0.00    -0.203 F 
ATOM     73  C   UNL A   1      37.856  32.140  37.492  1.00  0.00     0.198 A 
ATOM     74  C   UNL A   1      39.031  34.045  36.631  1.00  0.00     0.198 A 
ATOM     75  F   UNL A   1      40.267  33.860  34.635  1.00  0.00    -0.203 F 
ATOM     76  F   UNL A   1      37.061  31.585  38.419  1.00  0.00    -0.200 F 
ATOM     77  C   UNL A   1      38.217  33.474  37.598  1.00  0.00     0.200 A 
ATOM     78  F   UNL A   1      39.407  35.326  36.745  1.00  0.00    -0.200 F 
ATOM     79  F   UNL A   1      37.787  34.207  38.635  1.00  0.00    -0.200 F 
ENDBRANCH  45  69
BRANCH  57  80
ATOM     80  C   UNL A   1      44.795  27.982  34.408  1.00  0.00     0.064 A 
ATOM     81  C   UNL A   1      45.950  28.781  34.383  1.00  0.00     0.173 A 
ATOM     82  C   UNL A   1      44.817  26.820  35.191  1.00  0.00     0.173 A 
ATOM     83  F   UNL A   1      45.983  29.899  33.643  1.00  0.00    -0.203 F 
ATOM     84  C   UNL A   1      47.088  28.418  35.097  1.00  0.00     0.198 A 
ATOM     85  C   UNL A   1      45.948  26.474  35.926  1.00  0.00     0.198 A 
ATOM     86  F   UNL A   1      43.736  26.028  35.255  1.00  0.00    -0.203 F 
ATOM     87  F   UNL A   1      48.192  29.175  35.028  1.00  0.00    -0.200 F 
ATOM     88  C   UNL A   1      47.086  27.266  35.870  1.00  0.00     0.200 A 
ATOM     89  F   UNL A   1      45.938  25.373  36.689  1.00  0.00    -0.200 F 
ATOM     90  F   UNL A   1      48.180  26.920  36.563  1.00  0.00    -0.200 F 
ENDBRANCH  57  80
ENDBRANCH  31  32
ENDBRANCH  24  26
ENDBRANCH  23  24
ENDBRANCH  22  23
ENDBRANCH  21  22
ENDBRANCH   1  21
TORSDOF 16
ENDMDL
