MODEL 1
REMARK VINA RESULT:     -13.8      0.000      0.000
REMARK SMILES O=C(OCCOCCOC(=O)[C@H]1CCCN(c2cc(-c3ccccn3)nc(-c3ccccc3F)n2)C1)c1ccc(-c2c3nc(c(-c4c(F)c(F)c(F)c(F)c4F)c4ccc([nH]4)c(-c4c(F)c(F)c(F)c(F)c4F)c4nc(c(-c5c(F)c(F)c(F)c(F)c5F)c5ccc2[nH]5)C=C4)C=C3)cc1
REMARK SMILES IDX 6 1 5 2 4 3 3 4 2 5 1 6 37 7 38 8 99 9 39 10 98 11 40 12
REMARK SMILES IDX 41 13 42 14 92 15 43 16 97 17 91 18 93 19 44 20 96 21 90 22
REMARK SMILES IDX 89 23 45 25 77 26 57 27 76 28 58 29 61 30 75 31 94 32 59 33
REMARK SMILES IDX 60 34 74 36 95 37 62 38 46 39 47 40 55 41 48 42 49 43 53 44
REMARK SMILES IDX 56 45 50 46 51 47 54 48 52 49 78 50 79 51 87 52 80 53 81 54
REMARK SMILES IDX 85 55 88 56 82 57 83 58 86 59 84 60 63 61 64 62 72 63 65 64
REMARK SMILES IDX 66 65 70 66 73 67 67 68 68 69 71 70 69 71 7 72 8 73 9 74
REMARK SMILES IDX 10 75 11 76 12 77 13 78 36 79 14 80 16 81 15 82 17 83 18 84
REMARK SMILES IDX 35 85 19 86 27 87 26 88 20 89 21 90 25 91 22 92 24 93 23 94
REMARK SMILES IDX 28 95 29 96 33 97 30 98 32 99 34 100 31 101
REMARK H PARENT 93 24 61 35
REMARK Flexibility Score: inf
ROOT
ATOM      1  O   UNL A   1      34.057  20.957  25.782  1.00  0.00    -0.374 OA
ENDROOT
BRANCH   1   2
ATOM      2  C   UNL A   1      35.055  21.525  24.935  1.00  0.00     0.202 C 
BRANCH   2   3
ATOM      3  C   UNL A   1      36.459  20.923  25.024  1.00  0.00     0.261 C 
BRANCH   3   4
ATOM      4  O   UNL A   1      37.229  21.611  26.016  1.00  0.00    -0.460 OA
BRANCH   4   5
ATOM      5  C   UNL A   1      38.578  21.667  26.080  1.00  0.00     0.338 C 
ATOM      6  O   UNL A   1      39.246  20.705  25.706  1.00  0.00    -0.246 OA
BRANCH   5   7
ATOM      7  C   UNL A   1      39.296  22.899  26.501  1.00  0.00     0.060 A 
ATOM      8  C   UNL A   1      38.970  24.192  26.086  1.00  0.00     0.016 A 
ATOM      9  C   UNL A   1      40.330  22.738  27.432  1.00  0.00     0.016 A 
ATOM     10  C   UNL A   1      39.654  25.295  26.532  1.00  0.00     0.010 A 
ATOM     11  C   UNL A   1      41.023  23.847  27.910  1.00  0.00     0.010 A 
ATOM     12  C   UNL A   1      40.678  25.121  27.445  1.00  0.00    -0.014 A 
BRANCH  12  13
ATOM     13  C   UNL A   1      41.461  26.306  27.770  1.00  0.00     0.031 A 
ATOM     14  C   UNL A   1      40.830  27.312  28.664  1.00  0.00     0.074 A 
ATOM     15  C   UNL A   1      42.744  26.361  27.384  1.00  0.00     0.049 A 
ATOM     16  N   UNL A   1      41.237  28.507  28.973  1.00  0.00    -0.248 NA
ATOM     17  C   UNL A   1      39.565  26.912  29.309  1.00  0.00     0.031 C 
ATOM     18  C   UNL A   1      43.460  25.288  26.686  1.00  0.00     0.029 A 
ATOM     19  N   UNL A   1      43.676  27.344  27.539  1.00  0.00    -0.354 N 
ATOM     20  C   UNL A   1      40.250  29.028  29.792  1.00  0.00     0.074 A 
ATOM     21  C   UNL A   1      39.237  28.014  29.962  1.00  0.00     0.031 C 
ATOM     22  C   UNL A   1      44.724  25.680  26.466  1.00  0.00     0.029 A 
ATOM     23  C   UNL A   1      44.864  27.058  26.919  1.00  0.00     0.049 A 
ATOM     24  H   UNL A   1      43.512  28.172  28.045  1.00  0.00     0.167 HD
ATOM     25  C   UNL A   1      40.207  30.272  30.316  1.00  0.00     0.037 A 
ATOM     26  C   UNL A   1      45.912  27.867  26.685  1.00  0.00     0.037 A 
ATOM     27  C   UNL A   1      41.263  31.221  30.100  1.00  0.00     0.049 A 
ATOM     28  C   UNL A   1      45.802  29.283  27.175  1.00  0.00     0.074 A 
ATOM     29  C   UNL A   1      41.343  32.536  30.509  1.00  0.00     0.029 A 
ATOM     30  N   UNL A   1      42.434  30.937  29.401  1.00  0.00    -0.354 N 
ATOM     31  N   UNL A   1      44.825  29.838  27.856  1.00  0.00    -0.248 NA
ATOM     32  C   UNL A   1      46.905  30.191  26.852  1.00  0.00     0.031 C 
ATOM     33  C   UNL A   1      42.535  33.064  30.004  1.00  0.00     0.029 A 
ATOM     34  C   UNL A   1      43.234  32.060  29.342  1.00  0.00     0.049 A 
ATOM     35  H   UNL A   1      42.657  30.063  29.007  1.00  0.00     0.167 HD
ATOM     36  C   UNL A   1      45.196  31.156  28.061  1.00  0.00     0.074 A 
ATOM     37  C   UNL A   1      46.495  31.315  27.429  1.00  0.00     0.031 C 
ATOM     38  C   UNL A   1      44.532  32.144  28.709  1.00  0.00     0.037 A 
BRANCH  25  39
ATOM     39  C   UNL A   1      38.958  30.673  31.038  1.00  0.00     0.064 A 
ATOM     40  C   UNL A   1      38.863  30.478  32.425  1.00  0.00     0.173 A 
ATOM     41  C   UNL A   1      37.878  31.291  30.391  1.00  0.00     0.173 A 
ATOM     42  F   UNL A   1      39.873  29.906  33.098  1.00  0.00    -0.203 F 
ATOM     43  C   UNL A   1      37.737  30.884  33.135  1.00  0.00     0.198 A 
ATOM     44  C   UNL A   1      36.765  31.727  31.110  1.00  0.00     0.198 A 
ATOM     45  F   UNL A   1      37.930  31.537  29.073  1.00  0.00    -0.203 F 
ATOM     46  F   UNL A   1      37.672  30.680  34.457  1.00  0.00    -0.200 F 
ATOM     47  C   UNL A   1      36.694  31.519  32.479  1.00  0.00     0.200 A 
ATOM     48  F   UNL A   1      35.777  32.379  30.481  1.00  0.00    -0.200 F 
ATOM     49  F   UNL A   1      35.627  31.945  33.170  1.00  0.00    -0.200 F 
ENDBRANCH  25  39
BRANCH  26  50
ATOM     50  C   UNL A   1      47.071  27.349  25.917  1.00  0.00     0.064 A 
ATOM     51  C   UNL A   1      48.147  26.715  26.564  1.00  0.00     0.173 A 
ATOM     52  C   UNL A   1      47.185  27.573  24.540  1.00  0.00     0.173 A 
ATOM     53  F   UNL A   1      48.095  26.484  27.884  1.00  0.00    -0.203 F 
ATOM     54  C   UNL A   1      49.305  26.367  25.871  1.00  0.00     0.198 A 
ATOM     55  C   UNL A   1      48.334  27.199  23.842  1.00  0.00     0.198 A 
ATOM     56  F   UNL A   1      46.183  28.164  23.874  1.00  0.00    -0.203 F 
ATOM     57  F   UNL A   1      50.338  25.820  26.527  1.00  0.00    -0.200 F 
ATOM     58  C   UNL A   1      49.398  26.610  24.511  1.00  0.00     0.200 A 
ATOM     59  F   UNL A   1      48.417  27.423  22.524  1.00  0.00    -0.200 F 
ATOM     60  F   UNL A   1      50.514  26.282  23.845  1.00  0.00    -0.200 F 
ENDBRANCH  26  50
BRANCH  38  61
ATOM     61  C   UNL A   1      45.209  33.474  28.811  1.00  0.00     0.064 A 
ATOM     62  C   UNL A   1      45.925  33.801  29.972  1.00  0.00     0.173 A 
ATOM     63  C   UNL A   1      45.000  34.471  27.849  1.00  0.00     0.173 A 
ATOM     64  F   UNL A   1      46.133  32.876  30.921  1.00  0.00    -0.203 F 
ATOM     65  C   UNL A   1      46.371  35.099  30.187  1.00  0.00     0.198 A 
ATOM     66  C   UNL A   1      45.475  35.761  28.057  1.00  0.00     0.198 A 
ATOM     67  F   UNL A   1      44.328  34.194  26.722  1.00  0.00    -0.203 F 
ATOM     68  F   UNL A   1      46.992  35.408  31.334  1.00  0.00    -0.200 F 
ATOM     69  C   UNL A   1      46.141  36.078  29.233  1.00  0.00     0.200 A 
ATOM     70  F   UNL A   1      45.268  36.705  27.129  1.00  0.00    -0.200 F 
ATOM     71  F   UNL A   1      46.555  37.334  29.451  1.00  0.00    -0.200 F 
ENDBRANCH  38  61
ENDBRANCH  12  13
ENDBRANCH   5   7
ENDBRANCH   4   5
ENDBRANCH   3   4
ENDBRANCH   2   3
ENDBRANCH   1   2
BRANCH   1  72
ATOM     72  C   UNL A   1      34.026  21.449  27.121  1.00  0.00     0.202 C 
BRANCH  72  73
ATOM     73  C   UNL A   1      33.325  22.805  27.186  1.00  0.00     0.261 C 
BRANCH  73  74
ATOM     74  O   UNL A   1      32.076  22.687  27.898  1.00  0.00    -0.463 OA
BRANCH  74  75
ATOM     75  C   UNL A   1      30.965  23.068  27.203  1.00  0.00     0.310 C 
ATOM     76  O   UNL A   1      29.815  22.871  27.565  1.00  0.00    -0.252 OA
BRANCH  75  77
ATOM     77  C   UNL A   1      31.346  23.806  25.928  1.00  0.00     0.118 C 
ATOM     78  C   UNL A   1      30.969  22.956  24.707  1.00  0.00     0.019 C 
ATOM     79  C   UNL A   1      30.624  25.147  25.883  1.00  0.00     0.133 C 
ATOM     80  C   UNL A   1      31.135  23.740  23.407  1.00  0.00     0.022 C 
ATOM     81  N   UNL A   1      30.723  25.809  24.586  1.00  0.00    -0.356 N 
ATOM     82  C   UNL A   1      30.322  25.036  23.424  1.00  0.00     0.118 C 
BRANCH  81  83
ATOM     83  C   UNL A   1      30.786  27.187  24.601  1.00  0.00     0.133 A 
ATOM     84  C   UNL A   1      30.014  27.989  23.789  1.00  0.00     0.077 A 
ATOM     85  N   UNL A   1      31.667  27.731  25.453  1.00  0.00    -0.211 NA
ATOM     86  C   UNL A   1      30.192  29.360  23.886  1.00  0.00     0.095 A 
ATOM     87  C   UNL A   1      31.800  29.068  25.474  1.00  0.00     0.165 A 
ATOM     88  N   UNL A   1      31.082  29.918  24.732  1.00  0.00    -0.226 NA
BRANCH  86  89
ATOM     89  C   UNL A   1      29.422  30.294  23.054  1.00  0.00     0.089 A 
ATOM     90  C   UNL A   1      29.099  31.578  23.493  1.00  0.00     0.030 A 
ATOM     91  N   UNL A   1      29.030  29.827  21.839  1.00  0.00    -0.255 NA
ATOM     92  C   UNL A   1      28.364  32.414  22.654  1.00  0.00     0.004 A 
ATOM     93  C   UNL A   1      28.336  30.666  21.041  1.00  0.00     0.112 A 
ATOM     94  C   UNL A   1      27.978  31.953  21.402  1.00  0.00     0.020 A 
ENDBRANCH  86  89
BRANCH  87  95
ATOM     95  C   UNL A   1      32.885  29.597  26.297  1.00  0.00     0.055 A 
ATOM     96  C   UNL A   1      32.744  30.838  26.949  1.00  0.00     0.015 A 
ATOM     97  C   UNL A   1      34.093  28.914  26.460  1.00  0.00     0.134 A 
ATOM     98  C   UNL A   1      33.770  31.366  27.738  1.00  0.00     0.001 A 
ATOM     99  C   UNL A   1      35.125  29.439  27.240  1.00  0.00     0.040 A 
ATOM    100  F   UNL A   1      34.309  27.746  25.836  1.00  0.00    -0.206 F 
ATOM    101  C   UNL A   1      34.963  30.665  27.882  1.00  0.00     0.003 A 
ENDBRANCH  87  95
ENDBRANCH  81  83
ENDBRANCH  75  77
ENDBRANCH  74  75
ENDBRANCH  73  74
ENDBRANCH  72  73
ENDBRANCH   1  72
TORSDOF 17
ENDMDL
MODEL 2
REMARK VINA RESULT:     -12.9      4.772      9.661
REMARK SMILES O=C(OCCOCCOC(=O)[C@H]1CCCN(c2cc(-c3ccccn3)nc(-c3ccccc3F)n2)C1)c1ccc(-c2c3nc(c(-c4c(F)c(F)c(F)c(F)c4F)c4ccc([nH]4)c(-c4c(F)c(F)c(F)c(F)c4F)c4nc(c(-c5c(F)c(F)c(F)c(F)c5F)c5ccc2[nH]5)C=C4)C=C3)cc1
REMARK SMILES IDX 6 1 5 2 4 3 3 4 2 5 1 6 37 7 38 8 99 9 39 10 98 11 40 12
REMARK SMILES IDX 41 13 42 14 92 15 43 16 97 17 91 18 93 19 44 20 96 21 90 22
REMARK SMILES IDX 89 23 45 25 77 26 57 27 76 28 58 29 61 30 75 31 94 32 59 33
REMARK SMILES IDX 60 34 74 36 95 37 62 38 46 39 47 40 55 41 48 42 49 43 53 44
REMARK SMILES IDX 56 45 50 46 51 47 54 48 52 49 78 50 79 51 87 52 80 53 81 54
REMARK SMILES IDX 85 55 88 56 82 57 83 58 86 59 84 60 63 61 64 62 72 63 65 64
REMARK SMILES IDX 66 65 70 66 73 67 67 68 68 69 71 70 69 71 7 72 8 73 9 74
REMARK SMILES IDX 10 75 11 76 12 77 13 78 36 79 14 80 16 81 15 82 17 83 18 84
REMARK SMILES IDX 35 85 19 86 27 87 26 88 20 89 21 90 25 91 22 92 24 93 23 94
REMARK SMILES IDX 28 95 29 96 33 97 30 98 32 99 34 100 31 101
REMARK H PARENT 93 24 61 35
REMARK Flexibility Score: inf
ROOT
ATOM      1  O   UNL A   1      44.367  21.018  23.965  1.00  0.00    -0.374 OA
ENDROOT
BRANCH   1   2
ATOM      2  C   UNL A   1      44.691  22.384  23.708  1.00  0.00     0.202 C 
BRANCH   2   3
ATOM      3  C   UNL A   1      43.825  23.440  24.397  1.00  0.00     0.261 C 
BRANCH   3   4
ATOM      4  O   UNL A   1      44.586  24.634  24.619  1.00  0.00    -0.460 OA
BRANCH   4   5
ATOM      5  C   UNL A   1      45.161  25.006  25.784  1.00  0.00     0.338 C 
ATOM      6  O   UNL A   1      46.315  24.659  26.031  1.00  0.00    -0.246 OA
BRANCH   5   7
ATOM      7  C   UNL A   1      44.477  25.910  26.747  1.00  0.00     0.060 A 
ATOM      8  C   UNL A   1      44.616  27.299  26.772  1.00  0.00     0.016 A 
ATOM      9  C   UNL A   1      43.584  25.312  27.645  1.00  0.00     0.016 A 
ATOM     10  C   UNL A   1      43.936  28.084  27.669  1.00  0.00     0.010 A 
ATOM     11  C   UNL A   1      42.871  26.094  28.549  1.00  0.00     0.010 A 
ATOM     12  C   UNL A   1      43.063  27.479  28.555  1.00  0.00    -0.014 A 
BRANCH  12  13
ATOM     13  C   UNL A   1      42.482  28.342  29.577  1.00  0.00     0.031 A 
ATOM     14  C   UNL A   1      43.288  28.579  30.802  1.00  0.00     0.074 A 
ATOM     15  C   UNL A   1      41.342  28.993  29.303  1.00  0.00     0.049 A 
ATOM     16  N   UNL A   1      42.945  29.163  31.912  1.00  0.00    -0.248 NA
ATOM     17  C   UNL A   1      44.682  28.099  30.772  1.00  0.00     0.031 C 
ATOM     18  C   UNL A   1      40.635  28.948  28.020  1.00  0.00     0.029 A 
ATOM     19  N   UNL A   1      40.592  29.830  30.074  1.00  0.00    -0.354 N 
ATOM     20  C   UNL A   1      44.053  29.063  32.735  1.00  0.00     0.074 A 
ATOM     21  C   UNL A   1      45.094  28.392  31.994  1.00  0.00     0.031 C 
ATOM     22  C   UNL A   1      39.543  29.723  28.098  1.00  0.00     0.029 A 
ATOM     23  C   UNL A   1      39.433  30.229  29.460  1.00  0.00     0.049 A 
ATOM     24  H   UNL A   1      40.856  30.120  30.976  1.00  0.00     0.167 HD
ATOM     25  C   UNL A   1      44.148  29.479  34.016  1.00  0.00     0.037 A 
ATOM     26  C   UNL A   1      38.374  30.866  29.986  1.00  0.00     0.037 A 
ATOM     27  C   UNL A   1      43.062  30.144  34.680  1.00  0.00     0.049 A 
ATOM     28  C   UNL A   1      38.448  31.222  31.444  1.00  0.00     0.074 A 
ATOM     29  C   UNL A   1      42.977  30.572  35.988  1.00  0.00     0.029 A 
ATOM     30  N   UNL A   1      41.859  30.475  34.061  1.00  0.00    -0.354 N 
ATOM     31  N   UNL A   1      39.444  31.035  32.281  1.00  0.00    -0.248 NA
ATOM     32  C   UNL A   1      37.265  31.844  32.043  1.00  0.00     0.031 C 
ATOM     33  C   UNL A   1      41.699  31.106  36.176  1.00  0.00     0.029 A 
ATOM     34  C   UNL A   1      41.011  31.078  34.968  1.00  0.00     0.049 A 
ATOM     35  H   UNL A   1      41.644  30.302  33.116  1.00  0.00     0.167 HD
ATOM     36  C   UNL A   1      39.021  31.528  33.503  1.00  0.00     0.074 A 
ATOM     37  C   UNL A   1      37.671  32.026  33.295  1.00  0.00     0.031 C 
ATOM     38  C   UNL A   1      39.680  31.570  34.687  1.00  0.00     0.037 A 
BRANCH  25  39
ATOM     39  C   UNL A   1      45.392  29.116  34.768  1.00  0.00     0.064 A 
ATOM     40  C   UNL A   1      46.475  30.009  34.793  1.00  0.00     0.173 A 
ATOM     41  C   UNL A   1      45.509  27.926  35.503  1.00  0.00     0.173 A 
ATOM     42  F   UNL A   1      46.411  31.168  34.122  1.00  0.00    -0.203 F 
ATOM     43  C   UNL A   1      47.626  29.725  35.522  1.00  0.00     0.198 A 
ATOM     44  C   UNL A   1      46.650  27.661  36.259  1.00  0.00     0.198 A 
ATOM     45  F   UNL A   1      44.491  27.055  35.545  1.00  0.00    -0.203 F 
ATOM     46  F   UNL A   1      48.647  30.593  35.523  1.00  0.00    -0.200 F 
ATOM     47  C   UNL A   1      47.708  28.557  36.263  1.00  0.00     0.200 A 
ATOM     48  F   UNL A   1      46.711  26.552  37.009  1.00  0.00    -0.200 F 
ATOM     49  F   UNL A   1      48.802  28.303  36.996  1.00  0.00    -0.200 F 
ENDBRANCH  25  39
BRANCH  26  50
ATOM     50  C   UNL A   1      37.186  31.126  29.135  1.00  0.00     0.064 A 
ATOM     51  C   UNL A   1      36.887  32.422  28.679  1.00  0.00     0.173 A 
ATOM     52  C   UNL A   1      36.264  30.112  28.852  1.00  0.00     0.173 A 
ATOM     53  F   UNL A   1      37.732  33.434  28.931  1.00  0.00    -0.203 F 
ATOM     54  C   UNL A   1      35.696  32.698  28.013  1.00  0.00     0.198 A 
ATOM     55  C   UNL A   1      35.083  30.384  28.161  1.00  0.00     0.198 A 
ATOM     56  F   UNL A   1      36.506  28.856  29.255  1.00  0.00    -0.203 F 
ATOM     57  F   UNL A   1      35.411  33.956  27.644  1.00  0.00    -0.200 F 
ATOM     58  C   UNL A   1      34.794  31.679  27.754  1.00  0.00     0.200 A 
ATOM     59  F   UNL A   1      34.218  29.395  27.900  1.00  0.00    -0.200 F 
ATOM     60  F   UNL A   1      33.643  31.946  27.121  1.00  0.00    -0.200 F 
ENDBRANCH  26  50
BRANCH  38  61
ATOM     61  C   UNL A   1      38.977  32.211  35.842  1.00  0.00     0.064 A 
ATOM     62  C   UNL A   1      39.234  33.555  36.151  1.00  0.00     0.173 A 
ATOM     63  C   UNL A   1      38.201  31.456  36.730  1.00  0.00     0.173 A 
ATOM     64  F   UNL A   1      39.984  34.305  35.330  1.00  0.00    -0.203 F 
ATOM     65  C   UNL A   1      38.774  34.110  37.338  1.00  0.00     0.198 A 
ATOM     66  C   UNL A   1      37.719  32.024  37.903  1.00  0.00     0.198 A 
ATOM     67  F   UNL A   1      37.927  30.170  36.464  1.00  0.00    -0.203 F 
ATOM     68  F   UNL A   1      39.089  35.375  37.649  1.00  0.00    -0.200 F 
ATOM     69  C   UNL A   1      38.021  33.343  38.215  1.00  0.00     0.200 A 
ATOM     70  F   UNL A   1      36.978  31.291  38.745  1.00  0.00    -0.200 F 
ATOM     71  F   UNL A   1      37.595  33.874  39.369  1.00  0.00    -0.200 F 
ENDBRANCH  38  61
ENDBRANCH  12  13
ENDBRANCH   5   7
ENDBRANCH   4   5
ENDBRANCH   3   4
ENDBRANCH   2   3
ENDBRANCH   1   2
BRANCH   1  72
ATOM     72  C   UNL A   1      44.466  20.604  25.328  1.00  0.00     0.202 C 
BRANCH  72  73
ATOM     73  C   UNL A   1      43.191  19.890  25.772  1.00  0.00     0.261 C 
BRANCH  73  74
ATOM     74  O   UNL A   1      42.124  20.843  25.954  1.00  0.00    -0.463 OA
BRANCH  74  75
ATOM     75  C   UNL A   1      40.871  20.311  26.057  1.00  0.00     0.310 C 
ATOM     76  O   UNL A   1      40.573  19.165  25.758  1.00  0.00    -0.252 OA
BRANCH  75  77
ATOM     77  C   UNL A   1      39.894  21.327  26.630  1.00  0.00     0.118 C 
ATOM     78  C   UNL A   1      40.619  22.655  26.885  1.00  0.00     0.019 C 
ATOM     79  C   UNL A   1      38.743  21.531  25.652  1.00  0.00     0.133 C 
ATOM     80  C   UNL A   1      39.639  23.766  27.257  1.00  0.00     0.022 C 
ATOM     81  N   UNL A   1      37.895  22.670  25.993  1.00  0.00    -0.356 N 
ATOM     82  C   UNL A   1      38.560  23.946  26.187  1.00  0.00     0.118 C 
BRANCH  81  83
ATOM     83  C   UNL A   1      36.553  22.546  25.705  1.00  0.00     0.133 A 
ATOM     84  C   UNL A   1      35.983  21.380  25.237  1.00  0.00     0.077 A 
ATOM     85  N   UNL A   1      35.802  23.641  25.886  1.00  0.00    -0.211 NA
ATOM     86  C   UNL A   1      34.625  21.395  24.963  1.00  0.00     0.095 A 
ATOM     87  C   UNL A   1      34.495  23.587  25.576  1.00  0.00     0.165 A 
ATOM     88  N   UNL A   1      33.863  22.495  25.133  1.00  0.00    -0.226 NA
BRANCH  86  89
ATOM     89  C   UNL A   1      33.933  20.205  24.452  1.00  0.00     0.089 A 
ATOM     90  C   UNL A   1      32.729  20.295  23.753  1.00  0.00     0.030 A 
ATOM     91  N   UNL A   1      34.526  19.011  24.715  1.00  0.00    -0.255 NA
ATOM     92  C   UNL A   1      32.123  19.126  23.296  1.00  0.00     0.004 A 
ATOM     93  C   UNL A   1      33.926  17.897  24.244  1.00  0.00     0.112 A 
ATOM     94  C   UNL A   1      32.734  17.903  23.541  1.00  0.00     0.020 A 
ENDBRANCH  86  89
BRANCH  87  95
ATOM     95  C   UNL A   1      33.763  24.848  25.637  1.00  0.00     0.055 A 
ATOM     96  C   UNL A   1      34.187  25.956  24.874  1.00  0.00     0.015 A 
ATOM     97  C   UNL A   1      32.637  25.015  26.448  1.00  0.00     0.134 A 
ATOM     98  C   UNL A   1      33.504  27.175  24.919  1.00  0.00     0.001 A 
ATOM     99  C   UNL A   1      31.955  26.232  26.504  1.00  0.00     0.040 A 
ATOM    100  F   UNL A   1      32.203  24.015  27.229  1.00  0.00    -0.206 F 
ATOM    101  C   UNL A   1      32.388  27.312  25.737  1.00  0.00     0.003 A 
ENDBRANCH  87  95
ENDBRANCH  81  83
ENDBRANCH  75  77
ENDBRANCH  74  75
ENDBRANCH  73  74
ENDBRANCH  72  73
ENDBRANCH   1  72
TORSDOF 17
ENDMDL
MODEL 3
REMARK VINA RESULT:     -12.9      4.824      8.473
REMARK SMILES O=C(OCCOCCOC(=O)[C@H]1CCCN(c2cc(-c3ccccn3)nc(-c3ccccc3F)n2)C1)c1ccc(-c2c3nc(c(-c4c(F)c(F)c(F)c(F)c4F)c4ccc([nH]4)c(-c4c(F)c(F)c(F)c(F)c4F)c4nc(c(-c5c(F)c(F)c(F)c(F)c5F)c5ccc2[nH]5)C=C4)C=C3)cc1
REMARK SMILES IDX 6 1 5 2 4 3 3 4 2 5 1 6 37 7 38 8 99 9 39 10 98 11 40 12
REMARK SMILES IDX 41 13 42 14 92 15 43 16 97 17 91 18 93 19 44 20 96 21 90 22
REMARK SMILES IDX 89 23 45 25 77 26 57 27 76 28 58 29 61 30 75 31 94 32 59 33
REMARK SMILES IDX 60 34 74 36 95 37 62 38 46 39 47 40 55 41 48 42 49 43 53 44
REMARK SMILES IDX 56 45 50 46 51 47 54 48 52 49 78 50 79 51 87 52 80 53 81 54
REMARK SMILES IDX 85 55 88 56 82 57 83 58 86 59 84 60 63 61 64 62 72 63 65 64
REMARK SMILES IDX 66 65 70 66 73 67 67 68 68 69 71 70 69 71 7 72 8 73 9 74
REMARK SMILES IDX 10 75 11 76 12 77 13 78 36 79 14 80 16 81 15 82 17 83 18 84
REMARK SMILES IDX 35 85 19 86 27 87 26 88 20 89 21 90 25 91 22 92 24 93 23 94
REMARK SMILES IDX 28 95 29 96 33 97 30 98 32 99 34 100 31 101
REMARK H PARENT 93 24 61 35
REMARK Flexibility Score: inf
ROOT
ATOM      1  O   UNL A   1      45.293  20.715  25.336  1.00  0.00    -0.374 OA
ENDROOT
BRANCH   1   2
ATOM      2  C   UNL A   1      45.304  22.139  25.418  1.00  0.00     0.202 C 
BRANCH   2   3
ATOM      3  C   UNL A   1      44.835  22.905  24.180  1.00  0.00     0.261 C 
BRANCH   3   4
ATOM      4  O   UNL A   1      44.110  24.078  24.570  1.00  0.00    -0.460 OA
BRANCH   4   5
ATOM      5  C   UNL A   1      44.635  25.189  25.132  1.00  0.00     0.338 C 
ATOM      6  O   UNL A   1      45.623  25.718  24.626  1.00  0.00    -0.246 OA
BRANCH   5   7
ATOM      7  C   UNL A   1      44.000  25.857  26.298  1.00  0.00     0.060 A 
ATOM      8  C   UNL A   1      44.164  27.203  26.632  1.00  0.00     0.016 A 
ATOM      9  C   UNL A   1      43.126  25.080  27.070  1.00  0.00     0.016 A 
ATOM     10  C   UNL A   1      43.528  27.770  27.708  1.00  0.00     0.010 A 
ATOM     11  C   UNL A   1      42.458  25.643  28.153  1.00  0.00     0.010 A 
ATOM     12  C   UNL A   1      42.674  26.989  28.466  1.00  0.00    -0.014 A 
BRANCH  12  13
ATOM     13  C   UNL A   1      42.143  27.603  29.676  1.00  0.00     0.031 A 
ATOM     14  C   UNL A   1      40.843  28.314  29.562  1.00  0.00     0.074 A 
ATOM     15  C   UNL A   1      42.759  27.370  30.845  1.00  0.00     0.049 A 
ATOM     16  N   UNL A   1      40.240  29.069  30.431  1.00  0.00    -0.248 NA
ATOM     17  C   UNL A   1      40.113  28.143  28.292  1.00  0.00     0.031 C 
ATOM     18  C   UNL A   1      43.921  26.494  31.023  1.00  0.00     0.029 A 
ATOM     19  N   UNL A   1      42.485  27.829  32.098  1.00  0.00    -0.354 N 
ATOM     20  C   UNL A   1      39.096  29.518  29.793  1.00  0.00     0.074 A 
ATOM     21  C   UNL A   1      39.066  28.930  28.475  1.00  0.00     0.031 C 
ATOM     22  C   UNL A   1      44.265  26.488  32.320  1.00  0.00     0.029 A 
ATOM     23  C   UNL A   1      43.410  27.431  33.028  1.00  0.00     0.049 A 
ATOM     24  H   UNL A   1      41.702  28.386  32.314  1.00  0.00     0.167 HD
ATOM     25  C   UNL A   1      38.182  30.381  30.286  1.00  0.00     0.037 A 
ATOM     26  C   UNL A   1      43.577  27.859  34.291  1.00  0.00     0.037 A 
ATOM     27  C   UNL A   1      38.285  30.918  31.613  1.00  0.00     0.049 A 
ATOM     28  C   UNL A   1      42.619  28.904  34.788  1.00  0.00     0.074 A 
ATOM     29  C   UNL A   1      37.479  31.846  32.238  1.00  0.00     0.029 A 
ATOM     30  N   UNL A   1      39.279  30.560  32.522  1.00  0.00    -0.354 N 
ATOM     31  N   UNL A   1      41.592  29.435  34.164  1.00  0.00    -0.248 NA
ATOM     32  C   UNL A   1      42.845  29.433  36.135  1.00  0.00     0.031 C 
ATOM     33  C   UNL A   1      38.021  32.094  33.503  1.00  0.00     0.029 A 
ATOM     34  C   UNL A   1      39.123  31.269  33.696  1.00  0.00     0.049 A 
ATOM     35  H   UNL A   1      39.987  29.899  32.351  1.00  0.00     0.167 HD
ATOM     36  C   UNL A   1      41.035  30.349  35.041  1.00  0.00     0.074 A 
ATOM     37  C   UNL A   1      41.843  30.298  36.248  1.00  0.00     0.031 C 
ATOM     38  C   UNL A   1      39.957  31.154  34.873  1.00  0.00     0.037 A 
BRANCH  25  39
ATOM     39  C   UNL A   1      37.110  30.855  29.353  1.00  0.00     0.064 A 
ATOM     40  C   UNL A   1      36.032  30.011  29.045  1.00  0.00     0.173 A 
ATOM     41  C   UNL A   1      37.106  32.146  28.803  1.00  0.00     0.173 A 
ATOM     42  F   UNL A   1      35.976  28.772  29.556  1.00  0.00    -0.203 F 
ATOM     43  C   UNL A   1      34.995  30.438  28.222  1.00  0.00     0.198 A 
ATOM     44  C   UNL A   1      36.048  32.582  28.006  1.00  0.00     0.198 A 
ATOM     45  F   UNL A   1      38.091  33.009  29.095  1.00  0.00    -0.203 F 
ATOM     46  F   UNL A   1      33.981  29.608  27.940  1.00  0.00    -0.200 F 
ATOM     47  C   UNL A   1      34.997  31.727  27.713  1.00  0.00     0.200 A 
ATOM     48  F   UNL A   1      36.031  33.842  27.549  1.00  0.00    -0.200 F 
ATOM     49  F   UNL A   1      33.978  32.150  26.951  1.00  0.00    -0.200 F 
ENDBRANCH  25  39
BRANCH  26  50
ATOM     50  C   UNL A   1      44.711  27.333  35.092  1.00  0.00     0.064 A 
ATOM     51  C   UNL A   1      45.988  27.916  35.012  1.00  0.00     0.173 A 
ATOM     52  C   UNL A   1      44.575  26.174  35.864  1.00  0.00     0.173 A 
ATOM     53  F   UNL A   1      46.177  29.023  34.278  1.00  0.00    -0.203 F 
ATOM     54  C   UNL A   1      47.089  27.336  35.638  1.00  0.00     0.198 A 
ATOM     55  C   UNL A   1      45.673  25.609  36.513  1.00  0.00     0.198 A 
ATOM     56  F   UNL A   1      43.377  25.585  35.981  1.00  0.00    -0.203 F 
ATOM     57  F   UNL A   1      48.306  27.881  35.494  1.00  0.00    -0.200 F 
ATOM     58  C   UNL A   1      46.931  26.182  36.388  1.00  0.00     0.200 A 
ATOM     59  F   UNL A   1      45.516  24.500  37.249  1.00  0.00    -0.200 F 
ATOM     60  F   UNL A   1      47.991  25.619  36.984  1.00  0.00    -0.200 F 
ENDBRANCH  26  50
BRANCH  38  61
ATOM     61  C   UNL A   1      39.557  32.017  36.028  1.00  0.00     0.064 A 
ATOM     62  C   UNL A   1      38.483  31.629  36.843  1.00  0.00     0.173 A 
ATOM     63  C   UNL A   1      40.114  33.288  36.213  1.00  0.00     0.173 A 
ATOM     64  F   UNL A   1      37.915  30.424  36.685  1.00  0.00    -0.203 F 
ATOM     65  C   UNL A   1      37.949  32.509  37.776  1.00  0.00     0.198 A 
ATOM     66  C   UNL A   1      39.595  34.153  37.169  1.00  0.00     0.198 A 
ATOM     67  F   UNL A   1      41.148  33.690  35.459  1.00  0.00    -0.203 F 
ATOM     68  F   UNL A   1      36.878  32.147  38.496  1.00  0.00    -0.200 F 
ATOM     69  C   UNL A   1      38.502  33.771  37.935  1.00  0.00     0.200 A 
ATOM     70  F   UNL A   1      40.136  35.367  37.335  1.00  0.00    -0.200 F 
ATOM     71  F   UNL A   1      37.973  34.624  38.821  1.00  0.00    -0.200 F 
ENDBRANCH  38  61
ENDBRANCH  12  13
ENDBRANCH   5   7
ENDBRANCH   4   5
ENDBRANCH   3   4
ENDBRANCH   2   3
ENDBRANCH   1   2
BRANCH   1  72
ATOM     72  C   UNL A   1      44.046  20.125  24.966  1.00  0.00     0.202 C 
BRANCH  72  73
ATOM     73  C   UNL A   1      43.049  20.192  26.122  1.00  0.00     0.261 C 
BRANCH  73  74
ATOM     74  O   UNL A   1      41.896  20.968  25.740  1.00  0.00    -0.463 OA
BRANCH  74  75
ATOM     75  C   UNL A   1      40.687  20.378  25.970  1.00  0.00     0.310 C 
ATOM     76  O   UNL A   1      40.433  19.203  25.754  1.00  0.00    -0.252 OA
BRANCH  75  77
ATOM     77  C   UNL A   1      39.700  21.371  26.566  1.00  0.00     0.118 C 
ATOM     78  C   UNL A   1      40.407  22.708  26.828  1.00  0.00     0.019 C 
ATOM     79  C   UNL A   1      38.535  21.567  25.604  1.00  0.00     0.133 C 
ATOM     80  C   UNL A   1      39.413  23.797  27.225  1.00  0.00     0.022 C 
ATOM     81  N   UNL A   1      37.672  22.688  25.969  1.00  0.00    -0.356 N 
ATOM     82  C   UNL A   1      38.319  23.972  26.171  1.00  0.00     0.118 C 
BRANCH  81  83
ATOM     83  C   UNL A   1      36.329  22.545  25.695  1.00  0.00     0.133 A 
ATOM     84  C   UNL A   1      35.404  23.548  25.892  1.00  0.00     0.077 A 
ATOM     85  N   UNL A   1      35.941  21.348  25.232  1.00  0.00    -0.211 NA
ATOM     86  C   UNL A   1      34.079  23.266  25.599  1.00  0.00     0.095 A 
ATOM     87  C   UNL A   1      34.635  21.141  24.993  1.00  0.00     0.165 A 
ATOM     88  N   UNL A   1      33.678  22.062  25.142  1.00  0.00    -0.226 NA
BRANCH  86  89
ATOM     89  C   UNL A   1      33.023  24.269  25.786  1.00  0.00     0.089 A 
ATOM     90  C   UNL A   1      33.311  25.630  25.900  1.00  0.00     0.030 A 
ATOM     91  N   UNL A   1      31.752  23.793  25.858  1.00  0.00    -0.255 NA
ATOM     92  C   UNL A   1      32.261  26.530  26.078  1.00  0.00     0.004 A 
ATOM     93  C   UNL A   1      30.755  24.690  26.011  1.00  0.00     0.112 A 
ATOM     94  C   UNL A   1      30.958  26.053  26.130  1.00  0.00     0.020 A 
ENDBRANCH  86  89
BRANCH  87  95
ATOM     95  C   UNL A   1      34.249  19.775  24.648  1.00  0.00     0.055 A 
ATOM     96  C   UNL A   1      32.909  19.471  24.337  1.00  0.00     0.015 A 
ATOM     97  C   UNL A   1      35.173  18.726  24.625  1.00  0.00     0.134 A 
ATOM     98  C   UNL A   1      32.515  18.171  24.008  1.00  0.00     0.001 A 
ATOM     99  C   UNL A   1      34.785  17.423  24.306  1.00  0.00     0.040 A 
ATOM    100  F   UNL A   1      36.457  18.938  24.949  1.00  0.00    -0.206 F 
ATOM    101  C   UNL A   1      33.455  17.145  23.995  1.00  0.00     0.003 A 
ENDBRANCH  87  95
ENDBRANCH  81  83
ENDBRANCH  75  77
ENDBRANCH  74  75
ENDBRANCH  73  74
ENDBRANCH  72  73
ENDBRANCH   1  72
TORSDOF 17
ENDMDL
