MODEL 1
REMARK VINA RESULT:     -11.4      0.000      0.000
REMARK SMILES O=C(OCCOCCOC(=O)[C@]1([NH2+]C2CC2)CCC[C@H](SC2CCCCC2)C1)c1ccc(-c2c3nc(c(-c4c(F)c(F)c(F)c(F)c4F)c4ccc([nH]4)c(-c4c(F)c(F)c(F)c(F)c4F)c4nc(c(-c5c(F)c(F)c(F)c(F)c5F)c5ccc2[nH]5)C=C4)C=C3)cc1
REMARK SMILES IDX 6 1 5 2 4 3 3 4 2 5 1 6 29 7 30 8 91 9 31 10 90 11 32 12
REMARK SMILES IDX 33 13 34 14 84 15 35 16 89 17 83 18 85 19 36 20 88 21 82 22
REMARK SMILES IDX 81 23 37 25 69 26 49 27 68 28 50 29 53 30 67 31 86 32 51 33
REMARK SMILES IDX 52 34 66 36 87 37 54 38 38 39 39 40 47 41 40 42 41 43 45 44
REMARK SMILES IDX 48 45 42 46 43 47 46 48 44 49 70 50 71 51 79 52 72 53 73 54
REMARK SMILES IDX 77 55 80 56 74 57 75 58 78 59 76 60 55 61 56 62 64 63 57 64
REMARK SMILES IDX 58 65 62 66 65 67 59 68 60 69 63 70 61 71 7 72 8 73 9 74
REMARK SMILES IDX 10 75 11 76 12 77 17 78 28 79 18 80 20 81 19 82 13 83 14 86
REMARK SMILES IDX 15 87 16 88 21 89 22 90 23 91 27 92 24 93 26 94 25 95
REMARK H PARENT 85 24 53 35 13 84 13 85
REMARK Flexibility Score: inf
ROOT
ATOM      1  O   UNL A   1      37.250  21.007  24.838  1.00  0.00    -0.374 OA
ENDROOT
BRANCH   1   2
ATOM      2  C   UNL A   1      38.147  19.901  24.960  1.00  0.00     0.202 C 
BRANCH   2   3
ATOM      3  C   UNL A   1      39.284  20.073  25.965  1.00  0.00     0.261 C 
BRANCH   3   4
ATOM      4  O   UNL A   1      40.333  19.137  25.702  1.00  0.00    -0.460 OA
BRANCH   4   5
ATOM      5  C   UNL A   1      41.641  19.351  25.975  1.00  0.00     0.338 C 
ATOM      6  O   UNL A   1      42.442  18.429  25.815  1.00  0.00    -0.246 OA
BRANCH   5   7
ATOM      7  C   UNL A   1      42.175  20.700  26.348  1.00  0.00     0.060 A 
ATOM      8  C   UNL A   1      42.380  21.169  27.651  1.00  0.00     0.016 A 
ATOM      9  C   UNL A   1      42.549  21.537  25.284  1.00  0.00     0.016 A 
ATOM     10  C   UNL A   1      42.949  22.390  27.909  1.00  0.00     0.010 A 
ATOM     11  C   UNL A   1      43.097  22.796  25.529  1.00  0.00     0.010 A 
ATOM     12  C   UNL A   1      43.286  23.212  26.848  1.00  0.00    -0.014 A 
BRANCH  12  13
ATOM     13  C   UNL A   1      43.617  24.582  27.224  1.00  0.00     0.031 A 
ATOM     14  C   UNL A   1      44.980  25.067  26.856  1.00  0.00     0.074 A 
ATOM     15  C   UNL A   1      42.628  25.399  27.618  1.00  0.00     0.049 A 
ATOM     16  N   UNL A   1      45.527  26.230  27.058  1.00  0.00    -0.248 NA
ATOM     17  C   UNL A   1      45.837  24.112  26.126  1.00  0.00     0.031 C 
ATOM     18  C   UNL A   1      41.221  25.012  27.757  1.00  0.00     0.029 A 
ATOM     19  N   UNL A   1      42.642  26.731  27.907  1.00  0.00    -0.354 N 
ATOM     20  C   UNL A   1      46.807  26.130  26.532  1.00  0.00     0.074 A 
ATOM     21  C   UNL A   1      46.950  24.808  25.973  1.00  0.00     0.031 C 
ATOM     22  C   UNL A   1      40.503  26.095  28.090  1.00  0.00     0.029 A 
ATOM     23  C   UNL A   1      41.412  27.219  28.264  1.00  0.00     0.049 A 
ATOM     24  H   UNL A   1      43.454  27.286  27.866  1.00  0.00     0.167 HD
ATOM     25  C   UNL A   1      47.776  27.070  26.556  1.00  0.00     0.037 A 
ATOM     26  C   UNL A   1      41.093  28.441  28.725  1.00  0.00     0.037 A 
ATOM     27  C   UNL A   1      47.565  28.370  27.129  1.00  0.00     0.049 A 
ATOM     28  C   UNL A   1      42.217  29.432  28.857  1.00  0.00     0.074 A 
ATOM     29  C   UNL A   1      48.468  29.395  27.321  1.00  0.00     0.029 A 
ATOM     30  N   UNL A   1      46.336  28.815  27.607  1.00  0.00    -0.354 N 
ATOM     31  N   UNL A   1      43.473  29.311  28.493  1.00  0.00    -0.248 NA
ATOM     32  C   UNL A   1      41.892  30.715  29.485  1.00  0.00     0.031 C 
ATOM     33  C   UNL A   1      47.794  30.442  27.963  1.00  0.00     0.029 A 
ATOM     34  C   UNL A   1      46.457  30.095  28.112  1.00  0.00     0.049 A 
ATOM     35  H   UNL A   1      45.500  28.294  27.589  1.00  0.00     0.167 HD
ATOM     36  C   UNL A   1      44.089  30.507  28.824  1.00  0.00     0.074 A 
ATOM     37  C   UNL A   1      43.057  31.346  29.409  1.00  0.00     0.031 C 
ATOM     38  C   UNL A   1      45.383  30.885  28.668  1.00  0.00     0.037 A 
BRANCH  25  39
ATOM     39  C   UNL A   1      49.133  26.652  26.077  1.00  0.00     0.064 A 
ATOM     40  C   UNL A   1      50.069  26.021  26.913  1.00  0.00     0.173 A 
ATOM     41  C   UNL A   1      49.538  26.980  24.775  1.00  0.00     0.173 A 
ATOM     42  F   UNL A   1      49.748  25.725  28.181  1.00  0.00    -0.203 F 
ATOM     43  C   UNL A   1      51.369  25.775  26.476  1.00  0.00     0.198 A 
ATOM     44  C   UNL A   1      50.828  26.705  24.331  1.00  0.00     0.198 A 
ATOM     45  F   UNL A   1      48.691  27.599  23.940  1.00  0.00    -0.203 F 
ATOM     46  F   UNL A   1      52.270  25.248  27.317  1.00  0.00    -0.200 F 
ATOM     47  C   UNL A   1      51.747  26.115  25.185  1.00  0.00     0.200 A 
ATOM     48  F   UNL A   1      51.192  27.037  23.084  1.00  0.00    -0.200 F 
ATOM     49  F   UNL A   1      53.003  25.897  24.772  1.00  0.00    -0.200 F 
ENDBRANCH  25  39
BRANCH  26  50
ATOM     50  C   UNL A   1      39.700  28.750  29.139  1.00  0.00     0.064 A 
ATOM     51  C   UNL A   1      38.777  29.300  28.241  1.00  0.00     0.173 A 
ATOM     52  C   UNL A   1      39.256  28.495  30.448  1.00  0.00     0.173 A 
ATOM     53  F   UNL A   1      39.152  29.581  26.984  1.00  0.00    -0.203 F 
ATOM     54  C   UNL A   1      37.472  29.594  28.635  1.00  0.00     0.198 A 
ATOM     55  C   UNL A   1      37.944  28.759  30.833  1.00  0.00     0.198 A 
ATOM     56  F   UNL A   1      40.096  27.972  31.353  1.00  0.00    -0.203 F 
ATOM     57  F   UNL A   1      36.623  30.158  27.767  1.00  0.00    -0.200 F 
ATOM     58  C   UNL A   1      37.055  29.316  29.929  1.00  0.00     0.200 A 
ATOM     59  F   UNL A   1      37.543  28.476  32.081  1.00  0.00    -0.200 F 
ATOM     60  F   UNL A   1      35.799  29.595  30.306  1.00  0.00    -0.200 F 
ENDBRANCH  26  50
BRANCH  38  61
ATOM     61  C   UNL A   1      45.723  32.282  29.082  1.00  0.00     0.064 A 
ATOM     62  C   UNL A   1      45.590  33.366  28.204  1.00  0.00     0.173 A 
ATOM     63  C   UNL A   1      46.145  32.537  30.395  1.00  0.00     0.173 A 
ATOM     64  F   UNL A   1      45.205  33.165  26.934  1.00  0.00    -0.203 F 
ATOM     65  C   UNL A   1      45.894  34.657  28.620  1.00  0.00     0.198 A 
ATOM     66  C   UNL A   1      46.414  33.832  30.817  1.00  0.00     0.198 A 
ATOM     67  F   UNL A   1      46.277  31.529  31.271  1.00  0.00    -0.203 F 
ATOM     68  F   UNL A   1      45.811  35.675  27.753  1.00  0.00    -0.200 F 
ATOM     69  C   UNL A   1      46.297  34.890  29.928  1.00  0.00     0.200 A 
ATOM     70  F   UNL A   1      46.785  34.059  32.085  1.00  0.00    -0.200 F 
ATOM     71  F   UNL A   1      46.580  36.136  30.329  1.00  0.00    -0.200 F 
ENDBRANCH  38  61
ENDBRANCH  12  13
ENDBRANCH   5   7
ENDBRANCH   4   5
ENDBRANCH   3   4
ENDBRANCH   2   3
ENDBRANCH   1   2
BRANCH   1  72
ATOM     72  C   UNL A   1      37.601  22.167  25.594  1.00  0.00     0.202 C 
BRANCH  72  73
ATOM     73  C   UNL A   1      36.392  23.071  25.768  1.00  0.00     0.261 C 
BRANCH  73  74
ATOM     74  O   UNL A   1      35.266  22.270  25.388  1.00  0.00    -0.459 OA
BRANCH  74  75
ATOM     75  C   UNL A   1      34.156  22.341  26.146  1.00  0.00     0.368 C 
ATOM     76  O   UNL A   1      34.203  22.706  27.318  1.00  0.00    -0.245 OA
BRANCH  75  77
ATOM     77  C   UNL A   1      32.872  21.724  25.424  1.00  0.00     0.195 C 
ATOM     78  C   UNL A   1      32.585  21.652  23.873  1.00  0.00     0.081 C 
ATOM     79  C   UNL A   1      31.705  22.594  26.012  1.00  0.00     0.095 C 
ATOM     80  C   UNL A   1      31.942  22.807  23.091  1.00  0.00     0.008 C 
ATOM     81  C   UNL A   1      31.471  23.967  25.242  1.00  0.00     0.053 C 
ATOM     82  C   UNL A   1      30.904  23.570  23.889  1.00  0.00     0.015 C 
BRANCH  77  83
ATOM     83  N   UNL A   1      32.909  20.252  25.864  1.00  0.00    -0.330 N 
ATOM     84  H   UNL A   1      32.134  20.090  26.507  1.00  0.00     0.347 HD
ATOM     85  H   UNL A   1      33.820  20.099  26.298  1.00  0.00     0.347 HD
BRANCH  83  86
ATOM     86  C   UNL A   1      32.797  19.261  24.726  1.00  0.00     0.183 C 
ATOM     87  C   UNL A   1      33.875  18.244  24.437  1.00  0.00     0.071 C 
ATOM     88  C   UNL A   1      32.559  17.798  24.980  1.00  0.00     0.071 C 
ENDBRANCH  83  86
ENDBRANCH  77  83
BRANCH  81  89
ATOM     89  S   UNL A   1      33.006  25.031  25.055  1.00  0.00    -0.155 SA
BRANCH  89  90
ATOM     90  C   UNL A   1      32.905  26.465  26.212  1.00  0.00     0.047 C 
ATOM     91  C   UNL A   1      33.900  27.608  25.957  1.00  0.00     0.014 C 
ATOM     92  C   UNL A   1      31.479  26.949  26.465  1.00  0.00     0.014 C 
ATOM     93  C   UNL A   1      33.817  28.697  27.033  1.00  0.00     0.001 C 
ATOM     94  C   UNL A   1      31.454  28.012  27.567  1.00  0.00     0.001 C 
ATOM     95  C   UNL A   1      32.384  29.177  27.242  1.00  0.00     0.000 C 
ENDBRANCH  89  90
ENDBRANCH  81  89
ENDBRANCH  75  77
ENDBRANCH  74  75
ENDBRANCH  73  74
ENDBRANCH  72  73
ENDBRANCH   1  72
TORSDOF 18
ENDMDL
MODEL 2
REMARK VINA RESULT:     -11.3      5.350     10.874
REMARK SMILES O=C(OCCOCCOC(=O)[C@]1([NH2+]C2CC2)CCC[C@H](SC2CCCCC2)C1)c1ccc(-c2c3nc(c(-c4c(F)c(F)c(F)c(F)c4F)c4ccc([nH]4)c(-c4c(F)c(F)c(F)c(F)c4F)c4nc(c(-c5c(F)c(F)c(F)c(F)c5F)c5ccc2[nH]5)C=C4)C=C3)cc1
REMARK SMILES IDX 6 1 5 2 4 3 3 4 2 5 1 6 29 7 30 8 91 9 31 10 90 11 32 12
REMARK SMILES IDX 33 13 34 14 84 15 35 16 89 17 83 18 85 19 36 20 88 21 82 22
REMARK SMILES IDX 81 23 37 25 69 26 49 27 68 28 50 29 53 30 67 31 86 32 51 33
REMARK SMILES IDX 52 34 66 36 87 37 54 38 38 39 39 40 47 41 40 42 41 43 45 44
REMARK SMILES IDX 48 45 42 46 43 47 46 48 44 49 70 50 71 51 79 52 72 53 73 54
REMARK SMILES IDX 77 55 80 56 74 57 75 58 78 59 76 60 55 61 56 62 64 63 57 64
REMARK SMILES IDX 58 65 62 66 65 67 59 68 60 69 63 70 61 71 7 72 8 73 9 74
REMARK SMILES IDX 10 75 11 76 12 77 17 78 28 79 18 80 20 81 19 82 13 83 14 86
REMARK SMILES IDX 15 87 16 88 21 89 22 90 23 91 27 92 24 93 26 94 25 95
REMARK H PARENT 85 24 53 35 13 84 13 85
REMARK Flexibility Score: inf
ROOT
ATOM      1  O   UNL A   1      33.065  30.937  27.353  1.00  0.00    -0.374 OA
ENDROOT
BRANCH   1   2
ATOM      2  C   UNL A   1      31.925  31.697  26.947  1.00  0.00     0.202 C 
BRANCH   2   3
ATOM      3  C   UNL A   1      32.134  33.205  26.836  1.00  0.00     0.261 C 
BRANCH   3   4
ATOM      4  O   UNL A   1      32.287  33.789  28.133  1.00  0.00    -0.460 OA
BRANCH   4   5
ATOM      5  C   UNL A   1      33.420  34.375  28.585  1.00  0.00     0.338 C 
ATOM      6  O   UNL A   1      33.452  35.601  28.698  1.00  0.00    -0.246 OA
BRANCH   5   7
ATOM      7  C   UNL A   1      34.597  33.584  29.068  1.00  0.00     0.060 A 
ATOM      8  C   UNL A   1      34.539  32.386  29.789  1.00  0.00     0.016 A 
ATOM      9  C   UNL A   1      35.863  34.073  28.710  1.00  0.00     0.016 A 
ATOM     10  C   UNL A   1      35.665  31.679  30.126  1.00  0.00     0.010 A 
ATOM     11  C   UNL A   1      37.020  33.384  29.074  1.00  0.00     0.010 A 
ATOM     12  C   UNL A   1      36.905  32.190  29.788  1.00  0.00    -0.014 A 
BRANCH  12  13
ATOM     13  C   UNL A   1      38.032  31.519  30.427  1.00  0.00     0.031 A 
ATOM     14  C   UNL A   1      38.182  31.716  31.899  1.00  0.00     0.074 A 
ATOM     15  C   UNL A   1      38.690  30.571  29.742  1.00  0.00     0.049 A 
ATOM     16  N   UNL A   1      39.078  31.235  32.711  1.00  0.00    -0.248 NA
ATOM     17  C   UNL A   1      37.156  32.551  32.554  1.00  0.00     0.031 C 
ATOM     18  C   UNL A   1      38.403  30.179  28.358  1.00  0.00     0.029 A 
ATOM     19  N   UNL A   1      39.684  29.725  30.133  1.00  0.00    -0.354 N 
ATOM     20  C   UNL A   1      38.757  31.751  33.958  1.00  0.00     0.074 A 
ATOM     21  C   UNL A   1      37.569  32.556  33.809  1.00  0.00     0.031 C 
ATOM     22  C   UNL A   1      39.198  29.152  28.023  1.00  0.00     0.029 A 
ATOM     23  C   UNL A   1      40.095  28.877  29.137  1.00  0.00     0.049 A 
ATOM     24  H   UNL A   1      40.070  29.724  31.039  1.00  0.00     0.167 HD
ATOM     25  C   UNL A   1      39.435  31.577  35.113  1.00  0.00     0.037 A 
ATOM     26  C   UNL A   1      41.124  28.011  29.140  1.00  0.00     0.037 A 
ATOM     27  C   UNL A   1      40.614  30.760  35.192  1.00  0.00     0.049 A 
ATOM     28  C   UNL A   1      41.938  27.928  30.402  1.00  0.00     0.074 A 
ATOM     29  C   UNL A   1      41.468  30.561  36.257  1.00  0.00     0.029 A 
ATOM     30  N   UNL A   1      41.098  29.996  34.134  1.00  0.00    -0.354 N 
ATOM     31  N   UNL A   1      41.734  28.517  31.559  1.00  0.00    -0.248 NA
ATOM     32  C   UNL A   1      43.137  27.087  30.357  1.00  0.00     0.031 C 
ATOM     33  C   UNL A   1      42.498  29.717  35.825  1.00  0.00     0.029 A 
ATOM     34  C   UNL A   1      42.252  29.337  34.512  1.00  0.00     0.049 A 
ATOM     35  H   UNL A   1      40.680  29.934  33.244  1.00  0.00     0.167 HD
ATOM     36  C   UNL A   1      42.762  28.104  32.390  1.00  0.00     0.074 A 
ATOM     37  C   UNL A   1      43.583  27.200  31.602  1.00  0.00     0.031 C 
ATOM     38  C   UNL A   1      43.015  28.435  33.681  1.00  0.00     0.037 A 
BRANCH  25  39
ATOM     39  C   UNL A   1      38.982  32.388  36.289  1.00  0.00     0.064 A 
ATOM     40  C   UNL A   1      39.469  33.678  36.552  1.00  0.00     0.173 A 
ATOM     41  C   UNL A   1      38.111  31.815  37.229  1.00  0.00     0.173 A 
ATOM     42  F   UNL A   1      40.339  34.255  35.709  1.00  0.00    -0.203 F 
ATOM     43  C   UNL A   1      39.134  34.345  37.729  1.00  0.00     0.198 A 
ATOM     44  C   UNL A   1      37.753  32.497  38.389  1.00  0.00     0.198 A 
ATOM     45  F   UNL A   1      37.629  30.579  37.038  1.00  0.00    -0.203 F 
ATOM     46  F   UNL A   1      39.677  35.541  37.998  1.00  0.00    -0.200 F 
ATOM     47  C   UNL A   1      38.276  33.755  38.645  1.00  0.00     0.200 A 
ATOM     48  F   UNL A   1      36.926  31.923  39.273  1.00  0.00    -0.200 F 
ATOM     49  F   UNL A   1      37.970  34.389  39.786  1.00  0.00    -0.200 F 
ENDBRANCH  25  39
BRANCH  26  50
ATOM     50  C   UNL A   1      41.458  27.235  27.918  1.00  0.00     0.064 A 
ATOM     51  C   UNL A   1      42.299  27.759  26.929  1.00  0.00     0.173 A 
ATOM     52  C   UNL A   1      40.944  25.943  27.713  1.00  0.00     0.173 A 
ATOM     53  F   UNL A   1      42.803  28.995  27.064  1.00  0.00    -0.203 F 
ATOM     54  C   UNL A   1      42.605  27.030  25.781  1.00  0.00     0.198 A 
ATOM     55  C   UNL A   1      41.275  25.202  26.582  1.00  0.00     0.198 A 
ATOM     56  F   UNL A   1      40.130  25.391  28.625  1.00  0.00    -0.203 F 
ATOM     57  F   UNL A   1      43.380  27.572  24.831  1.00  0.00    -0.200 F 
ATOM     58  C   UNL A   1      42.098  25.749  25.611  1.00  0.00     0.200 A 
ATOM     59  F   UNL A   1      40.793  23.960  26.430  1.00  0.00    -0.200 F 
ATOM     60  F   UNL A   1      42.396  25.047  24.509  1.00  0.00    -0.200 F 
ENDBRANCH  26  50
BRANCH  38  61
ATOM     61  C   UNL A   1      44.190  27.766  34.323  1.00  0.00     0.064 A 
ATOM     62  C   UNL A   1      44.079  26.514  34.943  1.00  0.00     0.173 A 
ATOM     63  C   UNL A   1      45.453  28.373  34.270  1.00  0.00     0.173 A 
ATOM     64  F   UNL A   1      42.886  25.906  35.030  1.00  0.00    -0.203 F 
ATOM     65  C   UNL A   1      45.190  25.904  35.515  1.00  0.00     0.198 A 
ATOM     66  C   UNL A   1      46.568  27.745  34.810  1.00  0.00     0.198 A 
ATOM     67  F   UNL A   1      45.605  29.567  33.678  1.00  0.00    -0.203 F 
ATOM     68  F   UNL A   1      45.056  24.733  36.149  1.00  0.00    -0.200 F 
ATOM     69  C   UNL A   1      46.434  26.516  35.440  1.00  0.00     0.200 A 
ATOM     70  F   UNL A   1      47.771  28.327  34.723  1.00  0.00    -0.200 F 
ATOM     71  F   UNL A   1      47.505  25.922  35.982  1.00  0.00    -0.200 F 
ENDBRANCH  38  61
ENDBRANCH  12  13
ENDBRANCH   5   7
ENDBRANCH   4   5
ENDBRANCH   3   4
ENDBRANCH   2   3
ENDBRANCH   1   2
BRANCH   1  72
ATOM     72  C   UNL A   1      33.346  29.783  26.561  1.00  0.00     0.202 C 
BRANCH  72  73
ATOM     73  C   UNL A   1      32.487  29.779  25.307  1.00  0.00     0.261 C 
BRANCH  73  74
ATOM     74  O   UNL A   1      32.342  28.397  24.955  1.00  0.00    -0.459 OA
BRANCH  74  75
ATOM     75  C   UNL A   1      32.616  28.036  23.688  1.00  0.00     0.368 C 
ATOM     76  O   UNL A   1      33.685  28.329  23.155  1.00  0.00    -0.245 OA
BRANCH  75  77
ATOM     77  C   UNL A   1      31.359  27.394  22.941  1.00  0.00     0.195 C 
ATOM     78  C   UNL A   1      30.080  26.745  23.599  1.00  0.00     0.081 C 
ATOM     79  C   UNL A   1      32.018  26.237  22.109  1.00  0.00     0.095 C 
ATOM     80  C   UNL A   1      30.027  25.276  24.044  1.00  0.00     0.008 C 
ATOM     81  C   UNL A   1      32.216  24.885  22.925  1.00  0.00     0.053 C 
ATOM     82  C   UNL A   1      30.812  24.345  23.141  1.00  0.00     0.015 C 
BRANCH  77  83
ATOM     83  N   UNL A   1      30.803  28.578  22.134  1.00  0.00    -0.330 N 
ATOM     84  H   UNL A   1      30.457  28.223  21.242  1.00  0.00     0.347 HD
ATOM     85  H   UNL A   1      31.568  29.244  22.024  1.00  0.00     0.347 HD
BRANCH  83  86
ATOM     86  C   UNL A   1      29.675  29.319  22.819  1.00  0.00     0.183 C 
ATOM     87  C   UNL A   1      29.216  30.683  22.361  1.00  0.00     0.071 C 
ATOM     88  C   UNL A   1      28.337  29.495  22.157  1.00  0.00     0.071 C 
ENDBRANCH  83  86
ENDBRANCH  77  83
BRANCH  81  89
ATOM     89  S   UNL A   1      33.132  25.081  24.552  1.00  0.00    -0.155 SA
BRANCH  89  90
ATOM     90  C   UNL A   1      34.841  24.406  24.380  1.00  0.00     0.047 C 
ATOM     91  C   UNL A   1      35.579  24.097  25.692  1.00  0.00     0.014 C 
ATOM     92  C   UNL A   1      34.959  23.292  23.342  1.00  0.00     0.014 C 
ATOM     93  C   UNL A   1      37.026  23.651  25.450  1.00  0.00     0.001 C 
ATOM     94  C   UNL A   1      36.425  22.909  23.121  1.00  0.00     0.001 C 
ATOM     95  C   UNL A   1      37.106  22.520  24.430  1.00  0.00     0.000 C 
ENDBRANCH  89  90
ENDBRANCH  81  89
ENDBRANCH  75  77
ENDBRANCH  74  75
ENDBRANCH  73  74
ENDBRANCH  72  73
ENDBRANCH   1  72
TORSDOF 18
ENDMDL
MODEL 3
REMARK VINA RESULT:     -11.2      5.312     10.483
REMARK SMILES O=C(OCCOCCOC(=O)[C@]1([NH2+]C2CC2)CCC[C@H](SC2CCCCC2)C1)c1ccc(-c2c3nc(c(-c4c(F)c(F)c(F)c(F)c4F)c4ccc([nH]4)c(-c4c(F)c(F)c(F)c(F)c4F)c4nc(c(-c5c(F)c(F)c(F)c(F)c5F)c5ccc2[nH]5)C=C4)C=C3)cc1
REMARK SMILES IDX 6 1 5 2 4 3 3 4 2 5 1 6 29 7 30 8 91 9 31 10 90 11 32 12
REMARK SMILES IDX 33 13 34 14 84 15 35 16 89 17 83 18 85 19 36 20 88 21 82 22
REMARK SMILES IDX 81 23 37 25 69 26 49 27 68 28 50 29 53 30 67 31 86 32 51 33
REMARK SMILES IDX 52 34 66 36 87 37 54 38 38 39 39 40 47 41 40 42 41 43 45 44
REMARK SMILES IDX 48 45 42 46 43 47 46 48 44 49 70 50 71 51 79 52 72 53 73 54
REMARK SMILES IDX 77 55 80 56 74 57 75 58 78 59 76 60 55 61 56 62 64 63 57 64
REMARK SMILES IDX 58 65 62 66 65 67 59 68 60 69 63 70 61 71 7 72 8 73 9 74
REMARK SMILES IDX 10 75 11 76 12 77 17 78 28 79 18 80 20 81 19 82 13 83 14 86
REMARK SMILES IDX 15 87 16 88 21 89 22 90 23 91 27 92 24 93 26 94 25 95
REMARK H PARENT 85 24 53 35 13 84 13 85
REMARK Flexibility Score: inf
ROOT
ATOM      1  O   UNL A   1      33.334  30.829  26.710  1.00  0.00    -0.374 OA
ENDROOT
BRANCH   1   2
ATOM      2  C   UNL A   1      32.024  31.381  26.860  1.00  0.00     0.202 C 
BRANCH   2   3
ATOM      3  C   UNL A   1      31.941  32.905  26.876  1.00  0.00     0.261 C 
BRANCH   3   4
ATOM      4  O   UNL A   1      32.533  33.429  28.067  1.00  0.00    -0.460 OA
BRANCH   4   5
ATOM      5  C   UNL A   1      33.777  33.958  28.141  1.00  0.00     0.338 C 
ATOM      6  O   UNL A   1      33.938  35.144  27.851  1.00  0.00    -0.246 OA
BRANCH   5   7
ATOM      7  C   UNL A   1      34.946  33.190  28.676  1.00  0.00     0.060 A 
ATOM      8  C   UNL A   1      34.889  31.944  29.310  1.00  0.00     0.016 A 
ATOM      9  C   UNL A   1      36.212  33.759  28.466  1.00  0.00     0.016 A 
ATOM     10  C   UNL A   1      36.016  31.268  29.701  1.00  0.00     0.010 A 
ATOM     11  C   UNL A   1      37.367  33.101  28.888  1.00  0.00     0.010 A 
ATOM     12  C   UNL A   1      37.252  31.856  29.511  1.00  0.00    -0.014 A 
BRANCH  12  13
ATOM     13  C   UNL A   1      38.353  31.195  30.204  1.00  0.00     0.031 A 
ATOM     14  C   UNL A   1      38.448  31.420  31.677  1.00  0.00     0.074 A 
ATOM     15  C   UNL A   1      39.033  30.234  29.562  1.00  0.00     0.049 A 
ATOM     16  N   UNL A   1      39.311  30.952  32.531  1.00  0.00    -0.248 NA
ATOM     17  C   UNL A   1      37.400  32.269  32.276  1.00  0.00     0.031 C 
ATOM     18  C   UNL A   1      38.798  29.817  28.176  1.00  0.00     0.029 A 
ATOM     19  N   UNL A   1      40.010  29.393  30.006  1.00  0.00    -0.354 N 
ATOM     20  C   UNL A   1      38.944  31.492  33.755  1.00  0.00     0.074 A 
ATOM     21  C   UNL A   1      37.765  32.296  33.546  1.00  0.00     0.031 C 
ATOM     22  C   UNL A   1      39.602  28.782  27.891  1.00  0.00     0.029 A 
ATOM     23  C   UNL A   1      40.456  28.526  29.043  1.00  0.00     0.049 A 
ATOM     24  H   UNL A   1      40.361  29.408  30.926  1.00  0.00     0.167 HD
ATOM     25  C   UNL A   1      39.578  31.339  34.938  1.00  0.00     0.037 A 
ATOM     26  C   UNL A   1      41.482  27.658  29.101  1.00  0.00     0.037 A 
ATOM     27  C   UNL A   1      40.750  30.520  35.077  1.00  0.00     0.049 A 
ATOM     28  C   UNL A   1      42.248  27.597  30.394  1.00  0.00     0.074 A 
ATOM     29  C   UNL A   1      41.563  30.340  36.177  1.00  0.00     0.029 A 
ATOM     30  N   UNL A   1      41.273  29.736  34.052  1.00  0.00    -0.354 N 
ATOM     31  N   UNL A   1      42.001  28.208  31.530  1.00  0.00    -0.248 NA
ATOM     32  C   UNL A   1      43.445  26.753  30.410  1.00  0.00     0.031 C 
ATOM     33  C   UNL A   1      42.607  29.486  35.799  1.00  0.00     0.029 A 
ATOM     34  C   UNL A   1      42.409  29.083  34.485  1.00  0.00     0.049 A 
ATOM     35  H   UNL A   1      40.888  29.659  33.148  1.00  0.00     0.167 HD
ATOM     36  C   UNL A   1      42.996  27.809  32.407  1.00  0.00     0.074 A 
ATOM     37  C   UNL A   1      43.843  26.889  31.668  1.00  0.00     0.031 C 
ATOM     38  C   UNL A   1      43.201  28.164  33.701  1.00  0.00     0.037 A 
BRANCH  25  39
ATOM     39  C   UNL A   1      39.083  32.172  36.081  1.00  0.00     0.064 A 
ATOM     40  C   UNL A   1      39.544  33.476  36.322  1.00  0.00     0.173 A 
ATOM     41  C   UNL A   1      38.197  31.610  37.013  1.00  0.00     0.173 A 
ATOM     42  F   UNL A   1      40.426  34.045  35.487  1.00  0.00    -0.203 F 
ATOM     43  C   UNL A   1      39.169  34.168  37.472  1.00  0.00     0.198 A 
ATOM     44  C   UNL A   1      37.799  32.316  38.145  1.00  0.00     0.198 A 
ATOM     45  F   UNL A   1      37.739  30.362  36.842  1.00  0.00    -0.203 F 
ATOM     46  F   UNL A   1      39.686  35.379  37.723  1.00  0.00    -0.200 F 
ATOM     47  C   UNL A   1      38.296  33.588  38.382  1.00  0.00     0.200 A 
ATOM     48  F   UNL A   1      36.959  31.752  39.023  1.00  0.00    -0.200 F 
ATOM     49  F   UNL A   1      37.952  34.246  39.497  1.00  0.00    -0.200 F 
ENDBRANCH  25  39
BRANCH  26  50
ATOM     50  C   UNL A   1      41.859  26.858  27.907  1.00  0.00     0.064 A 
ATOM     51  C   UNL A   1      42.773  27.345  26.963  1.00  0.00     0.173 A 
ATOM     52  C   UNL A   1      41.317  25.582  27.684  1.00  0.00     0.173 A 
ATOM     53  F   UNL A   1      43.307  28.566  27.115  1.00  0.00    -0.203 F 
ATOM     54  C   UNL A   1      43.119  26.594  25.840  1.00  0.00     0.198 A 
ATOM     55  C   UNL A   1      41.688  24.818  26.580  1.00  0.00     0.198 A 
ATOM     56  F   UNL A   1      40.435  25.065  28.553  1.00  0.00    -0.203 F 
ATOM     57  F   UNL A   1      43.964  27.101  24.932  1.00  0.00    -0.200 F 
ATOM     58  C   UNL A   1      42.582  25.328  25.653  1.00  0.00     0.200 A 
ATOM     59  F   UNL A   1      41.175  23.591  26.413  1.00  0.00    -0.200 F 
ATOM     60  F   UNL A   1      42.920  24.605  24.576  1.00  0.00    -0.200 F 
ENDBRANCH  26  50
BRANCH  38  61
ATOM     61  C   UNL A   1      44.349  27.504  34.399  1.00  0.00     0.064 A 
ATOM     62  C   UNL A   1      44.212  26.262  35.034  1.00  0.00     0.173 A 
ATOM     63  C   UNL A   1      45.614  28.110  34.387  1.00  0.00     0.173 A 
ATOM     64  F   UNL A   1      43.017  25.655  35.083  1.00  0.00    -0.203 F 
ATOM     65  C   UNL A   1      45.300  25.661  35.658  1.00  0.00     0.198 A 
ATOM     66  C   UNL A   1      46.706  27.490  34.981  1.00  0.00     0.198 A 
ATOM     67  F   UNL A   1      45.790  29.295  33.783  1.00  0.00    -0.203 F 
ATOM     68  F   UNL A   1      45.140  24.499  36.305  1.00  0.00    -0.200 F 
ATOM     69  C   UNL A   1      46.546  26.271  35.623  1.00  0.00     0.200 A 
ATOM     70  F   UNL A   1      47.912  28.070  34.932  1.00  0.00    -0.200 F 
ATOM     71  F   UNL A   1      47.595  25.685  36.217  1.00  0.00    -0.200 F 
ENDBRANCH  38  61
ENDBRANCH  12  13
ENDBRANCH   5   7
ENDBRANCH   4   5
ENDBRANCH   3   4
ENDBRANCH   2   3
ENDBRANCH   1   2
BRANCH   1  72
ATOM     72  C   UNL A   1      33.380  29.473  26.265  1.00  0.00     0.202 C 
BRANCH  72  73
ATOM     73  C   UNL A   1      32.547  28.587  27.178  1.00  0.00     0.261 C 
BRANCH  73  74
ATOM     74  O   UNL A   1      32.710  27.259  26.663  1.00  0.00    -0.459 OA
BRANCH  74  75
ATOM     75  C   UNL A   1      31.631  26.646  26.143  1.00  0.00     0.368 C 
ATOM     76  O   UNL A   1      30.532  26.711  26.688  1.00  0.00    -0.245 OA
BRANCH  75  77
ATOM     77  C   UNL A   1      31.991  25.705  24.904  1.00  0.00     0.195 C 
ATOM     78  C   UNL A   1      33.110  25.938  23.815  1.00  0.00     0.081 C 
ATOM     79  C   UNL A   1      30.642  25.677  24.100  1.00  0.00     0.095 C 
ATOM     80  C   UNL A   1      32.882  26.787  22.555  1.00  0.00     0.008 C 
ATOM     81  C   UNL A   1      30.456  26.905  23.105  1.00  0.00     0.053 C 
ATOM     82  C   UNL A   1      31.475  26.676  22.001  1.00  0.00     0.015 C 
BRANCH  77  83
ATOM     83  N   UNL A   1      32.403  24.391  25.585  1.00  0.00    -0.330 N 
ATOM     84  H   UNL A   1      32.219  24.476  26.585  1.00  0.00     0.347 HD
ATOM     85  H   UNL A   1      33.392  24.249  25.376  1.00  0.00     0.347 HD
BRANCH  83  86
ATOM     86  C   UNL A   1      31.670  23.170  25.070  1.00  0.00     0.183 C 
ATOM     87  C   UNL A   1      32.045  21.770  25.496  1.00  0.00     0.071 C 
ATOM     88  C   UNL A   1      30.760  22.369  25.960  1.00  0.00     0.071 C 
ENDBRANCH  83  86
ENDBRANCH  77  83
BRANCH  81  89
ATOM     89  S   UNL A   1      30.673  28.593  23.898  1.00  0.00    -0.155 SA
BRANCH  89  90
ATOM     90  C   UNL A   1      29.407  29.755  23.226  1.00  0.00     0.047 C 
ATOM     91  C   UNL A   1      29.298  31.115  23.932  1.00  0.00     0.014 C 
ATOM     92  C   UNL A   1      29.420  29.862  21.703  1.00  0.00     0.014 C 
ATOM     93  C   UNL A   1      28.146  31.962  23.379  1.00  0.00     0.001 C 
ATOM     94  C   UNL A   1      28.233  30.693  21.206  1.00  0.00     0.001 C 
ATOM     95  C   UNL A   1      28.204  32.073  21.858  1.00  0.00     0.000 C 
ENDBRANCH  89  90
ENDBRANCH  81  89
ENDBRANCH  75  77
ENDBRANCH  74  75
ENDBRANCH  73  74
ENDBRANCH  72  73
ENDBRANCH   1  72
TORSDOF 18
ENDMDL
