MODEL 1
REMARK VINA RESULT:     -11.2      0.000      0.000
REMARK SMILES CC(C)C[C@H](CNC(=O)Nc1ccccc1Br)C(=O)OCCOCCOC(=O)c1ccc(-c2c3nc(c(-c4c(F)c(F)c(F)c(F)c4F)c4ccc([nH]4)c(-c4c(F)c(F)c(F)c(F)c4F)c4nc(c(-c5c(F)c(F)c(F)c(F)c5F)c5ccc2[nH]5)C=C4)C=C3)cc1
REMARK SMILES IDX 22 1 21 2 20 3 18 4 19 5 5 6 4 7 2 8 1 9 3 10 6 11 7 12 8 13
REMARK SMILES IDX 9 15 10 16 11 18 12 19 16 20 13 21 15 22 17 23 14 24 23 25
REMARK SMILES IDX 24 26 25 27 26 28 27 29 28 30 29 31 30 32 91 33 31 34 90 35
REMARK SMILES IDX 32 36 33 37 34 38 84 39 35 40 89 41 83 42 85 43 36 44 88 45
REMARK SMILES IDX 82 46 81 47 37 49 69 50 49 51 68 52 50 53 53 54 67 55 86 56
REMARK SMILES IDX 51 57 52 58 66 60 87 61 54 62 38 63 39 64 47 65 40 66 41 67
REMARK SMILES IDX 45 68 48 69 42 70 43 71 46 72 44 73 70 74 71 75 79 76 72 77
REMARK SMILES IDX 73 78 77 79 80 80 74 81 75 82 78 83 76 84 55 85 56 86 64 87
REMARK SMILES IDX 57 88 58 89 62 90 65 91 59 92 60 93 63 94 61 95
REMARK H PARENT 7 14 10 17 85 48 53 59
REMARK Flexibility Score: inf
ROOT
ATOM      1  C   UNL A   1      34.007  19.230  24.631  1.00  0.00     0.202 C 
ENDROOT
BRANCH   1   2
ATOM      2  C   UNL A   1      32.639  19.561  24.022  1.00  0.00     0.261 C 
BRANCH   2   3
ATOM      3  O   UNL A   1      32.095  20.842  24.389  1.00  0.00    -0.463 OA
BRANCH   3   4
ATOM      4  C   UNL A   1      32.141  21.791  23.414  1.00  0.00     0.310 C 
ATOM      5  O   UNL A   1      32.180  21.543  22.214  1.00  0.00    -0.252 OA
BRANCH   4   6
ATOM      6  C   UNL A   1      32.186  23.213  23.949  1.00  0.00     0.119 C 
BRANCH   6   7
ATOM      7  C   UNL A   1      31.515  23.243  25.337  1.00  0.00     0.020 C 
BRANCH   7   8
ATOM      8  C   UNL A   1      32.180  24.189  26.366  1.00  0.00    -0.017 C 
ATOM      9  C   UNL A   1      33.654  24.454  26.048  1.00  0.00     0.007 C 
ATOM     10  C   UNL A   1      31.417  25.513  26.432  1.00  0.00     0.007 C 
ENDBRANCH   7   8
ENDBRANCH   6   7
BRANCH   6  11
ATOM     11  C   UNL A   1      31.575  24.231  22.968  1.00  0.00     0.133 C 
BRANCH  11  12
ATOM     12  N   UNL A   1      32.467  24.527  21.850  1.00  0.00    -0.337 N 
ATOM     13  C   UNL A   1      32.588  25.642  21.096  1.00  0.00     0.319 C 
ATOM     14  H   UNL A   1      33.080  23.797  21.607  1.00  0.00     0.165 HD
ATOM     15  O   UNL A   1      32.982  25.524  19.936  1.00  0.00    -0.249 OA
ATOM     16  N   UNL A   1      32.152  26.838  21.536  1.00  0.00    -0.307 N 
ATOM     17  H   UNL A   1      31.641  27.349  20.867  1.00  0.00     0.171 HD
BRANCH  16  18
ATOM     18  C   UNL A   1      32.289  27.499  22.775  1.00  0.00     0.057 A 
ATOM     19  C   UNL A   1      33.559  27.373  23.368  1.00  0.00     0.027 A 
ATOM     20  C   UNL A   1      31.282  28.171  23.491  1.00  0.00     0.041 A 
ATOM     21  C   UNL A   1      33.844  27.951  24.607  1.00  0.00     0.002 A 
ATOM     22  C   UNL A   1      31.575  28.747  24.740  1.00  0.00     0.018 A 
ATOM     23  Br  UNL A   1      29.449  28.231  22.991  1.00  0.00    -0.049 Br
ATOM     24  C   UNL A   1      32.852  28.642  25.292  1.00  0.00     0.001 A 
ENDBRANCH  16  18
ENDBRANCH  11  12
ENDBRANCH   6  11
ENDBRANCH   4   6
ENDBRANCH   3   4
ENDBRANCH   2   3
ENDBRANCH   1   2
BRANCH   1  25
ATOM     25  O   UNL A   1      34.991  20.256  24.670  1.00  0.00    -0.374 OA
BRANCH  25  26
ATOM     26  C   UNL A   1      36.338  19.891  24.944  1.00  0.00     0.202 C 
BRANCH  26  27
ATOM     27  C   UNL A   1      37.398  20.986  24.824  1.00  0.00     0.261 C 
BRANCH  27  28
ATOM     28  O   UNL A   1      37.878  21.456  26.094  1.00  0.00    -0.460 OA
BRANCH  28  29
ATOM     29  C   UNL A   1      39.225  21.457  26.205  1.00  0.00     0.338 C 
ATOM     30  O   UNL A   1      40.012  20.621  25.780  1.00  0.00    -0.246 OA
BRANCH  29  31
ATOM     31  C   UNL A   1      39.686  22.687  26.858  1.00  0.00     0.060 A 
ATOM     32  C   UNL A   1      39.152  23.913  26.439  1.00  0.00     0.016 A 
ATOM     33  C   UNL A   1      40.765  22.639  27.740  1.00  0.00     0.016 A 
ATOM     34  C   UNL A   1      39.732  25.106  26.874  1.00  0.00     0.010 A 
ATOM     35  C   UNL A   1      41.346  23.834  28.170  1.00  0.00     0.010 A 
ATOM     36  C   UNL A   1      40.857  25.070  27.709  1.00  0.00    -0.014 A 
BRANCH  36  37
ATOM     37  C   UNL A   1      41.621  26.309  27.994  1.00  0.00     0.031 A 
ATOM     38  C   UNL A   1      40.950  27.428  28.740  1.00  0.00     0.074 A 
ATOM     39  C   UNL A   1      42.888  26.445  27.570  1.00  0.00     0.049 A 
ATOM     40  N   UNL A   1      41.385  28.635  28.999  1.00  0.00    -0.248 NA
ATOM     41  C   UNL A   1      39.602  27.149  29.258  1.00  0.00     0.031 C 
ATOM     42  C   UNL A   1      43.656  25.419  26.868  1.00  0.00     0.029 A 
ATOM     43  N   UNL A   1      43.744  27.515  27.650  1.00  0.00    -0.354 N 
ATOM     44  C   UNL A   1      40.361  29.264  29.694  1.00  0.00     0.074 A 
ATOM     45  C   UNL A   1      39.276  28.311  29.804  1.00  0.00     0.031 C 
ATOM     46  C   UNL A   1      44.863  25.918  26.556  1.00  0.00     0.029 A 
ATOM     47  C   UNL A   1      44.938  27.307  27.007  1.00  0.00     0.049 A 
ATOM     48  H   UNL A   1      43.522  28.349  28.123  1.00  0.00     0.167 HD
ATOM     49  C   UNL A   1      40.330  30.522  30.194  1.00  0.00     0.037 A 
ATOM     50  C   UNL A   1      45.960  28.154  26.781  1.00  0.00     0.037 A 
ATOM     51  C   UNL A   1      41.411  31.465  30.084  1.00  0.00     0.049 A 
ATOM     52  C   UNL A   1      45.887  29.564  27.302  1.00  0.00     0.074 A 
ATOM     53  C   UNL A   1      41.485  32.756  30.578  1.00  0.00     0.029 A 
ATOM     54  N   UNL A   1      42.605  31.218  29.425  1.00  0.00    -0.354 N 
ATOM     55  N   UNL A   1      44.924  30.146  27.974  1.00  0.00    -0.248 NA
ATOM     56  C   UNL A   1      47.042  30.434  27.035  1.00  0.00     0.031 C 
ATOM     57  C   UNL A   1      42.710  33.304  30.182  1.00  0.00     0.029 A 
ATOM     58  C   UNL A   1      43.417  32.339  29.480  1.00  0.00     0.049 A 
ATOM     59  H   UNL A   1      42.843  30.371  28.984  1.00  0.00     0.167 HD
ATOM     60  C   UNL A   1      45.363  31.438  28.232  1.00  0.00     0.074 A 
ATOM     61  C   UNL A   1      46.682  31.555  27.646  1.00  0.00     0.031 C 
ATOM     62  C   UNL A   1      44.731  32.434  28.899  1.00  0.00     0.037 A 
BRANCH  49  63
ATOM     63  C   UNL A   1      39.068  30.959  30.877  1.00  0.00     0.064 A 
ATOM     64  C   UNL A   1      38.883  30.799  32.258  1.00  0.00     0.173 A 
ATOM     65  C   UNL A   1      38.035  31.559  30.141  1.00  0.00     0.173 A 
ATOM     66  F   UNL A   1      39.835  30.218  33.003  1.00  0.00    -0.203 F 
ATOM     67  C   UNL A   1      37.698  31.196  32.873  1.00  0.00     0.198 A 
ATOM     68  C   UNL A   1      36.861  31.978  30.762  1.00  0.00     0.198 A 
ATOM     69  F   UNL A   1      38.164  31.740  28.818  1.00  0.00    -0.203 F 
ATOM     70  F   UNL A   1      37.523  30.989  34.185  1.00  0.00    -0.200 F 
ATOM     71  C   UNL A   1      36.691  31.789  32.125  1.00  0.00     0.200 A 
ATOM     72  F   UNL A   1      35.893  32.558  30.040  1.00  0.00    -0.200 F 
ATOM     73  F   UNL A   1      35.550  32.169  32.718  1.00  0.00    -0.200 F 
ENDBRANCH  49  63
BRANCH  50  74
ATOM     74  C   UNL A   1      47.137  27.683  26.008  1.00  0.00     0.064 A 
ATOM     75  C   UNL A   1      47.151  27.735  24.609  1.00  0.00     0.173 A 
ATOM     76  C   UNL A   1      48.284  27.201  26.658  1.00  0.00     0.173 A 
ATOM     77  F   UNL A   1      46.069  28.167  23.945  1.00  0.00    -0.203 F 
ATOM     78  C   UNL A   1      48.266  27.319  23.885  1.00  0.00     0.198 A 
ATOM     79  C   UNL A   1      49.406  26.807  25.935  1.00  0.00     0.198 A 
ATOM     80  F   UNL A   1      48.318  27.133  27.996  1.00  0.00    -0.203 F 
ATOM     81  F   UNL A   1      48.245  27.355  22.546  1.00  0.00    -0.200 F 
ATOM     82  C   UNL A   1      49.396  26.863  24.549  1.00  0.00     0.200 A 
ATOM     83  F   UNL A   1      50.500  26.379  26.581  1.00  0.00    -0.200 F 
ATOM     84  F   UNL A   1      50.475  26.478  23.853  1.00  0.00    -0.200 F 
ENDBRANCH  50  74
BRANCH  62  85
ATOM     85  C   UNL A   1      45.470  33.730  29.068  1.00  0.00     0.064 A 
ATOM     86  C   UNL A   1      45.295  34.795  28.174  1.00  0.00     0.173 A 
ATOM     87  C   UNL A   1      46.311  33.925  30.173  1.00  0.00     0.173 A 
ATOM     88  F   UNL A   1      44.511  34.651  27.095  1.00  0.00    -0.203 F 
ATOM     89  C   UNL A   1      45.949  36.009  28.375  1.00  0.00     0.198 A 
ATOM     90  C   UNL A   1      46.946  35.146  30.382  1.00  0.00     0.198 A 
ATOM     91  F   UNL A   1      46.505  32.935  31.058  1.00  0.00    -0.203 F 
ATOM     92  F   UNL A   1      45.793  37.006  27.493  1.00  0.00    -0.200 F 
ATOM     93  C   UNL A   1      46.767  36.185  29.482  1.00  0.00     0.200 A 
ATOM     94  F   UNL A   1      47.727  35.318  31.457  1.00  0.00    -0.200 F 
ATOM     95  F   UNL A   1      47.387  37.357  29.678  1.00  0.00    -0.200 F 
ENDBRANCH  62  85
ENDBRANCH  36  37
ENDBRANCH  29  31
ENDBRANCH  28  29
ENDBRANCH  27  28
ENDBRANCH  26  27
ENDBRANCH  25  26
ENDBRANCH   1  25
TORSDOF 19
ENDMDL
MODEL 2
REMARK VINA RESULT:     -11.1      1.743      7.768
REMARK SMILES CC(C)C[C@H](CNC(=O)Nc1ccccc1Br)C(=O)OCCOCCOC(=O)c1ccc(-c2c3nc(c(-c4c(F)c(F)c(F)c(F)c4F)c4ccc([nH]4)c(-c4c(F)c(F)c(F)c(F)c4F)c4nc(c(-c5c(F)c(F)c(F)c(F)c5F)c5ccc2[nH]5)C=C4)C=C3)cc1
REMARK SMILES IDX 22 1 21 2 20 3 18 4 19 5 5 6 4 7 2 8 1 9 3 10 6 11 7 12 8 13
REMARK SMILES IDX 9 15 10 16 11 18 12 19 16 20 13 21 15 22 17 23 14 24 23 25
REMARK SMILES IDX 24 26 25 27 26 28 27 29 28 30 29 31 30 32 91 33 31 34 90 35
REMARK SMILES IDX 32 36 33 37 34 38 84 39 35 40 89 41 83 42 85 43 36 44 88 45
REMARK SMILES IDX 82 46 81 47 37 49 69 50 49 51 68 52 50 53 53 54 67 55 86 56
REMARK SMILES IDX 51 57 52 58 66 60 87 61 54 62 38 63 39 64 47 65 40 66 41 67
REMARK SMILES IDX 45 68 48 69 42 70 43 71 46 72 44 73 70 74 71 75 79 76 72 77
REMARK SMILES IDX 73 78 77 79 80 80 74 81 75 82 78 83 76 84 55 85 56 86 64 87
REMARK SMILES IDX 57 88 58 89 62 90 65 91 59 92 60 93 63 94 61 95
REMARK H PARENT 7 14 10 17 85 48 53 59
REMARK Flexibility Score: inf
ROOT
ATOM      1  C   UNL A   1      37.227  22.051  25.166  1.00  0.00     0.202 C 
ENDROOT
BRANCH   1   2
ATOM      2  C   UNL A   1      35.909  22.075  25.950  1.00  0.00     0.261 C 
BRANCH   2   3
ATOM      3  O   UNL A   1      34.950  21.069  25.575  1.00  0.00    -0.463 OA
BRANCH   3   4
ATOM      4  C   UNL A   1      33.771  21.113  26.254  1.00  0.00     0.310 C 
ATOM      5  O   UNL A   1      33.678  21.326  27.458  1.00  0.00    -0.252 OA
BRANCH   4   6
ATOM      6  C   UNL A   1      32.557  20.824  25.387  1.00  0.00     0.119 C 
BRANCH   6   7
ATOM      7  C   UNL A   1      33.022  20.101  24.106  1.00  0.00     0.020 C 
BRANCH   7   8
ATOM      8  C   UNL A   1      32.532  18.641  23.963  1.00  0.00    -0.017 C 
ATOM      9  C   UNL A   1      32.413  18.204  22.501  1.00  0.00     0.007 C 
ATOM     10  C   UNL A   1      33.474  17.696  24.713  1.00  0.00     0.007 C 
ENDBRANCH   7   8
ENDBRANCH   6   7
BRANCH   6  11
ATOM     11  C   UNL A   1      31.730  22.089  25.092  1.00  0.00     0.133 C 
BRANCH  11  12
ATOM     12  N   UNL A   1      30.575  22.215  25.977  1.00  0.00    -0.337 N 
ATOM     13  C   UNL A   1      30.252  23.181  26.864  1.00  0.00     0.319 C 
ATOM     14  H   UNL A   1      29.928  21.477  25.917  1.00  0.00     0.165 HD
ATOM     15  O   UNL A   1      29.570  22.873  27.842  1.00  0.00    -0.249 OA
ATOM     16  N   UNL A   1      30.775  24.420  26.776  1.00  0.00    -0.307 N 
ATOM     17  H   UNL A   1      31.088  24.784  27.636  1.00  0.00     0.171 HD
BRANCH  16  18
ATOM     18  C   UNL A   1      30.957  25.295  25.686  1.00  0.00     0.057 A 
ATOM     19  C   UNL A   1      29.767  25.691  25.047  1.00  0.00     0.027 A 
ATOM     20  C   UNL A   1      32.181  25.722  25.139  1.00  0.00     0.041 A 
ATOM     21  C   UNL A   1      29.784  26.537  23.936  1.00  0.00     0.002 A 
ATOM     22  C   UNL A   1      32.190  26.570  24.018  1.00  0.00     0.018 A 
ATOM     23  Br  UNL A   1      33.891  25.100  25.688  1.00  0.00    -0.049 Br
ATOM     24  C   UNL A   1      30.997  26.980  23.423  1.00  0.00     0.001 A 
ENDBRANCH  16  18
ENDBRANCH  11  12
ENDBRANCH   6  11
ENDBRANCH   4   6
ENDBRANCH   3   4
ENDBRANCH   2   3
ENDBRANCH   1   2
BRANCH   1  25
ATOM     25  O   UNL A   1      37.523  20.898  24.387  1.00  0.00    -0.374 OA
BRANCH  25  26
ATOM     26  C   UNL A   1      37.916  19.708  25.061  1.00  0.00     0.202 C 
BRANCH  26  27
ATOM     27  C   UNL A   1      39.373  19.607  25.509  1.00  0.00     0.261 C 
BRANCH  27  28
ATOM     28  O   UNL A   1      39.608  20.165  26.812  1.00  0.00    -0.460 OA
BRANCH  28  29
ATOM     29  C   UNL A   1      40.897  20.502  27.039  1.00  0.00     0.338 C 
ATOM     30  O   UNL A   1      41.894  19.811  26.871  1.00  0.00    -0.246 OA
BRANCH  29  31
ATOM     31  C   UNL A   1      40.994  21.905  27.457  1.00  0.00     0.060 A 
ATOM     32  C   UNL A   1      40.257  22.870  26.757  1.00  0.00     0.016 A 
ATOM     33  C   UNL A   1      41.945  22.280  28.407  1.00  0.00     0.016 A 
ATOM     34  C   UNL A   1      40.504  24.225  26.979  1.00  0.00     0.010 A 
ATOM     35  C   UNL A   1      42.192  23.637  28.623  1.00  0.00     0.010 A 
ATOM     36  C   UNL A   1      41.501  24.614  27.884  1.00  0.00    -0.014 A 
BRANCH  36  37
ATOM     37  C   UNL A   1      41.933  26.030  27.963  1.00  0.00     0.031 A 
ATOM     38  C   UNL A   1      43.265  26.423  27.388  1.00  0.00     0.074 A 
ATOM     39  C   UNL A   1      41.160  26.950  28.564  1.00  0.00     0.049 A 
ATOM     40  N   UNL A   1      43.891  27.571  27.444  1.00  0.00    -0.248 NA
ATOM     41  C   UNL A   1      43.993  25.375  26.656  1.00  0.00     0.031 C 
ATOM     42  C   UNL A   1      39.836  26.697  29.128  1.00  0.00     0.029 A 
ATOM     43  N   UNL A   1      41.391  28.278  28.818  1.00  0.00    -0.354 N 
ATOM     44  C   UNL A   1      45.090  27.380  26.771  1.00  0.00     0.074 A 
ATOM     45  C   UNL A   1      45.113  26.002  26.327  1.00  0.00     0.031 C 
ATOM     46  C   UNL A   1      39.381  27.830  29.688  1.00  0.00     0.029 A 
ATOM     47  C   UNL A   1      40.395  28.874  29.550  1.00  0.00     0.049 A 
ATOM     48  H   UNL A   1      42.193  28.756  28.506  1.00  0.00     0.167 HD
ATOM     49  C   UNL A   1      46.082  28.274  26.545  1.00  0.00     0.037 A 
ATOM     50  C   UNL A   1      40.328  30.112  30.076  1.00  0.00     0.037 A 
ATOM     51  C   UNL A   1      46.055  29.644  26.985  1.00  0.00     0.049 A 
ATOM     52  C   UNL A   1      41.461  31.077  29.856  1.00  0.00     0.074 A 
ATOM     53  C   UNL A   1      47.000  30.635  26.786  1.00  0.00     0.029 A 
ATOM     54  N   UNL A   1      45.028  30.212  27.725  1.00  0.00    -0.354 N 
ATOM     55  N   UNL A   1      42.584  30.896  29.203  1.00  0.00    -0.248 NA
ATOM     56  C   UNL A   1      41.319  32.417  30.444  1.00  0.00     0.031 C 
ATOM     57  C   UNL A   1      46.563  31.793  27.440  1.00  0.00     0.029 A 
ATOM     58  C   UNL A   1      45.325  31.535  28.009  1.00  0.00     0.049 A 
ATOM     59  H   UNL A   1      44.209  29.744  28.006  1.00  0.00     0.167 HD
ATOM     60  C   UNL A   1      43.269  32.101  29.278  1.00  0.00     0.074 A 
ATOM     61  C   UNL A   1      42.435  33.009  30.039  1.00  0.00     0.031 C 
ATOM     62  C   UNL A   1      44.478  32.426  28.759  1.00  0.00     0.037 A 
BRANCH  49  63
ATOM     63  C   UNL A   1      47.296  27.784  25.814  1.00  0.00     0.064 A 
ATOM     64  C   UNL A   1      47.365  27.790  24.412  1.00  0.00     0.173 A 
ATOM     65  C   UNL A   1      48.410  27.315  26.524  1.00  0.00     0.173 A 
ATOM     66  F   UNL A   1      46.320  28.216  23.687  1.00  0.00    -0.203 F 
ATOM     67  C   UNL A   1      48.495  27.315  23.749  1.00  0.00     0.198 A 
ATOM     68  C   UNL A   1      49.548  26.864  25.859  1.00  0.00     0.198 A 
ATOM     69  F   UNL A   1      48.397  27.293  27.865  1.00  0.00    -0.203 F 
ATOM     70  F   UNL A   1      48.521  27.285  22.410  1.00  0.00    -0.200 F 
ATOM     71  C   UNL A   1      49.586  26.858  24.474  1.00  0.00     0.200 A 
ATOM     72  F   UNL A   1      50.604  26.431  26.561  1.00  0.00    -0.200 F 
ATOM     73  F   UNL A   1      50.672  26.400  23.835  1.00  0.00    -0.200 F 
ENDBRANCH  49  63
BRANCH  50  74
ATOM     74  C   UNL A   1      39.138  30.498  30.877  1.00  0.00     0.064 A 
ATOM     75  C   UNL A   1      39.082  30.246  32.254  1.00  0.00     0.173 A 
ATOM     76  C   UNL A   1      38.048  31.153  30.285  1.00  0.00     0.173 A 
ATOM     77  F   UNL A   1      40.091  29.602  32.858  1.00  0.00    -0.203 F 
ATOM     78  C   UNL A   1      37.977  30.633  33.009  1.00  0.00     0.198 A 
ATOM     79  C   UNL A   1      36.955  31.560  31.045  1.00  0.00     0.198 A 
ATOM     80  F   UNL A   1      38.057  31.416  28.970  1.00  0.00    -0.203 F 
ATOM     81  F   UNL A   1      37.936  30.360  34.320  1.00  0.00    -0.200 F 
ATOM     82  C   UNL A   1      36.919  31.297  32.407  1.00  0.00     0.200 A 
ATOM     83  F   UNL A   1      35.940  32.212  30.460  1.00  0.00    -0.200 F 
ATOM     84  F   UNL A   1      35.864  31.683  33.137  1.00  0.00    -0.200 F 
ENDBRANCH  50  74
BRANCH  62  85
ATOM     85  C   UNL A   1      44.961  33.833  28.960  1.00  0.00     0.064 A 
ATOM     86  C   UNL A   1      44.614  34.860  28.073  1.00  0.00     0.173 A 
ATOM     87  C   UNL A   1      45.727  34.163  30.087  1.00  0.00     0.173 A 
ATOM     88  F   UNL A   1      43.895  34.590  26.973  1.00  0.00    -0.203 F 
ATOM     89  C   UNL A   1      45.028  36.171  28.303  1.00  0.00     0.198 A 
ATOM     90  C   UNL A   1      46.120  35.477  30.325  1.00  0.00     0.198 A 
ATOM     91  F   UNL A   1      46.079  33.213  30.968  1.00  0.00    -0.203 F 
ATOM     92  F   UNL A   1      44.711  37.135  27.427  1.00  0.00    -0.200 F 
ATOM     93  C   UNL A   1      45.774  36.478  29.432  1.00  0.00     0.200 A 
ATOM     94  F   UNL A   1      46.832  35.774  31.421  1.00  0.00    -0.200 F 
ATOM     95  F   UNL A   1      46.163  37.741  29.655  1.00  0.00    -0.200 F 
ENDBRANCH  62  85
ENDBRANCH  36  37
ENDBRANCH  29  31
ENDBRANCH  28  29
ENDBRANCH  27  28
ENDBRANCH  26  27
ENDBRANCH  25  26
ENDBRANCH   1  25
TORSDOF 19
ENDMDL
MODEL 3
REMARK VINA RESULT:     -11.0      1.097      2.110
REMARK SMILES CC(C)C[C@H](CNC(=O)Nc1ccccc1Br)C(=O)OCCOCCOC(=O)c1ccc(-c2c3nc(c(-c4c(F)c(F)c(F)c(F)c4F)c4ccc([nH]4)c(-c4c(F)c(F)c(F)c(F)c4F)c4nc(c(-c5c(F)c(F)c(F)c(F)c5F)c5ccc2[nH]5)C=C4)C=C3)cc1
REMARK SMILES IDX 22 1 21 2 20 3 18 4 19 5 5 6 4 7 2 8 1 9 3 10 6 11 7 12 8 13
REMARK SMILES IDX 9 15 10 16 11 18 12 19 16 20 13 21 15 22 17 23 14 24 23 25
REMARK SMILES IDX 24 26 25 27 26 28 27 29 28 30 29 31 30 32 91 33 31 34 90 35
REMARK SMILES IDX 32 36 33 37 34 38 84 39 35 40 89 41 83 42 85 43 36 44 88 45
REMARK SMILES IDX 82 46 81 47 37 49 69 50 49 51 68 52 50 53 53 54 67 55 86 56
REMARK SMILES IDX 51 57 52 58 66 60 87 61 54 62 38 63 39 64 47 65 40 66 41 67
REMARK SMILES IDX 45 68 48 69 42 70 43 71 46 72 44 73 70 74 71 75 79 76 72 77
REMARK SMILES IDX 73 78 77 79 80 80 74 81 75 82 78 83 76 84 55 85 56 86 64 87
REMARK SMILES IDX 57 88 58 89 62 90 65 91 59 92 60 93 63 94 61 95
REMARK H PARENT 7 14 10 17 85 48 53 59
REMARK Flexibility Score: inf
ROOT
ATOM      1  C   UNL A   1      34.033  20.399  25.470  1.00  0.00     0.202 C 
ENDROOT
BRANCH   1   2
ATOM      2  C   UNL A   1      33.078  20.039  24.326  1.00  0.00     0.261 C 
BRANCH   2   3
ATOM      3  O   UNL A   1      31.978  20.949  24.131  1.00  0.00    -0.463 OA
BRANCH   3   4
ATOM      4  C   UNL A   1      32.016  21.662  22.972  1.00  0.00     0.310 C 
ATOM      5  O   UNL A   1      32.153  21.162  21.861  1.00  0.00    -0.252 OA
BRANCH   4   6
ATOM      6  C   UNL A   1      31.917  23.165  23.178  1.00  0.00     0.119 C 
BRANCH   6   7
ATOM      7  C   UNL A   1      32.920  23.862  22.235  1.00  0.00     0.020 C 
BRANCH   7   8
ATOM      8  C   UNL A   1      32.614  25.350  21.939  1.00  0.00    -0.017 C 
ATOM      9  C   UNL A   1      33.655  26.292  22.549  1.00  0.00     0.007 C 
ATOM     10  C   UNL A   1      32.528  25.578  20.428  1.00  0.00     0.007 C 
ENDBRANCH   7   8
ENDBRANCH   6   7
BRANCH   6  11
ATOM     11  C   UNL A   1      32.102  23.571  24.651  1.00  0.00     0.133 C 
BRANCH  11  12
ATOM     12  N   UNL A   1      30.851  23.518  25.402  1.00  0.00    -0.337 N 
ATOM     13  C   UNL A   1      30.444  24.223  26.479  1.00  0.00     0.319 C 
ATOM     14  H   UNL A   1      30.198  22.861  25.069  1.00  0.00     0.165 HD
ATOM     15  O   UNL A   1      29.640  23.701  27.252  1.00  0.00    -0.249 OA
ATOM     16  N   UNL A   1      31.003  25.408  26.796  1.00  0.00    -0.307 N 
ATOM     17  H   UNL A   1      31.217  25.506  27.752  1.00  0.00     0.171 HD
BRANCH  16  18
ATOM     18  C   UNL A   1      31.339  26.534  26.017  1.00  0.00     0.057 A 
ATOM     19  C   UNL A   1      32.438  27.271  26.495  1.00  0.00     0.027 A 
ATOM     20  C   UNL A   1      30.644  27.024  24.895  1.00  0.00     0.041 A 
ATOM     21  C   UNL A   1      32.878  28.426  25.846  1.00  0.00     0.002 A 
ATOM     22  C   UNL A   1      31.091  28.191  24.250  1.00  0.00     0.018 A 
ATOM     23  Br  UNL A   1      28.997  26.330  24.249  1.00  0.00    -0.049 Br
ATOM     24  C   UNL A   1      32.206  28.884  24.719  1.00  0.00     0.001 A 
ENDBRANCH  16  18
ENDBRANCH  11  12
ENDBRANCH   6  11
ENDBRANCH   4   6
ENDBRANCH   3   4
ENDBRANCH   2   3
ENDBRANCH   1   2
BRANCH   1  25
ATOM     25  O   UNL A   1      35.380  20.717  25.145  1.00  0.00    -0.374 OA
BRANCH  25  26
ATOM     26  C   UNL A   1      36.295  19.648  24.933  1.00  0.00     0.202 C 
BRANCH  26  27
ATOM     27  C   UNL A   1      37.771  20.012  24.772  1.00  0.00     0.261 C 
BRANCH  27  28
ATOM     28  O   UNL A   1      38.161  21.161  25.542  1.00  0.00    -0.460 OA
BRANCH  28  29
ATOM     29  C   UNL A   1      39.371  21.040  26.132  1.00  0.00     0.338 C 
ATOM     30  O   UNL A   1      40.115  20.068  26.123  1.00  0.00    -0.246 OA
BRANCH  29  31
ATOM     31  C   UNL A   1      39.766  22.307  26.758  1.00  0.00     0.060 A 
ATOM     32  C   UNL A   1      39.246  23.503  26.245  1.00  0.00     0.016 A 
ATOM     33  C   UNL A   1      40.779  22.318  27.716  1.00  0.00     0.016 A 
ATOM     34  C   UNL A   1      39.776  24.724  26.664  1.00  0.00     0.010 A 
ATOM     35  C   UNL A   1      41.310  23.542  28.130  1.00  0.00     0.010 A 
ATOM     36  C   UNL A   1      40.838  24.747  27.578  1.00  0.00    -0.014 A 
BRANCH  36  37
ATOM     37  C   UNL A   1      41.561  26.011  27.858  1.00  0.00     0.031 A 
ATOM     38  C   UNL A   1      40.846  27.119  28.578  1.00  0.00     0.074 A 
ATOM     39  C   UNL A   1      42.831  26.178  27.452  1.00  0.00     0.049 A 
ATOM     40  N   UNL A   1      41.242  28.341  28.828  1.00  0.00    -0.248 NA
ATOM     41  C   UNL A   1      39.498  26.808  29.078  1.00  0.00     0.031 C 
ATOM     42  C   UNL A   1      43.639  25.165  26.777  1.00  0.00     0.029 A 
ATOM     43  N   UNL A   1      43.654  27.273  27.531  1.00  0.00    -0.354 N 
ATOM     44  C   UNL A   1      40.189  28.950  29.498  1.00  0.00     0.074 A 
ATOM     45  C   UNL A   1      39.130  27.967  29.604  1.00  0.00     0.031 C 
ATOM     46  C   UNL A   1      44.836  25.695  26.477  1.00  0.00     0.029 A 
ATOM     47  C   UNL A   1      44.863  27.091  26.910  1.00  0.00     0.049 A 
ATOM     48  H   UNL A   1      43.400  28.107  27.989  1.00  0.00     0.167 HD
ATOM     49  C   UNL A   1      40.114  30.212  29.980  1.00  0.00     0.037 A 
ATOM     50  C   UNL A   1      45.865  27.965  26.689  1.00  0.00     0.037 A 
ATOM     51  C   UNL A   1      41.169  31.185  29.875  1.00  0.00     0.049 A 
ATOM     52  C   UNL A   1      45.742  29.379  27.189  1.00  0.00     0.074 A 
ATOM     53  C   UNL A   1      41.198  32.485  30.352  1.00  0.00     0.029 A 
ATOM     54  N   UNL A   1      42.381  30.965  29.239  1.00  0.00    -0.354 N 
ATOM     55  N   UNL A   1      44.752  29.941  27.839  1.00  0.00    -0.248 NA
ATOM     56  C   UNL A   1      46.876  30.278  26.929  1.00  0.00     0.031 C 
ATOM     57  C   UNL A   1      42.414  33.063  29.969  1.00  0.00     0.029 A 
ATOM     58  C   UNL A   1      43.159  32.110  29.291  1.00  0.00     0.049 A 
ATOM     59  H   UNL A   1      42.650  30.119  28.812  1.00  0.00     0.167 HD
ATOM     60  C   UNL A   1      45.150  31.249  28.086  1.00  0.00     0.074 A 
ATOM     61  C   UNL A   1      46.475  31.396  27.519  1.00  0.00     0.031 C 
ATOM     62  C   UNL A   1      44.479  32.235  28.729  1.00  0.00     0.037 A 
BRANCH  49  63
ATOM     63  C   UNL A   1      38.829  30.622  30.637  1.00  0.00     0.064 A 
ATOM     64  C   UNL A   1      37.726  31.062  29.891  1.00  0.00     0.173 A 
ATOM     65  C   UNL A   1      38.696  30.561  32.032  1.00  0.00     0.173 A 
ATOM     66  F   UNL A   1      37.808  31.151  28.555  1.00  0.00    -0.203 F 
ATOM     67  C   UNL A   1      36.547  31.454  30.519  1.00  0.00     0.198 A 
ATOM     68  C   UNL A   1      37.507  30.930  32.656  1.00  0.00     0.198 A 
ATOM     69  F   UNL A   1      39.719  30.143  32.792  1.00  0.00    -0.203 F 
ATOM     70  F   UNL A   1      35.522  31.917  29.790  1.00  0.00    -0.200 F 
ATOM     71  C   UNL A   1      36.437  31.383  31.900  1.00  0.00     0.200 A 
ATOM     72  F   UNL A   1      37.400  30.853  33.990  1.00  0.00    -0.200 F 
ATOM     73  F   UNL A   1      35.302  31.762  32.504  1.00  0.00    -0.200 F 
ENDBRANCH  49  63
BRANCH  50  74
ATOM     74  C   UNL A   1      47.067  27.518  25.941  1.00  0.00     0.064 A 
ATOM     75  C   UNL A   1      47.123  27.605  24.544  1.00  0.00     0.173 A 
ATOM     76  C   UNL A   1      48.196  27.025  26.613  1.00  0.00     0.173 A 
ATOM     77  F   UNL A   1      46.059  28.049  23.858  1.00  0.00    -0.203 F 
ATOM     78  C   UNL A   1      48.262  27.211  23.845  1.00  0.00     0.198 A 
ATOM     79  C   UNL A   1      49.342  26.654  25.915  1.00  0.00     0.198 A 
ATOM     80  F   UNL A   1      48.189  26.924  27.950  1.00  0.00    -0.203 F 
ATOM     81  F   UNL A   1      48.282  27.281  22.508  1.00  0.00    -0.200 F 
ATOM     82  C   UNL A   1      49.374  26.744  24.532  1.00  0.00     0.200 A 
ATOM     83  F   UNL A   1      50.418  26.214  26.584  1.00  0.00    -0.200 F 
ATOM     84  F   UNL A   1      50.474  26.381  23.860  1.00  0.00    -0.200 F 
ENDBRANCH  50  74
BRANCH  62  85
ATOM     85  C   UNL A   1      45.177  33.553  28.892  1.00  0.00     0.064 A 
ATOM     86  C   UNL A   1      45.011  34.590  27.965  1.00  0.00     0.173 A 
ATOM     87  C   UNL A   1      45.969  33.798  30.024  1.00  0.00     0.173 A 
ATOM     88  F   UNL A   1      44.275  34.398  26.860  1.00  0.00    -0.203 F 
ATOM     89  C   UNL A   1      45.626  35.826  28.159  1.00  0.00     0.198 A 
ATOM     90  C   UNL A   1      46.564  35.041  30.225  1.00  0.00     0.198 A 
ATOM     91  F   UNL A   1      46.153  32.838  30.942  1.00  0.00    -0.203 F 
ATOM     92  F   UNL A   1      45.480  36.795  27.245  1.00  0.00    -0.200 F 
ATOM     93  C   UNL A   1      46.395  36.052  29.292  1.00  0.00     0.200 A 
ATOM     94  F   UNL A   1      47.297  35.261  31.324  1.00  0.00    -0.200 F 
ATOM     95  F   UNL A   1      46.976  37.244  29.480  1.00  0.00    -0.200 F 
ENDBRANCH  62  85
ENDBRANCH  36  37
ENDBRANCH  29  31
ENDBRANCH  28  29
ENDBRANCH  27  28
ENDBRANCH  26  27
ENDBRANCH  25  26
ENDBRANCH   1  25
TORSDOF 19
ENDMDL
