MODEL 1
REMARK VINA RESULT:     -10.8      0.000      0.000
REMARK SMILES CC[C@H](C)[C@H]([NH3+])C(=O)N1CC[C@@H](C(=O)OCCOCCOC(=O)c2ccc(-c3c4nc(c(-c5c(F)c(F)c(F)c(F)c5F)c5ccc([nH]5)c(-c5c(F)c(F)c(F)c(F)c5F)c5nc(c(-c6c(F)c(F)c(F)c(F)c6F)c6ccc3[nH]6)C=C5)C=C4)cc2)[C@@H]1C
REMARK SMILES IDX 17 1 16 2 15 3 13 4 14 5 12 6 9 7 10 8 87 9 11 10 88 11 7 12
REMARK SMILES IDX 8 13 5 14 3 15 4 16 2 17 1 18 6 19 18 23 19 24 20 25 21 26
REMARK SMILES IDX 22 27 23 28 24 29 25 30 86 31 26 32 85 33 27 34 28 35 29 36
REMARK SMILES IDX 79 37 30 38 84 39 78 40 80 41 31 42 83 43 77 44 76 45 32 47
REMARK SMILES IDX 64 48 44 49 63 50 45 51 48 52 62 53 81 54 46 55 47 56 61 58
REMARK SMILES IDX 82 59 49 60 33 61 34 62 42 63 35 64 36 65 40 66 43 67 37 68
REMARK SMILES IDX 38 69 41 70 39 71 65 72 66 73 74 74 67 75 68 76 72 77 75 78
REMARK SMILES IDX 69 79 70 80 73 81 71 82 50 83 51 84 59 85 52 86 53 87 57 88
REMARK SMILES IDX 60 89 54 90 55 91 58 92 56 93
REMARK H PARENT 6 20 6 21 6 22 80 46 48 57
REMARK Flexibility Score: inf
ROOT
ATOM      1  C   UNL A   1      39.984  20.764  26.126  1.00  0.00     0.202 C 
ENDROOT
BRANCH   1   2
ATOM      2  C   UNL A   1      38.947  21.889  26.128  1.00  0.00     0.261 C 
BRANCH   2   3
ATOM      3  O   UNL A   1      38.099  21.825  24.965  1.00  0.00    -0.463 OA
BRANCH   3   4
ATOM      4  C   UNL A   1      36.920  21.169  25.120  1.00  0.00     0.311 C 
ATOM      5  O   UNL A   1      36.771  19.959  24.999  1.00  0.00    -0.252 OA
BRANCH   4   6
ATOM      6  C   UNL A   1      35.759  22.092  25.417  1.00  0.00     0.123 C 
ATOM      7  N   UNL A   1      33.381  21.899  25.516  1.00  0.00    -0.334 N 
ATOM      8  C   UNL A   1      33.844  22.391  26.800  1.00  0.00     0.121 C 
ATOM      9  C   UNL A   1      34.488  21.917  24.550  1.00  0.00     0.096 C 
ATOM     10  C   UNL A   1      35.277  21.902  26.854  1.00  0.00     0.039 C 
ATOM     11  C   UNL A   1      34.341  23.108  23.593  1.00  0.00     0.032 C 
BRANCH   7  12
ATOM     12  C   UNL A   1      32.063  21.514  25.391  1.00  0.00     0.281 C 
ATOM     13  O   UNL A   1      31.799  20.422  24.869  1.00  0.00    -0.268 OA
BRANCH  12  14
ATOM     14  C   UNL A   1      30.883  22.480  25.683  1.00  0.00     0.273 C 
BRANCH  14  15
ATOM     15  C   UNL A   1      31.122  23.846  24.977  1.00  0.00     0.054 C 
ATOM     16  C   UNL A   1      30.654  23.778  23.517  1.00  0.00     0.014 C 
BRANCH  15  17
ATOM     17  C   UNL A   1      30.484  25.044  25.707  1.00  0.00     0.006 C 
ATOM     18  C   UNL A   1      29.762  26.008  24.779  1.00  0.00     0.004 C 
ENDBRANCH  15  17
ENDBRANCH  14  15
BRANCH  14  19
ATOM     19  N   UNL A   1      30.456  22.582  27.085  1.00  0.00    -0.347 N 
ATOM     20  H   UNL A   1      30.869  21.819  27.622  1.00  0.00     0.345 HD
ATOM     21  H   UNL A   1      29.438  22.520  27.136  1.00  0.00     0.345 HD
ATOM     22  H   UNL A   1      30.763  23.474  27.471  1.00  0.00     0.345 HD
ENDBRANCH  14  19
ENDBRANCH  12  14
ENDBRANCH   7  12
ENDBRANCH   4   6
ENDBRANCH   3   4
ENDBRANCH   2   3
ENDBRANCH   1   2
BRANCH   1  23
ATOM     23  O   UNL A   1      41.224  21.053  26.770  1.00  0.00    -0.374 OA
BRANCH  23  24
ATOM     24  C   UNL A   1      42.414  20.595  26.132  1.00  0.00     0.202 C 
BRANCH  24  25
ATOM     25  C   UNL A   1      43.383  21.676  25.638  1.00  0.00     0.261 C 
BRANCH  25  26
ATOM     26  O   UNL A   1      42.703  22.776  25.008  1.00  0.00    -0.460 OA
BRANCH  26  27
ATOM     27  C   UNL A   1      43.389  23.944  25.017  1.00  0.00     0.338 C 
ATOM     28  O   UNL A   1      44.300  24.277  24.267  1.00  0.00    -0.246 OA
BRANCH  27  29
ATOM     29  C   UNL A   1      42.776  24.887  25.966  1.00  0.00     0.060 A 
ATOM     30  C   UNL A   1      43.360  26.153  26.105  1.00  0.00     0.016 A 
ATOM     31  C   UNL A   1      41.684  24.523  26.755  1.00  0.00     0.016 A 
ATOM     32  C   UNL A   1      42.871  27.050  27.055  1.00  0.00     0.010 A 
ATOM     33  C   UNL A   1      41.195  25.425  27.705  1.00  0.00     0.010 A 
ATOM     34  C   UNL A   1      41.801  26.681  27.881  1.00  0.00    -0.014 A 
BRANCH  34  35
ATOM     35  C   UNL A   1      41.403  27.548  29.019  1.00  0.00     0.031 A 
ATOM     36  C   UNL A   1      42.192  27.481  30.297  1.00  0.00     0.074 A 
ATOM     37  C   UNL A   1      40.360  28.391  28.917  1.00  0.00     0.049 A 
ATOM     38  N   UNL A   1      41.997  28.106  31.431  1.00  0.00    -0.248 NA
ATOM     39  C   UNL A   1      43.360  26.586  30.296  1.00  0.00     0.031 C 
ATOM     40  C   UNL A   1      39.546  28.585  27.721  1.00  0.00     0.029 A 
ATOM     41  N   UNL A   1      39.807  29.240  29.844  1.00  0.00    -0.354 N 
ATOM     42  C   UNL A   1      43.007  27.672  32.279  1.00  0.00     0.074 A 
ATOM     43  C   UNL A   1      43.794  26.706  31.541  1.00  0.00     0.031 C 
ATOM     44  C   UNL A   1      38.590  29.492  27.986  1.00  0.00     0.029 A 
ATOM     45  C   UNL A   1      38.707  29.918  29.379  1.00  0.00     0.049 A 
ATOM     46  H   UNL A   1      40.163  29.350  30.754  1.00  0.00     0.167 HD
ATOM     47  C   UNL A   1      43.264  28.052  33.553  1.00  0.00     0.037 A 
ATOM     48  C   UNL A   1      37.883  30.774  30.014  1.00  0.00     0.037 A 
ATOM     49  C   UNL A   1      42.486  29.017  34.284  1.00  0.00     0.049 A 
ATOM     50  C   UNL A   1      38.134  31.111  31.461  1.00  0.00     0.074 A 
ATOM     51  C   UNL A   1      42.687  29.496  35.566  1.00  0.00     0.029 A 
ATOM     52  N   UNL A   1      41.346  29.642  33.798  1.00  0.00    -0.354 N 
ATOM     53  N   UNL A   1      39.111  30.725  32.245  1.00  0.00    -0.248 NA
ATOM     54  C   UNL A   1      37.162  32.001  32.112  1.00  0.00     0.031 C 
ATOM     55  C   UNL A   1      41.639  30.370  35.876  1.00  0.00     0.029 A 
ATOM     56  C   UNL A   1      40.813  30.475  34.769  1.00  0.00     0.049 A 
ATOM     57  H   UNL A   1      40.972  29.512  32.897  1.00  0.00     0.167 HD
ATOM     58  C   UNL A   1      38.891  31.347  33.466  1.00  0.00     0.074 A 
ATOM     59  C   UNL A   1      37.690  32.143  33.320  1.00  0.00     0.031 C 
ATOM     60  C   UNL A   1      39.621  31.268  34.607  1.00  0.00     0.037 A 
BRANCH  47  61
ATOM     61  C   UNL A   1      44.422  27.395  34.246  1.00  0.00     0.064 A 
ATOM     62  C   UNL A   1      44.275  26.192  34.953  1.00  0.00     0.173 A 
ATOM     63  C   UNL A   1      45.699  27.975  34.195  1.00  0.00     0.173 A 
ATOM     64  F   UNL A   1      43.073  25.604  35.044  1.00  0.00    -0.203 F 
ATOM     65  C   UNL A   1      45.357  25.613  35.613  1.00  0.00     0.198 A 
ATOM     66  C   UNL A   1      46.784  27.377  34.831  1.00  0.00     0.198 A 
ATOM     67  F   UNL A   1      45.895  29.123  33.528  1.00  0.00    -0.203 F 
ATOM     68  F   UNL A   1      45.181  24.495  36.330  1.00  0.00    -0.200 F 
ATOM     69  C   UNL A   1      46.610  26.203  35.547  1.00  0.00     0.200 A 
ATOM     70  F   UNL A   1      47.997  27.942  34.756  1.00  0.00    -0.200 F 
ATOM     71  F   UNL A   1      47.649  25.646  36.184  1.00  0.00    -0.200 F 
ENDBRANCH  47  61
BRANCH  48  72
ATOM     72  C   UNL A   1      36.741  31.384  29.285  1.00  0.00     0.064 A 
ATOM     73  C   UNL A   1      36.753  32.742  28.936  1.00  0.00     0.173 A 
ATOM     74  C   UNL A   1      35.610  30.631  28.933  1.00  0.00     0.173 A 
ATOM     75  F   UNL A   1      37.799  33.509  29.275  1.00  0.00    -0.203 F 
ATOM     76  C   UNL A   1      35.674  33.326  28.275  1.00  0.00     0.198 A 
ATOM     77  C   UNL A   1      34.544  31.210  28.249  1.00  0.00     0.198 A 
ATOM     78  F   UNL A   1      35.547  29.329  29.247  1.00  0.00    -0.203 F 
ATOM     79  F   UNL A   1      35.696  34.635  27.989  1.00  0.00    -0.200 F 
ATOM     80  C   UNL A   1      34.574  32.558  27.926  1.00  0.00     0.200 A 
ATOM     81  F   UNL A   1      33.486  30.462  27.905  1.00  0.00    -0.200 F 
ATOM     82  F   UNL A   1      33.539  33.119  27.286  1.00  0.00    -0.200 F 
ENDBRANCH  48  72
BRANCH  60  83
ATOM     83  C   UNL A   1      39.166  32.090  35.779  1.00  0.00     0.064 A 
ATOM     84  C   UNL A   1      39.584  33.417  35.954  1.00  0.00     0.173 A 
ATOM     85  C   UNL A   1      38.263  31.557  36.712  1.00  0.00     0.173 A 
ATOM     86  F   UNL A   1      40.459  33.968  35.100  1.00  0.00    -0.203 F 
ATOM     87  C   UNL A   1      39.128  34.174  37.031  1.00  0.00     0.198 A 
ATOM     88  C   UNL A   1      37.787  32.325  37.770  1.00  0.00     0.198 A 
ATOM     89  F   UNL A   1      37.828  30.293  36.587  1.00  0.00    -0.203 F 
ATOM     90  F   UNL A   1      39.572  35.427  37.203  1.00  0.00    -0.200 F 
ATOM     91  C   UNL A   1      38.224  33.630  37.932  1.00  0.00     0.200 A 
ATOM     92  F   UNL A   1      36.904  31.803  38.632  1.00  0.00    -0.200 F 
ATOM     93  F   UNL A   1      37.779  34.365  38.962  1.00  0.00    -0.200 F 
ENDBRANCH  60  83
ENDBRANCH  34  35
ENDBRANCH  27  29
ENDBRANCH  26  27
ENDBRANCH  25  26
ENDBRANCH  24  25
ENDBRANCH  23  24
ENDBRANCH   1  23
TORSDOF 19
ENDMDL
MODEL 2
REMARK VINA RESULT:     -10.6      4.812      9.397
REMARK SMILES CC[C@H](C)[C@H]([NH3+])C(=O)N1CC[C@@H](C(=O)OCCOCCOC(=O)c2ccc(-c3c4nc(c(-c5c(F)c(F)c(F)c(F)c5F)c5ccc([nH]5)c(-c5c(F)c(F)c(F)c(F)c5F)c5nc(c(-c6c(F)c(F)c(F)c(F)c6F)c6ccc3[nH]6)C=C5)C=C4)cc2)[C@@H]1C
REMARK SMILES IDX 17 1 16 2 15 3 13 4 14 5 12 6 9 7 10 8 87 9 11 10 88 11 7 12
REMARK SMILES IDX 8 13 5 14 3 15 4 16 2 17 1 18 6 19 18 23 19 24 20 25 21 26
REMARK SMILES IDX 22 27 23 28 24 29 25 30 86 31 26 32 85 33 27 34 28 35 29 36
REMARK SMILES IDX 79 37 30 38 84 39 78 40 80 41 31 42 83 43 77 44 76 45 32 47
REMARK SMILES IDX 64 48 44 49 63 50 45 51 48 52 62 53 81 54 46 55 47 56 61 58
REMARK SMILES IDX 82 59 49 60 33 61 34 62 42 63 35 64 36 65 40 66 43 67 37 68
REMARK SMILES IDX 38 69 41 70 39 71 65 72 66 73 74 74 67 75 68 76 72 77 75 78
REMARK SMILES IDX 69 79 70 80 73 81 71 82 50 83 51 84 59 85 52 86 53 87 57 88
REMARK SMILES IDX 60 89 54 90 55 91 58 92 56 93
REMARK H PARENT 6 20 6 21 6 22 80 46 48 57
REMARK Flexibility Score: inf
ROOT
ATOM      1  C   UNL A   1      38.139  22.013  25.752  1.00  0.00     0.202 C 
ENDROOT
BRANCH   1   2
ATOM      2  C   UNL A   1      37.481  23.325  25.320  1.00  0.00     0.261 C 
BRANCH   2   3
ATOM      3  O   UNL A   1      36.400  23.688  26.201  1.00  0.00    -0.463 OA
BRANCH   3   4
ATOM      4  C   UNL A   1      35.243  24.068  25.600  1.00  0.00     0.311 C 
ATOM      5  O   UNL A   1      35.139  24.992  24.803  1.00  0.00    -0.252 OA
BRANCH   4   6
ATOM      6  C   UNL A   1      34.044  23.263  26.051  1.00  0.00     0.123 C 
ATOM      7  N   UNL A   1      33.252  21.031  25.752  1.00  0.00    -0.334 N 
ATOM      8  C   UNL A   1      33.375  21.274  27.177  1.00  0.00     0.121 C 
ATOM      9  C   UNL A   1      33.427  22.290  25.016  1.00  0.00     0.096 C 
ATOM     10  C   UNL A   1      34.409  22.380  27.243  1.00  0.00     0.039 C 
ATOM     11  C   UNL A   1      32.068  22.824  24.544  1.00  0.00     0.032 C 
BRANCH   7  12
ATOM     12  C   UNL A   1      33.004  19.745  25.320  1.00  0.00     0.281 C 
ATOM     13  O   UNL A   1      32.153  19.063  25.909  1.00  0.00    -0.268 OA
BRANCH  12  14
ATOM     14  C   UNL A   1      33.891  19.037  24.261  1.00  0.00     0.273 C 
BRANCH  14  15
ATOM     15  C   UNL A   1      33.165  17.773  23.714  1.00  0.00     0.054 C 
ATOM     16  C   UNL A   1      32.531  18.075  22.350  1.00  0.00     0.014 C 
BRANCH  15  17
ATOM     17  C   UNL A   1      34.064  16.522  23.643  1.00  0.00     0.006 C 
ATOM     18  C   UNL A   1      34.055  15.694  24.918  1.00  0.00     0.004 C 
ENDBRANCH  15  17
ENDBRANCH  14  15
BRANCH  14  19
ATOM     19  N   UNL A   1      35.298  18.826  24.626  1.00  0.00    -0.347 N 
ATOM     20  H   UNL A   1      35.868  19.574  24.231  1.00  0.00     0.345 HD
ATOM     21  H   UNL A   1      35.614  17.928  24.257  1.00  0.00     0.345 HD
ATOM     22  H   UNL A   1      35.391  18.828  25.641  1.00  0.00     0.345 HD
ENDBRANCH  14  19
ENDBRANCH  12  14
ENDBRANCH   7  12
ENDBRANCH   4   6
ENDBRANCH   3   4
ENDBRANCH   2   3
ENDBRANCH   1   2
BRANCH   1  23
ATOM     23  O   UNL A   1      37.819  20.864  24.969  1.00  0.00    -0.374 OA
BRANCH  23  24
ATOM     24  C   UNL A   1      38.520  19.657  25.264  1.00  0.00     0.202 C 
BRANCH  24  25
ATOM     25  C   UNL A   1      39.834  19.804  26.041  1.00  0.00     0.261 C 
BRANCH  25  26
ATOM     26  O   UNL A   1      40.832  18.860  25.612  1.00  0.00    -0.460 OA
BRANCH  26  27
ATOM     27  C   UNL A   1      42.057  19.045  26.161  1.00  0.00     0.338 C 
ATOM     28  O   UNL A   1      42.952  18.216  26.279  1.00  0.00    -0.246 OA
BRANCH  27  29
ATOM     29  C   UNL A   1      42.269  20.470  26.463  1.00  0.00     0.060 A 
ATOM     30  C   UNL A   1      42.433  21.353  25.388  1.00  0.00     0.016 A 
ATOM     31  C   UNL A   1      42.366  20.931  27.776  1.00  0.00     0.016 A 
ATOM     32  C   UNL A   1      42.725  22.696  25.622  1.00  0.00     0.010 A 
ATOM     33  C   UNL A   1      42.657  22.280  28.008  1.00  0.00     0.010 A 
ATOM     34  C   UNL A   1      42.866  23.164  26.935  1.00  0.00    -0.014 A 
BRANCH  34  35
ATOM     35  C   UNL A   1      43.365  24.539  27.189  1.00  0.00     0.031 A 
ATOM     36  C   UNL A   1      42.411  25.575  27.715  1.00  0.00     0.074 A 
ATOM     37  C   UNL A   1      44.650  24.862  26.962  1.00  0.00     0.049 A 
ATOM     38  N   UNL A   1      42.613  26.845  27.962  1.00  0.00    -0.248 NA
ATOM     39  C   UNL A   1      41.044  25.115  28.003  1.00  0.00     0.031 C 
ATOM     40  C   UNL A   1      45.684  23.941  26.498  1.00  0.00     0.029 A 
ATOM     41  N   UNL A   1      45.302  26.064  27.090  1.00  0.00    -0.354 N 
ATOM     42  C   UNL A   1      41.399  27.337  28.421  1.00  0.00     0.074 A 
ATOM     43  C   UNL A   1      40.457  26.238  28.388  1.00  0.00     0.031 C 
ATOM     44  C   UNL A   1      46.842  24.612  26.373  1.00  0.00     0.029 A 
ATOM     45  C   UNL A   1      46.624  26.014  26.719  1.00  0.00     0.049 A 
ATOM     46  H   UNL A   1      44.865  26.883  27.416  1.00  0.00     0.167 HD
ATOM     47  C   UNL A   1      41.097  28.588  28.843  1.00  0.00     0.037 A 
ATOM     48  C   UNL A   1      47.545  26.995  26.654  1.00  0.00     0.037 A 
ATOM     49  C   UNL A   1      42.036  29.678  28.883  1.00  0.00     0.049 A 
ATOM     50  C   UNL A   1      47.161  28.401  27.040  1.00  0.00     0.074 A 
ATOM     51  C   UNL A   1      41.838  30.973  29.328  1.00  0.00     0.029 A 
ATOM     52  N   UNL A   1      43.351  29.603  28.446  1.00  0.00    -0.354 N 
ATOM     53  N   UNL A   1      46.022  28.850  27.506  1.00  0.00    -0.248 NA
ATOM     54  C   UNL A   1      48.194  29.435  26.886  1.00  0.00     0.031 C 
ATOM     55  C   UNL A   1      43.016  31.695  29.111  1.00  0.00     0.029 A 
ATOM     56  C   UNL A   1      43.965  30.838  28.579  1.00  0.00     0.049 A 
ATOM     57  H   UNL A   1      43.783  28.792  28.094  1.00  0.00     0.167 HD
ATOM     58  C   UNL A   1      46.209  30.208  27.731  1.00  0.00     0.074 A 
ATOM     59  C   UNL A   1      47.575  30.509  27.355  1.00  0.00     0.031 C 
ATOM     60  C   UNL A   1      45.328  31.122  28.208  1.00  0.00     0.037 A 
BRANCH  47  61
ATOM     61  C   UNL A   1      39.682  28.848  29.269  1.00  0.00     0.064 A 
ATOM     62  C   UNL A   1      39.263  28.668  30.596  1.00  0.00     0.173 A 
ATOM     63  C   UNL A   1      38.732  29.291  28.336  1.00  0.00     0.173 A 
ATOM     64  F   UNL A   1      40.128  28.233  31.524  1.00  0.00    -0.203 F 
ATOM     65  C   UNL A   1      37.938  28.888  30.965  1.00  0.00     0.198 A 
ATOM     66  C   UNL A   1      37.416  29.539  28.715  1.00  0.00     0.198 A 
ATOM     67  F   UNL A   1      39.081  29.483  27.054  1.00  0.00    -0.203 F 
ATOM     68  F   UNL A   1      37.549  28.655  32.226  1.00  0.00    -0.200 F 
ATOM     69  C   UNL A   1      37.017  29.328  30.025  1.00  0.00     0.200 A 
ATOM     70  F   UNL A   1      36.530  29.975  27.808  1.00  0.00    -0.200 F 
ATOM     71  F   UNL A   1      35.743  29.538  30.382  1.00  0.00    -0.200 F 
ENDBRANCH  47  61
BRANCH  48  72
ATOM     72  C   UNL A   1      48.929  26.687  26.210  1.00  0.00     0.064 A 
ATOM     73  C   UNL A   1      49.891  26.232  27.121  1.00  0.00     0.173 A 
ATOM     74  C   UNL A   1      49.322  26.851  24.873  1.00  0.00     0.173 A 
ATOM     75  F   UNL A   1      49.570  26.085  28.415  1.00  0.00    -0.203 F 
ATOM     76  C   UNL A   1      51.198  25.964  26.717  1.00  0.00     0.198 A 
ATOM     77  C   UNL A   1      50.621  26.558  24.464  1.00  0.00     0.198 A 
ATOM     78  F   UNL A   1      48.440  27.287  23.962  1.00  0.00    -0.203 F 
ATOM     79  F   UNL A   1      52.108  25.568  27.617  1.00  0.00    -0.200 F 
ATOM     80  C   UNL A   1      51.560  26.121  25.387  1.00  0.00     0.200 A 
ATOM     81  F   UNL A   1      50.965  26.702  23.177  1.00  0.00    -0.200 F 
ATOM     82  F   UNL A   1      52.815  25.859  24.998  1.00  0.00    -0.200 F 
ENDBRANCH  48  72
BRANCH  60  83
ATOM     83  C   UNL A   1      45.821  32.530  28.388  1.00  0.00     0.064 A 
ATOM     84  C   UNL A   1      45.646  33.504  27.395  1.00  0.00     0.173 A 
ATOM     85  C   UNL A   1      46.432  32.920  29.590  1.00  0.00     0.173 A 
ATOM     86  F   UNL A   1      45.083  33.179  26.222  1.00  0.00    -0.203 F 
ATOM     87  C   UNL A   1      46.083  34.812  27.591  1.00  0.00     0.198 A 
ATOM     88  C   UNL A   1      46.840  34.234  29.795  1.00  0.00     0.198 A 
ATOM     89  F   UNL A   1      46.618  32.027  30.575  1.00  0.00    -0.203 F 
ATOM     90  F   UNL A   1      45.944  35.717  26.612  1.00  0.00    -0.200 F 
ATOM     91  C   UNL A   1      46.671  35.178  28.793  1.00  0.00     0.200 A 
ATOM     92  F   UNL A   1      47.396  34.589  30.962  1.00  0.00    -0.200 F 
ATOM     93  F   UNL A   1      47.081  36.440  28.984  1.00  0.00    -0.200 F 
ENDBRANCH  60  83
ENDBRANCH  34  35
ENDBRANCH  27  29
ENDBRANCH  26  27
ENDBRANCH  25  26
ENDBRANCH  24  25
ENDBRANCH  23  24
ENDBRANCH   1  23
TORSDOF 19
ENDMDL
MODEL 3
REMARK VINA RESULT:     -10.5      3.999      8.848
REMARK SMILES CC[C@H](C)[C@H]([NH3+])C(=O)N1CC[C@@H](C(=O)OCCOCCOC(=O)c2ccc(-c3c4nc(c(-c5c(F)c(F)c(F)c(F)c5F)c5ccc([nH]5)c(-c5c(F)c(F)c(F)c(F)c5F)c5nc(c(-c6c(F)c(F)c(F)c(F)c6F)c6ccc3[nH]6)C=C5)C=C4)cc2)[C@@H]1C
REMARK SMILES IDX 17 1 16 2 15 3 13 4 14 5 12 6 9 7 10 8 87 9 11 10 88 11 7 12
REMARK SMILES IDX 8 13 5 14 3 15 4 16 2 17 1 18 6 19 18 23 19 24 20 25 21 26
REMARK SMILES IDX 22 27 23 28 24 29 25 30 86 31 26 32 85 33 27 34 28 35 29 36
REMARK SMILES IDX 79 37 30 38 84 39 78 40 80 41 31 42 83 43 77 44 76 45 32 47
REMARK SMILES IDX 64 48 44 49 63 50 45 51 48 52 62 53 81 54 46 55 47 56 61 58
REMARK SMILES IDX 82 59 49 60 33 61 34 62 42 63 35 64 36 65 40 66 43 67 37 68
REMARK SMILES IDX 38 69 41 70 39 71 65 72 66 73 74 74 67 75 68 76 72 77 75 78
REMARK SMILES IDX 69 79 70 80 73 81 71 82 50 83 51 84 59 85 52 86 53 87 57 88
REMARK SMILES IDX 60 89 54 90 55 91 58 92 56 93
REMARK H PARENT 6 20 6 21 6 22 80 46 48 57
REMARK Flexibility Score: inf
ROOT
ATOM      1  C   UNL A   1      32.194  30.113  26.067  1.00  0.00     0.202 C 
ENDROOT
BRANCH   1   2
ATOM      2  C   UNL A   1      33.622  29.578  26.191  1.00  0.00     0.261 C 
BRANCH   2   3
ATOM      3  O   UNL A   1      33.727  28.231  25.691  1.00  0.00    -0.463 OA
BRANCH   3   4
ATOM      4  C   UNL A   1      33.519  28.071  24.359  1.00  0.00     0.311 C 
ATOM      5  O   UNL A   1      34.071  28.724  23.481  1.00  0.00    -0.252 OA
BRANCH   4   6
ATOM      6  C   UNL A   1      32.480  27.019  24.039  1.00  0.00     0.123 C 
ATOM      7  N   UNL A   1      30.120  26.975  23.683  1.00  0.00    -0.334 N 
ATOM      8  C   UNL A   1      30.760  26.417  22.507  1.00  0.00     0.121 C 
ATOM      9  C   UNL A   1      31.113  27.148  24.753  1.00  0.00     0.096 C 
ATOM     10  C   UNL A   1      32.144  27.034  22.550  1.00  0.00     0.039 C 
ATOM     11  C   UNL A   1      30.964  26.039  25.802  1.00  0.00     0.032 C 
BRANCH   7  12
ATOM     12  C   UNL A   1      28.768  27.242  23.637  1.00  0.00     0.281 C 
ATOM     13  O   UNL A   1      27.972  26.410  24.093  1.00  0.00    -0.268 OA
BRANCH  12  14
ATOM     14  C   UNL A   1      28.184  28.444  22.847  1.00  0.00     0.273 C 
BRANCH  14  15
ATOM     15  C   UNL A   1      29.019  29.727  23.131  1.00  0.00     0.054 C 
ATOM     16  C   UNL A   1      29.951  30.026  21.949  1.00  0.00     0.014 C 
BRANCH  15  17
ATOM     17  C   UNL A   1      28.163  30.959  23.487  1.00  0.00     0.006 C 
ATOM     18  C   UNL A   1      28.159  32.029  22.406  1.00  0.00     0.004 C 
ENDBRANCH  15  17
ENDBRANCH  14  15
BRANCH  14  19
ATOM     19  N   UNL A   1      26.729  28.630  22.924  1.00  0.00    -0.347 N 
ATOM     20  H   UNL A   1      26.400  29.095  22.078  1.00  0.00     0.345 HD
ATOM     21  H   UNL A   1      26.503  29.204  23.737  1.00  0.00     0.345 HD
ATOM     22  H   UNL A   1      26.274  27.722  23.011  1.00  0.00     0.345 HD
ENDBRANCH  14  19
ENDBRANCH  12  14
ENDBRANCH   7  12
ENDBRANCH   4   6
ENDBRANCH   3   4
ENDBRANCH   2   3
ENDBRANCH   1   2
BRANCH   1  23
ATOM     23  O   UNL A   1      31.866  31.224  26.898  1.00  0.00    -0.374 OA
BRANCH  23  24
ATOM     24  C   UNL A   1      32.938  31.863  27.588  1.00  0.00     0.202 C 
BRANCH  24  25
ATOM     25  C   UNL A   1      33.131  33.360  27.314  1.00  0.00     0.261 C 
BRANCH  25  26
ATOM     26  O   UNL A   1      32.302  34.182  28.154  1.00  0.00    -0.460 OA
BRANCH  26  27
ATOM     27  C   UNL A   1      32.963  35.167  28.809  1.00  0.00     0.338 C 
ATOM     28  O   UNL A   1      32.630  36.341  28.918  1.00  0.00    -0.246 OA
BRANCH  27  29
ATOM     29  C   UNL A   1      34.098  34.605  29.559  1.00  0.00     0.060 A 
ATOM     30  C   UNL A   1      35.377  34.712  28.995  1.00  0.00     0.016 A 
ATOM     31  C   UNL A   1      33.914  33.930  30.766  1.00  0.00     0.016 A 
ATOM     32  C   UNL A   1      36.471  34.118  29.622  1.00  0.00     0.010 A 
ATOM     33  C   UNL A   1      35.014  33.337  31.394  1.00  0.00     0.010 A 
ATOM     34  C   UNL A   1      36.293  33.403  30.814  1.00  0.00    -0.014 A 
BRANCH  34  35
ATOM     35  C   UNL A   1      37.411  32.608  31.382  1.00  0.00     0.031 A 
ATOM     36  C   UNL A   1      37.929  32.954  32.750  1.00  0.00     0.074 A 
ATOM     37  C   UNL A   1      37.956  31.588  30.695  1.00  0.00     0.049 A 
ATOM     38  N   UNL A   1      38.924  32.431  33.421  1.00  0.00    -0.248 NA
ATOM     39  C   UNL A   1      37.227  34.035  33.459  1.00  0.00     0.031 C 
ATOM     40  C   UNL A   1      37.516  31.124  29.383  1.00  0.00     0.029 A 
ATOM     41  N   UNL A   1      39.004  30.761  31.012  1.00  0.00    -0.354 N 
ATOM     42  C   UNL A   1      38.975  33.127  34.622  1.00  0.00     0.074 A 
ATOM     43  C   UNL A   1      37.933  34.130  34.575  1.00  0.00     0.031 C 
ATOM     44  C   UNL A   1      38.293  30.096  29.001  1.00  0.00     0.029 A 
ATOM     45  C   UNL A   1      39.303  29.851  30.028  1.00  0.00     0.049 A 
ATOM     46  H   UNL A   1      39.496  30.815  31.863  1.00  0.00     0.167 HD
ATOM     47  C   UNL A   1      39.808  32.939  35.674  1.00  0.00     0.037 A 
ATOM     48  C   UNL A   1      40.290  28.937  29.961  1.00  0.00     0.037 A 
ATOM     49  C   UNL A   1      40.839  31.937  35.724  1.00  0.00     0.049 A 
ATOM     50  C   UNL A   1      41.264  28.809  31.104  1.00  0.00     0.074 A 
ATOM     51  C   UNL A   1      41.709  31.644  36.758  1.00  0.00     0.029 A 
ATOM     52  N   UNL A   1      41.147  31.071  34.684  1.00  0.00    -0.354 N 
ATOM     53  N   UNL A   1      41.284  29.446  32.250  1.00  0.00    -0.248 NA
ATOM     54  C   UNL A   1      42.354  27.838  30.941  1.00  0.00     0.031 C 
ATOM     55  C   UNL A   1      42.579  30.637  36.325  1.00  0.00     0.029 A 
ATOM     56  C   UNL A   1      42.218  30.267  35.040  1.00  0.00     0.049 A 
ATOM     57  H   UNL A   1      40.675  31.033  33.821  1.00  0.00     0.167 HD
ATOM     58  C   UNL A   1      42.363  28.931  32.955  1.00  0.00     0.074 A 
ATOM     59  C   UNL A   1      42.972  27.924  32.111  1.00  0.00     0.031 C 
ATOM     60  C   UNL A   1      42.810  29.262  34.192  1.00  0.00     0.037 A 
BRANCH  47  61
ATOM     61  C   UNL A   1      39.652  33.862  36.846  1.00  0.00     0.064 A 
ATOM     62  C   UNL A   1      40.273  35.120  36.887  1.00  0.00     0.173 A 
ATOM     63  C   UNL A   1      38.862  33.486  37.944  1.00  0.00     0.173 A 
ATOM     64  F   UNL A   1      41.049  35.522  35.870  1.00  0.00    -0.203 F 
ATOM     65  C   UNL A   1      40.138  35.950  37.997  1.00  0.00     0.198 A 
ATOM     66  C   UNL A   1      38.706  34.332  39.039  1.00  0.00     0.198 A 
ATOM     67  F   UNL A   1      38.242  32.296  37.955  1.00  0.00    -0.203 F 
ATOM     68  F   UNL A   1      40.787  37.122  38.037  1.00  0.00    -0.200 F 
ATOM     69  C   UNL A   1      39.351  35.558  39.069  1.00  0.00     0.200 A 
ATOM     70  F   UNL A   1      37.935  33.956  40.069  1.00  0.00    -0.200 F 
ATOM     71  F   UNL A   1      39.224  36.357  40.137  1.00  0.00    -0.200 F 
ENDBRANCH  47  61
BRANCH  48  72
ATOM     72  C   UNL A   1      40.410  28.058  28.768  1.00  0.00     0.064 A 
ATOM     73  C   UNL A   1      41.147  28.465  27.647  1.00  0.00     0.173 A 
ATOM     74  C   UNL A   1      39.782  26.804  28.716  1.00  0.00     0.173 A 
ATOM     75  F   UNL A   1      41.742  29.666  27.639  1.00  0.00    -0.203 F 
ATOM     76  C   UNL A   1      41.242  27.657  26.515  1.00  0.00     0.198 A 
ATOM     77  C   UNL A   1      39.900  25.987  27.595  1.00  0.00     0.198 A 
ATOM     78  F   UNL A   1      39.062  26.371  29.761  1.00  0.00    -0.203 F 
ATOM     79  F   UNL A   1      41.921  28.088  25.443  1.00  0.00    -0.200 F 
ATOM     80  C   UNL A   1      40.624  26.416  26.493  1.00  0.00     0.200 A 
ATOM     81  F   UNL A   1      39.309  24.784  27.580  1.00  0.00    -0.200 F 
ATOM     82  F   UNL A   1      40.720  25.638  25.407  1.00  0.00    -0.200 F 
ENDBRANCH  48  72
BRANCH  60  83
ATOM     83  C   UNL A   1      43.991  28.506  34.728  1.00  0.00     0.064 A 
ATOM     84  C   UNL A   1      45.301  28.987  34.585  1.00  0.00     0.173 A 
ATOM     85  C   UNL A   1      43.805  27.307  35.436  1.00  0.00     0.173 A 
ATOM     86  F   UNL A   1      45.534  30.118  33.903  1.00  0.00    -0.203 F 
ATOM     87  C   UNL A   1      46.382  28.286  35.115  1.00  0.00     0.198 A 
ATOM     88  C   UNL A   1      44.884  26.626  35.989  1.00  0.00     0.198 A 
ATOM     89  F   UNL A   1      42.571  26.807  35.605  1.00  0.00    -0.203 F 
ATOM     90  F   UNL A   1      47.628  28.742  34.930  1.00  0.00    -0.200 F 
ATOM     91  C   UNL A   1      46.172  27.112  35.823  1.00  0.00     0.200 A 
ATOM     92  F   UNL A   1      44.679  25.498  36.684  1.00  0.00    -0.200 F 
ATOM     93  F   UNL A   1      47.214  26.445  36.341  1.00  0.00    -0.200 F 
ENDBRANCH  60  83
ENDBRANCH  34  35
ENDBRANCH  27  29
ENDBRANCH  26  27
ENDBRANCH  25  26
ENDBRANCH  24  25
ENDBRANCH  23  24
ENDBRANCH   1  23
TORSDOF 19
ENDMDL
