MODEL 1
REMARK VINA RESULT:     -12.9      0.000      0.000
REMARK SMILES O=C(OCCOCCOC(=O)c1nnn(-c2cccc(C(F)(F)F)c2)c1[C@H]1COc2ccccc2O1)c1ccc(-c2c3nc(c(-c4c(F)c(F)c(F)c(F)c4F)c4ccc([nH]4)c(-c4c(F)c(F)c(F)c(F)c4F)c4nc(c(-c5c(F)c(F)c(F)c(F)c5F)c5ccc2[nH]5)C=C4)C=C3)cc1
REMARK SMILES IDX 6 1 5 2 4 3 3 4 2 5 1 6 37 7 38 8 99 9 39 10 98 11 40 12
REMARK SMILES IDX 41 13 42 14 92 15 43 16 97 17 91 18 93 19 44 20 96 21 90 22
REMARK SMILES IDX 89 23 45 25 77 26 57 27 76 28 58 29 61 30 75 31 94 32 59 33
REMARK SMILES IDX 60 34 74 36 95 37 62 38 46 39 47 40 55 41 48 42 49 43 53 44
REMARK SMILES IDX 56 45 50 46 51 47 54 48 52 49 78 50 79 51 87 52 80 53 81 54
REMARK SMILES IDX 85 55 88 56 82 57 83 58 86 59 84 60 63 61 64 62 72 63 65 64
REMARK SMILES IDX 66 65 70 66 73 67 67 68 68 69 71 70 69 71 7 72 8 73 9 74
REMARK SMILES IDX 10 75 11 76 12 77 13 78 26 79 14 80 15 81 27 82 28 83 36 84
REMARK SMILES IDX 29 85 35 86 30 87 34 88 31 89 33 90 32 91 16 92 17 93 25 94
REMARK SMILES IDX 18 95 20 96 19 97 21 98 22 99 23 100 24 101
REMARK H PARENT 93 24 61 35
REMARK Flexibility Score: inf
ROOT
ATOM      1  O   UNL A   1      36.941  22.824  25.284  1.00  0.00    -0.374 OA
ENDROOT
BRANCH   1   2
ATOM      2  C   UNL A   1      37.182  21.423  25.234  1.00  0.00     0.202 C 
BRANCH   2   3
ATOM      3  C   UNL A   1      38.553  20.897  25.665  1.00  0.00     0.261 C 
BRANCH   3   4
ATOM      4  O   UNL A   1      39.522  21.937  25.854  1.00  0.00    -0.460 OA
BRANCH   4   5
ATOM      5  C   UNL A   1      40.157  22.361  26.965  1.00  0.00     0.338 C 
ATOM      6  O   UNL A   1      40.392  21.528  27.841  1.00  0.00    -0.246 OA
BRANCH   5   7
ATOM      7  C   UNL A   1      40.595  23.771  27.221  1.00  0.00     0.060 A 
ATOM      8  C   UNL A   1      41.611  24.183  28.081  1.00  0.00     0.016 A 
ATOM      9  C   UNL A   1      39.861  24.769  26.546  1.00  0.00     0.016 A 
ATOM     10  C   UNL A   1      41.734  25.515  28.442  1.00  0.00     0.010 A 
ATOM     11  C   UNL A   1      40.021  26.114  26.853  1.00  0.00     0.010 A 
ATOM     12  C   UNL A   1      40.887  26.466  27.881  1.00  0.00    -0.014 A 
BRANCH  12  13
ATOM     13  C   UNL A   1      40.944  27.807  28.442  1.00  0.00     0.031 A 
ATOM     14  C   UNL A   1      42.084  28.657  28.006  1.00  0.00     0.074 A 
ATOM     15  C   UNL A   1      40.008  28.250  29.303  1.00  0.00     0.049 A 
ATOM     16  N   UNL A   1      42.988  29.229  28.736  1.00  0.00    -0.248 NA
ATOM     17  C   UNL A   1      42.283  28.827  26.560  1.00  0.00     0.031 C 
ATOM     18  C   UNL A   1      38.720  27.633  29.636  1.00  0.00     0.029 A 
ATOM     19  N   UNL A   1      39.977  29.422  29.994  1.00  0.00    -0.354 N 
ATOM     20  C   UNL A   1      43.787  29.960  27.857  1.00  0.00     0.074 A 
ATOM     21  C   UNL A   1      43.377  29.587  26.528  1.00  0.00     0.031 C 
ATOM     22  C   UNL A   1      37.946  28.540  30.268  1.00  0.00     0.029 A 
ATOM     23  C   UNL A   1      38.728  29.743  30.497  1.00  0.00     0.049 A 
ATOM     24  H   UNL A   1      40.771  29.990  30.125  1.00  0.00     0.167 HD
ATOM     25  C   UNL A   1      44.590  30.971  28.291  1.00  0.00     0.037 A 
ATOM     26  C   UNL A   1      38.340  30.947  30.978  1.00  0.00     0.037 A 
ATOM     27  C   UNL A   1      44.925  30.820  29.683  1.00  0.00     0.049 A 
ATOM     28  C   UNL A   1      39.561  31.709  31.340  1.00  0.00     0.074 A 
ATOM     29  C   UNL A   1      45.578  29.856  30.426  1.00  0.00     0.029 A 
ATOM     30  N   UNL A   1      44.317  31.635  30.604  1.00  0.00    -0.354 N 
ATOM     31  N   UNL A   1      40.338  31.413  32.344  1.00  0.00    -0.248 NA
ATOM     32  C   UNL A   1      40.153  32.568  30.325  1.00  0.00     0.031 C 
ATOM     33  C   UNL A   1      44.923  29.854  31.692  1.00  0.00     0.029 A 
ATOM     34  C   UNL A   1      43.934  30.835  31.648  1.00  0.00     0.049 A 
ATOM     35  H   UNL A   1      44.182  32.607  30.529  1.00  0.00     0.167 HD
ATOM     36  C   UNL A   1      41.620  31.690  31.892  1.00  0.00     0.074 A 
ATOM     37  C   UNL A   1      41.435  32.493  30.687  1.00  0.00     0.031 C 
ATOM     38  C   UNL A   1      42.701  31.010  32.373  1.00  0.00     0.037 A 
BRANCH  25  39
ATOM     39  C   UNL A   1      44.767  32.280  27.552  1.00  0.00     0.064 A 
ATOM     40  C   UNL A   1      45.943  32.492  26.804  1.00  0.00     0.173 A 
ATOM     41  C   UNL A   1      44.002  33.439  27.813  1.00  0.00     0.173 A 
ATOM     42  F   UNL A   1      46.748  31.466  26.487  1.00  0.00    -0.203 F 
ATOM     43  C   UNL A   1      46.379  33.773  26.456  1.00  0.00     0.198 A 
ATOM     44  C   UNL A   1      44.414  34.711  27.420  1.00  0.00     0.198 A 
ATOM     45  F   UNL A   1      42.886  33.410  28.551  1.00  0.00    -0.203 F 
ATOM     46  F   UNL A   1      47.577  33.933  25.876  1.00  0.00    -0.200 F 
ATOM     47  C   UNL A   1      45.622  34.883  26.778  1.00  0.00     0.200 A 
ATOM     48  F   UNL A   1      43.668  35.775  27.749  1.00  0.00    -0.200 F 
ATOM     49  F   UNL A   1      46.074  36.116  26.518  1.00  0.00    -0.200 F 
ENDBRANCH  25  39
BRANCH  26  50
ATOM     50  C   UNL A   1      37.008  31.575  30.834  1.00  0.00     0.064 A 
ATOM     51  C   UNL A   1      36.231  31.894  31.956  1.00  0.00     0.173 A 
ATOM     52  C   UNL A   1      36.577  32.106  29.600  1.00  0.00     0.173 A 
ATOM     53  F   UNL A   1      36.601  31.473  33.174  1.00  0.00    -0.203 F 
ATOM     54  C   UNL A   1      35.095  32.704  31.852  1.00  0.00     0.198 A 
ATOM     55  C   UNL A   1      35.438  32.902  29.496  1.00  0.00     0.198 A 
ATOM     56  F   UNL A   1      37.304  31.941  28.486  1.00  0.00    -0.203 F 
ATOM     57  F   UNL A   1      34.410  33.037  32.955  1.00  0.00    -0.200 F 
ATOM     58  C   UNL A   1      34.704  33.211  30.624  1.00  0.00     0.200 A 
ATOM     59  F   UNL A   1      35.093  33.414  28.306  1.00  0.00    -0.200 F 
ATOM     60  F   UNL A   1      33.647  34.030  30.532  1.00  0.00    -0.200 F 
ENDBRANCH  26  50
BRANCH  38  61
ATOM     61  C   UNL A   1      42.505  30.159  33.592  1.00  0.00     0.064 A 
ATOM     62  C   UNL A   1      42.632  30.643  34.904  1.00  0.00     0.173 A 
ATOM     63  C   UNL A   1      42.032  28.850  33.427  1.00  0.00     0.173 A 
ATOM     64  F   UNL A   1      42.972  31.917  35.138  1.00  0.00    -0.203 F 
ATOM     65  C   UNL A   1      42.349  29.834  36.002  1.00  0.00     0.198 A 
ATOM     66  C   UNL A   1      41.715  28.055  34.525  1.00  0.00     0.198 A 
ATOM     67  F   UNL A   1      41.831  28.357  32.194  1.00  0.00    -0.203 F 
ATOM     68  F   UNL A   1      42.490  30.314  37.246  1.00  0.00    -0.200 F 
ATOM     69  C   UNL A   1      41.885  28.543  35.812  1.00  0.00     0.200 A 
ATOM     70  F   UNL A   1      41.216  26.826  34.337  1.00  0.00    -0.200 F 
ATOM     71  F   UNL A   1      41.572  27.778  36.867  1.00  0.00    -0.200 F 
ENDBRANCH  38  61
ENDBRANCH  12  13
ENDBRANCH   5   7
ENDBRANCH   4   5
ENDBRANCH   3   4
ENDBRANCH   2   3
ENDBRANCH   1   2
BRANCH   1  72
ATOM     72  C   UNL A   1      35.794  23.335  25.967  1.00  0.00     0.202 C 
BRANCH  72  73
ATOM     73  C   UNL A   1      34.682  22.381  26.411  1.00  0.00     0.261 C 
BRANCH  73  74
ATOM     74  O   UNL A   1      33.385  22.867  26.048  1.00  0.00    -0.458 OA
BRANCH  74  75
ATOM     75  C   UNL A   1      33.063  22.745  24.722  1.00  0.00     0.361 C 
ATOM     76  O   UNL A   1      33.478  21.879  23.982  1.00  0.00    -0.244 OA
BRANCH  75  77
ATOM     77  C   UNL A   1      32.053  23.712  24.323  1.00  0.00     0.198 A 
ATOM     78  N   UNL A   1      31.033  23.401  23.453  1.00  0.00    -0.122 NA
ATOM     79  C   UNL A   1      31.921  25.032  24.711  1.00  0.00     0.123 A 
ATOM     80  N   UNL A   1      30.298  24.491  23.271  1.00  0.00    -0.061 NA
ATOM     81  N   UNL A   1      30.956  25.512  23.853  1.00  0.00    -0.213 N 
BRANCH  79  82
ATOM     82  C   UNL A   1      32.578  25.867  25.757  1.00  0.00     0.262 C 
ATOM     83  C   UNL A   1      33.963  26.331  25.286  1.00  0.00     0.281 C 
ATOM     84  O   UNL A   1      31.681  26.950  26.016  1.00  0.00    -0.477 OA
ATOM     85  O   UNL A   1      34.556  27.196  26.260  1.00  0.00    -0.485 OA
ATOM     86  C   UNL A   1      32.310  28.101  26.404  1.00  0.00     0.162 A 
ATOM     87  C   UNL A   1      33.694  28.226  26.531  1.00  0.00     0.161 A 
ATOM     88  C   UNL A   1      31.486  29.199  26.641  1.00  0.00     0.050 A 
ATOM     89  C   UNL A   1      34.254  29.434  26.934  1.00  0.00     0.050 A 
ATOM     90  C   UNL A   1      32.047  30.422  27.003  1.00  0.00     0.004 A 
ATOM     91  C   UNL A   1      33.430  30.538  27.156  1.00  0.00     0.004 A 
ENDBRANCH  79  82
BRANCH  81  92
ATOM     92  C   UNL A   1      30.841  26.825  23.370  1.00  0.00     0.067 A 
ATOM     93  C   UNL A   1      31.953  27.514  22.895  1.00  0.00     0.028 A 
ATOM     94  C   UNL A   1      29.570  27.416  23.379  1.00  0.00     0.041 A 
ATOM     95  C   UNL A   1      31.763  28.777  22.335  1.00  0.00     0.003 A 
ATOM     96  C   UNL A   1      29.381  28.696  22.855  1.00  0.00     0.058 A 
ATOM     97  C   UNL A   1      30.487  29.361  22.307  1.00  0.00     0.013 A 
BRANCH  96  98
ATOM     98  C   UNL A   1      28.010  29.326  22.870  1.00  0.00     0.416 C 
ATOM     99  F   UNL A   1      27.028  28.445  23.199  1.00  0.00    -0.166 F 
ATOM    100  F   UNL A   1      27.921  30.348  23.764  1.00  0.00    -0.166 F 
ATOM    101  F   UNL A   1      27.648  29.855  21.667  1.00  0.00    -0.166 F 
ENDBRANCH  96  98
ENDBRANCH  81  92
ENDBRANCH  75  77
ENDBRANCH  74  75
ENDBRANCH  73  74
ENDBRANCH  72  73
ENDBRANCH   1  72
TORSDOF 17
ENDMDL
MODEL 2
REMARK VINA RESULT:     -12.9      0.847      1.788
REMARK SMILES O=C(OCCOCCOC(=O)c1nnn(-c2cccc(C(F)(F)F)c2)c1[C@H]1COc2ccccc2O1)c1ccc(-c2c3nc(c(-c4c(F)c(F)c(F)c(F)c4F)c4ccc([nH]4)c(-c4c(F)c(F)c(F)c(F)c4F)c4nc(c(-c5c(F)c(F)c(F)c(F)c5F)c5ccc2[nH]5)C=C4)C=C3)cc1
REMARK SMILES IDX 6 1 5 2 4 3 3 4 2 5 1 6 37 7 38 8 99 9 39 10 98 11 40 12
REMARK SMILES IDX 41 13 42 14 92 15 43 16 97 17 91 18 93 19 44 20 96 21 90 22
REMARK SMILES IDX 89 23 45 25 77 26 57 27 76 28 58 29 61 30 75 31 94 32 59 33
REMARK SMILES IDX 60 34 74 36 95 37 62 38 46 39 47 40 55 41 48 42 49 43 53 44
REMARK SMILES IDX 56 45 50 46 51 47 54 48 52 49 78 50 79 51 87 52 80 53 81 54
REMARK SMILES IDX 85 55 88 56 82 57 83 58 86 59 84 60 63 61 64 62 72 63 65 64
REMARK SMILES IDX 66 65 70 66 73 67 67 68 68 69 71 70 69 71 7 72 8 73 9 74
REMARK SMILES IDX 10 75 11 76 12 77 13 78 26 79 14 80 15 81 27 82 28 83 36 84
REMARK SMILES IDX 29 85 35 86 30 87 34 88 31 89 33 90 32 91 16 92 17 93 25 94
REMARK SMILES IDX 18 95 20 96 19 97 21 98 22 99 23 100 24 101
REMARK H PARENT 93 24 61 35
REMARK Flexibility Score: inf
ROOT
ATOM      1  O   UNL A   1      35.508  21.251  25.613  1.00  0.00    -0.374 OA
ENDROOT
BRANCH   1   2
ATOM      2  C   UNL A   1      36.872  21.217  25.209  1.00  0.00     0.202 C 
BRANCH   2   3
ATOM      3  C   UNL A   1      37.795  22.360  25.639  1.00  0.00     0.261 C 
BRANCH   3   4
ATOM      4  O   UNL A   1      39.148  21.938  25.861  1.00  0.00    -0.460 OA
BRANCH   4   5
ATOM      5  C   UNL A   1      40.011  22.229  26.855  1.00  0.00     0.338 C 
ATOM      6  O   UNL A   1      40.410  21.299  27.556  1.00  0.00    -0.246 OA
BRANCH   5   7
ATOM      7  C   UNL A   1      40.521  23.601  27.176  1.00  0.00     0.060 A 
ATOM      8  C   UNL A   1      41.589  23.916  28.014  1.00  0.00     0.016 A 
ATOM      9  C   UNL A   1      39.803  24.669  26.598  1.00  0.00     0.016 A 
ATOM     10  C   UNL A   1      41.785  25.216  28.450  1.00  0.00     0.010 A 
ATOM     11  C   UNL A   1      40.035  25.984  26.979  1.00  0.00     0.010 A 
ATOM     12  C   UNL A   1      40.958  26.235  27.986  1.00  0.00    -0.014 A 
BRANCH  12  13
ATOM     13  C   UNL A   1      41.097  27.534  28.626  1.00  0.00     0.031 A 
ATOM     14  C   UNL A   1      42.300  28.327  28.256  1.00  0.00     0.074 A 
ATOM     15  C   UNL A   1      40.179  27.991  29.498  1.00  0.00     0.049 A 
ATOM     16  N   UNL A   1      43.228  28.792  29.030  1.00  0.00    -0.248 NA
ATOM     17  C   UNL A   1      42.536  28.565  26.825  1.00  0.00     0.031 C 
ATOM     18  C   UNL A   1      38.845  27.447  29.777  1.00  0.00     0.029 A 
ATOM     19  N   UNL A   1      40.215  29.121  30.256  1.00  0.00    -0.354 N 
ATOM     20  C   UNL A   1      44.091  29.514  28.206  1.00  0.00     0.074 A 
ATOM     21  C   UNL A   1      43.680  29.247  26.852  1.00  0.00     0.031 C 
ATOM     22  C   UNL A   1      38.125  28.368  30.450  1.00  0.00     0.029 A 
ATOM     23  C   UNL A   1      38.983  29.499  30.759  1.00  0.00     0.049 A 
ATOM     24  H   UNL A   1      41.045  29.624  30.430  1.00  0.00     0.167 HD
ATOM     25  C   UNL A   1      44.954  30.440  28.709  1.00  0.00     0.037 A 
ATOM     26  C   UNL A   1      38.671  30.698  31.305  1.00  0.00     0.037 A 
ATOM     27  C   UNL A   1      45.253  30.187  30.094  1.00  0.00     0.049 A 
ATOM     28  C   UNL A   1      39.934  31.351  31.727  1.00  0.00     0.074 A 
ATOM     29  C   UNL A   1      45.825  29.139  30.789  1.00  0.00     0.029 A 
ATOM     30  N   UNL A   1      44.686  30.988  31.053  1.00  0.00    -0.354 N 
ATOM     31  N   UNL A   1      40.671  30.945  32.722  1.00  0.00    -0.248 NA
ATOM     32  C   UNL A   1      40.601  32.223  30.772  1.00  0.00     0.031 C 
ATOM     33  C   UNL A   1      45.149  29.110  32.044  1.00  0.00     0.029 A 
ATOM     34  C   UNL A   1      44.231  30.158  32.043  1.00  0.00     0.049 A 
ATOM     35  H   UNL A   1      44.619  31.970  31.033  1.00  0.00     0.167 HD
ATOM     36  C   UNL A   1      41.976  31.157  32.305  1.00  0.00     0.074 A 
ATOM     37  C   UNL A   1      41.869  32.038  31.146  1.00  0.00     0.031 C 
ATOM     38  C   UNL A   1      43.000  30.377  32.760  1.00  0.00     0.037 A 
BRANCH  25  39
ATOM     39  C   UNL A   1      45.233  31.774  28.050  1.00  0.00     0.064 A 
ATOM     40  C   UNL A   1      44.152  32.625  27.741  1.00  0.00     0.173 A 
ATOM     41  C   UNL A   1      46.455  32.100  27.422  1.00  0.00     0.173 A 
ATOM     42  F   UNL A   1      42.941  32.420  28.282  1.00  0.00    -0.203 F 
ATOM     43  C   UNL A   1      44.257  33.640  26.786  1.00  0.00     0.198 A 
ATOM     44  C   UNL A   1      46.570  33.146  26.508  1.00  0.00     0.198 A 
ATOM     45  F   UNL A   1      47.560  31.362  27.577  1.00  0.00    -0.203 F 
ATOM     46  F   UNL A   1      43.165  34.323  26.418  1.00  0.00    -0.200 F 
ATOM     47  C   UNL A   1      45.463  33.889  26.159  1.00  0.00     0.200 A 
ATOM     48  F   UNL A   1      47.747  33.366  25.905  1.00  0.00    -0.200 F 
ATOM     49  F   UNL A   1      45.550  34.805  25.186  1.00  0.00    -0.200 F 
ENDBRANCH  25  39
BRANCH  26  50
ATOM     50  C   UNL A   1      37.387  31.424  31.179  1.00  0.00     0.064 A 
ATOM     51  C   UNL A   1      36.636  31.771  32.311  1.00  0.00     0.173 A 
ATOM     52  C   UNL A   1      36.995  32.014  29.960  1.00  0.00     0.173 A 
ATOM     53  F   UNL A   1      36.975  31.295  33.517  1.00  0.00    -0.203 F 
ATOM     54  C   UNL A   1      35.562  32.663  32.229  1.00  0.00     0.198 A 
ATOM     55  C   UNL A   1      35.917  32.894  29.878  1.00  0.00     0.198 A 
ATOM     56  F   UNL A   1      37.708  31.825  28.840  1.00  0.00    -0.203 F 
ATOM     57  F   UNL A   1      34.903  33.018  33.341  1.00  0.00    -0.200 F 
ATOM     58  C   UNL A   1      35.208  33.228  31.015  1.00  0.00     0.200 A 
ATOM     59  F   UNL A   1      35.609  33.458  28.701  1.00  0.00    -0.200 F 
ATOM     60  F   UNL A   1      34.214  34.123  30.945  1.00  0.00    -0.200 F 
ENDBRANCH  26  50
BRANCH  38  61
ATOM     61  C   UNL A   1      42.725  29.473  33.925  1.00  0.00     0.064 A 
ATOM     62  C   UNL A   1      42.046  28.248  33.812  1.00  0.00     0.173 A 
ATOM     63  C   UNL A   1      43.294  29.787  35.166  1.00  0.00     0.173 A 
ATOM     64  F   UNL A   1      41.572  27.829  32.632  1.00  0.00    -0.203 F 
ATOM     65  C   UNL A   1      41.898  27.403  34.909  1.00  0.00     0.198 A 
ATOM     66  C   UNL A   1      43.176  28.923  36.252  1.00  0.00     0.198 A 
ATOM     67  F   UNL A   1      44.008  30.914  35.314  1.00  0.00    -0.203 F 
ATOM     68  F   UNL A   1      41.235  26.245  34.781  1.00  0.00    -0.200 F 
ATOM     69  C   UNL A   1      42.468  27.738  36.126  1.00  0.00     0.200 A 
ATOM     70  F   UNL A   1      43.774  29.226  37.412  1.00  0.00    -0.200 F 
ATOM     71  F   UNL A   1      42.363  26.905  37.171  1.00  0.00    -0.200 F 
ENDBRANCH  38  61
ENDBRANCH  12  13
ENDBRANCH   5   7
ENDBRANCH   4   5
ENDBRANCH   3   4
ENDBRANCH   2   3
ENDBRANCH   1   2
BRANCH   1  72
ATOM     72  C   UNL A   1      34.537  20.446  24.942  1.00  0.00     0.202 C 
BRANCH  72  73
ATOM     73  C   UNL A   1      33.344  21.107  24.248  1.00  0.00     0.261 C 
BRANCH  73  74
ATOM     74  O   UNL A   1      33.376  22.533  24.375  1.00  0.00    -0.458 OA
BRANCH  74  75
ATOM     75  C   UNL A   1      32.580  23.053  25.360  1.00  0.00     0.361 C 
ATOM     76  O   UNL A   1      32.692  22.815  26.544  1.00  0.00    -0.244 OA
BRANCH  75  77
ATOM     77  C   UNL A   1      31.649  24.040  24.834  1.00  0.00     0.198 A 
ATOM     78  N   UNL A   1      30.655  23.716  23.940  1.00  0.00    -0.122 NA
ATOM     79  C   UNL A   1      31.579  25.392  25.111  1.00  0.00     0.123 A 
ATOM     80  N   UNL A   1      29.996  24.828  23.635  1.00  0.00    -0.061 NA
ATOM     81  N   UNL A   1      30.686  25.854  24.169  1.00  0.00    -0.213 N 
BRANCH  79  82
ATOM     82  C   UNL A   1      32.234  26.271  26.121  1.00  0.00     0.262 C 
ATOM     83  C   UNL A   1      33.688  26.558  25.724  1.00  0.00     0.281 C 
ATOM     84  O   UNL A   1      31.429  27.451  26.198  1.00  0.00    -0.477 OA
ATOM     85  O   UNL A   1      34.288  27.465  26.654  1.00  0.00    -0.485 OA
ATOM     86  C   UNL A   1      32.135  28.576  26.521  1.00  0.00     0.162 A 
ATOM     87  C   UNL A   1      33.512  28.590  26.751  1.00  0.00     0.161 A 
ATOM     88  C   UNL A   1      31.406  29.761  26.581  1.00  0.00     0.050 A 
ATOM     89  C   UNL A   1      34.155  29.779  27.079  1.00  0.00     0.050 A 
ATOM     90  C   UNL A   1      32.055  30.961  26.867  1.00  0.00     0.004 A 
ATOM     91  C   UNL A   1      33.427  30.969  27.123  1.00  0.00     0.004 A 
ENDBRANCH  79  82
BRANCH  81  92
ATOM     92  C   UNL A   1      30.673  27.128  23.580  1.00  0.00     0.067 A 
ATOM     93  C   UNL A   1      31.829  27.678  23.034  1.00  0.00     0.028 A 
ATOM     94  C   UNL A   1      29.456  27.825  23.556  1.00  0.00     0.041 A 
ATOM     95  C   UNL A   1      31.735  28.902  22.373  1.00  0.00     0.003 A 
ATOM     96  C   UNL A   1      29.366  29.069  22.929  1.00  0.00     0.058 A 
ATOM     97  C   UNL A   1      30.513  29.589  22.314  1.00  0.00     0.013 A 
BRANCH  96  98
ATOM     98  C   UNL A   1      28.053  29.813  22.909  1.00  0.00     0.416 C 
ATOM     99  F   UNL A   1      28.014  30.837  23.803  1.00  0.00    -0.166 F 
ATOM    100  F   UNL A   1      27.788  30.359  21.691  1.00  0.00    -0.166 F 
ATOM    101  F   UNL A   1      26.982  29.021  23.201  1.00  0.00    -0.166 F 
ENDBRANCH  96  98
ENDBRANCH  81  92
ENDBRANCH  75  77
ENDBRANCH  74  75
ENDBRANCH  73  74
ENDBRANCH  72  73
ENDBRANCH   1  72
TORSDOF 17
ENDMDL
MODEL 3
REMARK VINA RESULT:     -12.7      1.740      3.007
REMARK SMILES O=C(OCCOCCOC(=O)c1nnn(-c2cccc(C(F)(F)F)c2)c1[C@H]1COc2ccccc2O1)c1ccc(-c2c3nc(c(-c4c(F)c(F)c(F)c(F)c4F)c4ccc([nH]4)c(-c4c(F)c(F)c(F)c(F)c4F)c4nc(c(-c5c(F)c(F)c(F)c(F)c5F)c5ccc2[nH]5)C=C4)C=C3)cc1
REMARK SMILES IDX 6 1 5 2 4 3 3 4 2 5 1 6 37 7 38 8 99 9 39 10 98 11 40 12
REMARK SMILES IDX 41 13 42 14 92 15 43 16 97 17 91 18 93 19 44 20 96 21 90 22
REMARK SMILES IDX 89 23 45 25 77 26 57 27 76 28 58 29 61 30 75 31 94 32 59 33
REMARK SMILES IDX 60 34 74 36 95 37 62 38 46 39 47 40 55 41 48 42 49 43 53 44
REMARK SMILES IDX 56 45 50 46 51 47 54 48 52 49 78 50 79 51 87 52 80 53 81 54
REMARK SMILES IDX 85 55 88 56 82 57 83 58 86 59 84 60 63 61 64 62 72 63 65 64
REMARK SMILES IDX 66 65 70 66 73 67 67 68 68 69 71 70 69 71 7 72 8 73 9 74
REMARK SMILES IDX 10 75 11 76 12 77 13 78 26 79 14 80 15 81 27 82 28 83 36 84
REMARK SMILES IDX 29 85 35 86 30 87 34 88 31 89 33 90 32 91 16 92 17 93 25 94
REMARK SMILES IDX 18 95 20 96 19 97 21 98 22 99 23 100 24 101
REMARK H PARENT 93 24 61 35
REMARK Flexibility Score: inf
ROOT
ATOM      1  O   UNL A   1      35.561  21.798  26.040  1.00  0.00    -0.374 OA
ENDROOT
BRANCH   1   2
ATOM      2  C   UNL A   1      36.438  21.288  25.043  1.00  0.00     0.202 C 
BRANCH   2   3
ATOM      3  C   UNL A   1      37.926  21.150  25.372  1.00  0.00     0.261 C 
BRANCH   3   4
ATOM      4  O   UNL A   1      38.462  22.296  26.048  1.00  0.00    -0.460 OA
BRANCH   4   5
ATOM      5  C   UNL A   1      39.620  22.465  26.717  1.00  0.00     0.338 C 
ATOM      6  O   UNL A   1      40.239  21.454  27.051  1.00  0.00    -0.246 OA
BRANCH   5   7
ATOM      7  C   UNL A   1      40.212  23.789  27.093  1.00  0.00     0.060 A 
ATOM      8  C   UNL A   1      41.244  24.011  28.003  1.00  0.00     0.016 A 
ATOM      9  C   UNL A   1      39.619  24.916  26.485  1.00  0.00     0.016 A 
ATOM     10  C   UNL A   1      41.510  25.287  28.470  1.00  0.00     0.010 A 
ATOM     11  C   UNL A   1      39.925  26.205  26.901  1.00  0.00     0.010 A 
ATOM     12  C   UNL A   1      40.797  26.372  27.970  1.00  0.00    -0.014 A 
BRANCH  12  13
ATOM     13  C   UNL A   1      40.993  27.650  28.637  1.00  0.00     0.031 A 
ATOM     14  C   UNL A   1      42.223  28.403  28.273  1.00  0.00     0.074 A 
ATOM     15  C   UNL A   1      40.102  28.123  29.529  1.00  0.00     0.049 A 
ATOM     16  N   UNL A   1      43.176  28.813  29.047  1.00  0.00    -0.248 NA
ATOM     17  C   UNL A   1      42.454  28.664  26.845  1.00  0.00     0.031 C 
ATOM     18  C   UNL A   1      38.751  27.625  29.810  1.00  0.00     0.029 A 
ATOM     19  N   UNL A   1      40.191  29.233  30.312  1.00  0.00    -0.354 N 
ATOM     20  C   UNL A   1      44.059  29.520  28.231  1.00  0.00     0.074 A 
ATOM     21  C   UNL A   1      43.625  29.300  26.876  1.00  0.00     0.031 C 
ATOM     22  C   UNL A   1      38.074  28.558  30.510  1.00  0.00     0.029 A 
ATOM     23  C   UNL A   1      38.979  29.647  30.836  1.00  0.00     0.049 A 
ATOM     24  H   UNL A   1      41.041  29.699  30.489  1.00  0.00     0.167 HD
ATOM     25  C   UNL A   1      44.963  30.399  28.745  1.00  0.00     0.037 A 
ATOM     26  C   UNL A   1      38.720  30.844  31.412  1.00  0.00     0.037 A 
ATOM     27  C   UNL A   1      45.265  30.103  30.121  1.00  0.00     0.049 A 
ATOM     28  C   UNL A   1      40.012  31.437  31.836  1.00  0.00     0.074 A 
ATOM     29  C   UNL A   1      45.802  29.017  30.786  1.00  0.00     0.029 A 
ATOM     30  N   UNL A   1      44.739  30.903  31.103  1.00  0.00    -0.354 N 
ATOM     31  N   UNL A   1      40.742  30.980  32.814  1.00  0.00    -0.248 NA
ATOM     32  C   UNL A   1      40.704  32.305  30.893  1.00  0.00     0.031 C 
ATOM     33  C   UNL A   1      45.138  28.986  32.047  1.00  0.00     0.029 A 
ATOM     34  C   UNL A   1      44.261  30.070  32.080  1.00  0.00     0.049 A 
ATOM     35  H   UNL A   1      44.712  31.887  31.107  1.00  0.00     0.167 HD
ATOM     36  C   UNL A   1      42.051  31.150  32.387  1.00  0.00     0.074 A 
ATOM     37  C   UNL A   1      41.967  32.061  31.250  1.00  0.00     0.031 C 
ATOM     38  C   UNL A   1      43.047  30.320  32.814  1.00  0.00     0.037 A 
BRANCH  25  39
ATOM     39  C   UNL A   1      45.288  31.736  28.114  1.00  0.00     0.064 A 
ATOM     40  C   UNL A   1      44.237  32.629  27.819  1.00  0.00     0.173 A 
ATOM     41  C   UNL A   1      46.523  32.034  27.496  1.00  0.00     0.173 A 
ATOM     42  F   UNL A   1      43.018  32.453  28.353  1.00  0.00    -0.203 F 
ATOM     43  C   UNL A   1      44.379  33.658  26.884  1.00  0.00     0.198 A 
ATOM     44  C   UNL A   1      46.675  33.093  26.603  1.00  0.00     0.198 A 
ATOM     45  F   UNL A   1      47.602  31.256  27.638  1.00  0.00    -0.203 F 
ATOM     46  F   UNL A   1      43.311  34.384  26.527  1.00  0.00    -0.200 F 
ATOM     47  C   UNL A   1      45.594  33.879  26.265  1.00  0.00     0.200 A 
ATOM     48  F   UNL A   1      47.861  33.285  26.007  1.00  0.00    -0.200 F 
ATOM     49  F   UNL A   1      45.714  34.811  25.311  1.00  0.00    -0.200 F 
ENDBRANCH  25  39
BRANCH  26  50
ATOM     50  C   UNL A   1      37.465  31.623  31.316  1.00  0.00     0.064 A 
ATOM     51  C   UNL A   1      36.666  31.853  32.445  1.00  0.00     0.173 A 
ATOM     52  C   UNL A   1      37.153  32.372  30.163  1.00  0.00     0.173 A 
ATOM     53  F   UNL A   1      36.929  31.221  33.598  1.00  0.00    -0.203 F 
ATOM     54  C   UNL A   1      35.623  32.784  32.424  1.00  0.00     0.198 A 
ATOM     55  C   UNL A   1      36.105  33.290  30.139  1.00  0.00     0.198 A 
ATOM     56  F   UNL A   1      37.917  32.298  29.063  1.00  0.00    -0.203 F 
ATOM     57  F   UNL A   1      34.917  33.022  33.539  1.00  0.00    -0.200 F 
ATOM     58  C   UNL A   1      35.348  33.505  31.273  1.00  0.00     0.200 A 
ATOM     59  F   UNL A   1      35.874  34.005  29.028  1.00  0.00    -0.200 F 
ATOM     60  F   UNL A   1      34.383  34.436  31.268  1.00  0.00    -0.200 F 
ENDBRANCH  26  50
BRANCH  38  61
ATOM     61  C   UNL A   1      42.747  29.401  33.961  1.00  0.00     0.064 A 
ATOM     62  C   UNL A   1      42.031  28.201  33.825  1.00  0.00     0.173 A 
ATOM     63  C   UNL A   1      43.330  29.672  35.207  1.00  0.00     0.173 A 
ATOM     64  F   UNL A   1      41.541  27.821  32.639  1.00  0.00    -0.203 F 
ATOM     65  C   UNL A   1      41.860  27.338  34.906  1.00  0.00     0.198 A 
ATOM     66  C   UNL A   1      43.188  28.790  36.274  1.00  0.00     0.198 A 
ATOM     67  F   UNL A   1      44.079  30.773  35.375  1.00  0.00    -0.203 F 
ATOM     68  F   UNL A   1      41.161  26.203  34.756  1.00  0.00    -0.200 F 
ATOM     69  C   UNL A   1      42.444  27.630  36.127  1.00  0.00     0.200 A 
ATOM     70  F   UNL A   1      43.799  29.050  37.439  1.00  0.00    -0.200 F 
ATOM     71  F   UNL A   1      42.316  26.779  37.155  1.00  0.00    -0.200 F 
ENDBRANCH  38  61
ENDBRANCH  12  13
ENDBRANCH   5   7
ENDBRANCH   4   5
ENDBRANCH   3   4
ENDBRANCH   2   3
ENDBRANCH   1   2
BRANCH   1  72
ATOM     72  C   UNL A   1      34.257  21.238  26.208  1.00  0.00     0.202 C 
BRANCH  72  73
ATOM     73  C   UNL A   1      33.449  20.804  24.983  1.00  0.00     0.261 C 
BRANCH  73  74
ATOM     74  O   UNL A   1      32.456  21.773  24.629  1.00  0.00    -0.458 OA
BRANCH  74  75
ATOM     75  C   UNL A   1      32.489  22.198  23.327  1.00  0.00     0.361 C 
ATOM     76  O   UNL A   1      31.946  21.639  22.398  1.00  0.00    -0.244 OA
BRANCH  75  77
ATOM     77  C   UNL A   1      33.153  23.486  23.198  1.00  0.00     0.198 A 
ATOM     78  N   UNL A   1      34.523  23.614  23.190  1.00  0.00    -0.122 NA
ATOM     79  C   UNL A   1      32.586  24.738  23.062  1.00  0.00     0.123 A 
ATOM     80  N   UNL A   1      34.817  24.905  23.085  1.00  0.00    -0.061 NA
ATOM     81  N   UNL A   1      33.662  25.584  23.225  1.00  0.00    -0.213 N 
BRANCH  79  82
ATOM     82  C   UNL A   1      31.197  25.217  22.810  1.00  0.00     0.262 C 
ATOM     83  C   UNL A   1      30.371  25.183  24.102  1.00  0.00     0.281 C 
ATOM     84  O   UNL A   1      31.327  26.532  22.261  1.00  0.00    -0.477 OA
ATOM     85  O   UNL A   1      29.064  25.717  23.872  1.00  0.00    -0.485 OA
ATOM     86  C   UNL A   1      30.277  27.355  22.557  1.00  0.00     0.162 A 
ATOM     87  C   UNL A   1      29.178  26.968  23.325  1.00  0.00     0.161 A 
ATOM     88  C   UNL A   1      30.365  28.658  22.072  1.00  0.00     0.050 A 
ATOM     89  C   UNL A   1      28.148  27.869  23.578  1.00  0.00     0.050 A 
ATOM     90  C   UNL A   1      29.355  29.575  22.360  1.00  0.00     0.004 A 
ATOM     91  C   UNL A   1      28.244  29.179  23.106  1.00  0.00     0.004 A 
ENDBRANCH  79  82
BRANCH  81  92
ATOM     92  C   UNL A   1      33.637  26.878  23.770  1.00  0.00     0.067 A 
ATOM     93  C   UNL A   1      33.978  27.986  23.001  1.00  0.00     0.028 A 
ATOM     94  C   UNL A   1      33.254  27.015  25.112  1.00  0.00     0.041 A 
ATOM     95  C   UNL A   1      33.839  29.254  23.565  1.00  0.00     0.003 A 
ATOM     96  C   UNL A   1      33.150  28.279  25.693  1.00  0.00     0.058 A 
ATOM     97  C   UNL A   1      33.421  29.401  24.896  1.00  0.00     0.013 A 
BRANCH  96  98
ATOM     98  C   UNL A   1      32.739  28.418  27.138  1.00  0.00     0.416 C 
ATOM     99  F   UNL A   1      33.797  28.590  27.973  1.00  0.00    -0.166 F 
ATOM    100  F   UNL A   1      31.916  29.483  27.340  1.00  0.00    -0.166 F 
ATOM    101  F   UNL A   1      32.062  27.333  27.610  1.00  0.00    -0.166 F 
ENDBRANCH  96  98
ENDBRANCH  81  92
ENDBRANCH  75  77
ENDBRANCH  74  75
ENDBRANCH  73  74
ENDBRANCH  72  73
ENDBRANCH   1  72
TORSDOF 17
ENDMDL
