MODEL 1
REMARK VINA RESULT:     -11.9      0.000      0.000
REMARK SMILES Cc1ccc(/C=C2/C[N@@H+](C)Cc3c2nc2ccccc2c3C(=O)OCCOCCOC(=O)c2ccc(-c3c4nc(c(-c5c(F)c(F)c(F)c(F)c5F)c5ccc([nH]5)c(-c5c(F)c(F)c(F)c(F)c5F)c5nc(c(-c6c(F)c(F)c(F)c(F)c6F)c6ccc3[nH]6)C=C5)C=C4)cc2)cc1
REMARK SMILES IDX 28 1 27 2 26 3 25 4 24 5 22 6 23 7 21 8 6 9 7 10 8 11 13 12
REMARK SMILES IDX 9 13 12 14 14 15 10 16 11 17 15 19 20 20 16 21 19 22 17 23
REMARK SMILES IDX 18 24 5 25 1 26 2 27 3 28 97 29 4 30 96 31 29 32 30 33 31 34
REMARK SMILES IDX 32 35 33 36 34 37 95 38 35 39 94 40 36 41 37 42 38 43 88 44
REMARK SMILES IDX 39 45 93 46 87 47 89 48 40 49 92 50 86 51 85 52 41 54 73 55
REMARK SMILES IDX 53 56 72 57 54 58 57 59 71 60 90 61 55 62 56 63 70 65 91 66
REMARK SMILES IDX 58 67 42 68 43 69 51 70 44 71 45 72 49 73 52 74 46 75 47 76
REMARK SMILES IDX 50 77 48 78 74 79 75 80 83 81 76 82 77 83 81 84 84 85 78 86
REMARK SMILES IDX 79 87 82 88 80 89 59 90 60 91 68 92 61 93 62 94 66 95 69 96
REMARK SMILES IDX 63 97 64 98 67 99 65 100
REMARK H PARENT 9 18 89 53 57 64
REMARK Flexibility Score: inf
ROOT
ATOM      1  C   UNL A   1      38.280  21.310  25.131  1.00  0.00     0.202 C 
ENDROOT
BRANCH   1   2
ATOM      2  O   UNL A   1      37.494  22.403  24.666  1.00  0.00    -0.374 OA
BRANCH   2   3
ATOM      3  C   UNL A   1      36.135  22.502  25.062  1.00  0.00     0.202 C 
BRANCH   3   4
ATOM      4  C   UNL A   1      35.765  23.367  26.275  1.00  0.00     0.261 C 
BRANCH   4   5
ATOM      5  O   UNL A   1      35.306  24.663  25.931  1.00  0.00    -0.460 OA
BRANCH   5   6
ATOM      6  C   UNL A   1      33.973  24.809  25.970  1.00  0.00     0.339 C 
ATOM      7  O   UNL A   1      33.190  24.459  26.828  1.00  0.00    -0.246 OA
BRANCH   6   8
ATOM      8  C   UNL A   1      33.694  25.846  24.994  1.00  0.00     0.080 A 
ATOM      9  C   UNL A   1      31.184  26.912  21.270  1.00  0.00     0.020 C 
ATOM     10  C   UNL A   1      32.365  26.357  21.622  1.00  0.00     0.033 C 
ATOM     11  C   UNL A   1      32.906  25.155  20.907  1.00  0.00     0.301 C 
ATOM     12  C   UNL A   1      33.082  26.635  22.884  1.00  0.00     0.082 A 
ATOM     13  N   UNL A   1      32.709  24.029  21.821  1.00  0.00    -0.330 N 
ATOM     14  C   UNL A   1      33.432  25.544  23.657  1.00  0.00     0.048 A 
ATOM     15  N   UNL A   1      33.170  27.923  23.305  1.00  0.00    -0.247 NA
ATOM     16  C   UNL A   1      32.877  22.752  21.157  1.00  0.00     0.333 C 
ATOM     17  C   UNL A   1      33.534  24.170  23.033  1.00  0.00     0.302 C 
ATOM     18  H   UNL A   1      31.738  24.049  22.133  1.00  0.00     0.348 HD
ATOM     19  C   UNL A   1      33.450  28.180  24.597  1.00  0.00     0.072 A 
ATOM     20  C   UNL A   1      33.704  27.163  25.514  1.00  0.00     0.015 A 
ATOM     21  C   UNL A   1      33.431  29.489  25.069  1.00  0.00     0.029 A 
ATOM     22  C   UNL A   1      33.959  27.494  26.877  1.00  0.00     0.011 A 
ATOM     23  C   UNL A   1      33.652  29.808  26.416  1.00  0.00     0.002 A 
ATOM     24  C   UNL A   1      33.921  28.803  27.328  1.00  0.00     0.001 A 
BRANCH   9  25
ATOM     25  C   UNL A   1      30.443  27.921  22.039  1.00  0.00    -0.025 A 
ATOM     26  C   UNL A   1      27.652  30.752  23.648  1.00  0.00     0.044 C 
ATOM     27  C   UNL A   1      28.711  29.787  23.214  1.00  0.00    -0.051 A 
ATOM     28  C   UNL A   1      29.775  30.222  22.420  1.00  0.00     0.004 A 
ATOM     29  C   UNL A   1      28.586  28.422  23.500  1.00  0.00     0.004 A 
ATOM     30  C   UNL A   1      30.663  29.296  21.875  1.00  0.00     0.008 A 
ATOM     31  C   UNL A   1      29.449  27.494  22.917  1.00  0.00     0.008 A 
ENDBRANCH   9  25
ENDBRANCH   6   8
ENDBRANCH   5   6
ENDBRANCH   4   5
ENDBRANCH   3   4
ENDBRANCH   2   3
ENDBRANCH   1   2
BRANCH   1  32
ATOM     32  C   UNL A   1      39.123  21.504  26.407  1.00  0.00     0.261 C 
BRANCH  32  33
ATOM     33  O   UNL A   1      40.432  22.020  26.116  1.00  0.00    -0.460 OA
BRANCH  33  34
ATOM     34  C   UNL A   1      40.965  22.926  26.990  1.00  0.00     0.338 C 
ATOM     35  O   UNL A   1      41.848  22.749  27.799  1.00  0.00    -0.246 OA
BRANCH  34  36
ATOM     36  C   UNL A   1      40.325  24.219  26.639  1.00  0.00     0.060 A 
ATOM     37  C   UNL A   1      41.090  25.246  26.094  1.00  0.00     0.016 A 
ATOM     38  C   UNL A   1      39.128  24.511  27.291  1.00  0.00     0.016 A 
ATOM     39  C   UNL A   1      40.796  26.566  26.449  1.00  0.00     0.010 A 
ATOM     40  C   UNL A   1      38.916  25.814  27.740  1.00  0.00     0.010 A 
ATOM     41  C   UNL A   1      39.844  26.826  27.441  1.00  0.00    -0.014 A 
BRANCH  41  42
ATOM     42  C   UNL A   1      40.067  27.922  28.430  1.00  0.00     0.031 A 
ATOM     43  C   UNL A   1      39.131  29.080  28.602  1.00  0.00     0.074 A 
ATOM     44  C   UNL A   1      41.059  27.778  29.361  1.00  0.00     0.049 A 
ATOM     45  N   UNL A   1      39.413  30.129  29.305  1.00  0.00    -0.248 NA
ATOM     46  C   UNL A   1      37.820  29.201  27.969  1.00  0.00     0.031 C 
ATOM     47  C   UNL A   1      41.207  28.506  30.624  1.00  0.00     0.029 A 
ATOM     48  N   UNL A   1      42.183  26.912  29.363  1.00  0.00    -0.354 N 
ATOM     49  C   UNL A   1      38.278  30.889  29.462  1.00  0.00     0.074 A 
ATOM     50  C   UNL A   1      37.347  30.328  28.519  1.00  0.00     0.031 C 
ATOM     51  C   UNL A   1      42.403  28.243  31.170  1.00  0.00     0.029 A 
ATOM     52  C   UNL A   1      43.166  27.512  30.186  1.00  0.00     0.049 A 
ATOM     53  H   UNL A   1      42.264  26.057  28.883  1.00  0.00     0.167 HD
ATOM     54  C   UNL A   1      38.247  31.856  30.428  1.00  0.00     0.037 A 
ATOM     55  C   UNL A   1      44.366  27.938  29.689  1.00  0.00     0.037 A 
ATOM     56  C   UNL A   1      39.583  32.070  30.997  1.00  0.00     0.049 A 
ATOM     57  C   UNL A   1      44.538  29.435  29.784  1.00  0.00     0.074 A 
ATOM     58  C   UNL A   1      40.158  31.824  32.229  1.00  0.00     0.029 A 
ATOM     59  N   UNL A   1      40.629  32.427  30.143  1.00  0.00    -0.354 N 
ATOM     60  N   UNL A   1      43.554  30.249  30.053  1.00  0.00    -0.248 NA
ATOM     61  C   UNL A   1      45.795  30.143  29.570  1.00  0.00     0.031 C 
ATOM     62  C   UNL A   1      41.571  31.937  32.079  1.00  0.00     0.029 A 
ATOM     63  C   UNL A   1      41.854  32.302  30.770  1.00  0.00     0.049 A 
ATOM     64  H   UNL A   1      40.510  32.729  29.214  1.00  0.00     0.167 HD
ATOM     65  C   UNL A   1      43.979  31.538  29.970  1.00  0.00     0.074 A 
ATOM     66  C   UNL A   1      45.399  31.423  29.696  1.00  0.00     0.031 C 
ATOM     67  C   UNL A   1      43.102  32.581  30.062  1.00  0.00     0.037 A 
BRANCH  54  68
ATOM     68  C   UNL A   1      37.008  32.573  30.956  1.00  0.00     0.064 A 
ATOM     69  C   UNL A   1      36.265  33.439  30.119  1.00  0.00     0.173 A 
ATOM     70  C   UNL A   1      36.544  32.527  32.290  1.00  0.00     0.173 A 
ATOM     71  F   UNL A   1      36.597  33.615  28.832  1.00  0.00    -0.203 F 
ATOM     72  C   UNL A   1      35.155  34.170  30.572  1.00  0.00     0.198 A 
ATOM     73  C   UNL A   1      35.402  33.212  32.726  1.00  0.00     0.198 A 
ATOM     74  F   UNL A   1      37.203  31.870  33.249  1.00  0.00    -0.203 F 
ATOM     75  F   UNL A   1      34.520  35.007  29.738  1.00  0.00    -0.200 F 
ATOM     76  C   UNL A   1      34.712  34.041  31.871  1.00  0.00     0.200 A 
ATOM     77  F   UNL A   1      34.995  33.077  33.997  1.00  0.00    -0.200 F 
ATOM     78  F   UNL A   1      33.643  34.725  32.303  1.00  0.00    -0.200 F 
ENDBRANCH  54  68
BRANCH  55  79
ATOM     79  C   UNL A   1      44.923  27.027  28.653  1.00  0.00     0.064 A 
ATOM     80  C   UNL A   1      45.270  25.737  29.085  1.00  0.00     0.173 A 
ATOM     81  C   UNL A   1      44.632  27.185  27.298  1.00  0.00     0.173 A 
ATOM     82  F   UNL A   1      45.705  25.560  30.334  1.00  0.00    -0.203 F 
ATOM     83  C   UNL A   1      45.078  24.618  28.282  1.00  0.00     0.198 A 
ATOM     84  C   UNL A   1      44.504  26.066  26.467  1.00  0.00     0.198 A 
ATOM     85  F   UNL A   1      44.309  28.392  26.812  1.00  0.00    -0.203 F 
ATOM     86  F   UNL A   1      45.209  23.390  28.803  1.00  0.00    -0.200 F 
ATOM     87  C   UNL A   1      44.654  24.783  26.979  1.00  0.00     0.200 A 
ATOM     88  F   UNL A   1      44.087  26.220  25.202  1.00  0.00    -0.200 F 
ATOM     89  F   UNL A   1      44.334  23.714  26.236  1.00  0.00    -0.200 F 
ENDBRANCH  55  79
BRANCH  67  90
ATOM     90  C   UNL A   1      43.383  33.957  29.514  1.00  0.00     0.064 A 
ATOM     91  C   UNL A   1      43.504  34.230  28.138  1.00  0.00     0.173 A 
ATOM     92  C   UNL A   1      43.370  35.090  30.358  1.00  0.00     0.173 A 
ATOM     93  F   UNL A   1      43.386  33.263  27.217  1.00  0.00    -0.203 F 
ATOM     94  C   UNL A   1      43.682  35.525  27.650  1.00  0.00     0.198 A 
ATOM     95  C   UNL A   1      43.484  36.389  29.861  1.00  0.00     0.198 A 
ATOM     96  F   UNL A   1      43.208  34.971  31.684  1.00  0.00    -0.203 F 
ATOM     97  F   UNL A   1      43.841  35.719  26.333  1.00  0.00    -0.200 F 
ATOM     98  C   UNL A   1      43.662  36.604  28.509  1.00  0.00     0.200 A 
ATOM     99  F   UNL A   1      43.394  37.431  30.697  1.00  0.00    -0.200 F 
ATOM    100  F   UNL A   1      43.785  37.850  28.032  1.00  0.00    -0.200 F 
ENDBRANCH  67  90
ENDBRANCH  41  42
ENDBRANCH  34  36
ENDBRANCH  33  34
ENDBRANCH  32  33
ENDBRANCH   1  32
TORSDOF 15
ENDMDL
MODEL 2
REMARK VINA RESULT:     -11.8      5.327     10.606
REMARK SMILES Cc1ccc(/C=C2/C[N@@H+](C)Cc3c2nc2ccccc2c3C(=O)OCCOCCOC(=O)c2ccc(-c3c4nc(c(-c5c(F)c(F)c(F)c(F)c5F)c5ccc([nH]5)c(-c5c(F)c(F)c(F)c(F)c5F)c5nc(c(-c6c(F)c(F)c(F)c(F)c6F)c6ccc3[nH]6)C=C5)C=C4)cc2)cc1
REMARK SMILES IDX 28 1 27 2 26 3 25 4 24 5 22 6 23 7 21 8 6 9 7 10 8 11 13 12
REMARK SMILES IDX 9 13 12 14 14 15 10 16 11 17 15 19 20 20 16 21 19 22 17 23
REMARK SMILES IDX 18 24 5 25 1 26 2 27 3 28 97 29 4 30 96 31 29 32 30 33 31 34
REMARK SMILES IDX 32 35 33 36 34 37 95 38 35 39 94 40 36 41 37 42 38 43 88 44
REMARK SMILES IDX 39 45 93 46 87 47 89 48 40 49 92 50 86 51 85 52 41 54 73 55
REMARK SMILES IDX 53 56 72 57 54 58 57 59 71 60 90 61 55 62 56 63 70 65 91 66
REMARK SMILES IDX 58 67 42 68 43 69 51 70 44 71 45 72 49 73 52 74 46 75 47 76
REMARK SMILES IDX 50 77 48 78 74 79 75 80 83 81 76 82 77 83 81 84 84 85 78 86
REMARK SMILES IDX 79 87 82 88 80 89 59 90 60 91 68 92 61 93 62 94 66 95 69 96
REMARK SMILES IDX 63 97 64 98 67 99 65 100
REMARK H PARENT 9 18 89 53 57 64
REMARK Flexibility Score: inf
ROOT
ATOM      1  C   UNL A   1      45.769  26.463  31.056  1.00  0.00     0.202 C 
ENDROOT
BRANCH   1   2
ATOM      2  O   UNL A   1      46.423  25.545  30.186  1.00  0.00    -0.374 OA
BRANCH   2   3
ATOM      3  C   UNL A   1      46.864  25.987  28.912  1.00  0.00     0.202 C 
BRANCH   3   4
ATOM      4  C   UNL A   1      47.771  25.079  28.071  1.00  0.00     0.261 C 
BRANCH   4   5
ATOM      5  O   UNL A   1      47.061  24.156  27.263  1.00  0.00    -0.460 OA
BRANCH   5   6
ATOM      6  C   UNL A   1      46.968  24.504  25.971  1.00  0.00     0.339 C 
ATOM      7  O   UNL A   1      47.854  24.731  25.175  1.00  0.00    -0.246 OA
BRANCH   6   8
ATOM      8  C   UNL A   1      45.616  24.137  25.595  1.00  0.00     0.080 A 
ATOM      9  C   UNL A   1      42.309  20.961  26.126  1.00  0.00     0.020 C 
ATOM     10  C   UNL A   1      43.369  21.258  25.342  1.00  0.00     0.033 C 
ATOM     11  C   UNL A   1      44.309  20.192  24.865  1.00  0.00     0.301 C 
ATOM     12  C   UNL A   1      43.903  22.620  25.131  1.00  0.00     0.082 A 
ATOM     13  N   UNL A   1      45.526  20.352  25.661  1.00  0.00    -0.330 N 
ATOM     14  C   UNL A   1      45.250  22.808  25.378  1.00  0.00     0.048 A 
ATOM     15  N   UNL A   1      43.023  23.631  24.914  1.00  0.00    -0.247 NA
ATOM     16  C   UNL A   1      46.403  19.203  25.554  1.00  0.00     0.333 C 
ATOM     17  C   UNL A   1      46.197  21.629  25.366  1.00  0.00     0.302 C 
ATOM     18  H   UNL A   1      45.251  20.394  26.643  1.00  0.00     0.348 HD
ATOM     19  C   UNL A   1      43.416  24.904  25.108  1.00  0.00     0.072 A 
ATOM     20  C   UNL A   1      44.719  25.226  25.479  1.00  0.00     0.015 A 
ATOM     21  C   UNL A   1      42.497  25.943  25.001  1.00  0.00     0.029 A 
ATOM     22  C   UNL A   1      45.069  26.591  25.705  1.00  0.00     0.011 A 
ATOM     23  C   UNL A   1      42.836  27.280  25.255  1.00  0.00     0.002 A 
ATOM     24  C   UNL A   1      44.133  27.607  25.607  1.00  0.00     0.001 A 
BRANCH   9  25
ATOM     25  C   UNL A   1      41.472  21.930  26.849  1.00  0.00    -0.025 A 
ATOM     26  C   UNL A   1      39.279  25.318  28.300  1.00  0.00     0.044 C 
ATOM     27  C   UNL A   1      39.976  24.052  27.906  1.00  0.00    -0.051 A 
ATOM     28  C   UNL A   1      41.231  23.747  28.439  1.00  0.00     0.004 A 
ATOM     29  C   UNL A   1      39.434  23.224  26.915  1.00  0.00     0.004 A 
ATOM     30  C   UNL A   1      41.953  22.662  27.944  1.00  0.00     0.008 A 
ATOM     31  C   UNL A   1      40.178  22.166  26.391  1.00  0.00     0.008 A 
ENDBRANCH   9  25
ENDBRANCH   6   8
ENDBRANCH   5   6
ENDBRANCH   4   5
ENDBRANCH   3   4
ENDBRANCH   2   3
ENDBRANCH   1   2
BRANCH   1  32
ATOM     32  C   UNL A   1      44.270  26.252  31.350  1.00  0.00     0.261 C 
BRANCH  32  33
ATOM     33  O   UNL A   1      43.456  27.290  30.779  1.00  0.00    -0.460 OA
BRANCH  33  34
ATOM     34  C   UNL A   1      42.983  27.099  29.511  1.00  0.00     0.338 C 
ATOM     35  O   UNL A   1      43.298  26.236  28.722  1.00  0.00    -0.246 OA
BRANCH  34  36
ATOM     36  C   UNL A   1      41.893  28.095  29.354  1.00  0.00     0.060 A 
ATOM     37  C   UNL A   1      42.158  29.323  28.756  1.00  0.00     0.016 A 
ATOM     38  C   UNL A   1      40.805  27.958  30.214  1.00  0.00     0.016 A 
ATOM     39  C   UNL A   1      41.505  30.462  29.237  1.00  0.00     0.010 A 
ATOM     40  C   UNL A   1      40.250  29.108  30.774  1.00  0.00     0.010 A 
ATOM     41  C   UNL A   1      40.714  30.377  30.389  1.00  0.00    -0.014 A 
BRANCH  41  42
ATOM     42  C   UNL A   1      40.728  31.482  31.394  1.00  0.00     0.031 A 
ATOM     43  C   UNL A   1      41.776  31.616  32.457  1.00  0.00     0.074 A 
ATOM     44  C   UNL A   1      39.867  32.532  31.229  1.00  0.00     0.049 A 
ATOM     45  N   UNL A   1      41.686  32.444  33.448  1.00  0.00    -0.248 NA
ATOM     46  C   UNL A   1      42.991  30.811  32.545  1.00  0.00     0.031 C 
ATOM     47  C   UNL A   1      39.960  33.863  31.835  1.00  0.00     0.029 A 
ATOM     48  N   UNL A   1      38.683  32.622  30.452  1.00  0.00    -0.354 N 
ATOM     49  C   UNL A   1      42.894  32.499  34.104  1.00  0.00     0.074 A 
ATOM     50  C   UNL A   1      43.632  31.383  33.573  1.00  0.00     0.031 C 
ATOM     51  C   UNL A   1      38.834  34.554  31.607  1.00  0.00     0.029 A 
ATOM     52  C   UNL A   1      37.881  33.632  31.036  1.00  0.00     0.049 A 
ATOM     53  H   UNL A   1      38.463  32.085  29.658  1.00  0.00     0.167 HD
ATOM     54  C   UNL A   1      43.143  33.532  34.963  1.00  0.00     0.037 A 
ATOM     55  C   UNL A   1      36.665  33.357  31.596  1.00  0.00     0.037 A 
ATOM     56  C   UNL A   1      41.923  34.309  35.215  1.00  0.00     0.049 A 
ATOM     57  C   UNL A   1      36.638  33.610  33.085  1.00  0.00     0.074 A 
ATOM     58  C   UNL A   1      41.508  35.586  34.889  1.00  0.00     0.029 A 
ATOM     59  N   UNL A   1      40.804  33.654  35.732  1.00  0.00    -0.354 N 
ATOM     60  N   UNL A   1      37.717  33.802  33.793  1.00  0.00    -0.248 NA
ATOM     61  C   UNL A   1      35.430  33.648  33.900  1.00  0.00     0.031 C 
ATOM     62  C   UNL A   1      40.102  35.656  35.119  1.00  0.00     0.029 A 
ATOM     63  C   UNL A   1      39.673  34.441  35.634  1.00  0.00     0.049 A 
ATOM     64  H   UNL A   1      40.817  32.748  36.116  1.00  0.00     0.167 HD
ATOM     65  C   UNL A   1      37.398  33.898  35.112  1.00  0.00     0.074 A 
ATOM     66  C   UNL A   1      35.949  33.828  35.128  1.00  0.00     0.031 C 
ATOM     67  C   UNL A   1      38.366  33.953  36.073  1.00  0.00     0.037 A 
BRANCH  54  68
ATOM     68  C   UNL A   1      44.502  33.934  35.530  1.00  0.00     0.064 A 
ATOM     69  C   UNL A   1      45.083  33.202  36.594  1.00  0.00     0.173 A 
ATOM     70  C   UNL A   1      45.245  35.071  35.143  1.00  0.00     0.173 A 
ATOM     71  F   UNL A   1      44.484  32.113  37.096  1.00  0.00    -0.203 F 
ATOM     72  C   UNL A   1      46.299  33.566  37.194  1.00  0.00     0.198 A 
ATOM     73  C   UNL A   1      46.487  35.400  35.703  1.00  0.00     0.198 A 
ATOM     74  F   UNL A   1      44.783  35.952  34.250  1.00  0.00    -0.203 F 
ATOM     75  F   UNL A   1      46.774  32.855  38.227  1.00  0.00    -0.200 F 
ATOM     76  C   UNL A   1      47.011  34.655  36.735  1.00  0.00     0.200 A 
ATOM     77  F   UNL A   1      47.157  36.468  35.245  1.00  0.00    -0.200 F 
ATOM     78  F   UNL A   1      48.180  34.995  37.294  1.00  0.00    -0.200 F 
ENDBRANCH  54  68
BRANCH  55  79
ATOM     79  C   UNL A   1      35.892  32.338  30.837  1.00  0.00     0.064 A 
ATOM     80  C   UNL A   1      35.164  32.808  29.733  1.00  0.00     0.173 A 
ATOM     81  C   UNL A   1      36.255  30.991  30.830  1.00  0.00     0.173 A 
ATOM     82  F   UNL A   1      34.662  34.044  29.758  1.00  0.00    -0.203 F 
ATOM     83  C   UNL A   1      35.038  32.063  28.566  1.00  0.00     0.198 A 
ATOM     84  C   UNL A   1      36.067  30.214  29.680  1.00  0.00     0.198 A 
ATOM     85  F   UNL A   1      36.936  30.468  31.860  1.00  0.00    -0.203 F 
ATOM     86  F   UNL A   1      34.532  32.628  27.460  1.00  0.00    -0.200 F 
ATOM     87  C   UNL A   1      35.528  30.773  28.529  1.00  0.00     0.200 A 
ATOM     88  F   UNL A   1      36.547  28.963  29.637  1.00  0.00    -0.200 F 
ATOM     89  F   UNL A   1      35.537  30.090  27.375  1.00  0.00    -0.200 F 
ENDBRANCH  55  79
BRANCH  67  90
ATOM     90  C   UNL A   1      38.132  33.577  37.514  1.00  0.00     0.064 A 
ATOM     91  C   UNL A   1      37.674  32.307  37.916  1.00  0.00     0.173 A 
ATOM     92  C   UNL A   1      38.528  34.438  38.561  1.00  0.00     0.173 A 
ATOM     93  F   UNL A   1      37.403  31.344  37.025  1.00  0.00    -0.203 F 
ATOM     94  C   UNL A   1      37.543  31.956  39.261  1.00  0.00     0.198 A 
ATOM     95  C   UNL A   1      38.456  34.060  39.903  1.00  0.00     0.198 A 
ATOM     96  F   UNL A   1      39.032  35.656  38.312  1.00  0.00    -0.203 F 
ATOM     97  F   UNL A   1      37.055  30.751  39.584  1.00  0.00    -0.200 F 
ATOM     98  C   UNL A   1      37.943  32.827  40.253  1.00  0.00     0.200 A 
ATOM     99  F   UNL A   1      38.912  34.888  40.853  1.00  0.00    -0.200 F 
ATOM    100  F   UNL A   1      37.861  32.468  41.541  1.00  0.00    -0.200 F 
ENDBRANCH  67  90
ENDBRANCH  41  42
ENDBRANCH  34  36
ENDBRANCH  33  34
ENDBRANCH  32  33
ENDBRANCH   1  32
TORSDOF 15
ENDMDL
MODEL 3
REMARK VINA RESULT:     -11.6      3.222      9.223
REMARK SMILES Cc1ccc(/C=C2/C[N@@H+](C)Cc3c2nc2ccccc2c3C(=O)OCCOCCOC(=O)c2ccc(-c3c4nc(c(-c5c(F)c(F)c(F)c(F)c5F)c5ccc([nH]5)c(-c5c(F)c(F)c(F)c(F)c5F)c5nc(c(-c6c(F)c(F)c(F)c(F)c6F)c6ccc3[nH]6)C=C5)C=C4)cc2)cc1
REMARK SMILES IDX 28 1 27 2 26 3 25 4 24 5 22 6 23 7 21 8 6 9 7 10 8 11 13 12
REMARK SMILES IDX 9 13 12 14 14 15 10 16 11 17 15 19 20 20 16 21 19 22 17 23
REMARK SMILES IDX 18 24 5 25 1 26 2 27 3 28 97 29 4 30 96 31 29 32 30 33 31 34
REMARK SMILES IDX 32 35 33 36 34 37 95 38 35 39 94 40 36 41 37 42 38 43 88 44
REMARK SMILES IDX 39 45 93 46 87 47 89 48 40 49 92 50 86 51 85 52 41 54 73 55
REMARK SMILES IDX 53 56 72 57 54 58 57 59 71 60 90 61 55 62 56 63 70 65 91 66
REMARK SMILES IDX 58 67 42 68 43 69 51 70 44 71 45 72 49 73 52 74 46 75 47 76
REMARK SMILES IDX 50 77 48 78 74 79 75 80 83 81 76 82 77 83 81 84 84 85 78 86
REMARK SMILES IDX 79 87 82 88 80 89 59 90 60 91 68 92 61 93 62 94 66 95 69 96
REMARK SMILES IDX 63 97 64 98 67 99 65 100
REMARK H PARENT 9 18 89 53 57 64
REMARK Flexibility Score: inf
ROOT
ATOM      1  C   UNL A   1      32.921  30.841  27.350  1.00  0.00     0.202 C 
ENDROOT
BRANCH   1   2
ATOM      2  O   UNL A   1      32.542  30.527  26.013  1.00  0.00    -0.374 OA
BRANCH   2   3
ATOM      3  C   UNL A   1      32.107  29.213  25.704  1.00  0.00     0.202 C 
BRANCH   3   4
ATOM      4  C   UNL A   1      31.051  29.007  24.609  1.00  0.00     0.261 C 
BRANCH   4   5
ATOM      5  O   UNL A   1      31.260  27.842  23.829  1.00  0.00    -0.460 OA
BRANCH   5   6
ATOM      6  C   UNL A   1      30.161  27.098  23.636  1.00  0.00     0.339 C 
ATOM      7  O   UNL A   1      29.083  27.427  23.188  1.00  0.00    -0.246 OA
BRANCH   6   8
ATOM      8  C   UNL A   1      30.642  25.729  23.663  1.00  0.00     0.080 A 
ATOM      9  C   UNL A   1      34.127  22.958  22.448  1.00  0.00     0.020 C 
ATOM     10  C   UNL A   1      32.958  23.449  21.979  1.00  0.00     0.033 C 
ATOM     11  C   UNL A   1      32.810  23.880  20.551  1.00  0.00     0.301 C 
ATOM     12  C   UNL A   1      31.839  23.906  22.829  1.00  0.00     0.082 A 
ATOM     13  N   UNL A   1      32.803  25.344  20.578  1.00  0.00    -0.330 N 
ATOM     14  C   UNL A   1      31.363  25.184  22.600  1.00  0.00     0.048 A 
ATOM     15  N   UNL A   1      31.486  23.146  23.897  1.00  0.00    -0.247 NA
ATOM     16  C   UNL A   1      32.996  25.914  19.260  1.00  0.00     0.333 C 
ATOM     17  C   UNL A   1      31.613  25.863  21.272  1.00  0.00     0.302 C 
ATOM     18  H   UNL A   1      33.609  25.647  21.126  1.00  0.00     0.348 HD
ATOM     19  C   UNL A   1      30.769  23.696  24.894  1.00  0.00     0.072 A 
ATOM     20  C   UNL A   1      30.328  25.016  24.845  1.00  0.00     0.015 A 
ATOM     21  C   UNL A   1      30.498  22.964  26.046  1.00  0.00     0.029 A 
ATOM     22  C   UNL A   1      29.601  25.556  25.948  1.00  0.00     0.011 A 
ATOM     23  C   UNL A   1      29.811  23.508  27.141  1.00  0.00     0.002 A 
ATOM     24  C   UNL A   1      29.356  24.813  27.091  1.00  0.00     0.001 A 
BRANCH   9  25
ATOM     25  C   UNL A   1      34.465  22.737  23.861  1.00  0.00    -0.025 A 
ATOM     26  C   UNL A   1      34.566  22.173  28.111  1.00  0.00     0.044 C 
ATOM     27  C   UNL A   1      34.683  22.336  26.627  1.00  0.00    -0.051 A 
ATOM     28  C   UNL A   1      34.958  23.590  26.078  1.00  0.00     0.004 A 
ATOM     29  C   UNL A   1      34.403  21.262  25.773  1.00  0.00     0.004 A 
ATOM     30  C   UNL A   1      34.895  23.776  24.698  1.00  0.00     0.008 A 
ATOM     31  C   UNL A   1      34.297  21.462  24.396  1.00  0.00     0.008 A 
ENDBRANCH   9  25
ENDBRANCH   6   8
ENDBRANCH   5   6
ENDBRANCH   4   5
ENDBRANCH   3   4
ENDBRANCH   2   3
ENDBRANCH   1   2
BRANCH   1  32
ATOM     32  C   UNL A   1      33.581  32.208  27.623  1.00  0.00     0.261 C 
BRANCH  32  33
ATOM     33  O   UNL A   1      34.353  32.202  28.835  1.00  0.00    -0.460 OA
BRANCH  33  34
ATOM     34  C   UNL A   1      35.712  32.131  28.721  1.00  0.00     0.338 C 
ATOM     35  O   UNL A   1      36.506  33.046  28.704  1.00  0.00    -0.246 OA
BRANCH  34  36
ATOM     36  C   UNL A   1      36.025  30.681  28.760  1.00  0.00     0.060 A 
ATOM     37  C   UNL A   1      36.314  30.067  29.976  1.00  0.00     0.016 A 
ATOM     38  C   UNL A   1      36.475  30.114  27.569  1.00  0.00     0.016 A 
ATOM     39  C   UNL A   1      37.280  29.056  30.007  1.00  0.00     0.010 A 
ATOM     40  C   UNL A   1      37.523  29.196  27.623  1.00  0.00     0.010 A 
ATOM     41  C   UNL A   1      38.034  28.776  28.862  1.00  0.00    -0.014 A 
BRANCH  41  42
ATOM     42  C   UNL A   1      39.487  28.453  28.978  1.00  0.00     0.031 A 
ATOM     43  C   UNL A   1      40.073  27.135  28.572  1.00  0.00     0.074 A 
ATOM     44  C   UNL A   1      40.363  29.459  29.280  1.00  0.00     0.049 A 
ATOM     45  N   UNL A   1      41.284  26.775  28.853  1.00  0.00    -0.248 NA
ATOM     46  C   UNL A   1      39.354  26.078  27.865  1.00  0.00     0.031 C 
ATOM     47  C   UNL A   1      41.813  29.470  29.071  1.00  0.00     0.029 A 
ATOM     48  N   UNL A   1      40.119  30.730  29.862  1.00  0.00    -0.354 N 
ATOM     49  C   UNL A   1      41.593  25.634  28.149  1.00  0.00     0.074 A 
ATOM     50  C   UNL A   1      40.325  25.182  27.641  1.00  0.00     0.031 C 
ATOM     51  C   UNL A   1      42.358  30.535  29.676  1.00  0.00     0.029 A 
ATOM     52  C   UNL A   1      41.324  31.139  30.482  1.00  0.00     0.049 A 
ATOM     53  H   UNL A   1      39.273  31.232  29.839  1.00  0.00     0.167 HD
ATOM     54  C   UNL A   1      42.901  25.257  28.025  1.00  0.00     0.037 A 
ATOM     55  C   UNL A   1      41.422  31.309  31.835  1.00  0.00     0.037 A 
ATOM     56  C   UNL A   1      43.762  26.056  28.905  1.00  0.00     0.049 A 
ATOM     57  C   UNL A   1      42.374  30.330  32.479  1.00  0.00     0.074 A 
ATOM     58  C   UNL A   1      44.733  27.017  28.694  1.00  0.00     0.029 A 
ATOM     59  N   UNL A   1      43.502  26.059  30.277  1.00  0.00    -0.354 N 
ATOM     60  N   UNL A   1      42.835  29.276  31.862  1.00  0.00    -0.248 NA
ATOM     61  C   UNL A   1      42.868  30.429  33.847  1.00  0.00     0.031 C 
ATOM     62  C   UNL A   1      44.978  27.667  29.939  1.00  0.00     0.029 A 
ATOM     63  C   UNL A   1      44.196  27.068  30.917  1.00  0.00     0.049 A 
ATOM     64  H   UNL A   1      42.903  25.425  30.731  1.00  0.00     0.167 HD
ATOM     65  C   UNL A   1      43.582  28.526  32.716  1.00  0.00     0.074 A 
ATOM     66  C   UNL A   1      43.602  29.304  33.941  1.00  0.00     0.031 C 
ATOM     67  C   UNL A   1      44.052  27.297  32.354  1.00  0.00     0.037 A 
BRANCH  54  68
ATOM     68  C   UNL A   1      43.461  24.229  27.045  1.00  0.00     0.064 A 
ATOM     69  C   UNL A   1      43.098  22.865  27.149  1.00  0.00     0.173 A 
ATOM     70  C   UNL A   1      44.420  24.493  26.043  1.00  0.00     0.173 A 
ATOM     71  F   UNL A   1      42.220  22.448  28.072  1.00  0.00    -0.203 F 
ATOM     72  C   UNL A   1      43.631  21.869  26.315  1.00  0.00     0.198 A 
ATOM     73  C   UNL A   1      44.909  23.508  25.174  1.00  0.00     0.198 A 
ATOM     74  F   UNL A   1      44.978  25.698  25.893  1.00  0.00    -0.203 F 
ATOM     75  F   UNL A   1      43.278  20.588  26.493  1.00  0.00    -0.200 F 
ATOM     76  C   UNL A   1      44.523  22.195  25.314  1.00  0.00     0.200 A 
ATOM     77  F   UNL A   1      45.781  23.848  24.213  1.00  0.00    -0.200 F 
ATOM     78  F   UNL A   1      45.021  21.250  24.505  1.00  0.00    -0.200 F 
ENDBRANCH  54  68
BRANCH  55  79
ATOM     79  C   UNL A   1      40.202  31.913  32.435  1.00  0.00     0.064 A 
ATOM     80  C   UNL A   1      39.912  33.233  32.054  1.00  0.00     0.173 A 
ATOM     81  C   UNL A   1      39.134  31.132  32.877  1.00  0.00     0.173 A 
ATOM     82  F   UNL A   1      40.915  34.067  31.770  1.00  0.00    -0.203 F 
ATOM     83  C   UNL A   1      38.607  33.673  31.864  1.00  0.00     0.198 A 
ATOM     84  C   UNL A   1      37.818  31.596  32.752  1.00  0.00     0.198 A 
ATOM     85  F   UNL A   1      39.338  29.868  33.272  1.00  0.00    -0.203 F 
ATOM     86  F   UNL A   1      38.378  34.862  31.289  1.00  0.00    -0.200 F 
ATOM     87  C   UNL A   1      37.557  32.834  32.177  1.00  0.00     0.200 A 
ATOM     88  F   UNL A   1      36.794  30.784  33.048  1.00  0.00    -0.200 F 
ATOM     89  F   UNL A   1      36.300  33.188  31.873  1.00  0.00    -0.200 F 
ENDBRANCH  55  79
BRANCH  67  90
ATOM     90  C   UNL A   1      44.445  26.230  33.343  1.00  0.00     0.064 A 
ATOM     91  C   UNL A   1      43.547  25.670  34.272  1.00  0.00     0.173 A 
ATOM     92  C   UNL A   1      45.712  25.607  33.274  1.00  0.00     0.173 A 
ATOM     93  F   UNL A   1      42.269  26.068  34.341  1.00  0.00    -0.203 F 
ATOM     94  C   UNL A   1      43.912  24.626  35.123  1.00  0.00     0.198 A 
ATOM     95  C   UNL A   1      46.051  24.521  34.082  1.00  0.00     0.198 A 
ATOM     96  F   UNL A   1      46.641  26.010  32.395  1.00  0.00    -0.203 F 
ATOM     97  F   UNL A   1      43.030  24.166  36.021  1.00  0.00    -0.200 F 
ATOM     98  C   UNL A   1      45.159  24.044  35.021  1.00  0.00     0.200 A 
ATOM     99  F   UNL A   1      47.240  23.922  33.925  1.00  0.00    -0.200 F 
ATOM    100  F   UNL A   1      45.489  23.010  35.806  1.00  0.00    -0.200 F 
ENDBRANCH  67  90
ENDBRANCH  41  42
ENDBRANCH  34  36
ENDBRANCH  33  34
ENDBRANCH  32  33
ENDBRANCH   1  32
TORSDOF 15
ENDMDL
