MODEL 1
REMARK VINA RESULT:     -11.4      0.000      0.000
REMARK SMILES CCOC(=O)c1cc(CC)sc1NC(=O)[C@H]1[C@@H]2CC[C@@H](C2)[C@@H]1C(=O)OCCOCCOC(=O)c1ccc(-c2c3nc(c(-c4c(F)c(F)c(F)c(F)c4F)c4ccc([nH]4)c(-c4c(F)c(F)c(F)c(F)c4F)c4nc(c(-c5c(F)c(F)c(F)c(F)c5F)c5ccc2[nH]5)C=C4)C=C3)cc1
REMARK SMILES IDX 26 1 25 2 23 3 24 4 22 5 16 6 17 7 18 8 21 9 20 10 19 11
REMARK SMILES IDX 14 12 13 13 15 15 12 16 6 17 7 18 8 19 11 20 4 21 5 22 3 23
REMARK SMILES IDX 2 24 1 25 9 26 10 27 27 28 28 29 29 30 30 31 31 32 32 33
REMARK SMILES IDX 33 34 34 35 35 36 96 37 36 38 95 39 37 40 38 41 39 42 89 43
REMARK SMILES IDX 40 44 94 45 88 46 90 47 41 48 93 49 87 50 86 51 42 53 74 54
REMARK SMILES IDX 54 55 73 56 55 57 58 58 72 59 91 60 56 61 57 62 71 64 92 65
REMARK SMILES IDX 59 66 43 67 44 68 52 69 45 70 46 71 50 72 53 73 47 74 48 75
REMARK SMILES IDX 51 76 49 77 75 78 76 79 84 80 77 81 78 82 82 83 85 84 79 85
REMARK SMILES IDX 80 86 83 87 81 88 60 89 61 90 69 91 62 92 63 93 67 94 70 95
REMARK SMILES IDX 64 96 65 97 68 98 66 99
REMARK H PARENT 13 14 90 52 58 63
REMARK Flexibility Score: inf
ROOT
ATOM      1  C   UNL A   1      33.680  27.774  25.812  1.00  0.00     0.261 C 
ENDROOT
BRANCH   1   2
ATOM      2  O   UNL A   1      33.025  26.686  26.481  1.00  0.00    -0.463 OA
BRANCH   2   3
ATOM      3  C   UNL A   1      31.667  26.771  26.488  1.00  0.00     0.310 C 
ATOM      4  O   UNL A   1      31.027  27.617  27.097  1.00  0.00    -0.252 OA
BRANCH   3   5
ATOM      5  C   UNL A   1      31.027  25.610  25.764  1.00  0.00     0.115 C 
ATOM      6  C   UNL A   1      31.828  24.343  25.476  1.00  0.00     0.096 C 
ATOM      7  C   UNL A   1      31.744  24.205  23.923  1.00  0.00     0.003 C 
ATOM      8  C   UNL A   1      32.474  25.361  23.216  1.00  0.00     0.005 C 
ATOM      9  C   UNL A   1      30.303  24.606  23.661  1.00  0.00     0.009 C 
ATOM     10  C   UNL A   1      30.458  25.966  24.362  1.00  0.00     0.004 C 
ATOM     11  C   UNL A   1      31.561  26.568  23.477  1.00  0.00     0.005 C 
BRANCH   6  12
ATOM     12  C   UNL A   1      31.407  23.007  26.134  1.00  0.00     0.229 C 
ATOM     13  N   UNL A   1      32.078  21.823  26.223  1.00  0.00    -0.317 N 
ATOM     14  H   UNL A   1      31.538  21.112  26.639  1.00  0.00     0.170 HD
ATOM     15  O   UNL A   1      30.257  22.977  26.614  1.00  0.00    -0.274 OA
BRANCH  13  16
ATOM     16  C   UNL A   1      33.339  21.386  25.866  1.00  0.00     0.110 A 
ATOM     17  C   UNL A   1      33.720  20.225  25.210  1.00  0.00     0.095 A 
ATOM     18  C   UNL A   1      35.061  20.381  24.696  1.00  0.00     0.033 A 
ATOM     19  C   UNL A   1      35.678  21.497  25.225  1.00  0.00     0.007 A 
ATOM     20  S   UNL A   1      34.775  21.973  26.600  1.00  0.00    -0.122 S 
BRANCH  17  21
ATOM     21  C   UNL A   1      32.867  19.076  25.024  1.00  0.00     0.341 C 
ATOM     22  O   UNL A   1      32.512  18.330  25.931  1.00  0.00    -0.246 OA
BRANCH  21  23
ATOM     23  O   UNL A   1      32.658  18.872  23.697  1.00  0.00    -0.462 OA
BRANCH  23  24
ATOM     24  C   UNL A   1      32.680  17.523  23.216  1.00  0.00     0.230 C 
ATOM     25  C   UNL A   1      34.083  16.938  23.185  1.00  0.00     0.049 C 
ENDBRANCH  23  24
ENDBRANCH  21  23
ENDBRANCH  17  21
BRANCH  19  26
ATOM     26  C   UNL A   1      36.962  22.173  24.861  1.00  0.00     0.043 C 
ATOM     27  C   UNL A   1      37.292  23.307  25.830  1.00  0.00     0.010 C 
ENDBRANCH  19  26
ENDBRANCH  13  16
ENDBRANCH   6  12
ENDBRANCH   3   5
ENDBRANCH   2   3
ENDBRANCH   1   2
BRANCH   1  28
ATOM     28  C   UNL A   1      34.322  28.782  26.770  1.00  0.00     0.202 C 
BRANCH  28  29
ATOM     29  O   UNL A   1      33.490  29.730  27.432  1.00  0.00    -0.374 OA
BRANCH  29  30
ATOM     30  C   UNL A   1      33.972  31.062  27.583  1.00  0.00     0.202 C 
BRANCH  30  31
ATOM     31  C   UNL A   1      32.963  32.210  27.599  1.00  0.00     0.261 C 
BRANCH  31  32
ATOM     32  O   UNL A   1      33.584  33.475  27.356  1.00  0.00    -0.460 OA
BRANCH  32  33
ATOM     33  C   UNL A   1      33.430  34.343  28.380  1.00  0.00     0.338 C 
ATOM     34  O   UNL A   1      32.503  35.111  28.574  1.00  0.00    -0.246 OA
BRANCH  33  35
ATOM     35  C   UNL A   1      34.481  34.124  29.382  1.00  0.00     0.060 A 
ATOM     36  C   UNL A   1      35.798  34.345  28.963  1.00  0.00     0.016 A 
ATOM     37  C   UNL A   1      34.200  33.629  30.656  1.00  0.00     0.016 A 
ATOM     38  C   UNL A   1      36.852  33.972  29.781  1.00  0.00     0.010 A 
ATOM     39  C   UNL A   1      35.262  33.249  31.479  1.00  0.00     0.010 A 
ATOM     40  C   UNL A   1      36.584  33.364  31.014  1.00  0.00    -0.014 A 
BRANCH  40  41
ATOM     41  C   UNL A   1      37.689  32.668  31.705  1.00  0.00     0.031 A 
ATOM     42  C   UNL A   1      38.330  31.490  31.029  1.00  0.00     0.074 A 
ATOM     43  C   UNL A   1      38.154  33.129  32.875  1.00  0.00     0.049 A 
ATOM     44  N   UNL A   1      39.320  30.736  31.432  1.00  0.00    -0.248 NA
ATOM     45  C   UNL A   1      37.779  31.108  29.718  1.00  0.00     0.031 C 
ATOM     46  C   UNL A   1      37.631  34.292  33.589  1.00  0.00     0.029 A 
ATOM     47  N   UNL A   1      39.174  32.672  33.667  1.00  0.00    -0.354 N 
ATOM     48  C   UNL A   1      39.498  29.785  30.436  1.00  0.00     0.074 A 
ATOM     49  C   UNL A   1      38.496  30.035  29.425  1.00  0.00     0.031 C 
ATOM     50  C   UNL A   1      38.331  34.454  34.723  1.00  0.00     0.029 A 
ATOM     51  C   UNL A   1      39.325  33.388  34.826  1.00  0.00     0.049 A 
ATOM     52  H   UNL A   1      39.743  31.906  33.426  1.00  0.00     0.167 HD
ATOM     53  C   UNL A   1      40.424  28.799  30.371  1.00  0.00     0.037 A 
ATOM     54  C   UNL A   1      40.160  33.184  35.863  1.00  0.00     0.037 A 
ATOM     55  C   UNL A   1      41.417  28.566  31.387  1.00  0.00     0.049 A 
ATOM     56  C   UNL A   1      41.142  32.046  35.795  1.00  0.00     0.074 A 
ATOM     57  C   UNL A   1      42.422  27.617  31.411  1.00  0.00     0.029 A 
ATOM     58  N   UNL A   1      41.519  29.290  32.568  1.00  0.00    -0.354 N 
ATOM     59  N   UNL A   1      41.330  31.168  34.839  1.00  0.00    -0.248 NA
ATOM     60  C   UNL A   1      42.035  31.876  36.949  1.00  0.00     0.031 C 
ATOM     61  C   UNL A   1      43.089  27.721  32.636  1.00  0.00     0.029 A 
ATOM     62  C   UNL A   1      42.549  28.783  33.346  1.00  0.00     0.049 A 
ATOM     63  H   UNL A   1      40.946  30.050  32.816  1.00  0.00     0.167 HD
ATOM     64  C   UNL A   1      42.375  30.358  35.261  1.00  0.00     0.074 A 
ATOM     65  C   UNL A   1      42.792  30.861  36.555  1.00  0.00     0.031 C 
ATOM     66  C   UNL A   1      42.944  29.296  34.635  1.00  0.00     0.037 A 
BRANCH  53  67
ATOM     67  C   UNL A   1      40.367  27.873  29.188  1.00  0.00     0.064 A 
ATOM     68  C   UNL A   1      39.591  26.704  29.191  1.00  0.00     0.173 A 
ATOM     69  C   UNL A   1      41.103  28.167  28.030  1.00  0.00     0.173 A 
ATOM     70  F   UNL A   1      38.879  26.368  30.277  1.00  0.00    -0.203 F 
ATOM     71  C   UNL A   1      39.586  25.844  28.095  1.00  0.00     0.198 A 
ATOM     72  C   UNL A   1      41.067  27.322  26.922  1.00  0.00     0.198 A 
ATOM     73  F   UNL A   1      41.860  29.272  27.970  1.00  0.00    -0.203 F 
ATOM     74  F   UNL A   1      38.888  24.701  28.145  1.00  0.00    -0.200 F 
ATOM     75  C   UNL A   1      40.318  26.157  26.960  1.00  0.00     0.200 A 
ATOM     76  F   UNL A   1      41.765  27.635  25.822  1.00  0.00    -0.200 F 
ATOM     77  F   UNL A   1      40.312  25.330  25.905  1.00  0.00    -0.200 F 
ENDBRANCH  53  67
BRANCH  54  78
ATOM     78  C   UNL A   1      40.086  34.079  37.045  1.00  0.00     0.064 A 
ATOM     79  C   UNL A   1      40.818  35.272  37.101  1.00  0.00     0.173 A 
ATOM     80  C   UNL A   1      39.260  33.766  38.136  1.00  0.00     0.173 A 
ATOM     81  F   UNL A   1      41.636  35.604  36.091  1.00  0.00    -0.203 F 
ATOM     82  C   UNL A   1      40.733  36.115  38.208  1.00  0.00     0.198 A 
ATOM     83  C   UNL A   1      39.154  34.624  39.228  1.00  0.00     0.198 A 
ATOM     84  F   UNL A   1      38.536  32.637  38.130  1.00  0.00    -0.203 F 
ATOM     85  F   UNL A   1      41.471  37.233  38.251  1.00  0.00    -0.200 F 
ATOM     86  C   UNL A   1      39.895  35.795  39.266  1.00  0.00     0.200 A 
ATOM     87  F   UNL A   1      38.330  34.319  40.239  1.00  0.00    -0.200 F 
ATOM     88  F   UNL A   1      39.805  36.613  40.323  1.00  0.00    -0.200 F 
ENDBRANCH  54  78
BRANCH  66  89
ATOM     89  C   UNL A   1      44.099  28.629  35.326  1.00  0.00     0.064 A 
ATOM     90  C   UNL A   1      43.913  27.553  36.206  1.00  0.00     0.173 A 
ATOM     91  C   UNL A   1      45.414  29.049  35.072  1.00  0.00     0.173 A 
ATOM     92  F   UNL A   1      42.676  27.119  36.493  1.00  0.00    -0.203 F 
ATOM     93  C   UNL A   1      44.999  26.944  36.832  1.00  0.00     0.198 A 
ATOM     94  C   UNL A   1      46.498  28.415  35.671  1.00  0.00     0.198 A 
ATOM     95  F   UNL A   1      45.649  30.067  34.231  1.00  0.00    -0.203 F 
ATOM     96  F   UNL A   1      44.793  25.956  37.713  1.00  0.00    -0.200 F 
ATOM     97  C   UNL A   1      46.289  27.370  36.558  1.00  0.00     0.200 A 
ATOM     98  F   UNL A   1      47.745  28.816  35.391  1.00  0.00    -0.200 F 
ATOM     99  F   UNL A   1      47.333  26.779  37.157  1.00  0.00    -0.200 F 
ENDBRANCH  66  89
ENDBRANCH  40  41
ENDBRANCH  33  35
ENDBRANCH  32  33
ENDBRANCH  31  32
ENDBRANCH  30  31
ENDBRANCH  29  30
ENDBRANCH  28  29
ENDBRANCH   1  28
TORSDOF 20
ENDMDL
MODEL 2
REMARK VINA RESULT:     -11.4      0.513      7.152
REMARK SMILES CCOC(=O)c1cc(CC)sc1NC(=O)[C@H]1[C@@H]2CC[C@@H](C2)[C@@H]1C(=O)OCCOCCOC(=O)c1ccc(-c2c3nc(c(-c4c(F)c(F)c(F)c(F)c4F)c4ccc([nH]4)c(-c4c(F)c(F)c(F)c(F)c4F)c4nc(c(-c5c(F)c(F)c(F)c(F)c5F)c5ccc2[nH]5)C=C4)C=C3)cc1
REMARK SMILES IDX 26 1 25 2 23 3 24 4 22 5 16 6 17 7 18 8 21 9 20 10 19 11
REMARK SMILES IDX 14 12 13 13 15 15 12 16 6 17 7 18 8 19 11 20 4 21 5 22 3 23
REMARK SMILES IDX 2 24 1 25 9 26 10 27 27 28 28 29 29 30 30 31 31 32 32 33
REMARK SMILES IDX 33 34 34 35 35 36 96 37 36 38 95 39 37 40 38 41 39 42 89 43
REMARK SMILES IDX 40 44 94 45 88 46 90 47 41 48 93 49 87 50 86 51 42 53 74 54
REMARK SMILES IDX 54 55 73 56 55 57 58 58 72 59 91 60 56 61 57 62 71 64 92 65
REMARK SMILES IDX 59 66 43 67 44 68 52 69 45 70 46 71 50 72 53 73 47 74 48 75
REMARK SMILES IDX 51 76 49 77 75 78 76 79 84 80 77 81 78 82 82 83 85 84 79 85
REMARK SMILES IDX 80 86 83 87 81 88 60 89 61 90 69 91 62 92 63 93 67 94 70 95
REMARK SMILES IDX 64 96 65 97 68 98 66 99
REMARK H PARENT 13 14 90 52 58 63
REMARK Flexibility Score: inf
ROOT
ATOM      1  C   UNL A   1      33.623  27.908  25.938  1.00  0.00     0.261 C 
ENDROOT
BRANCH   1   2
ATOM      2  O   UNL A   1      33.002  26.737  26.488  1.00  0.00    -0.463 OA
BRANCH   2   3
ATOM      3  C   UNL A   1      31.641  26.776  26.492  1.00  0.00     0.310 C 
ATOM      4  O   UNL A   1      30.971  27.582  27.124  1.00  0.00    -0.252 OA
BRANCH   3   5
ATOM      5  C   UNL A   1      31.042  25.617  25.730  1.00  0.00     0.115 C 
ATOM      6  C   UNL A   1      31.842  24.334  25.524  1.00  0.00     0.096 C 
ATOM      7  C   UNL A   1      31.884  24.178  23.971  1.00  0.00     0.003 C 
ATOM      8  C   UNL A   1      32.690  25.312  23.314  1.00  0.00     0.005 C 
ATOM      9  C   UNL A   1      30.477  24.599  23.586  1.00  0.00     0.009 C 
ATOM     10  C   UNL A   1      30.597  25.965  24.282  1.00  0.00     0.004 C 
ATOM     11  C   UNL A   1      31.780  26.537  23.485  1.00  0.00     0.005 C 
BRANCH   6  12
ATOM     12  C   UNL A   1      31.345  23.013  26.160  1.00  0.00     0.229 C 
ATOM     13  N   UNL A   1      31.974  21.809  26.288  1.00  0.00    -0.317 N 
ATOM     14  H   UNL A   1      31.390  21.117  26.674  1.00  0.00     0.170 HD
ATOM     15  O   UNL A   1      30.170  23.020  26.575  1.00  0.00    -0.274 OA
BRANCH  13  16
ATOM     16  C   UNL A   1      33.239  21.333  26.002  1.00  0.00     0.110 A 
ATOM     17  C   UNL A   1      33.619  20.217  25.273  1.00  0.00     0.095 A 
ATOM     18  C   UNL A   1      35.008  20.340  24.896  1.00  0.00     0.033 A 
ATOM     19  C   UNL A   1      35.630  21.365  25.582  1.00  0.00     0.007 A 
ATOM     20  S   UNL A   1      34.628  21.765  26.911  1.00  0.00    -0.122 S 
BRANCH  17  21
ATOM     21  C   UNL A   1      32.731  19.142  24.904  1.00  0.00     0.341 C 
ATOM     22  O   UNL A   1      32.305  18.301  25.690  1.00  0.00    -0.246 OA
BRANCH  21  23
ATOM     23  O   UNL A   1      32.575  19.121  23.554  1.00  0.00    -0.462 OA
BRANCH  23  24
ATOM     24  C   UNL A   1      32.662  17.854  22.890  1.00  0.00     0.230 C 
ATOM     25  C   UNL A   1      33.961  17.126  23.193  1.00  0.00     0.049 C 
ENDBRANCH  23  24
ENDBRANCH  21  23
ENDBRANCH  17  21
BRANCH  19  26
ATOM     26  C   UNL A   1      36.975  21.994  25.398  1.00  0.00     0.043 C 
ATOM     27  C   UNL A   1      36.884  23.518  25.406  1.00  0.00     0.010 C 
ENDBRANCH  19  26
ENDBRANCH  13  16
ENDBRANCH   6  12
ENDBRANCH   3   5
ENDBRANCH   2   3
ENDBRANCH   1   2
BRANCH   1  28
ATOM     28  C   UNL A   1      34.052  28.926  26.999  1.00  0.00     0.202 C 
BRANCH  28  29
ATOM     29  O   UNL A   1      33.139  29.953  27.376  1.00  0.00    -0.374 OA
BRANCH  29  30
ATOM     30  C   UNL A   1      33.654  31.262  27.606  1.00  0.00     0.202 C 
BRANCH  30  31
ATOM     31  C   UNL A   1      32.673  32.431  27.688  1.00  0.00     0.261 C 
BRANCH  31  32
ATOM     32  O   UNL A   1      33.308  33.685  27.423  1.00  0.00    -0.460 OA
BRANCH  32  33
ATOM     33  C   UNL A   1      33.298  34.516  28.488  1.00  0.00     0.338 C 
ATOM     34  O   UNL A   1      32.427  35.307  28.810  1.00  0.00    -0.246 OA
BRANCH  33  35
ATOM     35  C   UNL A   1      34.442  34.222  29.361  1.00  0.00     0.060 A 
ATOM     36  C   UNL A   1      35.714  34.399  28.804  1.00  0.00     0.016 A 
ATOM     37  C   UNL A   1      34.281  33.701  30.646  1.00  0.00     0.016 A 
ATOM     38  C   UNL A   1      36.833  33.957  29.490  1.00  0.00     0.010 A 
ATOM     39  C   UNL A   1      35.408  33.251  31.335  1.00  0.00     0.010 A 
ATOM     40  C   UNL A   1      36.675  33.323  30.729  1.00  0.00    -0.014 A 
BRANCH  40  41
ATOM     41  C   UNL A   1      37.816  32.560  31.275  1.00  0.00     0.031 A 
ATOM     42  C   UNL A   1      38.343  32.928  32.632  1.00  0.00     0.074 A 
ATOM     43  C   UNL A   1      38.316  31.514  30.601  1.00  0.00     0.049 A 
ATOM     44  N   UNL A   1      39.320  32.395  33.319  1.00  0.00    -0.248 NA
ATOM     45  C   UNL A   1      37.679  34.055  33.308  1.00  0.00     0.031 C 
ATOM     46  C   UNL A   1      37.844  31.048  29.299  1.00  0.00     0.029 A 
ATOM     47  N   UNL A   1      39.333  30.655  30.923  1.00  0.00    -0.354 N 
ATOM     48  C   UNL A   1      39.396  33.128  34.496  1.00  0.00     0.074 A 
ATOM     49  C   UNL A   1      38.391  34.163  34.419  1.00  0.00     0.031 C 
ATOM     50  C   UNL A   1      38.578  29.987  28.927  1.00  0.00     0.029 A 
ATOM     51  C   UNL A   1      39.589  29.725  29.949  1.00  0.00     0.049 A 
ATOM     52  H   UNL A   1      39.830  30.700  31.771  1.00  0.00     0.167 HD
ATOM     53  C   UNL A   1      40.228  32.943  35.549  1.00  0.00     0.037 A 
ATOM     54  C   UNL A   1      40.551  28.785  29.886  1.00  0.00     0.037 A 
ATOM     55  C   UNL A   1      41.221  31.903  35.610  1.00  0.00     0.049 A 
ATOM     56  C   UNL A   1      41.502  28.635  31.043  1.00  0.00     0.074 A 
ATOM     57  C   UNL A   1      42.096  31.604  36.638  1.00  0.00     0.029 A 
ATOM     58  N   UNL A   1      41.478  30.999  34.588  1.00  0.00    -0.354 N 
ATOM     59  N   UNL A   1      41.551  29.308  32.168  1.00  0.00    -0.248 NA
ATOM     60  C   UNL A   1      42.524  27.587  30.925  1.00  0.00     0.031 C 
ATOM     61  C   UNL A   1      42.928  30.563  36.212  1.00  0.00     0.029 A 
ATOM     62  C   UNL A   1      42.524  30.163  34.947  1.00  0.00     0.049 A 
ATOM     63  H   UNL A   1      40.990  30.956  33.735  1.00  0.00     0.167 HD
ATOM     64  C   UNL A   1      42.591  28.753  32.901  1.00  0.00     0.074 A 
ATOM     65  C   UNL A   1      43.134  27.675  32.099  1.00  0.00     0.031 C 
ATOM     66  C   UNL A   1      43.054  29.099  34.130  1.00  0.00     0.037 A 
BRANCH  53  67
ATOM     67  C   UNL A   1      40.126  33.916  36.689  1.00  0.00     0.064 A 
ATOM     68  C   UNL A   1      40.902  35.083  36.747  1.00  0.00     0.173 A 
ATOM     69  C   UNL A   1      39.231  33.673  37.743  1.00  0.00     0.173 A 
ATOM     70  F   UNL A   1      41.784  35.358  35.774  1.00  0.00    -0.203 F 
ATOM     71  C   UNL A   1      40.816  35.949  37.835  1.00  0.00     0.198 A 
ATOM     72  C   UNL A   1      39.121  34.560  38.812  1.00  0.00     0.198 A 
ATOM     73  F   UNL A   1      38.461  32.574  37.739  1.00  0.00    -0.203 F 
ATOM     74  F   UNL A   1      41.613  37.025  37.900  1.00  0.00    -0.200 F 
ATOM     75  C   UNL A   1      39.921  35.691  38.863  1.00  0.00     0.200 A 
ATOM     76  F   UNL A   1      38.246  34.314  39.797  1.00  0.00    -0.200 F 
ATOM     77  F   UNL A   1      39.837  36.525  39.908  1.00  0.00    -0.200 F 
ENDBRANCH  53  67
BRANCH  54  78
ATOM     78  C   UNL A   1      40.654  27.928  28.678  1.00  0.00     0.064 A 
ATOM     79  C   UNL A   1      39.979  26.704  28.595  1.00  0.00     0.173 A 
ATOM     80  C   UNL A   1      41.416  28.332  27.570  1.00  0.00     0.173 A 
ATOM     81  F   UNL A   1      39.255  26.266  29.636  1.00  0.00    -0.203 F 
ATOM     82  C   UNL A   1      40.069  25.910  27.453  1.00  0.00     0.198 A 
ATOM     83  C   UNL A   1      41.480  27.552  26.418  1.00  0.00     0.198 A 
ATOM     84  F   UNL A   1      42.078  29.497  27.598  1.00  0.00    -0.203 F 
ATOM     85  F   UNL A   1      39.442  24.727  27.413  1.00  0.00    -0.200 F 
ATOM     86  C   UNL A   1      40.811  26.339  26.363  1.00  0.00     0.200 A 
ATOM     87  F   UNL A   1      42.184  27.979  25.361  1.00  0.00    -0.200 F 
ATOM     88  F   UNL A   1      40.885  25.581  25.260  1.00  0.00    -0.200 F 
ENDBRANCH  54  78
BRANCH  66  89
ATOM     89  C   UNL A   1      44.181  28.282  34.694  1.00  0.00     0.064 A 
ATOM     90  C   UNL A   1      43.951  27.107  35.424  1.00  0.00     0.173 A 
ATOM     91  C   UNL A   1      45.513  28.663  34.468  1.00  0.00     0.173 A 
ATOM     92  F   UNL A   1      42.696  26.705  35.680  1.00  0.00    -0.203 F 
ATOM     93  C   UNL A   1      45.011  26.361  35.934  1.00  0.00     0.198 A 
ATOM     94  C   UNL A   1      46.571  27.896  34.948  1.00  0.00     0.198 A 
ATOM     95  F   UNL A   1      45.791  29.773  33.768  1.00  0.00    -0.203 F 
ATOM     96  F   UNL A   1      44.766  25.274  36.678  1.00  0.00    -0.200 F 
ATOM     97  C   UNL A   1      46.319  26.751  35.689  1.00  0.00     0.200 A 
ATOM     98  F   UNL A   1      47.833  28.265  34.694  1.00  0.00    -0.200 F 
ATOM     99  F   UNL A   1      47.337  26.029  36.176  1.00  0.00    -0.200 F 
ENDBRANCH  66  89
ENDBRANCH  40  41
ENDBRANCH  33  35
ENDBRANCH  32  33
ENDBRANCH  31  32
ENDBRANCH  30  31
ENDBRANCH  29  30
ENDBRANCH  28  29
ENDBRANCH   1  28
TORSDOF 20
ENDMDL
MODEL 3
REMARK VINA RESULT:     -11.4      4.934      9.016
REMARK SMILES CCOC(=O)c1cc(CC)sc1NC(=O)[C@H]1[C@@H]2CC[C@@H](C2)[C@@H]1C(=O)OCCOCCOC(=O)c1ccc(-c2c3nc(c(-c4c(F)c(F)c(F)c(F)c4F)c4ccc([nH]4)c(-c4c(F)c(F)c(F)c(F)c4F)c4nc(c(-c5c(F)c(F)c(F)c(F)c5F)c5ccc2[nH]5)C=C4)C=C3)cc1
REMARK SMILES IDX 26 1 25 2 23 3 24 4 22 5 16 6 17 7 18 8 21 9 20 10 19 11
REMARK SMILES IDX 14 12 13 13 15 15 12 16 6 17 7 18 8 19 11 20 4 21 5 22 3 23
REMARK SMILES IDX 2 24 1 25 9 26 10 27 27 28 28 29 29 30 30 31 31 32 32 33
REMARK SMILES IDX 33 34 34 35 35 36 96 37 36 38 95 39 37 40 38 41 39 42 89 43
REMARK SMILES IDX 40 44 94 45 88 46 90 47 41 48 93 49 87 50 86 51 42 53 74 54
REMARK SMILES IDX 54 55 73 56 55 57 58 58 72 59 91 60 56 61 57 62 71 64 92 65
REMARK SMILES IDX 59 66 43 67 44 68 52 69 45 70 46 71 50 72 53 73 47 74 48 75
REMARK SMILES IDX 51 76 49 77 75 78 76 79 84 80 77 81 78 82 82 83 85 84 79 85
REMARK SMILES IDX 80 86 83 87 81 88 60 89 61 90 69 91 62 92 63 93 67 94 70 95
REMARK SMILES IDX 64 96 65 97 68 98 66 99
REMARK H PARENT 13 14 90 52 58 63
REMARK Flexibility Score: inf
ROOT
ATOM      1  C   UNL A   1      34.393  22.447  25.410  1.00  0.00     0.261 C 
ENDROOT
BRANCH   1   2
ATOM      2  O   UNL A   1      34.304  22.751  24.010  1.00  0.00    -0.463 OA
BRANCH   2   3
ATOM      3  C   UNL A   1      33.138  22.359  23.426  1.00  0.00     0.310 C 
ATOM      4  O   UNL A   1      32.875  21.208  23.105  1.00  0.00    -0.252 OA
BRANCH   3   5
ATOM      5  C   UNL A   1      32.252  23.535  23.091  1.00  0.00     0.115 C 
ATOM      6  C   UNL A   1      32.661  24.949  23.496  1.00  0.00     0.096 C 
ATOM      7  C   UNL A   1      31.464  25.435  24.374  1.00  0.00     0.003 C 
ATOM      8  C   UNL A   1      31.351  24.618  25.673  1.00  0.00     0.005 C 
ATOM      9  C   UNL A   1      30.279  24.875  23.607  1.00  0.00     0.009 C 
ATOM     10  C   UNL A   1      30.810  23.433  23.661  1.00  0.00     0.004 C 
ATOM     11  C   UNL A   1      30.852  23.249  25.187  1.00  0.00     0.005 C 
BRANCH   6  12
ATOM     12  C   UNL A   1      32.957  26.003  22.401  1.00  0.00     0.229 C 
ATOM     13  N   UNL A   1      32.859  27.363  22.443  1.00  0.00    -0.317 N 
ATOM     14  H   UNL A   1      33.045  27.781  21.571  1.00  0.00     0.170 HD
ATOM     15  O   UNL A   1      33.284  25.549  21.288  1.00  0.00    -0.274 OA
BRANCH  13  16
ATOM     16  C   UNL A   1      32.561  28.291  23.422  1.00  0.00     0.110 A 
ATOM     17  C   UNL A   1      31.341  28.851  23.766  1.00  0.00     0.095 A 
ATOM     18  C   UNL A   1      31.437  29.442  25.081  1.00  0.00     0.033 A 
ATOM     19  C   UNL A   1      32.750  29.532  25.499  1.00  0.00     0.007 A 
ATOM     20  S   UNL A   1      33.738  29.329  24.116  1.00  0.00    -0.122 S 
BRANCH  17  21
ATOM     21  C   UNL A   1      30.152  28.783  22.951  1.00  0.00     0.341 C 
ATOM     22  O   UNL A   1      30.017  28.023  21.997  1.00  0.00    -0.246 OA
BRANCH  21  23
ATOM     23  O   UNL A   1      29.298  29.778  23.304  1.00  0.00    -0.462 OA
BRANCH  23  24
ATOM     24  C   UNL A   1      28.337  30.211  22.333  1.00  0.00     0.230 C 
ATOM     25  C   UNL A   1      28.775  31.470  21.602  1.00  0.00     0.049 C 
ENDBRANCH  23  24
ENDBRANCH  21  23
ENDBRANCH  17  21
BRANCH  19  26
ATOM     26  C   UNL A   1      33.333  29.880  26.833  1.00  0.00     0.043 C 
ATOM     27  C   UNL A   1      34.417  28.887  27.246  1.00  0.00     0.010 C 
ENDBRANCH  19  26
ENDBRANCH  13  16
ENDBRANCH   6  12
ENDBRANCH   3   5
ENDBRANCH   2   3
ENDBRANCH   1   2
BRANCH   1  28
ATOM     28  C   UNL A   1      35.035  21.087  25.699  1.00  0.00     0.202 C 
BRANCH  28  29
ATOM     29  O   UNL A   1      36.059  20.611  24.831  1.00  0.00    -0.374 OA
BRANCH  29  30
ATOM     30  C   UNL A   1      37.368  21.156  24.969  1.00  0.00     0.202 C 
BRANCH  30  31
ATOM     31  C   UNL A   1      38.511  20.226  25.376  1.00  0.00     0.261 C 
BRANCH  31  32
ATOM     32  O   UNL A   1      39.765  20.910  25.437  1.00  0.00    -0.460 OA
BRANCH  32  33
ATOM     33  C   UNL A   1      40.403  20.737  26.616  1.00  0.00     0.338 C 
ATOM     34  O   UNL A   1      40.873  19.706  27.065  1.00  0.00    -0.246 OA
BRANCH  33  35
ATOM     35  C   UNL A   1      40.631  22.040  27.255  1.00  0.00     0.060 A 
ATOM     36  C   UNL A   1      39.860  23.109  26.784  1.00  0.00     0.016 A 
ATOM     37  C   UNL A   1      41.627  22.232  28.214  1.00  0.00     0.016 A 
ATOM     38  C   UNL A   1      40.152  24.400  27.193  1.00  0.00     0.010 A 
ATOM     39  C   UNL A   1      41.924  23.533  28.623  1.00  0.00     0.010 A 
ATOM     40  C   UNL A   1      41.227  24.619  28.064  1.00  0.00    -0.014 A 
BRANCH  40  41
ATOM     41  C   UNL A   1      41.737  25.998  28.212  1.00  0.00     0.031 A 
ATOM     42  C   UNL A   1      43.078  26.335  27.624  1.00  0.00     0.074 A 
ATOM     43  C   UNL A   1      40.982  26.941  28.794  1.00  0.00     0.049 A 
ATOM     44  N   UNL A   1      43.720  27.474  27.615  1.00  0.00    -0.248 NA
ATOM     45  C   UNL A   1      43.793  25.236  26.955  1.00  0.00     0.031 C 
ATOM     46  C   UNL A   1      39.650  26.725  29.353  1.00  0.00     0.029 A 
ATOM     47  N   UNL A   1      41.232  28.271  29.007  1.00  0.00    -0.354 N 
ATOM     48  C   UNL A   1      44.917  27.225  26.957  1.00  0.00     0.074 A 
ATOM     49  C   UNL A   1      44.929  25.822  26.609  1.00  0.00     0.031 C 
ATOM     50  C   UNL A   1      39.199  27.886  29.856  1.00  0.00     0.029 A 
ATOM     51  C   UNL A   1      40.225  28.911  29.682  1.00  0.00     0.049 A 
ATOM     52  H   UNL A   1      42.052  28.722  28.705  1.00  0.00     0.167 HD
ATOM     53  C   UNL A   1      45.912  28.097  26.663  1.00  0.00     0.037 A 
ATOM     54  C   UNL A   1      40.157  30.180  30.128  1.00  0.00     0.037 A 
ATOM     55  C   UNL A   1      45.882  29.492  27.015  1.00  0.00     0.049 A 
ATOM     56  C   UNL A   1      41.300  31.116  29.841  1.00  0.00     0.074 A 
ATOM     57  C   UNL A   1      46.819  30.471  26.741  1.00  0.00     0.029 A 
ATOM     58  N   UNL A   1      44.861  30.102  27.731  1.00  0.00    -0.354 N 
ATOM     59  N   UNL A   1      42.416  30.887  29.190  1.00  0.00    -0.248 NA
ATOM     60  C   UNL A   1      41.169  32.491  30.341  1.00  0.00     0.031 C 
ATOM     61  C   UNL A   1      46.397  31.658  27.350  1.00  0.00     0.029 A 
ATOM     62  C   UNL A   1      45.162  31.439  27.941  1.00  0.00     0.049 A 
ATOM     63  H   UNL A   1      44.043  29.652  28.043  1.00  0.00     0.167 HD
ATOM     64  C   UNL A   1      43.109  32.091  29.182  1.00  0.00     0.074 A 
ATOM     65  C   UNL A   1      42.277  33.052  29.878  1.00  0.00     0.031 C 
ATOM     66  C   UNL A   1      44.322  32.378  28.643  1.00  0.00     0.037 A 
BRANCH  53  67
ATOM     67  C   UNL A   1      47.129  27.549  25.972  1.00  0.00     0.064 A 
ATOM     68  C   UNL A   1      48.177  26.938  26.677  1.00  0.00     0.173 A 
ATOM     69  C   UNL A   1      47.244  27.637  24.576  1.00  0.00     0.173 A 
ATOM     70  F   UNL A   1      48.126  26.841  28.014  1.00  0.00    -0.203 F 
ATOM     71  C   UNL A   1      49.312  26.474  26.016  1.00  0.00     0.198 A 
ATOM     72  C   UNL A   1      48.364  27.138  23.914  1.00  0.00     0.198 A 
ATOM     73  F   UNL A   1      46.271  28.207  23.850  1.00  0.00    -0.203 F 
ATOM     74  F   UNL A   1      50.329  25.952  26.717  1.00  0.00    -0.200 F 
ATOM     75  C   UNL A   1      49.401  26.568  24.635  1.00  0.00     0.200 A 
ATOM     76  F   UNL A   1      48.442  27.218  22.579  1.00  0.00    -0.200 F 
ATOM     77  F   UNL A   1      50.493  26.119  23.999  1.00  0.00    -0.200 F 
ENDBRANCH  53  67
BRANCH  54  78
ATOM     78  C   UNL A   1      38.966  30.620  30.895  1.00  0.00     0.064 A 
ATOM     79  C   UNL A   1      37.835  31.137  30.250  1.00  0.00     0.173 A 
ATOM     80  C   UNL A   1      38.927  30.510  32.295  1.00  0.00     0.173 A 
ATOM     81  F   UNL A   1      37.831  31.280  28.916  1.00  0.00    -0.203 F 
ATOM     82  C   UNL A   1      36.713  31.536  30.975  1.00  0.00     0.198 A 
ATOM     83  C   UNL A   1      37.795  30.881  33.015  1.00  0.00     0.198 A 
ATOM     84  F   UNL A   1      39.982  30.019  32.959  1.00  0.00    -0.203 F 
ATOM     85  F   UNL A   1      35.658  32.059  30.336  1.00  0.00    -0.200 F 
ATOM     86  C   UNL A   1      36.691  31.399  32.355  1.00  0.00     0.200 A 
ATOM     87  F   UNL A   1      37.770  30.731  34.346  1.00  0.00    -0.200 F 
ATOM     88  F   UNL A   1      35.606  31.770  33.050  1.00  0.00    -0.200 F 
ENDBRANCH  54  78
BRANCH  66  89
ATOM     89  C   UNL A   1      44.806  33.795  28.757  1.00  0.00     0.064 A 
ATOM     90  C   UNL A   1      45.637  34.211  29.807  1.00  0.00     0.173 A 
ATOM     91  C   UNL A   1      44.463  34.741  27.778  1.00  0.00     0.173 A 
ATOM     92  F   UNL A   1      45.984  33.351  30.777  1.00  0.00    -0.203 F 
ATOM     93  C   UNL A   1      46.079  35.529  29.891  1.00  0.00     0.198 A 
ATOM     94  C   UNL A   1      44.937  36.048  27.845  1.00  0.00     0.198 A 
ATOM     95  F   UNL A   1      43.679  34.394  26.746  1.00  0.00    -0.203 F 
ATOM     96  F   UNL A   1      46.824  35.918  30.935  1.00  0.00    -0.200 F 
ATOM     97  C   UNL A   1      45.736  36.443  28.907  1.00  0.00     0.200 A 
ATOM     98  F   UNL A   1      44.619  36.924  26.883  1.00  0.00    -0.200 F 
ATOM     99  F   UNL A   1      46.168  37.710  28.986  1.00  0.00    -0.200 F 
ENDBRANCH  66  89
ENDBRANCH  40  41
ENDBRANCH  33  35
ENDBRANCH  32  33
ENDBRANCH  31  32
ENDBRANCH  30  31
ENDBRANCH  29  30
ENDBRANCH  28  29
ENDBRANCH   1  28
TORSDOF 20
ENDMDL
