MODEL 1
REMARK VINA RESULT:     -11.0      0.000      0.000
REMARK SMILES O=C(OCCOCCOC(=O)c1ccc(OC[C@H]2C[C@H]3CC[C@@H]2C3)c(Cl)c1)c1ccc(-c2c3nc(c(-c4c(F)c(F)c(F)c(F)c4F)c4ccc([nH]4)c(-c4c(F)c(F)c(F)c(F)c4F)c4nc(c(-c5c(F)c(F)c(F)c(F)c5F)c5ccc2[nH]5)C=C4)C=C3)cc1
REMARK SMILES IDX 7 1 6 2 5 3 4 4 3 5 2 6 1 7 28 8 29 9 90 10 30 11 89 12
REMARK SMILES IDX 31 13 32 14 33 15 83 16 34 17 88 18 82 19 84 20 35 21 87 22
REMARK SMILES IDX 81 23 80 24 36 26 68 27 48 28 67 29 49 30 52 31 66 32 85 33
REMARK SMILES IDX 50 34 51 35 65 37 86 38 53 39 37 40 38 41 46 42 39 43 40 44
REMARK SMILES IDX 44 45 47 46 41 47 42 48 45 49 43 50 69 51 70 52 78 53 71 54
REMARK SMILES IDX 72 55 76 56 79 57 73 58 74 59 77 60 75 61 54 62 55 63 63 64
REMARK SMILES IDX 56 65 57 66 61 67 64 68 58 69 59 70 62 71 60 72 8 73 9 74
REMARK SMILES IDX 10 75 11 76 12 77 13 78 27 79 14 80 25 81 15 82 26 83 16 84
REMARK SMILES IDX 17 85 18 86 19 87 23 88 20 89 22 90 24 91 21 92
REMARK H PARENT 84 25 52 36
REMARK Flexibility Score: inf
ROOT
ATOM      1  C   UNL A   1      31.731  29.992  25.402  1.00  0.00     0.202 C 
ENDROOT
BRANCH   1   2
ATOM      2  O   UNL A   1      31.029  31.245  25.403  1.00  0.00    -0.374 OA
BRANCH   2   3
ATOM      3  C   UNL A   1      31.105  31.992  26.620  1.00  0.00     0.202 C 
BRANCH   3   4
ATOM      4  C   UNL A   1      32.431  32.704  26.879  1.00  0.00     0.261 C 
BRANCH   4   5
ATOM      5  O   UNL A   1      32.204  33.906  27.627  1.00  0.00    -0.460 OA
BRANCH   5   6
ATOM      6  C   UNL A   1      33.063  34.542  28.454  1.00  0.00     0.338 C 
ATOM      7  O   UNL A   1      32.846  35.716  28.745  1.00  0.00    -0.246 OA
BRANCH   6   8
ATOM      8  C   UNL A   1      34.265  33.888  29.050  1.00  0.00     0.060 A 
ATOM      9  C   UNL A   1      35.589  34.253  28.791  1.00  0.00     0.016 A 
ATOM     10  C   UNL A   1      34.028  32.901  30.021  1.00  0.00     0.016 A 
ATOM     11  C   UNL A   1      36.652  33.612  29.415  1.00  0.00     0.010 A 
ATOM     12  C   UNL A   1      35.088  32.286  30.688  1.00  0.00     0.010 A 
ATOM     13  C   UNL A   1      36.406  32.631  30.370  1.00  0.00    -0.014 A 
BRANCH  13  14
ATOM     14  C   UNL A   1      37.550  31.925  30.972  1.00  0.00     0.031 A 
ATOM     15  C   UNL A   1      37.931  32.253  32.379  1.00  0.00     0.074 A 
ATOM     16  C   UNL A   1      38.164  30.949  30.282  1.00  0.00     0.049 A 
ATOM     17  N   UNL A   1      38.935  31.815  33.089  1.00  0.00    -0.248 NA
ATOM     18  C   UNL A   1      37.053  33.198  33.089  1.00  0.00     0.031 C 
ATOM     19  C   UNL A   1      37.781  30.496  28.944  1.00  0.00     0.029 A 
ATOM     20  N   UNL A   1      39.224  30.152  30.617  1.00  0.00    -0.354 N 
ATOM     21  C   UNL A   1      38.826  32.449  34.318  1.00  0.00     0.074 A 
ATOM     22  C   UNL A   1      37.660  33.302  34.261  1.00  0.00     0.031 C 
ATOM     23  C   UNL A   1      38.587  29.487  28.578  1.00  0.00     0.029 A 
ATOM     24  C   UNL A   1      39.578  29.270  29.627  1.00  0.00     0.049 A 
ATOM     25  H   UNL A   1      39.688  30.204  31.484  1.00  0.00     0.167 HD
ATOM     26  C   UNL A   1      39.642  32.331  35.389  1.00  0.00     0.037 A 
ATOM     27  C   UNL A   1      40.611  28.409  29.571  1.00  0.00     0.037 A 
ATOM     28  C   UNL A   1      40.802  31.481  35.411  1.00  0.00     0.049 A 
ATOM     29  C   UNL A   1      41.548  28.351  30.747  1.00  0.00     0.074 A 
ATOM     30  C   UNL A   1      41.749  31.329  36.405  1.00  0.00     0.029 A 
ATOM     31  N   UNL A   1      41.164  30.633  34.372  1.00  0.00    -0.354 N 
ATOM     32  N   UNL A   1      41.488  29.005  31.884  1.00  0.00    -0.248 NA
ATOM     33  C   UNL A   1      42.704  27.454  30.631  1.00  0.00     0.031 C 
ATOM     34  C   UNL A   1      42.706  30.411  35.951  1.00  0.00     0.029 A 
ATOM     35  C   UNL A   1      42.330  29.961  34.694  1.00  0.00     0.049 A 
ATOM     36  H   UNL A   1      40.664  30.525  33.530  1.00  0.00     0.167 HD
ATOM     37  C   UNL A   1      42.587  28.595  32.623  1.00  0.00     0.074 A 
ATOM     38  C   UNL A   1      43.287  27.618  31.811  1.00  0.00     0.031 C 
ATOM     39  C   UNL A   1      42.989  28.990  33.856  1.00  0.00     0.037 A 
BRANCH  26  40
ATOM     40  C   UNL A   1      39.336  33.199  36.572  1.00  0.00     0.064 A 
ATOM     41  C   UNL A   1      39.902  34.474  36.723  1.00  0.00     0.173 A 
ATOM     42  C   UNL A   1      38.507  32.723  37.600  1.00  0.00     0.173 A 
ATOM     43  F   UNL A   1      40.727  34.962  35.783  1.00  0.00    -0.203 F 
ATOM     44  C   UNL A   1      39.675  35.227  37.874  1.00  0.00     0.198 A 
ATOM     45  C   UNL A   1      38.264  33.488  38.737  1.00  0.00     0.198 A 
ATOM     46  F   UNL A   1      37.950  31.507  37.508  1.00  0.00    -0.203 F 
ATOM     47  F   UNL A   1      40.277  36.415  38.025  1.00  0.00    -0.200 F 
ATOM     48  C   UNL A   1      38.856  34.734  38.878  1.00  0.00     0.200 A 
ATOM     49  F   UNL A   1      37.472  33.010  39.708  1.00  0.00    -0.200 F 
ATOM     50  F   UNL A   1      38.652  35.451  39.992  1.00  0.00    -0.200 F 
ENDBRANCH  26  40
BRANCH  27  51
ATOM     51  C   UNL A   1      40.823  27.576  28.359  1.00  0.00     0.064 A 
ATOM     52  C   UNL A   1      41.640  28.015  27.309  1.00  0.00     0.173 A 
ATOM     53  C   UNL A   1      40.223  26.313  28.231  1.00  0.00     0.173 A 
ATOM     54  F   UNL A   1      42.219  29.223  27.372  1.00  0.00    -0.203 F 
ATOM     55  C   UNL A   1      41.844  27.227  26.177  1.00  0.00     0.198 A 
ATOM     56  C   UNL A   1      40.450  25.515  27.112  1.00  0.00     0.198 A 
ATOM     57  F   UNL A   1      39.427  25.845  29.205  1.00  0.00    -0.203 F 
ATOM     58  F   UNL A   1      42.603  27.686  25.172  1.00  0.00    -0.200 F 
ATOM     59  C   UNL A   1      41.256  25.975  26.082  1.00  0.00     0.200 A 
ATOM     60  F   UNL A   1      39.889  24.300  27.032  1.00  0.00    -0.200 F 
ATOM     61  F   UNL A   1      41.461  25.215  24.998  1.00  0.00    -0.200 F 
ENDBRANCH  27  51
BRANCH  39  62
ATOM     62  C   UNL A   1      44.226  28.348  34.401  1.00  0.00     0.064 A 
ATOM     63  C   UNL A   1      44.170  27.137  35.105  1.00  0.00     0.173 A 
ATOM     64  C   UNL A   1      45.484  28.921  34.165  1.00  0.00     0.173 A 
ATOM     65  F   UNL A   1      42.987  26.562  35.366  1.00  0.00    -0.203 F 
ATOM     66  C   UNL A   1      45.333  26.530  35.569  1.00  0.00     0.198 A 
ATOM     67  C   UNL A   1      46.645  28.299  34.609  1.00  0.00     0.198 A 
ATOM     68  F   UNL A   1      45.584  30.077  33.490  1.00  0.00    -0.203 F 
ATOM     69  F   UNL A   1      45.257  25.390  36.270  1.00  0.00    -0.200 F 
ATOM     70  C   UNL A   1      46.568  27.107  35.314  1.00  0.00     0.200 A 
ATOM     71  F   UNL A   1      47.839  28.852  34.353  1.00  0.00    -0.200 F 
ATOM     72  F   UNL A   1      47.688  26.515  35.752  1.00  0.00    -0.200 F 
ENDBRANCH  39  62
ENDBRANCH  13  14
ENDBRANCH   6   8
ENDBRANCH   5   6
ENDBRANCH   4   5
ENDBRANCH   3   4
ENDBRANCH   2   3
ENDBRANCH   1   2
BRANCH   1  73
ATOM     73  C   UNL A   1      31.063  29.021  24.420  1.00  0.00     0.261 C 
BRANCH  73  74
ATOM     74  O   UNL A   1      31.086  27.705  25.000  1.00  0.00    -0.460 OA
BRANCH  74  75
ATOM     75  C   UNL A   1      30.303  26.796  24.367  1.00  0.00     0.338 C 
ATOM     76  O   UNL A   1      29.576  26.974  23.405  1.00  0.00    -0.246 OA
BRANCH  75  77
ATOM     77  C   UNL A   1      30.739  25.470  24.841  1.00  0.00     0.061 A 
ATOM     78  C   UNL A   1      31.182  25.258  26.146  1.00  0.00     0.019 A 
ATOM     79  C   UNL A   1      30.871  24.473  23.870  1.00  0.00     0.040 A 
ATOM     80  C   UNL A   1      31.737  24.021  26.478  1.00  0.00     0.049 A 
ATOM     81  C   UNL A   1      31.537  23.290  24.180  1.00  0.00     0.083 A 
ATOM     82  C   UNL A   1      31.892  23.025  25.503  1.00  0.00     0.137 A 
ATOM     83  Cl  UNL A   1      31.999  22.260  22.872  1.00  0.00    -0.080 Cl
BRANCH  82  84
ATOM     84  O   UNL A   1      32.501  21.886  25.915  1.00  0.00    -0.492 OA
BRANCH  84  85
ATOM     85  C   UNL A   1      33.696  21.950  26.704  1.00  0.00     0.233 C 
BRANCH  85  86
ATOM     86  C   UNL A   1      35.121  21.955  26.113  1.00  0.00     0.030 C 
ATOM     87  C   UNL A   1      35.111  21.495  24.628  1.00  0.00     0.011 C 
ATOM     88  C   UNL A   1      35.948  23.260  26.036  1.00  0.00    -0.004 C 
ATOM     89  C   UNL A   1      35.952  22.572  23.923  1.00  0.00    -0.010 C 
ATOM     90  C   UNL A   1      35.164  24.366  25.326  1.00  0.00     0.004 C 
ATOM     91  C   UNL A   1      36.999  22.893  24.982  1.00  0.00     0.007 C 
ATOM     92  C   UNL A   1      35.147  23.884  23.869  1.00  0.00     0.004 C 
ENDBRANCH  85  86
ENDBRANCH  84  85
ENDBRANCH  82  84
ENDBRANCH  75  77
ENDBRANCH  74  75
ENDBRANCH  73  74
ENDBRANCH   1  73
TORSDOF 17
ENDMDL
MODEL 2
REMARK VINA RESULT:     -10.9      0.598      7.263
REMARK SMILES O=C(OCCOCCOC(=O)c1ccc(OC[C@H]2C[C@H]3CC[C@@H]2C3)c(Cl)c1)c1ccc(-c2c3nc(c(-c4c(F)c(F)c(F)c(F)c4F)c4ccc([nH]4)c(-c4c(F)c(F)c(F)c(F)c4F)c4nc(c(-c5c(F)c(F)c(F)c(F)c5F)c5ccc2[nH]5)C=C4)C=C3)cc1
REMARK SMILES IDX 7 1 6 2 5 3 4 4 3 5 2 6 1 7 28 8 29 9 90 10 30 11 89 12
REMARK SMILES IDX 31 13 32 14 33 15 83 16 34 17 88 18 82 19 84 20 35 21 87 22
REMARK SMILES IDX 81 23 80 24 36 26 68 27 48 28 67 29 49 30 52 31 66 32 85 33
REMARK SMILES IDX 50 34 51 35 65 37 86 38 53 39 37 40 38 41 46 42 39 43 40 44
REMARK SMILES IDX 44 45 47 46 41 47 42 48 45 49 43 50 69 51 70 52 78 53 71 54
REMARK SMILES IDX 72 55 76 56 79 57 73 58 74 59 77 60 75 61 54 62 55 63 63 64
REMARK SMILES IDX 56 65 57 66 61 67 64 68 58 69 59 70 62 71 60 72 8 73 9 74
REMARK SMILES IDX 10 75 11 76 12 77 13 78 27 79 14 80 25 81 15 82 26 83 16 84
REMARK SMILES IDX 17 85 18 86 19 87 23 88 20 89 22 90 24 91 21 92
REMARK H PARENT 84 25 52 36
REMARK Flexibility Score: inf
ROOT
ATOM      1  C   UNL A   1      32.421  29.723  25.545  1.00  0.00     0.202 C 
ENDROOT
BRANCH   1   2
ATOM      2  O   UNL A   1      31.882  30.493  26.631  1.00  0.00    -0.374 OA
BRANCH   2   3
ATOM      3  C   UNL A   1      32.600  31.686  26.955  1.00  0.00     0.202 C 
BRANCH   3   4
ATOM      4  C   UNL A   1      31.765  32.963  27.027  1.00  0.00     0.261 C 
BRANCH   4   5
ATOM      5  O   UNL A   1      32.616  34.094  27.257  1.00  0.00    -0.460 OA
BRANCH   5   6
ATOM      6  C   UNL A   1      33.092  34.547  28.438  1.00  0.00     0.338 C 
ATOM      7  O   UNL A   1      32.569  35.536  28.946  1.00  0.00    -0.246 OA
BRANCH   6   8
ATOM      8  C   UNL A   1      34.218  33.900  29.173  1.00  0.00     0.060 A 
ATOM      9  C   UNL A   1      34.078  32.880  30.118  1.00  0.00     0.016 A 
ATOM     10  C   UNL A   1      35.516  34.285  28.801  1.00  0.00     0.016 A 
ATOM     11  C   UNL A   1      35.184  32.308  30.735  1.00  0.00     0.010 A 
ATOM     12  C   UNL A   1      36.634  33.682  29.379  1.00  0.00     0.010 A 
ATOM     13  C   UNL A   1      36.466  32.702  30.363  1.00  0.00    -0.014 A 
BRANCH  13  14
ATOM     14  C   UNL A   1      37.618  32.124  31.075  1.00  0.00     0.031 A 
ATOM     15  C   UNL A   1      38.431  31.076  30.386  1.00  0.00     0.074 A 
ATOM     16  C   UNL A   1      37.965  32.608  32.280  1.00  0.00     0.049 A 
ATOM     17  N   UNL A   1      39.439  30.380  30.835  1.00  0.00    -0.248 NA
ATOM     18  C   UNL A   1      38.062  30.778  28.992  1.00  0.00     0.031 C 
ATOM     19  C   UNL A   1      37.287  33.705  32.971  1.00  0.00     0.029 A 
ATOM     20  N   UNL A   1      38.982  32.255  33.124  1.00  0.00    -0.354 N 
ATOM     21  C   UNL A   1      39.810  29.544  29.792  1.00  0.00     0.074 A 
ATOM     22  C   UNL A   1      38.920  29.817  28.685  1.00  0.00     0.031 C 
ATOM     23  C   UNL A   1      37.919  33.946  34.131  1.00  0.00     0.029 A 
ATOM     24  C   UNL A   1      39.001  32.981  34.288  1.00  0.00     0.049 A 
ATOM     25  H   UNL A   1      39.637  31.550  32.916  1.00  0.00     0.167 HD
ATOM     26  C   UNL A   1      40.800  28.624  29.775  1.00  0.00     0.037 A 
ATOM     27  C   UNL A   1      39.791  32.849  35.371  1.00  0.00     0.037 A 
ATOM     28  C   UNL A   1      41.662  28.369  30.897  1.00  0.00     0.049 A 
ATOM     29  C   UNL A   1      40.836  31.767  35.356  1.00  0.00     0.074 A 
ATOM     30  C   UNL A   1      42.652  27.415  31.034  1.00  0.00     0.029 A 
ATOM     31  N   UNL A   1      41.626  29.089  32.085  1.00  0.00    -0.354 N 
ATOM     32  N   UNL A   1      41.140  30.925  34.396  1.00  0.00    -0.248 NA
ATOM     33  C   UNL A   1      41.636  31.601  36.575  1.00  0.00     0.031 C 
ATOM     34  C   UNL A   1      43.193  27.536  32.321  1.00  0.00     0.029 A 
ATOM     35  C   UNL A   1      42.569  28.593  32.968  1.00  0.00     0.049 A 
ATOM     36  H   UNL A   1      41.019  29.842  32.272  1.00  0.00     0.167 HD
ATOM     37  C   UNL A   1      42.170  30.137  34.886  1.00  0.00     0.074 A 
ATOM     38  C   UNL A   1      42.453  30.616  36.226  1.00  0.00     0.031 C 
ATOM     39  C   UNL A   1      42.821  29.107  34.292  1.00  0.00     0.037 A 
BRANCH  26  40
ATOM     40  C   UNL A   1      40.932  27.794  28.534  1.00  0.00     0.064 A 
ATOM     41  C   UNL A   1      41.768  28.173  27.474  1.00  0.00     0.173 A 
ATOM     42  C   UNL A   1      40.164  26.629  28.381  1.00  0.00     0.173 A 
ATOM     43  F   UNL A   1      42.499  29.295  27.559  1.00  0.00    -0.203 F 
ATOM     44  C   UNL A   1      41.807  27.434  26.293  1.00  0.00     0.198 A 
ATOM     45  C   UNL A   1      40.223  25.881  27.209  1.00  0.00     0.198 A 
ATOM     46  F   UNL A   1      39.341  26.229  29.361  1.00  0.00    -0.203 F 
ATOM     47  F   UNL A   1      42.565  27.849  25.269  1.00  0.00    -0.200 F 
ATOM     48  C   UNL A   1      41.036  26.289  26.163  1.00  0.00     0.200 A 
ATOM     49  F   UNL A   1      39.476  24.774  27.084  1.00  0.00    -0.200 F 
ATOM     50  F   UNL A   1      41.060  25.588  25.020  1.00  0.00    -0.200 F 
ENDBRANCH  26  40
BRANCH  27  51
ATOM     51  C   UNL A   1      39.593  33.732  36.549  1.00  0.00     0.064 A 
ATOM     52  C   UNL A   1      40.194  34.995  36.620  1.00  0.00     0.173 A 
ATOM     53  C   UNL A   1      38.783  33.337  37.626  1.00  0.00     0.173 A 
ATOM     54  F   UNL A   1      40.995  35.412  35.628  1.00  0.00    -0.203 F 
ATOM     55  C   UNL A   1      39.999  35.826  37.723  1.00  0.00     0.198 A 
ATOM     56  C   UNL A   1      38.565  34.179  38.714  1.00  0.00     0.198 A 
ATOM     57  F   UNL A   1      38.185  32.136  37.612  1.00  0.00    -0.203 F 
ATOM     58  F   UNL A   1      40.614  37.016  37.780  1.00  0.00    -0.200 F 
ATOM     59  C   UNL A   1      39.178  35.421  38.765  1.00  0.00     0.200 A 
ATOM     60  F   UNL A   1      37.761  33.787  39.712  1.00  0.00    -0.200 F 
ATOM     61  F   UNL A   1      38.983  36.224  39.819  1.00  0.00    -0.200 F 
ENDBRANCH  27  51
BRANCH  39  62
ATOM     62  C   UNL A   1      43.912  28.452  35.080  1.00  0.00     0.064 A 
ATOM     63  C   UNL A   1      43.655  27.346  35.902  1.00  0.00     0.173 A 
ATOM     64  C   UNL A   1      45.235  28.901  34.965  1.00  0.00     0.173 A 
ATOM     65  F   UNL A   1      42.402  26.893  36.053  1.00  0.00    -0.203 F 
ATOM     66  C   UNL A   1      44.686  26.720  36.595  1.00  0.00     0.198 A 
ATOM     67  C   UNL A   1      46.266  28.259  35.640  1.00  0.00     0.198 A 
ATOM     68  F   UNL A   1      45.526  29.953  34.184  1.00  0.00    -0.203 F 
ATOM     69  F   UNL A   1      44.417  25.685  37.403  1.00  0.00    -0.200 F 
ATOM     70  C   UNL A   1      45.991  27.173  36.458  1.00  0.00     0.200 A 
ATOM     71  F   UNL A   1      47.528  28.689  35.498  1.00  0.00    -0.200 F 
ATOM     72  F   UNL A   1      46.984  26.562  37.118  1.00  0.00    -0.200 F 
ENDBRANCH  39  62
ENDBRANCH  13  14
ENDBRANCH   6   8
ENDBRANCH   5   6
ENDBRANCH   4   5
ENDBRANCH   3   4
ENDBRANCH   2   3
ENDBRANCH   1   2
BRANCH   1  73
ATOM     73  C   UNL A   1      31.280  29.119  24.718  1.00  0.00     0.261 C 
BRANCH  73  74
ATOM     74  O   UNL A   1      31.609  27.748  24.427  1.00  0.00    -0.460 OA
BRANCH  74  75
ATOM     75  C   UNL A   1      30.538  26.943  24.221  1.00  0.00     0.338 C 
ATOM     76  O   UNL A   1      29.572  27.148  23.506  1.00  0.00    -0.246 OA
BRANCH  75  77
ATOM     77  C   UNL A   1      30.904  25.620  24.757  1.00  0.00     0.061 A 
ATOM     78  C   UNL A   1      31.360  25.450  26.065  1.00  0.00     0.019 A 
ATOM     79  C   UNL A   1      30.958  24.567  23.840  1.00  0.00     0.040 A 
ATOM     80  C   UNL A   1      31.847  24.202  26.454  1.00  0.00     0.049 A 
ATOM     81  C   UNL A   1      31.558  23.363  24.201  1.00  0.00     0.083 A 
ATOM     82  C   UNL A   1      31.924  23.148  25.531  1.00  0.00     0.137 A 
ATOM     83  Cl  UNL A   1      31.933  22.241  22.942  1.00  0.00    -0.080 Cl
BRANCH  82  84
ATOM     84  O   UNL A   1      32.472  21.997  25.993  1.00  0.00    -0.492 OA
BRANCH  84  85
ATOM     85  C   UNL A   1      33.683  22.031  26.759  1.00  0.00     0.233 C 
BRANCH  85  86
ATOM     86  C   UNL A   1      35.096  21.949  26.145  1.00  0.00     0.030 C 
ATOM     87  C   UNL A   1      35.034  21.480  24.664  1.00  0.00     0.011 C 
ATOM     88  C   UNL A   1      35.995  23.203  26.044  1.00  0.00    -0.004 C 
ATOM     89  C   UNL A   1      35.924  22.502  23.937  1.00  0.00    -0.010 C 
ATOM     90  C   UNL A   1      35.265  24.348  25.339  1.00  0.00     0.004 C 
ATOM     91  C   UNL A   1      37.005  22.769  24.976  1.00  0.00     0.007 C 
ATOM     92  C   UNL A   1      35.196  23.858  23.886  1.00  0.00     0.004 C 
ENDBRANCH  85  86
ENDBRANCH  84  85
ENDBRANCH  82  84
ENDBRANCH  75  77
ENDBRANCH  74  75
ENDBRANCH  73  74
ENDBRANCH   1  73
TORSDOF 17
ENDMDL
MODEL 3
REMARK VINA RESULT:     -10.9      2.058      7.796
REMARK SMILES O=C(OCCOCCOC(=O)c1ccc(OC[C@H]2C[C@H]3CC[C@@H]2C3)c(Cl)c1)c1ccc(-c2c3nc(c(-c4c(F)c(F)c(F)c(F)c4F)c4ccc([nH]4)c(-c4c(F)c(F)c(F)c(F)c4F)c4nc(c(-c5c(F)c(F)c(F)c(F)c5F)c5ccc2[nH]5)C=C4)C=C3)cc1
REMARK SMILES IDX 7 1 6 2 5 3 4 4 3 5 2 6 1 7 28 8 29 9 90 10 30 11 89 12
REMARK SMILES IDX 31 13 32 14 33 15 83 16 34 17 88 18 82 19 84 20 35 21 87 22
REMARK SMILES IDX 81 23 80 24 36 26 68 27 48 28 67 29 49 30 52 31 66 32 85 33
REMARK SMILES IDX 50 34 51 35 65 37 86 38 53 39 37 40 38 41 46 42 39 43 40 44
REMARK SMILES IDX 44 45 47 46 41 47 42 48 45 49 43 50 69 51 70 52 78 53 71 54
REMARK SMILES IDX 72 55 76 56 79 57 73 58 74 59 77 60 75 61 54 62 55 63 63 64
REMARK SMILES IDX 56 65 57 66 61 67 64 68 58 69 59 70 62 71 60 72 8 73 9 74
REMARK SMILES IDX 10 75 11 76 12 77 13 78 27 79 14 80 25 81 15 82 26 83 16 84
REMARK SMILES IDX 17 85 18 86 19 87 23 88 20 89 22 90 24 91 21 92
REMARK H PARENT 84 25 52 36
REMARK Flexibility Score: inf
ROOT
ATOM      1  C   UNL A   1      30.551  28.000  22.732  1.00  0.00     0.202 C 
ENDROOT
BRANCH   1   2
ATOM      2  O   UNL A   1      30.470  29.058  23.699  1.00  0.00    -0.374 OA
BRANCH   2   3
ATOM      3  C   UNL A   1      31.440  29.009  24.748  1.00  0.00     0.202 C 
BRANCH   3   4
ATOM      4  C   UNL A   1      31.575  30.279  25.586  1.00  0.00     0.261 C 
BRANCH   4   5
ATOM      5  O   UNL A   1      32.949  30.496  25.932  1.00  0.00    -0.460 OA
BRANCH   5   6
ATOM      6  C   UNL A   1      33.441  31.254  26.937  1.00  0.00     0.338 C 
ATOM      7  O   UNL A   1      32.868  32.304  27.221  1.00  0.00    -0.246 OA
BRANCH   6   8
ATOM      8  C   UNL A   1      34.643  30.878  27.736  1.00  0.00     0.060 A 
ATOM      9  C   UNL A   1      34.967  29.580  28.138  1.00  0.00     0.016 A 
ATOM     10  C   UNL A   1      35.562  31.905  28.011  1.00  0.00     0.016 A 
ATOM     11  C   UNL A   1      36.127  29.311  28.855  1.00  0.00     0.010 A 
ATOM     12  C   UNL A   1      36.753  31.636  28.688  1.00  0.00     0.010 A 
ATOM     13  C   UNL A   1      37.027  30.337  29.127  1.00  0.00    -0.014 A 
BRANCH  13  14
ATOM     14  C   UNL A   1      38.217  30.037  29.940  1.00  0.00     0.031 A 
ATOM     15  C   UNL A   1      39.301  29.202  29.339  1.00  0.00     0.074 A 
ATOM     16  C   UNL A   1      38.343  30.587  31.160  1.00  0.00     0.049 A 
ATOM     17  N   UNL A   1      40.400  28.755  29.882  1.00  0.00    -0.248 NA
ATOM     18  C   UNL A   1      39.127  28.828  27.926  1.00  0.00     0.031 C 
ATOM     19  C   UNL A   1      37.378  31.500  31.774  1.00  0.00     0.029 A 
ATOM     20  N   UNL A   1      39.339  30.475  32.090  1.00  0.00    -0.354 N 
ATOM     21  C   UNL A   1      41.036  28.026  28.888  1.00  0.00     0.074 A 
ATOM     22  C   UNL A   1      40.204  28.089  27.708  1.00  0.00     0.031 C 
ATOM     23  C   UNL A   1      37.840  31.879  32.976  1.00  0.00     0.029 A 
ATOM     24  C   UNL A   1      39.096  31.186  33.239  1.00  0.00     0.049 A 
ATOM     25  H   UNL A   1      40.153  29.938  31.950  1.00  0.00     0.167 HD
ATOM     26  C   UNL A   1      42.208  27.356  28.969  1.00  0.00     0.037 A 
ATOM     27  C   UNL A   1      39.803  31.237  34.384  1.00  0.00     0.037 A 
ATOM     28  C   UNL A   1      43.009  27.304  30.161  1.00  0.00     0.049 A 
ATOM     29  C   UNL A   1      41.064  30.422  34.474  1.00  0.00     0.074 A 
ATOM     30  C   UNL A   1      44.175  26.602  30.396  1.00  0.00     0.029 A 
ATOM     31  N   UNL A   1      42.711  27.996  31.329  1.00  0.00    -0.354 N 
ATOM     32  N   UNL A   1      41.630  29.672  33.558  1.00  0.00    -0.248 NA
ATOM     33  C   UNL A   1      41.776  30.443  35.757  1.00  0.00     0.031 C 
ATOM     34  C   UNL A   1      44.565  26.842  31.719  1.00  0.00     0.029 A 
ATOM     35  C   UNL A   1      43.666  27.729  32.294  1.00  0.00     0.049 A 
ATOM     36  H   UNL A   1      41.936  28.591  31.451  1.00  0.00     0.167 HD
ATOM     37  C   UNL A   1      42.768  29.140  34.144  1.00  0.00     0.074 A 
ATOM     38  C   UNL A   1      42.822  29.671  35.494  1.00  0.00     0.031 C 
ATOM     39  C   UNL A   1      43.683  28.286  33.624  1.00  0.00     0.037 A 
BRANCH  26  40
ATOM     40  C   UNL A   1      42.628  26.578  27.758  1.00  0.00     0.064 A 
ATOM     41  C   UNL A   1      42.313  25.220  27.602  1.00  0.00     0.173 A 
ATOM     42  C   UNL A   1      43.408  27.190  26.764  1.00  0.00     0.173 A 
ATOM     43  F   UNL A   1      41.596  24.583  28.541  1.00  0.00    -0.203 F 
ATOM     44  C   UNL A   1      42.790  24.495  26.513  1.00  0.00     0.198 A 
ATOM     45  C   UNL A   1      43.864  26.467  25.665  1.00  0.00     0.198 A 
ATOM     46  F   UNL A   1      43.745  28.483  26.871  1.00  0.00    -0.203 F 
ATOM     47  F   UNL A   1      42.530  23.183  26.417  1.00  0.00    -0.200 F 
ATOM     48  C   UNL A   1      43.564  25.119  25.546  1.00  0.00     0.200 A 
ATOM     49  F   UNL A   1      44.612  27.071  24.731  1.00  0.00    -0.200 F 
ATOM     50  F   UNL A   1      44.037  24.415  24.507  1.00  0.00    -0.200 F 
ENDBRANCH  26  40
BRANCH  27  51
ATOM     51  C   UNL A   1      39.312  32.051  35.526  1.00  0.00     0.064 A 
ATOM     52  C   UNL A   1      39.667  33.399  35.663  1.00  0.00     0.173 A 
ATOM     53  C   UNL A   1      38.462  31.501  36.498  1.00  0.00     0.173 A 
ATOM     54  F   UNL A   1      40.494  33.967  34.773  1.00  0.00    -0.203 F 
ATOM     55  C   UNL A   1      39.197  34.164  36.731  1.00  0.00     0.198 A 
ATOM     56  C   UNL A   1      37.969  32.273  37.549  1.00  0.00     0.198 A 
ATOM     57  F   UNL A   1      38.092  30.214  36.418  1.00  0.00    -0.203 F 
ATOM     58  F   UNL A   1      39.580  35.442  36.857  1.00  0.00    -0.200 F 
ATOM     59  C   UNL A   1      38.341  33.603  37.668  1.00  0.00     0.200 A 
ATOM     60  F   UNL A   1      37.134  31.729  38.444  1.00  0.00    -0.200 F 
ATOM     61  F   UNL A   1      37.883  34.341  38.687  1.00  0.00    -0.200 F 
ENDBRANCH  27  51
BRANCH  39  62
ATOM     62  C   UNL A   1      44.825  27.897  34.511  1.00  0.00     0.064 A 
ATOM     63  C   UNL A   1      44.764  26.754  35.319  1.00  0.00     0.173 A 
ATOM     64  C   UNL A   1      46.011  28.644  34.505  1.00  0.00     0.173 A 
ATOM     65  F   UNL A   1      43.644  26.018  35.366  1.00  0.00    -0.203 F 
ATOM     66  C   UNL A   1      45.850  26.380  36.105  1.00  0.00     0.198 A 
ATOM     67  C   UNL A   1      47.102  28.255  35.273  1.00  0.00     0.198 A 
ATOM     68  F   UNL A   1      46.114  29.743  33.741  1.00  0.00    -0.203 F 
ATOM     69  F   UNL A   1      45.762  25.303  36.898  1.00  0.00    -0.200 F 
ATOM     70  C   UNL A   1      47.020  27.127  36.076  1.00  0.00     0.200 A 
ATOM     71  F   UNL A   1      48.235  28.970  35.235  1.00  0.00    -0.200 F 
ATOM     72  F   UNL A   1      48.068  26.759  36.825  1.00  0.00    -0.200 F 
ENDBRANCH  39  62
ENDBRANCH  13  14
ENDBRANCH   6   8
ENDBRANCH   5   6
ENDBRANCH   4   5
ENDBRANCH   3   4
ENDBRANCH   2   3
ENDBRANCH   1   2
BRANCH   1  73
ATOM     73  C   UNL A   1      31.631  26.994  23.151  1.00  0.00     0.261 C 
BRANCH  73  74
ATOM     74  O   UNL A   1      31.418  25.772  22.421  1.00  0.00    -0.460 OA
BRANCH  74  75
ATOM     75  C   UNL A   1      32.540  25.235  21.880  1.00  0.00     0.338 C 
ATOM     76  O   UNL A   1      33.298  25.742  21.071  1.00  0.00    -0.246 OA
BRANCH  75  77
ATOM     77  C   UNL A   1      32.870  24.053  22.696  1.00  0.00     0.061 A 
ATOM     78  C   UNL A   1      31.954  23.024  22.916  1.00  0.00     0.019 A 
ATOM     79  C   UNL A   1      34.077  24.097  23.401  1.00  0.00     0.040 A 
ATOM     80  C   UNL A   1      32.272  22.021  23.832  1.00  0.00     0.049 A 
ATOM     81  C   UNL A   1      34.330  23.162  24.400  1.00  0.00     0.083 A 
ATOM     82  C   UNL A   1      33.471  22.073  24.557  1.00  0.00     0.137 A 
ATOM     83  Cl  UNL A   1      35.641  23.473  25.481  1.00  0.00    -0.080 Cl
BRANCH  82  84
ATOM     84  O   UNL A   1      33.654  21.085  25.467  1.00  0.00    -0.492 OA
BRANCH  84  85
ATOM     85  C   UNL A   1      34.602  20.039  25.217  1.00  0.00     0.233 C 
BRANCH  85  86
ATOM     86  C   UNL A   1      34.389  18.907  24.190  1.00  0.00     0.030 C 
ATOM     87  C   UNL A   1      35.238  17.657  24.555  1.00  0.00     0.011 C 
ATOM     88  C   UNL A   1      32.990  18.288  23.966  1.00  0.00    -0.004 C 
ATOM     89  C   UNL A   1      34.222  16.505  24.456  1.00  0.00    -0.010 C 
ATOM     90  C   UNL A   1      32.379  17.816  25.288  1.00  0.00     0.004 C 
ATOM     91  C   UNL A   1      33.349  16.959  23.293  1.00  0.00     0.007 C 
ATOM     92  C   UNL A   1      33.241  16.597  25.640  1.00  0.00     0.004 C 
ENDBRANCH  85  86
ENDBRANCH  84  85
ENDBRANCH  82  84
ENDBRANCH  75  77
ENDBRANCH  74  75
ENDBRANCH  73  74
ENDBRANCH   1  73
TORSDOF 17
ENDMDL
