MODEL 1
REMARK VINA RESULT:     -11.5      0.000      0.000
REMARK SMILES Cc1ccccc1C[C@H](CCSc1ccccc1)C(=O)OCCOCCOC(=O)c1ccc(-c2c3nc(c(-c4c(F)c(F)c(F)c(F)c4F)c4ccc([nH]4)c(-c4c(F)c(F)c(F)c(F)c4F)c4nc(c(-c5c(F)c(F)c(F)c(F)c5F)c5ccc2[nH]5)C=C4)C=C3)cc1
REMARK SMILES IDX 23 1 22 2 21 3 19 4 20 5 9 6 8 7 7 8 1 9 2 10 3 11 4 12 6 13
REMARK SMILES IDX 5 14 10 15 11 16 12 17 13 18 14 19 18 20 15 21 17 22 16 23
REMARK SMILES IDX 24 24 25 25 26 26 27 27 28 28 29 29 30 30 31 31 92 32 32 33
REMARK SMILES IDX 91 34 33 35 34 36 35 37 85 38 36 39 90 40 84 41 86 42 37 43
REMARK SMILES IDX 89 44 83 45 82 46 38 48 70 49 50 50 69 51 51 52 54 53 68 54
REMARK SMILES IDX 87 55 52 56 53 57 67 59 88 60 55 61 39 62 40 63 48 64 41 65
REMARK SMILES IDX 42 66 46 67 49 68 43 69 44 70 47 71 45 72 71 73 72 74 80 75
REMARK SMILES IDX 73 76 74 77 78 78 81 79 75 80 76 81 79 82 77 83 56 84 57 85
REMARK SMILES IDX 65 86 58 87 59 88 63 89 66 90 60 91 61 92 64 93 62 94
REMARK H PARENT 86 47 54 58
REMARK Flexibility Score: inf
ROOT
ATOM      1  C   UNL A   1      31.907  28.493  27.443  1.00  0.00     0.202 C 
ENDROOT
BRANCH   1   2
ATOM      2  C   UNL A   1      31.927  27.486  26.319  1.00  0.00     0.261 C 
BRANCH   2   3
ATOM      3  O   UNL A   1      31.219  27.954  25.160  1.00  0.00    -0.463 OA
BRANCH   3   4
ATOM      4  C   UNL A   1      30.997  26.979  24.240  1.00  0.00     0.309 C 
ATOM      5  O   UNL A   1      30.214  27.044  23.304  1.00  0.00    -0.252 OA
BRANCH   4   6
ATOM      6  C   UNL A   1      31.846  25.762  24.460  1.00  0.00     0.104 C 
BRANCH   6   7
ATOM      7  C   UNL A   1      33.108  25.711  23.606  1.00  0.00     0.051 C 
BRANCH   7   8
ATOM      8  C   UNL A   1      34.127  24.656  23.977  1.00  0.00    -0.044 A 
ATOM      9  C   UNL A   1      33.442  22.954  22.163  1.00  0.00     0.044 C 
ATOM     10  C   UNL A   1      34.419  23.599  23.096  1.00  0.00    -0.048 A 
ATOM     11  C   UNL A   1      35.671  23.007  23.156  1.00  0.00     0.004 A 
ATOM     12  C   UNL A   1      36.491  23.264  24.232  1.00  0.00     0.000 A 
ATOM     13  C   UNL A   1      34.942  24.810  25.112  1.00  0.00     0.004 A 
ATOM     14  C   UNL A   1      36.098  24.078  25.271  1.00  0.00     0.000 A 
ENDBRANCH   7   8
ENDBRANCH   6   7
BRANCH   6  15
ATOM     15  C   UNL A   1      31.015  24.487  24.417  1.00  0.00     0.027 C 
BRANCH  15  16
ATOM     16  C   UNL A   1      30.594  24.000  25.812  1.00  0.00     0.076 C 
BRANCH  16  17
ATOM     17  S   UNL A   1      31.936  23.305  26.888  1.00  0.00    -0.126 SA
BRANCH  17  18
ATOM     18  C   UNL A   1      32.663  21.943  25.964  1.00  0.00     0.007 A 
ATOM     19  C   UNL A   1      33.951  21.490  26.295  1.00  0.00     0.015 A 
ATOM     20  C   UNL A   1      31.943  21.229  25.001  1.00  0.00     0.015 A 
ATOM     21  C   UNL A   1      34.553  20.436  25.601  1.00  0.00     0.001 A 
ATOM     22  C   UNL A   1      32.526  20.132  24.344  1.00  0.00     0.001 A 
ATOM     23  C   UNL A   1      33.840  19.757  24.621  1.00  0.00     0.000 A 
ENDBRANCH  17  18
ENDBRANCH  16  17
ENDBRANCH  15  16
ENDBRANCH   6  15
ENDBRANCH   4   6
ENDBRANCH   3   4
ENDBRANCH   2   3
ENDBRANCH   1   2
BRANCH   1  24
ATOM     24  O   UNL A   1      32.966  29.398  27.172  1.00  0.00    -0.374 OA
BRANCH  24  25
ATOM     25  C   UNL A   1      32.661  30.773  27.251  1.00  0.00     0.202 C 
BRANCH  25  26
ATOM     26  C   UNL A   1      33.908  31.593  27.581  1.00  0.00     0.261 C 
BRANCH  26  27
ATOM     27  O   UNL A   1      35.068  30.733  27.477  1.00  0.00    -0.460 OA
BRANCH  27  28
ATOM     28  C   UNL A   1      36.133  31.084  28.242  1.00  0.00     0.338 C 
ATOM     29  O   UNL A   1      36.453  32.245  28.512  1.00  0.00    -0.246 OA
BRANCH  28  30
ATOM     30  C   UNL A   1      37.036  29.916  28.470  1.00  0.00     0.060 A 
ATOM     31  C   UNL A   1      37.043  29.254  29.714  1.00  0.00     0.016 A 
ATOM     32  C   UNL A   1      38.083  29.698  27.580  1.00  0.00     0.016 A 
ATOM     33  C   UNL A   1      38.167  28.513  30.126  1.00  0.00     0.010 A 
ATOM     34  C   UNL A   1      39.227  29.066  28.036  1.00  0.00     0.010 A 
ATOM     35  C   UNL A   1      39.305  28.495  29.322  1.00  0.00    -0.014 A 
BRANCH  35  36
ATOM     36  C   UNL A   1      40.647  27.983  29.680  1.00  0.00     0.031 A 
ATOM     37  C   UNL A   1      41.053  26.686  29.045  1.00  0.00     0.074 A 
ATOM     38  C   UNL A   1      41.582  28.752  30.297  1.00  0.00     0.049 A 
ATOM     39  N   UNL A   1      42.235  26.177  29.033  1.00  0.00    -0.248 NA
ATOM     40  C   UNL A   1      40.099  25.854  28.318  1.00  0.00     0.031 C 
ATOM     41  C   UNL A   1      43.027  28.526  30.303  1.00  0.00     0.029 A 
ATOM     42  N   UNL A   1      41.467  29.935  31.053  1.00  0.00    -0.354 N 
ATOM     43  C   UNL A   1      42.259  25.070  28.210  1.00  0.00     0.074 A 
ATOM     44  C   UNL A   1      40.899  24.941  27.759  1.00  0.00     0.031 C 
ATOM     45  C   UNL A   1      43.653  29.404  31.098  1.00  0.00     0.029 A 
ATOM     46  C   UNL A   1      42.613  30.000  31.885  1.00  0.00     0.049 A 
ATOM     47  H   UNL A   1      40.732  30.589  31.012  1.00  0.00     0.167 HD
ATOM     48  C   UNL A   1      43.448  24.423  28.013  1.00  0.00     0.037 A 
ATOM     49  C   UNL A   1      42.513  29.821  33.231  1.00  0.00     0.037 A 
ATOM     50  C   UNL A   1      44.419  24.790  29.077  1.00  0.00     0.049 A 
ATOM     51  C   UNL A   1      43.228  28.524  33.606  1.00  0.00     0.074 A 
ATOM     52  C   UNL A   1      45.753  25.138  29.128  1.00  0.00     0.029 A 
ATOM     53  N   UNL A   1      43.968  24.923  30.410  1.00  0.00    -0.354 N 
ATOM     54  N   UNL A   1      43.284  27.441  32.853  1.00  0.00    -0.248 NA
ATOM     55  C   UNL A   1      44.159  28.476  34.729  1.00  0.00     0.031 C 
ATOM     56  C   UNL A   1      46.056  25.614  30.438  1.00  0.00     0.029 A 
ATOM     57  C   UNL A   1      44.926  25.481  31.231  1.00  0.00     0.049 A 
ATOM     58  H   UNL A   1      43.074  24.650  30.717  1.00  0.00     0.167 HD
ATOM     59  C   UNL A   1      44.304  26.630  33.304  1.00  0.00     0.074 A 
ATOM     60  C   UNL A   1      44.800  27.320  34.489  1.00  0.00     0.031 C 
ATOM     61  C   UNL A   1      44.802  25.509  32.684  1.00  0.00     0.037 A 
BRANCH  48  62
ATOM     62  C   UNL A   1      43.787  23.519  26.801  1.00  0.00     0.064 A 
ATOM     63  C   UNL A   1      43.240  22.217  26.660  1.00  0.00     0.173 A 
ATOM     64  C   UNL A   1      44.709  23.823  25.774  1.00  0.00     0.173 A 
ATOM     65  F   UNL A   1      42.287  21.754  27.471  1.00  0.00    -0.203 F 
ATOM     66  C   UNL A   1      43.623  21.310  25.657  1.00  0.00     0.198 A 
ATOM     67  C   UNL A   1      45.066  22.934  24.747  1.00  0.00     0.198 A 
ATOM     68  F   UNL A   1      45.323  25.000  25.683  1.00  0.00    -0.203 F 
ATOM     69  F   UNL A   1      43.089  20.081  25.635  1.00  0.00    -0.200 F 
ATOM     70  C   UNL A   1      44.537  21.669  24.696  1.00  0.00     0.200 A 
ATOM     71  F   UNL A   1      45.937  23.328  23.806  1.00  0.00    -0.200 F 
ATOM     72  F   UNL A   1      44.890  20.815  23.727  1.00  0.00    -0.200 F 
ENDBRANCH  48  62
BRANCH  49  73
ATOM     73  C   UNL A   1      41.281  30.508  33.737  1.00  0.00     0.064 A 
ATOM     74  C   UNL A   1      41.347  31.929  33.728  1.00  0.00     0.173 A 
ATOM     75  C   UNL A   1      40.011  29.938  33.578  1.00  0.00     0.173 A 
ATOM     76  F   UNL A   1      42.532  32.541  33.902  1.00  0.00    -0.203 F 
ATOM     77  C   UNL A   1      40.270  32.705  33.300  1.00  0.00     0.198 A 
ATOM     78  C   UNL A   1      38.919  30.732  33.199  1.00  0.00     0.198 A 
ATOM     79  F   UNL A   1      39.859  28.608  33.621  1.00  0.00    -0.203 F 
ATOM     80  F   UNL A   1      40.446  34.011  33.041  1.00  0.00    -0.200 F 
ATOM     81  C   UNL A   1      39.070  32.096  32.986  1.00  0.00     0.200 A 
ATOM     82  F   UNL A   1      37.743  30.155  32.907  1.00  0.00    -0.200 F 
ATOM     83  F   UNL A   1      38.092  32.805  32.401  1.00  0.00    -0.200 F 
ENDBRANCH  49  73
BRANCH  61  84
ATOM     84  C   UNL A   1      45.435  24.329  33.414  1.00  0.00     0.064 A 
ATOM     85  C   UNL A   1      46.704  24.375  34.005  1.00  0.00     0.173 A 
ATOM     86  C   UNL A   1      44.682  23.156  33.716  1.00  0.00     0.173 A 
ATOM     87  F   UNL A   1      47.469  25.472  33.950  1.00  0.00    -0.203 F 
ATOM     88  C   UNL A   1      47.214  23.310  34.751  1.00  0.00     0.198 A 
ATOM     89  C   UNL A   1      45.183  22.110  34.481  1.00  0.00     0.198 A 
ATOM     90  F   UNL A   1      43.404  22.996  33.351  1.00  0.00    -0.203 F 
ATOM     91  F   UNL A   1      48.443  23.406  35.273  1.00  0.00    -0.200 F 
ATOM     92  C   UNL A   1      46.455  22.181  34.989  1.00  0.00     0.200 A 
ATOM     93  F   UNL A   1      44.400  21.054  34.751  1.00  0.00    -0.200 F 
ATOM     94  F   UNL A   1      46.936  21.184  35.742  1.00  0.00    -0.200 F 
ENDBRANCH  61  84
ENDBRANCH  35  36
ENDBRANCH  28  30
ENDBRANCH  27  28
ENDBRANCH  26  27
ENDBRANCH  25  26
ENDBRANCH  24  25
ENDBRANCH   1  24
TORSDOF 20
ENDMDL
MODEL 2
REMARK VINA RESULT:     -11.2      0.934      2.147
REMARK SMILES Cc1ccccc1C[C@H](CCSc1ccccc1)C(=O)OCCOCCOC(=O)c1ccc(-c2c3nc(c(-c4c(F)c(F)c(F)c(F)c4F)c4ccc([nH]4)c(-c4c(F)c(F)c(F)c(F)c4F)c4nc(c(-c5c(F)c(F)c(F)c(F)c5F)c5ccc2[nH]5)C=C4)C=C3)cc1
REMARK SMILES IDX 23 1 22 2 21 3 19 4 20 5 9 6 8 7 7 8 1 9 2 10 3 11 4 12 6 13
REMARK SMILES IDX 5 14 10 15 11 16 12 17 13 18 14 19 18 20 15 21 17 22 16 23
REMARK SMILES IDX 24 24 25 25 26 26 27 27 28 28 29 29 30 30 31 31 92 32 32 33
REMARK SMILES IDX 91 34 33 35 34 36 35 37 85 38 36 39 90 40 84 41 86 42 37 43
REMARK SMILES IDX 89 44 83 45 82 46 38 48 70 49 50 50 69 51 51 52 54 53 68 54
REMARK SMILES IDX 87 55 52 56 53 57 67 59 88 60 55 61 39 62 40 63 48 64 41 65
REMARK SMILES IDX 42 66 46 67 49 68 43 69 44 70 47 71 45 72 71 73 72 74 80 75
REMARK SMILES IDX 73 76 74 77 78 78 81 79 75 80 76 81 79 82 77 83 56 84 57 85
REMARK SMILES IDX 65 86 58 87 59 88 63 89 66 90 60 91 61 92 64 93 62 94
REMARK H PARENT 86 47 54 58
REMARK Flexibility Score: inf
ROOT
ATOM      1  C   UNL A   1      32.008  28.813  27.256  1.00  0.00     0.202 C 
ENDROOT
BRANCH   1   2
ATOM      2  C   UNL A   1      31.258  27.835  26.385  1.00  0.00     0.261 C 
BRANCH   2   3
ATOM      3  O   UNL A   1      31.320  26.495  26.897  1.00  0.00    -0.463 OA
BRANCH   3   4
ATOM      4  C   UNL A   1      30.570  25.615  26.184  1.00  0.00     0.309 C 
ATOM      5  O   UNL A   1      29.370  25.424  26.317  1.00  0.00    -0.252 OA
BRANCH   4   6
ATOM      6  C   UNL A   1      31.366  24.869  25.154  1.00  0.00     0.104 C 
BRANCH   6   7
ATOM      7  C   UNL A   1      31.094  23.369  25.113  1.00  0.00     0.051 C 
BRANCH   7   8
ATOM      8  C   UNL A   1      31.988  22.501  25.972  1.00  0.00    -0.044 A 
ATOM      9  C   UNL A   1      32.336  20.637  24.222  1.00  0.00     0.044 C 
ATOM     10  C   UNL A   1      32.748  21.466  25.400  1.00  0.00    -0.048 A 
ATOM     11  C   UNL A   1      33.923  21.078  26.024  1.00  0.00     0.004 A 
ATOM     12  C   UNL A   1      34.182  21.505  27.307  1.00  0.00     0.000 A 
ATOM     13  C   UNL A   1      32.229  22.829  27.317  1.00  0.00     0.004 A 
ATOM     14  C   UNL A   1      33.295  22.292  28.007  1.00  0.00     0.000 A 
ENDBRANCH   7   8
ENDBRANCH   6   7
BRANCH   6  15
ATOM     15  C   UNL A   1      32.843  25.231  25.220  1.00  0.00     0.027 C 
BRANCH  15  16
ATOM     16  C   UNL A   1      33.464  25.467  23.834  1.00  0.00     0.076 C 
BRANCH  16  17
ATOM     17  S   UNL A   1      34.224  23.994  23.003  1.00  0.00    -0.126 SA
BRANCH  17  18
ATOM     18  C   UNL A   1      35.611  23.497  24.037  1.00  0.00     0.007 A 
ATOM     19  C   UNL A   1      35.858  24.179  25.241  1.00  0.00     0.015 A 
ATOM     20  C   UNL A   1      36.387  22.370  23.749  1.00  0.00     0.015 A 
ATOM     21  C   UNL A   1      36.926  23.825  26.071  1.00  0.00     0.001 A 
ATOM     22  C   UNL A   1      37.423  21.979  24.615  1.00  0.00     0.001 A 
ATOM     23  C   UNL A   1      37.712  22.724  25.756  1.00  0.00     0.000 A 
ENDBRANCH  17  18
ENDBRANCH  16  17
ENDBRANCH  15  16
ENDBRANCH   6  15
ENDBRANCH   4   6
ENDBRANCH   3   4
ENDBRANCH   2   3
ENDBRANCH   1   2
BRANCH   1  24
ATOM     24  O   UNL A   1      31.879  30.075  26.622  1.00  0.00    -0.374 OA
BRANCH  24  25
ATOM     25  C   UNL A   1      32.952  30.978  26.782  1.00  0.00     0.202 C 
BRANCH  25  26
ATOM     26  C   UNL A   1      34.158  30.289  27.420  1.00  0.00     0.261 C 
BRANCH  26  27
ATOM     27  O   UNL A   1      35.268  31.219  27.437  1.00  0.00    -0.460 OA
BRANCH  27  28
ATOM     28  C   UNL A   1      35.975  31.273  28.595  1.00  0.00     0.338 C 
ATOM     29  O   UNL A   1      36.029  32.256  29.340  1.00  0.00    -0.246 OA
BRANCH  28  30
ATOM     30  C   UNL A   1      36.909  30.113  28.705  1.00  0.00     0.060 A 
ATOM     31  C   UNL A   1      36.886  29.288  29.849  1.00  0.00     0.016 A 
ATOM     32  C   UNL A   1      38.001  30.050  27.846  1.00  0.00     0.016 A 
ATOM     33  C   UNL A   1      38.018  28.532  30.209  1.00  0.00     0.010 A 
ATOM     34  C   UNL A   1      39.146  29.397  28.266  1.00  0.00     0.010 A 
ATOM     35  C   UNL A   1      39.189  28.658  29.465  1.00  0.00    -0.014 A 
BRANCH  35  36
ATOM     36  C   UNL A   1      40.533  28.143  29.815  1.00  0.00     0.031 A 
ATOM     37  C   UNL A   1      40.920  26.832  29.200  1.00  0.00     0.074 A 
ATOM     38  C   UNL A   1      41.481  28.917  30.404  1.00  0.00     0.049 A 
ATOM     39  N   UNL A   1      42.098  26.313  29.181  1.00  0.00    -0.248 NA
ATOM     40  C   UNL A   1      39.951  25.993  28.502  1.00  0.00     0.031 C 
ATOM     41  C   UNL A   1      42.924  28.681  30.395  1.00  0.00     0.029 A 
ATOM     42  N   UNL A   1      41.385  30.115  31.139  1.00  0.00    -0.354 N 
ATOM     43  C   UNL A   1      42.103  25.192  28.379  1.00  0.00     0.074 A 
ATOM     44  C   UNL A   1      40.736  25.064  27.949  1.00  0.00     0.031 C 
ATOM     45  C   UNL A   1      43.568  29.569  31.164  1.00  0.00     0.029 A 
ATOM     46  C   UNL A   1      42.543  30.187  31.953  1.00  0.00     0.049 A 
ATOM     47  H   UNL A   1      40.655  30.774  31.096  1.00  0.00     0.167 HD
ATOM     48  C   UNL A   1      43.285  24.531  28.178  1.00  0.00     0.037 A 
ATOM     49  C   UNL A   1      42.461  30.035  33.304  1.00  0.00     0.037 A 
ATOM     50  C   UNL A   1      44.273  24.911  29.222  1.00  0.00     0.049 A 
ATOM     51  C   UNL A   1      43.172  28.740  33.694  1.00  0.00     0.074 A 
ATOM     52  C   UNL A   1      45.610  25.251  29.247  1.00  0.00     0.029 A 
ATOM     53  N   UNL A   1      43.841  25.074  30.558  1.00  0.00    -0.354 N 
ATOM     54  N   UNL A   1      43.210  27.643  32.961  1.00  0.00    -0.248 NA
ATOM     55  C   UNL A   1      44.118  28.707  34.804  1.00  0.00     0.031 C 
ATOM     56  C   UNL A   1      45.934  25.749  30.543  1.00  0.00     0.029 A 
ATOM     57  C   UNL A   1      44.814  25.640  31.354  1.00  0.00     0.049 A 
ATOM     58  H   UNL A   1      42.950  24.813  30.883  1.00  0.00     0.167 HD
ATOM     59  C   UNL A   1      44.229  26.833  33.414  1.00  0.00     0.074 A 
ATOM     60  C   UNL A   1      44.747  27.542  34.578  1.00  0.00     0.031 C 
ATOM     61  C   UNL A   1      44.711  25.697  32.808  1.00  0.00     0.037 A 
BRANCH  48  62
ATOM     62  C   UNL A   1      43.600  23.603  26.979  1.00  0.00     0.064 A 
ATOM     63  C   UNL A   1      43.029  22.309  26.862  1.00  0.00     0.173 A 
ATOM     64  C   UNL A   1      44.522  23.873  25.942  1.00  0.00     0.173 A 
ATOM     65  F   UNL A   1      42.072  21.876  27.686  1.00  0.00    -0.203 F 
ATOM     66  C   UNL A   1      43.390  21.379  25.872  1.00  0.00     0.198 A 
ATOM     67  C   UNL A   1      44.856  22.961  24.928  1.00  0.00     0.198 A 
ATOM     68  F   UNL A   1      45.156  25.037  25.829  1.00  0.00    -0.203 F 
ATOM     69  F   UNL A   1      42.834  20.159  25.873  1.00  0.00    -0.200 F 
ATOM     70  C   UNL A   1      44.304  21.705  24.901  1.00  0.00     0.200 A 
ATOM     71  F   UNL A   1      45.729  23.324  23.976  1.00  0.00    -0.200 F 
ATOM     72  F   UNL A   1      44.637  20.830  23.944  1.00  0.00    -0.200 F 
ENDBRANCH  48  62
BRANCH  49  73
ATOM     73  C   UNL A   1      41.241  30.741  33.813  1.00  0.00     0.064 A 
ATOM     74  C   UNL A   1      41.341  32.159  33.835  1.00  0.00     0.173 A 
ATOM     75  C   UNL A   1      39.960  30.205  33.631  1.00  0.00     0.173 A 
ATOM     76  F   UNL A   1      42.538  32.739  34.033  1.00  0.00    -0.203 F 
ATOM     77  C   UNL A   1      40.287  32.970  33.415  1.00  0.00     0.198 A 
ATOM     78  C   UNL A   1      38.890  31.033  33.259  1.00  0.00     0.198 A 
ATOM     79  F   UNL A   1      39.775  28.879  33.644  1.00  0.00    -0.203 F 
ATOM     80  F   UNL A   1      40.496  34.277  33.185  1.00  0.00    -0.200 F 
ATOM     81  C   UNL A   1      39.076  32.397  33.078  1.00  0.00     0.200 A 
ATOM     82  F   UNL A   1      37.704  30.491  32.945  1.00  0.00    -0.200 F 
ATOM     83  F   UNL A   1      38.120  33.142  32.499  1.00  0.00    -0.200 F 
ENDBRANCH  49  73
BRANCH  61  84
ATOM     84  C   UNL A   1      45.345  24.526  33.552  1.00  0.00     0.064 A 
ATOM     85  C   UNL A   1      44.692  23.307  33.776  1.00  0.00     0.173 A 
ATOM     86  C   UNL A   1      46.730  24.529  33.894  1.00  0.00     0.173 A 
ATOM     87  F   UNL A   1      43.437  23.092  33.364  1.00  0.00    -0.203 F 
ATOM     88  C   UNL A   1      45.334  22.220  34.374  1.00  0.00     0.198 A 
ATOM     89  C   UNL A   1      47.372  23.436  34.464  1.00  0.00     0.198 A 
ATOM     90  F   UNL A   1      47.545  25.557  33.627  1.00  0.00    -0.203 F 
ATOM     91  F   UNL A   1      44.649  21.089  34.581  1.00  0.00    -0.200 F 
ATOM     92  C   UNL A   1      46.671  22.284  34.716  1.00  0.00     0.200 A 
ATOM     93  F   UNL A   1      48.686  23.504  34.725  1.00  0.00    -0.200 F 
ATOM     94  F   UNL A   1      47.289  21.223  35.247  1.00  0.00    -0.200 F 
ENDBRANCH  61  84
ENDBRANCH  35  36
ENDBRANCH  28  30
ENDBRANCH  27  28
ENDBRANCH  26  27
ENDBRANCH  25  26
ENDBRANCH  24  25
ENDBRANCH   1  24
TORSDOF 20
ENDMDL
MODEL 3
REMARK VINA RESULT:     -11.1      4.019     10.156
REMARK SMILES Cc1ccccc1C[C@H](CCSc1ccccc1)C(=O)OCCOCCOC(=O)c1ccc(-c2c3nc(c(-c4c(F)c(F)c(F)c(F)c4F)c4ccc([nH]4)c(-c4c(F)c(F)c(F)c(F)c4F)c4nc(c(-c5c(F)c(F)c(F)c(F)c5F)c5ccc2[nH]5)C=C4)C=C3)cc1
REMARK SMILES IDX 23 1 22 2 21 3 19 4 20 5 9 6 8 7 7 8 1 9 2 10 3 11 4 12 6 13
REMARK SMILES IDX 5 14 10 15 11 16 12 17 13 18 14 19 18 20 15 21 17 22 16 23
REMARK SMILES IDX 24 24 25 25 26 26 27 27 28 28 29 29 30 30 31 31 92 32 32 33
REMARK SMILES IDX 91 34 33 35 34 36 35 37 85 38 36 39 90 40 84 41 86 42 37 43
REMARK SMILES IDX 89 44 83 45 82 46 38 48 70 49 50 50 69 51 51 52 54 53 68 54
REMARK SMILES IDX 87 55 52 56 53 57 67 59 88 60 55 61 39 62 40 63 48 64 41 65
REMARK SMILES IDX 42 66 46 67 49 68 43 69 44 70 47 71 45 72 71 73 72 74 80 75
REMARK SMILES IDX 73 76 74 77 78 78 81 79 75 80 76 81 79 82 77 83 56 84 57 85
REMARK SMILES IDX 65 86 58 87 59 88 63 89 66 90 60 91 61 92 64 93 62 94
REMARK H PARENT 86 47 54 58
REMARK Flexibility Score: inf
ROOT
ATOM      1  C   UNL A   1      35.464  21.663  25.609  1.00  0.00     0.202 C 
ENDROOT
BRANCH   1   2
ATOM      2  C   UNL A   1      34.096  22.147  26.021  1.00  0.00     0.261 C 
BRANCH   2   3
ATOM      3  O   UNL A   1      34.026  23.579  26.090  1.00  0.00    -0.463 OA
BRANCH   3   4
ATOM      4  C   UNL A   1      32.754  24.055  26.059  1.00  0.00     0.309 C 
ATOM      5  O   UNL A   1      31.855  23.745  26.827  1.00  0.00    -0.252 OA
BRANCH   4   6
ATOM      6  C   UNL A   1      32.530  25.056  24.964  1.00  0.00     0.104 C 
BRANCH   6   7
ATOM      7  C   UNL A   1      33.719  25.971  24.695  1.00  0.00     0.051 C 
BRANCH   7   8
ATOM      8  C   UNL A   1      33.620  27.379  25.244  1.00  0.00    -0.044 A 
ATOM      9  C   UNL A   1      33.942  28.584  22.985  1.00  0.00     0.044 C 
ATOM     10  C   UNL A   1      33.417  28.471  24.383  1.00  0.00    -0.048 A 
ATOM     11  C   UNL A   1      32.783  29.601  24.877  1.00  0.00     0.004 A 
ATOM     12  C   UNL A   1      32.617  29.744  26.236  1.00  0.00     0.000 A 
ATOM     13  C   UNL A   1      33.533  27.606  26.628  1.00  0.00     0.004 A 
ATOM     14  C   UNL A   1      33.082  28.807  27.132  1.00  0.00     0.000 A 
ENDBRANCH   7   8
ENDBRANCH   6   7
BRANCH   6  15
ATOM     15  C   UNL A   1      31.208  25.790  25.140  1.00  0.00     0.027 C 
BRANCH  15  16
ATOM     16  C   UNL A   1      30.317  25.727  23.889  1.00  0.00     0.076 C 
BRANCH  16  17
ATOM     17  S   UNL A   1      28.654  26.538  24.013  1.00  0.00    -0.126 SA
BRANCH  17  18
ATOM     18  C   UNL A   1      28.802  28.114  23.158  1.00  0.00     0.007 A 
ATOM     19  C   UNL A   1      30.046  28.506  22.635  1.00  0.00     0.015 A 
ATOM     20  C   UNL A   1      27.691  28.917  22.881  1.00  0.00     0.015 A 
ATOM     21  C   UNL A   1      30.204  29.723  21.966  1.00  0.00     0.001 A 
ATOM     22  C   UNL A   1      27.840  30.112  22.157  1.00  0.00     0.001 A 
ATOM     23  C   UNL A   1      29.098  30.530  21.728  1.00  0.00     0.000 A 
ENDBRANCH  17  18
ENDBRANCH  16  17
ENDBRANCH  15  16
ENDBRANCH   6  15
ENDBRANCH   4   6
ENDBRANCH   3   4
ENDBRANCH   2   3
ENDBRANCH   1   2
BRANCH   1  24
ATOM     24  O   UNL A   1      36.240  22.831  25.394  1.00  0.00    -0.374 OA
BRANCH  24  25
ATOM     25  C   UNL A   1      37.564  22.640  24.945  1.00  0.00     0.202 C 
BRANCH  25  26
ATOM     26  C   UNL A   1      38.503  22.348  26.115  1.00  0.00     0.261 C 
BRANCH  26  27
ATOM     27  O   UNL A   1      39.681  23.179  25.982  1.00  0.00    -0.460 OA
BRANCH  27  28
ATOM     28  C   UNL A   1      40.222  23.627  27.145  1.00  0.00     0.338 C 
ATOM     29  O   UNL A   1      40.679  22.901  28.033  1.00  0.00    -0.246 OA
BRANCH  28  30
ATOM     30  C   UNL A   1      39.928  25.078  27.347  1.00  0.00     0.060 A 
ATOM     31  C   UNL A   1      40.432  26.037  26.445  1.00  0.00     0.016 A 
ATOM     32  C   UNL A   1      39.447  25.495  28.583  1.00  0.00     0.016 A 
ATOM     33  C   UNL A   1      40.601  27.376  26.845  1.00  0.00     0.010 A 
ATOM     34  C   UNL A   1      39.721  26.784  29.007  1.00  0.00     0.010 A 
ATOM     35  C   UNL A   1      40.331  27.735  28.164  1.00  0.00    -0.014 A 
BRANCH  35  36
ATOM     36  C   UNL A   1      40.666  29.013  28.832  1.00  0.00     0.031 A 
ATOM     37  C   UNL A   1      39.536  29.982  29.012  1.00  0.00     0.074 A 
ATOM     38  C   UNL A   1      41.829  29.201  29.509  1.00  0.00     0.049 A 
ATOM     39  N   UNL A   1      39.543  31.037  29.749  1.00  0.00    -0.248 NA
ATOM     40  C   UNL A   1      38.246  29.792  28.355  1.00  0.00     0.031 C 
ATOM     41  C   UNL A   1      42.080  30.205  30.543  1.00  0.00     0.029 A 
ATOM     42  N   UNL A   1      43.064  28.527  29.450  1.00  0.00    -0.354 N 
ATOM     43  C   UNL A   1      38.276  31.580  29.801  1.00  0.00     0.074 A 
ATOM     44  C   UNL A   1      37.498  30.732  28.938  1.00  0.00     0.031 C 
ATOM     45  C   UNL A   1      43.363  30.198  30.927  1.00  0.00     0.029 A 
ATOM     46  C   UNL A   1      44.046  29.431  29.925  1.00  0.00     0.049 A 
ATOM     47  H   UNL A   1      43.215  27.605  29.138  1.00  0.00     0.167 HD
ATOM     48  C   UNL A   1      38.061  32.676  30.591  1.00  0.00     0.037 A 
ATOM     49  C   UNL A   1      44.965  29.975  29.082  1.00  0.00     0.037 A 
ATOM     50  C   UNL A   1      39.351  33.338  30.919  1.00  0.00     0.049 A 
ATOM     51  C   UNL A   1      44.701  31.476  28.973  1.00  0.00     0.074 A 
ATOM     52  C   UNL A   1      39.936  33.870  32.049  1.00  0.00     0.029 A 
ATOM     53  N   UNL A   1      40.347  33.444  29.922  1.00  0.00    -0.354 N 
ATOM     54  N   UNL A   1      43.511  32.045  29.021  1.00  0.00    -0.248 NA
ATOM     55  C   UNL A   1      45.789  32.442  29.090  1.00  0.00     0.031 C 
ATOM     56  C   UNL A   1      41.306  34.151  31.770  1.00  0.00     0.029 A 
ATOM     57  C   UNL A   1      41.554  33.873  30.434  1.00  0.00     0.049 A 
ATOM     58  H   UNL A   1      40.198  33.237  28.971  1.00  0.00     0.167 HD
ATOM     59  C   UNL A   1      43.663  33.390  29.283  1.00  0.00     0.074 A 
ATOM     60  C   UNL A   1      45.108  33.581  29.295  1.00  0.00     0.031 C 
ATOM     61  C   UNL A   1      42.669  34.288  29.590  1.00  0.00     0.037 A 
BRANCH  48  62
ATOM     62  C   UNL A   1      36.689  33.116  31.162  1.00  0.00     0.064 A 
ATOM     63  C   UNL A   1      35.697  33.720  30.347  1.00  0.00     0.173 A 
ATOM     64  C   UNL A   1      36.300  33.057  32.519  1.00  0.00     0.173 A 
ATOM     65  F   UNL A   1      35.819  33.803  29.020  1.00  0.00    -0.203 F 
ATOM     66  C   UNL A   1      34.497  34.260  30.843  1.00  0.00     0.198 A 
ATOM     67  C   UNL A   1      35.085  33.561  33.013  1.00  0.00     0.198 A 
ATOM     68  F   UNL A   1      37.058  32.502  33.461  1.00  0.00    -0.203 F 
ATOM     69  F   UNL A   1      33.643  34.859  30.001  1.00  0.00    -0.200 F 
ATOM     70  C   UNL A   1      34.189  34.179  32.178  1.00  0.00     0.200 A 
ATOM     71  F   UNL A   1      34.802  33.436  34.318  1.00  0.00    -0.200 F 
ATOM     72  F   UNL A   1      33.039  34.675  32.652  1.00  0.00    -0.200 F 
ENDBRANCH  48  62
BRANCH  49  73
ATOM     73  C   UNL A   1      45.432  28.933  28.111  1.00  0.00     0.064 A 
ATOM     74  C   UNL A   1      46.303  27.955  28.664  1.00  0.00     0.173 A 
ATOM     75  C   UNL A   1      44.629  28.524  27.039  1.00  0.00     0.173 A 
ATOM     76  F   UNL A   1      47.122  28.288  29.677  1.00  0.00    -0.203 F 
ATOM     77  C   UNL A   1      46.166  26.601  28.358  1.00  0.00     0.198 A 
ATOM     78  C   UNL A   1      44.534  27.166  26.701  1.00  0.00     0.198 A 
ATOM     79  F   UNL A   1      43.814  29.398  26.434  1.00  0.00    -0.203 F 
ATOM     80  F   UNL A   1      46.810  25.678  29.091  1.00  0.00    -0.200 F 
ATOM     81  C   UNL A   1      45.242  26.204  27.410  1.00  0.00     0.200 A 
ATOM     82  F   UNL A   1      43.652  26.769  25.771  1.00  0.00    -0.200 F 
ATOM     83  F   UNL A   1      44.971  24.900  27.243  1.00  0.00    -0.200 F 
ENDBRANCH  49  73
BRANCH  61  84
ATOM     84  C   UNL A   1      42.726  35.778  29.274  1.00  0.00     0.064 A 
ATOM     85  C   UNL A   1      43.508  36.692  29.994  1.00  0.00     0.173 A 
ATOM     86  C   UNL A   1      42.136  36.307  28.089  1.00  0.00     0.173 A 
ATOM     87  F   UNL A   1      44.254  36.314  31.038  1.00  0.00    -0.203 F 
ATOM     88  C   UNL A   1      43.615  38.034  29.619  1.00  0.00     0.198 A 
ATOM     89  C   UNL A   1      42.267  37.637  27.704  1.00  0.00     0.198 A 
ATOM     90  F   UNL A   1      41.468  35.553  27.208  1.00  0.00    -0.203 F 
ATOM     91  F   UNL A   1      44.361  38.862  30.360  1.00  0.00    -0.200 F 
ATOM     92  C   UNL A   1      42.997  38.504  28.476  1.00  0.00     0.200 A 
ATOM     93  F   UNL A   1      41.711  38.051  26.556  1.00  0.00    -0.200 F 
ATOM     94  F   UNL A   1      43.143  39.780  28.101  1.00  0.00    -0.200 F 
ENDBRANCH  61  84
ENDBRANCH  35  36
ENDBRANCH  28  30
ENDBRANCH  27  28
ENDBRANCH  26  27
ENDBRANCH  25  26
ENDBRANCH  24  25
ENDBRANCH   1  24
TORSDOF 20
ENDMDL
