MODEL 1
REMARK VINA RESULT:     -11.0      0.000      0.000
REMARK SMILES C[NH+]1CCN(c2nc3c(cc2F)c(=O)c(C(=O)OCCOCCOC(=O)c2ccc(-c4c5nc(c(-c6c(F)c(F)c(F)c(F)c6F)c6ccc([nH]6)c(-c6c(F)c(F)c(F)c(F)c6F)c6nc(c(-c7c(F)c(F)c(F)c(F)c7F)c7ccc4[nH]7)C=C6)C=C5)cc2)cn3-c2ccc(F)cc2F)CC1
REMARK SMILES IDX 22 1 21 2 20 3 19 4 18 5 16 6 17 7 15 8 6 9 7 10 11 11 8 12
REMARK SMILES IDX 10 13 12 14 9 15 91 16 13 17 90 18 14 19 5 20 1 21 2 22 3 23
REMARK SMILES IDX 101 24 4 26 100 27 92 28 93 29 98 30 94 31 97 32 99 33 95 34
REMARK SMILES IDX 96 35 23 36 24 37 25 38 26 39 27 40 28 41 89 42 29 43 88 44
REMARK SMILES IDX 30 45 31 46 32 47 82 48 33 49 87 50 81 51 83 52 34 53 86 54
REMARK SMILES IDX 80 55 79 56 35 58 67 59 47 60 66 61 48 62 51 63 65 64 84 65
REMARK SMILES IDX 49 66 50 67 64 69 85 70 52 71 36 72 37 73 45 74 38 75 39 76
REMARK SMILES IDX 43 77 46 78 40 79 41 80 44 81 42 82 68 83 69 84 77 85 70 86
REMARK SMILES IDX 71 87 75 88 78 89 72 90 73 91 76 92 74 93 53 94 54 95 62 96
REMARK SMILES IDX 55 97 56 98 60 99 63 100 57 101 58 102 61 103 59 104
REMARK H PARENT 2 25 83 57 51 68
REMARK Flexibility Score: inf
ROOT
ATOM      1  C   UNL A   1      34.452  34.105  28.017  1.00  0.00     0.202 C 
ENDROOT
BRANCH   1   2
ATOM      2  O   UNL A   1      34.089  35.295  28.722  1.00  0.00    -0.374 OA
BRANCH   2   3
ATOM      3  C   UNL A   1      33.080  35.167  29.723  1.00  0.00     0.202 C 
BRANCH   3   4
ATOM      4  C   UNL A   1      33.462  35.716  31.097  1.00  0.00     0.261 C 
BRANCH   4   5
ATOM      5  O   UNL A   1      34.642  35.055  31.576  1.00  0.00    -0.459 OA
BRANCH   5   6
ATOM      6  C   UNL A   1      34.951  35.264  32.873  1.00  0.00     0.343 C 
ATOM      7  O   UNL A   1      34.467  36.123  33.598  1.00  0.00    -0.246 OA
BRANCH   6   8
ATOM      8  C   UNL A   1      35.872  34.228  33.371  1.00  0.00     0.124 A 
ATOM      9  C   UNL A   1      39.149  30.468  34.211  1.00  0.00     0.167 A 
ATOM     10  N   UNL A   1      39.018  31.720  34.712  1.00  0.00    -0.209 NA
ATOM     11  C   UNL A   1      38.164  29.912  33.383  1.00  0.00     0.166 A 
ATOM     12  C   UNL A   1      37.950  32.475  34.329  1.00  0.00     0.151 A 
ATOM     13  C   UNL A   1      37.044  30.640  33.039  1.00  0.00     0.059 A 
ATOM     14  F   UNL A   1      38.288  28.660  32.913  1.00  0.00    -0.203 F 
ATOM     15  C   UNL A   1      36.948  31.950  33.497  1.00  0.00     0.069 A 
ATOM     16  N   UNL A   1      37.849  33.843  34.744  1.00  0.00    -0.297 N 
ATOM     17  C   UNL A   1      35.816  32.790  33.048  1.00  0.00     0.205 A 
ATOM     18  C   UNL A   1      36.842  34.630  34.204  1.00  0.00     0.113 A 
ATOM     19  O   UNL A   1      34.906  32.287  32.399  1.00  0.00    -0.288 OA
BRANCH   9  20
ATOM     20  N   UNL A   1      40.276  29.735  34.505  1.00  0.00    -0.343 N 
ATOM     21  C   UNL A   1      42.878  26.574  35.461  1.00  0.00     0.332 C 
ATOM     22  N   UNL A   1      42.448  27.919  35.078  1.00  0.00    -0.334 N 
ATOM     23  C   UNL A   1      41.610  28.523  36.149  1.00  0.00     0.283 C 
ATOM     24  C   UNL A   1      41.685  27.857  33.808  1.00  0.00     0.283 C 
ATOM     25  H   UNL A   1      43.273  28.505  34.948  1.00  0.00     0.347 HD
ATOM     26  C   UNL A   1      40.995  29.898  35.763  1.00  0.00     0.179 C 
ATOM     27  C   UNL A   1      41.082  29.215  33.400  1.00  0.00     0.179 C 
ENDBRANCH   9  20
BRANCH  16  28
ATOM     28  C   UNL A   1      38.840  34.475  35.548  1.00  0.00     0.083 A 
ATOM     29  C   UNL A   1      39.759  35.363  34.965  1.00  0.00     0.033 A 
ATOM     30  C   UNL A   1      38.872  34.296  36.942  1.00  0.00     0.150 A 
ATOM     31  C   UNL A   1      40.671  36.057  35.762  1.00  0.00     0.041 A 
ATOM     32  C   UNL A   1      39.790  34.973  37.739  1.00  0.00     0.080 A 
ATOM     33  F   UNL A   1      37.998  33.464  37.529  1.00  0.00    -0.205 F 
ATOM     34  C   UNL A   1      40.677  35.854  37.138  1.00  0.00     0.126 A 
ATOM     35  F   UNL A   1      41.551  36.529  37.896  1.00  0.00    -0.207 F 
ENDBRANCH  16  28
ENDBRANCH   6   8
ENDBRANCH   5   6
ENDBRANCH   4   5
ENDBRANCH   3   4
ENDBRANCH   2   3
ENDBRANCH   1   2
BRANCH   1  36
ATOM     36  C   UNL A   1      35.350  33.130  28.786  1.00  0.00     0.261 C 
BRANCH  36  37
ATOM     37  O   UNL A   1      34.615  31.960  29.196  1.00  0.00    -0.460 OA
BRANCH  37  38
ATOM     38  C   UNL A   1      34.634  30.928  28.326  1.00  0.00     0.338 C 
ATOM     39  O   UNL A   1      33.788  30.643  27.486  1.00  0.00    -0.246 OA
BRANCH  38  40
ATOM     40  C   UNL A   1      35.938  30.250  28.386  1.00  0.00     0.060 A 
ATOM     41  C   UNL A   1      36.323  29.687  29.609  1.00  0.00     0.016 A 
ATOM     42  C   UNL A   1      36.809  30.242  27.294  1.00  0.00     0.016 A 
ATOM     43  C   UNL A   1      37.597  29.147  29.759  1.00  0.00     0.010 A 
ATOM     44  C   UNL A   1      38.097  29.718  27.451  1.00  0.00     0.010 A 
ATOM     45  C   UNL A   1      38.506  29.201  28.694  1.00  0.00    -0.014 A 
BRANCH  45  46
ATOM     46  C   UNL A   1      39.927  28.864  28.943  1.00  0.00     0.031 A 
ATOM     47  C   UNL A   1      40.787  29.853  29.679  1.00  0.00     0.074 A 
ATOM     48  C   UNL A   1      40.433  27.678  28.559  1.00  0.00     0.049 A 
ATOM     49  N   UNL A   1      42.046  29.764  30.022  1.00  0.00    -0.248 NA
ATOM     50  C   UNL A   1      40.140  31.111  30.090  1.00  0.00     0.031 C 
ATOM     51  C   UNL A   1      39.688  26.627  27.870  1.00  0.00     0.029 A 
ATOM     52  N   UNL A   1      41.697  27.163  28.697  1.00  0.00    -0.354 N 
ATOM     53  C   UNL A   1      42.338  30.944  30.693  1.00  0.00     0.074 A 
ATOM     54  C   UNL A   1      41.137  31.748  30.687  1.00  0.00     0.031 C 
ATOM     55  C   UNL A   1      40.515  25.595  27.630  1.00  0.00     0.029 A 
ATOM     56  C   UNL A   1      41.850  25.921  28.131  1.00  0.00     0.049 A 
ATOM     57  H   UNL A   1      42.427  27.639  29.156  1.00  0.00     0.167 HD
ATOM     58  C   UNL A   1      43.502  31.313  31.273  1.00  0.00     0.037 A 
ATOM     59  C   UNL A   1      42.947  25.147  28.019  1.00  0.00     0.037 A 
ATOM     60  C   UNL A   1      44.697  30.513  31.281  1.00  0.00     0.049 A 
ATOM     61  C   UNL A   1      44.250  25.618  28.613  1.00  0.00     0.074 A 
ATOM     62  C   UNL A   1      45.917  30.795  31.869  1.00  0.00     0.029 A 
ATOM     63  N   UNL A   1      44.823  29.277  30.666  1.00  0.00    -0.354 N 
ATOM     64  N   UNL A   1      44.505  26.715  29.285  1.00  0.00    -0.248 NA
ATOM     65  C   UNL A   1      45.419  24.742  28.437  1.00  0.00     0.031 C 
ATOM     66  C   UNL A   1      46.797  29.753  31.569  1.00  0.00     0.029 A 
ATOM     67  C   UNL A   1      46.111  28.798  30.836  1.00  0.00     0.049 A 
ATOM     68  H   UNL A   1      44.104  28.811  30.181  1.00  0.00     0.167 HD
ATOM     69  C   UNL A   1      45.849  26.649  29.630  1.00  0.00     0.074 A 
ATOM     70  C   UNL A   1      46.356  25.399  29.107  1.00  0.00     0.031 C 
ATOM     71  C   UNL A   1      46.597  27.546  30.318  1.00  0.00     0.037 A 
BRANCH  58  72
ATOM     72  C   UNL A   1      43.559  32.647  31.954  1.00  0.00     0.064 A 
ATOM     73  C   UNL A   1      43.681  33.835  31.219  1.00  0.00     0.173 A 
ATOM     74  C   UNL A   1      43.382  32.744  33.342  1.00  0.00     0.173 A 
ATOM     75  F   UNL A   1      43.862  33.791  29.890  1.00  0.00    -0.203 F 
ATOM     76  C   UNL A   1      43.621  35.074  31.850  1.00  0.00     0.198 A 
ATOM     77  C   UNL A   1      43.302  33.985  33.967  1.00  0.00     0.198 A 
ATOM     78  F   UNL A   1      43.256  31.635  34.085  1.00  0.00    -0.203 F 
ATOM     79  F   UNL A   1      43.752  36.199  31.133  1.00  0.00    -0.200 F 
ATOM     80  C   UNL A   1      43.421  35.148  33.221  1.00  0.00     0.200 A 
ATOM     81  F   UNL A   1      43.094  34.055  35.289  1.00  0.00    -0.200 F 
ATOM     82  F   UNL A   1      43.337  36.342  33.824  1.00  0.00    -0.200 F 
ENDBRANCH  58  72
BRANCH  59  83
ATOM     83  C   UNL A   1      42.870  23.848  27.303  1.00  0.00     0.064 A 
ATOM     84  C   UNL A   1      42.466  22.679  27.962  1.00  0.00     0.173 A 
ATOM     85  C   UNL A   1      43.227  23.744  25.950  1.00  0.00     0.173 A 
ATOM     86  F   UNL A   1      42.142  22.721  29.263  1.00  0.00    -0.203 F 
ATOM     87  C   UNL A   1      42.439  21.452  27.301  1.00  0.00     0.198 A 
ATOM     88  C   UNL A   1      43.173  22.522  25.282  1.00  0.00     0.198 A 
ATOM     89  F   UNL A   1      43.626  24.831  25.275  1.00  0.00    -0.203 F 
ATOM     90  F   UNL A   1      42.096  20.342  27.968  1.00  0.00    -0.200 F 
ATOM     91  C   UNL A   1      42.788  21.375  25.960  1.00  0.00     0.200 A 
ATOM     92  F   UNL A   1      43.503  22.454  23.986  1.00  0.00    -0.200 F 
ATOM     93  F   UNL A   1      42.763  20.196  25.326  1.00  0.00    -0.200 F 
ENDBRANCH  59  83
BRANCH  71  94
ATOM     94  C   UNL A   1      48.037  27.213  30.568  1.00  0.00     0.064 A 
ATOM     95  C   UNL A   1      48.428  26.450  31.678  1.00  0.00     0.173 A 
ATOM     96  C   UNL A   1      49.026  27.584  29.643  1.00  0.00     0.173 A 
ATOM     97  F   UNL A   1      47.523  26.080  32.596  1.00  0.00    -0.203 F 
ATOM     98  C   UNL A   1      49.759  26.078  31.858  1.00  0.00     0.198 A 
ATOM     99  C   UNL A   1      50.349  27.187  29.811  1.00  0.00     0.198 A 
ATOM    100  F   UNL A   1      48.701  28.305  28.560  1.00  0.00    -0.203 F 
ATOM    101  F   UNL A   1      50.115  25.373  32.939  1.00  0.00    -0.200 F 
ATOM    102  C   UNL A   1      50.716  26.438  30.919  1.00  0.00     0.200 A 
ATOM    103  F   UNL A   1      51.269  27.521  28.895  1.00  0.00    -0.200 F 
ATOM    104  F   UNL A   1      51.991  26.062  31.083  1.00  0.00    -0.200 F 
ENDBRANCH  71  94
ENDBRANCH  45  46
ENDBRANCH  38  40
ENDBRANCH  37  38
ENDBRANCH  36  37
ENDBRANCH   1  36
TORSDOF 16
ENDMDL
MODEL 2
REMARK VINA RESULT:     -10.7      4.882     11.674
REMARK SMILES C[NH+]1CCN(c2nc3c(cc2F)c(=O)c(C(=O)OCCOCCOC(=O)c2ccc(-c4c5nc(c(-c6c(F)c(F)c(F)c(F)c6F)c6ccc([nH]6)c(-c6c(F)c(F)c(F)c(F)c6F)c6nc(c(-c7c(F)c(F)c(F)c(F)c7F)c7ccc4[nH]7)C=C6)C=C5)cc2)cn3-c2ccc(F)cc2F)CC1
REMARK SMILES IDX 22 1 21 2 20 3 19 4 18 5 16 6 17 7 15 8 6 9 7 10 11 11 8 12
REMARK SMILES IDX 10 13 12 14 9 15 91 16 13 17 90 18 14 19 5 20 1 21 2 22 3 23
REMARK SMILES IDX 101 24 4 26 100 27 92 28 93 29 98 30 94 31 97 32 99 33 95 34
REMARK SMILES IDX 96 35 23 36 24 37 25 38 26 39 27 40 28 41 89 42 29 43 88 44
REMARK SMILES IDX 30 45 31 46 32 47 82 48 33 49 87 50 81 51 83 52 34 53 86 54
REMARK SMILES IDX 80 55 79 56 35 58 67 59 47 60 66 61 48 62 51 63 65 64 84 65
REMARK SMILES IDX 49 66 50 67 64 69 85 70 52 71 36 72 37 73 45 74 38 75 39 76
REMARK SMILES IDX 43 77 46 78 40 79 41 80 44 81 42 82 68 83 69 84 77 85 70 86
REMARK SMILES IDX 71 87 75 88 78 89 72 90 73 91 76 92 74 93 53 94 54 95 62 96
REMARK SMILES IDX 55 97 56 98 60 99 63 100 57 101 58 102 61 103 59 104
REMARK H PARENT 2 25 83 57 51 68
REMARK Flexibility Score: inf
ROOT
ATOM      1  C   UNL A   1      44.436  18.567  25.620  1.00  0.00     0.202 C 
ENDROOT
BRANCH   1   2
ATOM      2  O   UNL A   1      44.669  19.643  24.707  1.00  0.00    -0.374 OA
BRANCH   2   3
ATOM      3  C   UNL A   1      45.863  20.401  24.899  1.00  0.00     0.202 C 
BRANCH   3   4
ATOM      4  C   UNL A   1      45.716  21.609  25.824  1.00  0.00     0.261 C 
BRANCH   4   5
ATOM      5  O   UNL A   1      46.513  22.698  25.335  1.00  0.00    -0.459 OA
BRANCH   5   6
ATOM      6  C   UNL A   1      45.899  23.539  24.475  1.00  0.00     0.343 C 
ATOM      7  O   UNL A   1      45.063  23.227  23.637  1.00  0.00    -0.246 OA
BRANCH   6   8
ATOM      8  C   UNL A   1      46.266  24.938  24.751  1.00  0.00     0.124 A 
ATOM      9  C   UNL A   1      47.157  29.597  26.510  1.00  0.00     0.167 A 
ATOM     10  N   UNL A   1      47.902  28.704  25.814  1.00  0.00    -0.209 NA
ATOM     11  C   UNL A   1      45.792  29.376  26.740  1.00  0.00     0.166 A 
ATOM     12  C   UNL A   1      47.326  27.536  25.410  1.00  0.00     0.151 A 
ATOM     13  C   UNL A   1      45.178  28.229  26.281  1.00  0.00     0.059 A 
ATOM     14  F   UNL A   1      45.054  30.279  27.407  1.00  0.00    -0.203 F 
ATOM     15  C   UNL A   1      45.962  27.284  25.629  1.00  0.00     0.069 A 
ATOM     16  N   UNL A   1      48.119  26.521  24.781  1.00  0.00    -0.297 N 
ATOM     17  C   UNL A   1      45.355  25.994  25.231  1.00  0.00     0.205 A 
ATOM     18  C   UNL A   1      47.543  25.283  24.534  1.00  0.00     0.113 A 
ATOM     19  O   UNL A   1      44.145  25.831  25.347  1.00  0.00    -0.288 OA
BRANCH   9  20
ATOM     20  N   UNL A   1      47.754  30.729  27.014  1.00  0.00    -0.343 N 
ATOM     21  C   UNL A   1      49.180  33.692  29.634  1.00  0.00     0.332 C 
ATOM     22  N   UNL A   1      48.970  32.963  28.383  1.00  0.00    -0.334 N 
ATOM     23  C   UNL A   1      47.525  32.934  28.032  1.00  0.00     0.283 C 
ATOM     24  C   UNL A   1      49.489  31.581  28.518  1.00  0.00     0.283 C 
ATOM     25  H   UNL A   1      49.473  33.440  27.634  1.00  0.00     0.347 HD
ATOM     26  C   UNL A   1      47.199  32.059  26.789  1.00  0.00     0.179 C 
ATOM     27  C   UNL A   1      49.191  30.701  27.289  1.00  0.00     0.179 C 
ENDBRANCH   9  20
BRANCH  16  28
ATOM     28  C   UNL A   1      49.518  26.669  24.561  1.00  0.00     0.083 A 
ATOM     29  C   UNL A   1      50.437  26.128  25.475  1.00  0.00     0.033 A 
ATOM     30  C   UNL A   1      50.013  27.279  23.395  1.00  0.00     0.150 A 
ATOM     31  C   UNL A   1      51.807  26.186  25.215  1.00  0.00     0.041 A 
ATOM     32  C   UNL A   1      51.378  27.354  23.139  1.00  0.00     0.080 A 
ATOM     33  F   UNL A   1      49.159  27.794  22.496  1.00  0.00    -0.205 F 
ATOM     34  C   UNL A   1      52.262  26.799  24.053  1.00  0.00     0.126 A 
ATOM     35  F   UNL A   1      53.578  26.845  23.809  1.00  0.00    -0.207 F 
ENDBRANCH  16  28
ENDBRANCH   6   8
ENDBRANCH   5   6
ENDBRANCH   4   5
ENDBRANCH   3   4
ENDBRANCH   2   3
ENDBRANCH   1   2
BRANCH   1  36
ATOM     36  C   UNL A   1      42.978  18.367  26.048  1.00  0.00     0.261 C 
BRANCH  36  37
ATOM     37  O   UNL A   1      42.092  19.201  25.275  1.00  0.00    -0.460 OA
BRANCH  37  38
ATOM     38  C   UNL A   1      41.185  19.902  25.989  1.00  0.00     0.338 C 
ATOM     39  O   UNL A   1      40.053  19.554  26.305  1.00  0.00    -0.246 OA
BRANCH  38  40
ATOM     40  C   UNL A   1      41.807  21.123  26.523  1.00  0.00     0.060 A 
ATOM     41  C   UNL A   1      41.888  21.257  27.915  1.00  0.00     0.016 A 
ATOM     42  C   UNL A   1      42.220  22.159  25.683  1.00  0.00     0.016 A 
ATOM     43  C   UNL A   1      42.348  22.445  28.476  1.00  0.00     0.010 A 
ATOM     44  C   UNL A   1      42.663  23.362  26.248  1.00  0.00     0.010 A 
ATOM     45  C   UNL A   1      42.695  23.519  27.645  1.00  0.00    -0.014 A 
BRANCH  45  46
ATOM     46  C   UNL A   1      42.931  24.850  28.252  1.00  0.00     0.031 A 
ATOM     47  C   UNL A   1      44.320  25.202  28.706  1.00  0.00     0.074 A 
ATOM     48  C   UNL A   1      41.935  25.747  28.357  1.00  0.00     0.049 A 
ATOM     49  N   UNL A   1      44.761  26.309  29.247  1.00  0.00    -0.248 NA
ATOM     50  C   UNL A   1      45.355  24.170  28.522  1.00  0.00     0.031 C 
ATOM     51  C   UNL A   1      40.557  25.533  27.920  1.00  0.00     0.029 A 
ATOM     52  N   UNL A   1      41.934  27.021  28.867  1.00  0.00    -0.354 N 
ATOM     53  C   UNL A   1      46.119  26.111  29.457  1.00  0.00     0.074 A 
ATOM     54  C   UNL A   1      46.429  24.770  29.016  1.00  0.00     0.031 C 
ATOM     55  C   UNL A   1      39.838  26.634  28.196  1.00  0.00     0.029 A 
ATOM     56  C   UNL A   1      40.699  27.622  28.844  1.00  0.00     0.049 A 
ATOM     57  H   UNL A   1      42.741  27.463  29.217  1.00  0.00     0.167 HD
ATOM     58  C   UNL A   1      47.025  26.978  29.962  1.00  0.00     0.037 A 
ATOM     59  C   UNL A   1      40.310  28.825  29.310  1.00  0.00     0.037 A 
ATOM     60  C   UNL A   1      46.717  28.313  30.400  1.00  0.00     0.049 A 
ATOM     61  C   UNL A   1      41.331  29.743  29.934  1.00  0.00     0.074 A 
ATOM     62  C   UNL A   1      47.578  29.274  30.901  1.00  0.00     0.029 A 
ATOM     63  N   UNL A   1      45.449  28.872  30.396  1.00  0.00    -0.354 N 
ATOM     64  N   UNL A   1      42.620  29.565  30.088  1.00  0.00    -0.248 NA
ATOM     65  C   UNL A   1      40.842  31.033  30.447  1.00  0.00     0.031 C 
ATOM     66  C   UNL A   1      46.823  30.397  31.245  1.00  0.00     0.029 A 
ATOM     67  C   UNL A   1      45.500  30.155  30.914  1.00  0.00     0.049 A 
ATOM     68  H   UNL A   1      44.634  28.423  30.073  1.00  0.00     0.167 HD
ATOM     69  C   UNL A   1      43.098  30.722  30.690  1.00  0.00     0.074 A 
ATOM     70  C   UNL A   1      41.965  31.604  30.862  1.00  0.00     0.031 C 
ATOM     71  C   UNL A   1      44.364  31.025  31.068  1.00  0.00     0.037 A 
BRANCH  58  72
ATOM     72  C   UNL A   1      48.448  26.523  30.078  1.00  0.00     0.064 A 
ATOM     73  C   UNL A   1      49.422  26.937  29.158  1.00  0.00     0.173 A 
ATOM     74  C   UNL A   1      48.860  25.755  31.177  1.00  0.00     0.173 A 
ATOM     75  F   UNL A   1      49.072  27.663  28.086  1.00  0.00    -0.203 F 
ATOM     76  C   UNL A   1      50.760  26.599  29.336  1.00  0.00     0.198 A 
ATOM     77  C   UNL A   1      50.203  25.438  31.363  1.00  0.00     0.198 A 
ATOM     78  F   UNL A   1      47.965  25.341  32.085  1.00  0.00    -0.203 F 
ATOM     79  F   UNL A   1      51.676  26.994  28.440  1.00  0.00    -0.200 F 
ATOM     80  C   UNL A   1      51.151  25.860  30.444  1.00  0.00     0.200 A 
ATOM     81  F   UNL A   1      50.580  24.736  32.441  1.00  0.00    -0.200 F 
ATOM     82  F   UNL A   1      52.444  25.559  30.628  1.00  0.00    -0.200 F 
ENDBRANCH  58  72
BRANCH  59  83
ATOM     83  C   UNL A   1      38.885  29.233  29.218  1.00  0.00     0.064 A 
ATOM     84  C   UNL A   1      38.310  29.590  27.990  1.00  0.00     0.173 A 
ATOM     85  C   UNL A   1      38.075  29.300  30.361  1.00  0.00     0.173 A 
ATOM     86  F   UNL A   1      39.050  29.570  26.873  1.00  0.00    -0.203 F 
ATOM     87  C   UNL A   1      36.985  30.016  27.913  1.00  0.00     0.198 A 
ATOM     88  C   UNL A   1      36.743  29.700  30.280  1.00  0.00     0.198 A 
ATOM     89  F   UNL A   1      38.578  28.974  31.561  1.00  0.00    -0.203 F 
ATOM     90  F   UNL A   1      36.475  30.400  26.735  1.00  0.00    -0.200 F 
ATOM     91  C   UNL A   1      36.201  30.066  29.057  1.00  0.00     0.200 A 
ATOM     92  F   UNL A   1      35.987  29.739  31.385  1.00  0.00    -0.200 F 
ATOM     93  F   UNL A   1      34.928  30.478  28.982  1.00  0.00    -0.200 F 
ENDBRANCH  59  83
BRANCH  71  94
ATOM     94  C   UNL A   1      44.607  32.369  31.688  1.00  0.00     0.064 A 
ATOM     95  C   UNL A   1      44.765  33.519  30.900  1.00  0.00     0.173 A 
ATOM     96  C   UNL A   1      44.595  32.523  33.083  1.00  0.00     0.173 A 
ATOM     97  F   UNL A   1      44.795  33.422  29.563  1.00  0.00    -0.203 F 
ATOM     98  C   UNL A   1      44.911  34.773  31.488  1.00  0.00     0.198 A 
ATOM     99  C   UNL A   1      44.712  33.782  33.666  1.00  0.00     0.198 A 
ATOM    100  F   UNL A   1      44.437  31.455  33.879  1.00  0.00    -0.203 F 
ATOM    101  F   UNL A   1      45.087  35.855  30.718  1.00  0.00    -0.200 F 
ATOM    102  C   UNL A   1      44.874  34.905  32.869  1.00  0.00     0.200 A 
ATOM    103  F   UNL A   1      44.659  33.909  34.999  1.00  0.00    -0.200 F 
ATOM    104  F   UNL A   1      44.993  36.115  33.430  1.00  0.00    -0.200 F 
ENDBRANCH  71  94
ENDBRANCH  45  46
ENDBRANCH  38  40
ENDBRANCH  37  38
ENDBRANCH  36  37
ENDBRANCH   1  36
TORSDOF 16
ENDMDL
MODEL 3
REMARK VINA RESULT:     -10.4      5.804     12.838
REMARK SMILES C[NH+]1CCN(c2nc3c(cc2F)c(=O)c(C(=O)OCCOCCOC(=O)c2ccc(-c4c5nc(c(-c6c(F)c(F)c(F)c(F)c6F)c6ccc([nH]6)c(-c6c(F)c(F)c(F)c(F)c6F)c6nc(c(-c7c(F)c(F)c(F)c(F)c7F)c7ccc4[nH]7)C=C6)C=C5)cc2)cn3-c2ccc(F)cc2F)CC1
REMARK SMILES IDX 22 1 21 2 20 3 19 4 18 5 16 6 17 7 15 8 6 9 7 10 11 11 8 12
REMARK SMILES IDX 10 13 12 14 9 15 91 16 13 17 90 18 14 19 5 20 1 21 2 22 3 23
REMARK SMILES IDX 101 24 4 26 100 27 92 28 93 29 98 30 94 31 97 32 99 33 95 34
REMARK SMILES IDX 96 35 23 36 24 37 25 38 26 39 27 40 28 41 89 42 29 43 88 44
REMARK SMILES IDX 30 45 31 46 32 47 82 48 33 49 87 50 81 51 83 52 34 53 86 54
REMARK SMILES IDX 80 55 79 56 35 58 67 59 47 60 66 61 48 62 51 63 65 64 84 65
REMARK SMILES IDX 49 66 50 67 64 69 85 70 52 71 36 72 37 73 45 74 38 75 39 76
REMARK SMILES IDX 43 77 46 78 40 79 41 80 44 81 42 82 68 83 69 84 77 85 70 86
REMARK SMILES IDX 71 87 75 88 78 89 72 90 73 91 76 92 74 93 53 94 54 95 62 96
REMARK SMILES IDX 55 97 56 98 60 99 63 100 57 101 58 102 61 103 59 104
REMARK H PARENT 2 25 83 57 51 68
REMARK Flexibility Score: inf
ROOT
ATOM      1  C   UNL A   1      43.315  21.659  25.761  1.00  0.00     0.202 C 
ENDROOT
BRANCH   1   2
ATOM      2  O   UNL A   1      43.065  20.294  25.415  1.00  0.00    -0.374 OA
BRANCH   2   3
ATOM      3  C   UNL A   1      41.886  19.699  25.956  1.00  0.00     0.202 C 
BRANCH   3   4
ATOM      4  C   UNL A   1      40.914  20.680  26.611  1.00  0.00     0.261 C 
BRANCH   4   5
ATOM      5  O   UNL A   1      39.948  21.127  25.648  1.00  0.00    -0.459 OA
BRANCH   5   6
ATOM      6  C   UNL A   1      38.931  20.276  25.395  1.00  0.00     0.343 C 
ATOM      7  O   UNL A   1      39.023  19.063  25.266  1.00  0.00    -0.246 OA
BRANCH   6   8
ATOM      8  C   UNL A   1      37.637  20.979  25.420  1.00  0.00     0.124 A 
ATOM      9  C   UNL A   1      33.615  24.022  25.021  1.00  0.00     0.167 A 
ATOM     10  N   UNL A   1      33.791  22.685  24.888  1.00  0.00    -0.209 NA
ATOM     11  C   UNL A   1      34.645  24.842  25.503  1.00  0.00     0.166 A 
ATOM     12  C   UNL A   1      35.017  22.150  25.148  1.00  0.00     0.151 A 
ATOM     13  C   UNL A   1      35.873  24.306  25.834  1.00  0.00     0.059 A 
ATOM     14  F   UNL A   1      34.455  26.163  25.659  1.00  0.00    -0.203 F 
ATOM     15  C   UNL A   1      36.070  22.946  25.628  1.00  0.00     0.069 A 
ATOM     16  N   UNL A   1      35.265  20.761  24.898  1.00  0.00    -0.297 N 
ATOM     17  C   UNL A   1      37.412  22.368  25.863  1.00  0.00     0.205 A 
ATOM     18  C   UNL A   1      36.564  20.286  25.013  1.00  0.00     0.113 A 
ATOM     19  O   UNL A   1      38.290  23.057  26.369  1.00  0.00    -0.288 OA
BRANCH   9  20
ATOM     20  N   UNL A   1      32.414  24.587  24.660  1.00  0.00    -0.343 N 
ATOM     21  C   UNL A   1      29.466  27.332  23.454  1.00  0.00     0.332 C 
ATOM     22  N   UNL A   1      30.074  26.047  23.801  1.00  0.00    -0.334 N 
ATOM     23  C   UNL A   1      30.548  26.059  25.211  1.00  0.00     0.283 C 
ATOM     24  C   UNL A   1      31.206  25.767  22.886  1.00  0.00     0.283 C 
ATOM     25  H   UNL A   1      29.373  25.312  23.705  1.00  0.00     0.347 HD
ATOM     26  C   UNL A   1      31.333  24.780  25.619  1.00  0.00     0.179 C 
ATOM     27  C   UNL A   1      31.987  24.493  23.263  1.00  0.00     0.179 C 
ENDBRANCH   9  20
BRANCH  16  28
ATOM     28  C   UNL A   1      34.273  19.889  24.367  1.00  0.00     0.083 A 
ATOM     29  C   UNL A   1      33.090  20.415  23.823  1.00  0.00     0.033 A 
ATOM     30  C   UNL A   1      34.484  18.501  24.296  1.00  0.00     0.150 A 
ATOM     31  C   UNL A   1      32.158  19.573  23.215  1.00  0.00     0.041 A 
ATOM     32  C   UNL A   1      33.551  17.655  23.706  1.00  0.00     0.080 A 
ATOM     33  F   UNL A   1      35.612  17.970  24.795  1.00  0.00    -0.205 F 
ATOM     34  C   UNL A   1      32.398  18.203  23.165  1.00  0.00     0.126 A 
ATOM     35  F   UNL A   1      31.501  17.402  22.574  1.00  0.00    -0.207 F 
ENDBRANCH  16  28
ENDBRANCH   6   8
ENDBRANCH   5   6
ENDBRANCH   4   5
ENDBRANCH   3   4
ENDBRANCH   2   3
ENDBRANCH   1   2
BRANCH   1  36
ATOM     36  C   UNL A   1      43.920  22.522  24.648  1.00  0.00     0.261 C 
BRANCH  36  37
ATOM     37  O   UNL A   1      43.296  23.820  24.602  1.00  0.00    -0.460 OA
BRANCH  37  38
ATOM     38  C   UNL A   1      44.040  24.839  25.085  1.00  0.00     0.338 C 
ATOM     39  O   UNL A   1      45.166  25.174  24.734  1.00  0.00    -0.246 OA
BRANCH  38  40
ATOM     40  C   UNL A   1      43.233  25.651  26.008  1.00  0.00     0.060 A 
ATOM     41  C   UNL A   1      43.607  26.987  26.196  1.00  0.00     0.016 A 
ATOM     42  C   UNL A   1      42.186  25.095  26.746  1.00  0.00     0.016 A 
ATOM     43  C   UNL A   1      42.960  27.765  27.153  1.00  0.00     0.010 A 
ATOM     44  C   UNL A   1      41.550  25.871  27.722  1.00  0.00     0.010 A 
ATOM     45  C   UNL A   1      41.959  27.197  27.951  1.00  0.00    -0.014 A 
BRANCH  45  46
ATOM     46  C   UNL A   1      41.465  27.949  29.128  1.00  0.00     0.031 A 
ATOM     47  C   UNL A   1      42.204  27.821  30.431  1.00  0.00     0.074 A 
ATOM     48  C   UNL A   1      40.402  28.767  29.028  1.00  0.00     0.049 A 
ATOM     49  N   UNL A   1      41.963  28.396  31.581  1.00  0.00    -0.248 NA
ATOM     50  C   UNL A   1      43.376  26.929  30.439  1.00  0.00     0.031 C 
ATOM     51  C   UNL A   1      39.627  28.998  27.811  1.00  0.00     0.029 A 
ATOM     52  N   UNL A   1      39.792  29.554  29.973  1.00  0.00    -0.354 N 
ATOM     53  C   UNL A   1      42.955  27.945  32.442  1.00  0.00     0.074 A 
ATOM     54  C   UNL A   1      43.784  27.026  31.696  1.00  0.00     0.031 C 
ATOM     55  C   UNL A   1      38.632  29.859  28.087  1.00  0.00     0.029 A 
ATOM     56  C   UNL A   1      38.689  30.223  29.502  1.00  0.00     0.049 A 
ATOM     57  H   UNL A   1      40.113  29.630  30.900  1.00  0.00     0.167 HD
ATOM     58  C   UNL A   1      43.158  28.280  33.736  1.00  0.00     0.037 A 
ATOM     59  C   UNL A   1      37.819  31.024  30.148  1.00  0.00     0.037 A 
ATOM     60  C   UNL A   1      42.334  29.196  34.479  1.00  0.00     0.049 A 
ATOM     61  C   UNL A   1      38.031  31.322  31.611  1.00  0.00     0.074 A 
ATOM     62  C   UNL A   1      42.482  29.617  35.789  1.00  0.00     0.029 A 
ATOM     63  N   UNL A   1      41.205  29.825  33.979  1.00  0.00    -0.354 N 
ATOM     64  N   UNL A   1      38.996  30.927  32.404  1.00  0.00    -0.248 NA
ATOM     65  C   UNL A   1      37.033  32.183  32.267  1.00  0.00     0.031 C 
ATOM     66  C   UNL A   1      41.415  30.463  36.097  1.00  0.00     0.029 A 
ATOM     67  C   UNL A   1      40.629  30.608  34.965  1.00  0.00     0.049 A 
ATOM     68  H   UNL A   1      40.865  29.728  33.060  1.00  0.00     0.167 HD
ATOM     69  C   UNL A   1      38.737  31.506  33.640  1.00  0.00     0.074 A 
ATOM     70  C   UNL A   1      37.532  32.293  33.491  1.00  0.00     0.031 C 
ATOM     71  C   UNL A   1      39.435  31.394  34.797  1.00  0.00     0.037 A 
BRANCH  58  72
ATOM     72  C   UNL A   1      44.319  27.658  34.452  1.00  0.00     0.064 A 
ATOM     73  C   UNL A   1      45.573  28.283  34.486  1.00  0.00     0.173 A 
ATOM     74  C   UNL A   1      44.145  26.482  35.196  1.00  0.00     0.173 A 
ATOM     75  F   UNL A   1      45.788  29.403  33.781  1.00  0.00    -0.203 F 
ATOM     76  C   UNL A   1      46.614  27.753  35.244  1.00  0.00     0.198 A 
ATOM     77  C   UNL A   1      45.182  25.967  35.970  1.00  0.00     0.198 A 
ATOM     78  F   UNL A   1      42.962  25.852  35.198  1.00  0.00    -0.203 F 
ATOM     79  F   UNL A   1      47.810  28.359  35.255  1.00  0.00    -0.200 F 
ATOM     80  C   UNL A   1      46.414  26.603  35.994  1.00  0.00     0.200 A 
ATOM     81  F   UNL A   1      44.983  24.864  36.705  1.00  0.00    -0.200 F 
ATOM     82  F   UNL A   1      47.408  26.110  36.744  1.00  0.00    -0.200 F 
ENDBRANCH  58  72
BRANCH  59  83
ATOM     83  C   UNL A   1      36.654  31.594  29.422  1.00  0.00     0.064 A 
ATOM     84  C   UNL A   1      35.587  30.783  29.013  1.00  0.00     0.173 A 
ATOM     85  C   UNL A   1      36.599  32.958  29.098  1.00  0.00     0.173 A 
ATOM     86  F   UNL A   1      35.606  29.468  29.274  1.00  0.00    -0.203 F 
ATOM     87  C   UNL A   1      34.517  31.311  28.292  1.00  0.00     0.198 A 
ATOM     88  C   UNL A   1      35.517  33.490  28.400  1.00  0.00     0.198 A 
ATOM     89  F   UNL A   1      37.597  33.776  29.460  1.00  0.00    -0.203 F 
ATOM     90  F   UNL A   1      33.534  30.504  27.870  1.00  0.00    -0.200 F 
ATOM     91  C   UNL A   1      34.480  32.665  27.990  1.00  0.00     0.200 A 
ATOM     92  F   UNL A   1      35.481  34.799  28.118  1.00  0.00    -0.200 F 
ATOM     93  F   UNL A   1      33.453  33.171  27.295  1.00  0.00    -0.200 F 
ENDBRANCH  59  83
BRANCH  71  94
ATOM     94  C   UNL A   1      38.936  32.149  35.993  1.00  0.00     0.064 A 
ATOM     95  C   UNL A   1      38.138  31.530  36.966  1.00  0.00     0.173 A 
ATOM     96  C   UNL A   1      39.333  33.478  36.213  1.00  0.00     0.173 A 
ATOM     97  F   UNL A   1      37.725  30.266  36.797  1.00  0.00    -0.203 F 
ATOM     98  C   UNL A   1      37.747  32.218  38.112  1.00  0.00     0.198 A 
ATOM     99  C   UNL A   1      38.964  34.152  37.373  1.00  0.00     0.198 A 
ATOM    100  F   UNL A   1      40.104  34.109  35.316  1.00  0.00    -0.203 F 
ATOM    101  F   UNL A   1      36.963  31.618  39.016  1.00  0.00    -0.200 F 
ATOM    102  C   UNL A   1      38.169  33.524  38.319  1.00  0.00     0.200 A 
ATOM    103  F   UNL A   1      39.385  35.408  37.579  1.00  0.00    -0.200 F 
ATOM    104  F   UNL A   1      37.808  34.177  39.433  1.00  0.00    -0.200 F 
ENDBRANCH  71  94
ENDBRANCH  45  46
ENDBRANCH  38  40
ENDBRANCH  37  38
ENDBRANCH  36  37
ENDBRANCH   1  36
TORSDOF 16
ENDMDL
