MODEL 1
REMARK VINA RESULT:     -12.7      0.000      0.000
REMARK SMILES CCC(CC)(NC(=O)NC1CCC(C)(C)CC1)C(=O)OCCOCCOC(=O)c1ccc(-c2c3nc(c(-c4c(F)c(F)c(F)c(F)c4F)c4ccc([nH]4)c(-c4c(F)c(F)c(F)c(F)c4F)c4nc(c(-c5c(F)c(F)c(F)c(F)c5F)c5ccc2[nH]5)C=C4)C=C3)cc1
REMARK SMILES IDX 23 1 22 2 21 3 20 4 18 5 19 6 3 7 2 8 1 9 4 10 5 11 6 12
REMARK SMILES IDX 7 13 8 15 9 16 10 18 11 19 17 20 12 21 16 22 13 23 14 24
REMARK SMILES IDX 15 25 24 26 25 27 26 28 27 29 28 30 29 31 30 32 91 33 31 34
REMARK SMILES IDX 90 35 32 36 33 37 34 38 84 39 35 40 89 41 83 42 85 43 36 44
REMARK SMILES IDX 88 45 82 46 81 47 37 49 69 50 49 51 68 52 50 53 53 54 67 55
REMARK SMILES IDX 86 56 51 57 52 58 66 60 87 61 54 62 38 63 39 64 47 65 40 66
REMARK SMILES IDX 41 67 45 68 48 69 42 70 43 71 46 72 44 73 70 74 71 75 79 76
REMARK SMILES IDX 72 77 73 78 77 79 80 80 74 81 75 82 78 83 76 84 55 85 56 86
REMARK SMILES IDX 64 87 57 88 58 89 62 90 65 91 59 92 60 93 63 94 61 95
REMARK H PARENT 6 14 9 17 85 48 53 59
REMARK Flexibility Score: inf
ROOT
ATOM      1  O   UNL A   1      36.390  19.853  24.915  1.00  0.00    -0.374 OA
ENDROOT
BRANCH   1   2
ATOM      2  C   UNL A   1      34.867  20.296  24.874  1.00  0.00     0.202 C 
BRANCH   2   3
ATOM      3  C   UNL A   1      34.040  21.702  25.026  1.00  0.00     0.261 C 
BRANCH   3   4
ATOM      4  O   UNL A   1      33.115  22.125  23.989  1.00  0.00    -0.461 OA
BRANCH   4   5
ATOM      5  C   UNL A   1      33.371  23.338  23.417  1.00  0.00     0.331 C 
ATOM      6  O   UNL A   1      34.262  23.482  22.585  1.00  0.00    -0.249 OA
BRANCH   5   7
ATOM      7  C   UNL A   1      32.366  24.495  23.858  1.00  0.00     0.139 C 
BRANCH   7   8
ATOM      8  C   UNL A   1      31.446  24.924  22.670  1.00  0.00     0.037 C 
ATOM      9  C   UNL A   1      32.045  25.862  21.627  1.00  0.00     0.007 C 
ENDBRANCH   7   8
BRANCH   7  10
ATOM     10  C   UNL A   1      33.298  25.688  24.260  1.00  0.00     0.037 C 
ATOM     11  C   UNL A   1      34.306  25.406  25.380  1.00  0.00     0.007 C 
ENDBRANCH   7  10
BRANCH   7  12
ATOM     12  N   UNL A   1      31.491  24.234  25.063  1.00  0.00    -0.322 N 
ATOM     13  C   UNL A   1      30.791  24.955  25.951  1.00  0.00     0.315 C 
ATOM     14  H   UNL A   1      31.412  23.270  25.245  1.00  0.00     0.166 HD
ATOM     15  O   UNL A   1      30.535  24.433  27.039  1.00  0.00    -0.249 OA
ATOM     16  N   UNL A   1      30.345  26.201  25.740  1.00  0.00    -0.335 N 
ATOM     17  H   UNL A   1      30.151  26.727  26.549  1.00  0.00     0.165 HD
BRANCH  16  18
ATOM     18  C   UNL A   1      30.110  26.875  24.482  1.00  0.00     0.083 C 
ATOM     19  C   UNL A   1      28.272  26.687  23.878  1.00  0.00     0.025 C 
ATOM     20  C   UNL A   1      31.048  28.545  24.184  1.00  0.00     0.025 C 
ATOM     21  C   UNL A   1      27.317  28.273  23.285  1.00  0.00     0.008 C 
ATOM     22  C   UNL A   1      30.095  30.054  23.531  1.00  0.00     0.008 C 
ATOM     23  C   UNL A   1      28.255  29.934  23.023  1.00  0.00    -0.035 C 
ATOM     24  C   UNL A   1      27.452  31.077  23.706  1.00  0.00     0.011 C 
ATOM     25  C   UNL A   1      28.228  30.296  21.517  1.00  0.00     0.011 C 
ENDBRANCH  16  18
ENDBRANCH   7  12
ENDBRANCH   5   7
ENDBRANCH   4   5
ENDBRANCH   3   4
ENDBRANCH   2   3
ENDBRANCH   1   2
BRANCH   1  26
ATOM     26  C   UNL A   1      38.238  20.099  24.991  1.00  0.00     0.202 C 
BRANCH  26  27
ATOM     27  C   UNL A   1      39.488  19.372  25.719  1.00  0.00     0.261 C 
BRANCH  27  28
ATOM     28  O   UNL A   1      40.173  19.941  26.829  1.00  0.00    -0.460 OA
BRANCH  28  29
ATOM     29  C   UNL A   1      41.337  20.565  26.526  1.00  0.00     0.338 C 
ATOM     30  O   UNL A   1      42.166  20.219  25.694  1.00  0.00    -0.246 OA
BRANCH  29  31
ATOM     31  C   UNL A   1      41.342  21.909  27.128  1.00  0.00     0.060 A 
ATOM     32  C   UNL A   1      40.583  22.901  26.487  1.00  0.00     0.016 A 
ATOM     33  C   UNL A   1      42.090  22.205  28.268  1.00  0.00     0.016 A 
ATOM     34  C   UNL A   1      40.638  24.216  26.928  1.00  0.00     0.010 A 
ATOM     35  C   UNL A   1      42.168  23.533  28.696  1.00  0.00     0.010 A 
ATOM     36  C   UNL A   1      41.495  24.545  27.983  1.00  0.00    -0.014 A 
BRANCH  36  37
ATOM     37  C   UNL A   1      41.928  25.954  28.117  1.00  0.00     0.031 A 
ATOM     38  C   UNL A   1      43.264  26.321  27.527  1.00  0.00     0.074 A 
ATOM     39  C   UNL A   1      41.137  26.881  28.681  1.00  0.00     0.049 A 
ATOM     40  N   UNL A   1      43.910  27.458  27.559  1.00  0.00    -0.248 NA
ATOM     41  C   UNL A   1      43.973  25.252  26.800  1.00  0.00     0.031 C 
ATOM     42  C   UNL A   1      39.798  26.639  29.214  1.00  0.00     0.029 A 
ATOM     43  N   UNL A   1      41.354  28.216  28.902  1.00  0.00    -0.354 N 
ATOM     44  C   UNL A   1      45.095  27.234  26.870  1.00  0.00     0.074 A 
ATOM     45  C   UNL A   1      45.101  25.852  26.455  1.00  0.00     0.031 C 
ATOM     46  C   UNL A   1      39.320  27.787  29.724  1.00  0.00     0.029 A 
ATOM     47  C   UNL A   1      40.333  28.830  29.584  1.00  0.00     0.049 A 
ATOM     48  H   UNL A   1      42.163  28.688  28.601  1.00  0.00     0.167 HD
ATOM     49  C   UNL A   1      46.089  28.113  26.601  1.00  0.00     0.037 A 
ATOM     50  C   UNL A   1      40.255  30.086  30.064  1.00  0.00     0.037 A 
ATOM     51  C   UNL A   1      46.067  29.486  27.024  1.00  0.00     0.049 A 
ATOM     52  C   UNL A   1      41.412  31.024  29.820  1.00  0.00     0.074 A 
ATOM     53  C   UNL A   1      47.018  30.469  26.826  1.00  0.00     0.029 A 
ATOM     54  N   UNL A   1      45.028  30.067  27.739  1.00  0.00    -0.354 N 
ATOM     55  N   UNL A   1      42.534  30.809  29.174  1.00  0.00    -0.248 NA
ATOM     56  C   UNL A   1      41.289  32.381  30.367  1.00  0.00     0.031 C 
ATOM     57  C   UNL A   1      46.577  31.633  27.464  1.00  0.00     0.029 A 
ATOM     58  C   UNL A   1      45.324  31.392  28.008  1.00  0.00     0.049 A 
ATOM     59  H   UNL A   1      44.204  29.605  28.015  1.00  0.00     0.167 HD
ATOM     60  C   UNL A   1      43.236  32.006  29.214  1.00  0.00     0.074 A 
ATOM     61  C   UNL A   1      42.400  32.951  29.925  1.00  0.00     0.031 C 
ATOM     62  C   UNL A   1      44.463  32.305  28.716  1.00  0.00     0.037 A 
BRANCH  49  63
ATOM     63  C   UNL A   1      47.283  27.608  25.845  1.00  0.00     0.064 A 
ATOM     64  C   UNL A   1      47.358  27.676  24.445  1.00  0.00     0.173 A 
ATOM     65  C   UNL A   1      48.386  27.077  26.533  1.00  0.00     0.173 A 
ATOM     66  F   UNL A   1      46.324  28.154  23.738  1.00  0.00    -0.203 F 
ATOM     67  C   UNL A   1      48.483  27.219  23.763  1.00  0.00     0.198 A 
ATOM     68  C   UNL A   1      49.521  26.648  25.850  1.00  0.00     0.198 A 
ATOM     69  F   UNL A   1      48.366  26.984  27.872  1.00  0.00    -0.203 F 
ATOM     70  F   UNL A   1      48.515  27.256  22.424  1.00  0.00    -0.200 F 
ATOM     71  C   UNL A   1      49.567  26.715  24.467  1.00  0.00     0.200 A 
ATOM     72  F   UNL A   1      50.571  26.171  26.532  1.00  0.00    -0.200 F 
ATOM     73  F   UNL A   1      50.655  26.288  23.810  1.00  0.00    -0.200 F 
ENDBRANCH  49  63
BRANCH  50  74
ATOM     74  C   UNL A   1      39.066  30.522  30.848  1.00  0.00     0.064 A 
ATOM     75  C   UNL A   1      39.023  30.389  32.242  1.00  0.00     0.173 A 
ATOM     76  C   UNL A   1      37.931  31.050  30.211  1.00  0.00     0.173 A 
ATOM     77  F   UNL A   1      40.070  29.869  32.898  1.00  0.00    -0.203 F 
ATOM     78  C   UNL A   1      37.882  30.738  32.966  1.00  0.00     0.198 A 
ATOM     79  C   UNL A   1      36.807  31.432  30.938  1.00  0.00     0.198 A 
ATOM     80  F   UNL A   1      37.917  31.199  28.879  1.00  0.00    -0.203 F 
ATOM     81  F   UNL A   1      37.847  30.542  34.290  1.00  0.00    -0.200 F 
ATOM     82  C   UNL A   1      36.778  31.265  32.314  1.00  0.00     0.200 A 
ATOM     83  F   UNL A   1      35.747  31.953  30.305  1.00  0.00    -0.200 F 
ATOM     84  F   UNL A   1      35.683  31.599  33.010  1.00  0.00    -0.200 F 
ENDBRANCH  50  74
BRANCH  62  85
ATOM     85  C   UNL A   1      44.945  33.715  28.896  1.00  0.00     0.064 A 
ATOM     86  C   UNL A   1      44.647  34.719  27.964  1.00  0.00     0.173 A 
ATOM     87  C   UNL A   1      45.698  34.068  30.026  1.00  0.00     0.173 A 
ATOM     88  F   UNL A   1      43.940  34.430  26.861  1.00  0.00    -0.203 F 
ATOM     89  C   UNL A   1      45.122  36.016  28.134  1.00  0.00     0.198 A 
ATOM     90  C   UNL A   1      46.139  35.374  30.213  1.00  0.00     0.198 A 
ATOM     91  F   UNL A   1      45.999  33.148  30.955  1.00  0.00    -0.203 F 
ATOM     92  F   UNL A   1      44.884  36.944  27.197  1.00  0.00    -0.200 F 
ATOM     93  C   UNL A   1      45.863  36.344  29.261  1.00  0.00     0.200 A 
ATOM     94  F   UNL A   1      46.838  35.693  31.311  1.00  0.00    -0.200 F 
ATOM     95  F   UNL A   1      46.320  37.593  29.423  1.00  0.00    -0.200 F 
ENDBRANCH  62  85
ENDBRANCH  36  37
ENDBRANCH  29  31
ENDBRANCH  28  29
ENDBRANCH  27  28
ENDBRANCH  26  27
ENDBRANCH   1  26
TORSDOF 18
ENDMDL
MODEL 2
REMARK VINA RESULT:     -12.6      4.412      9.945
REMARK SMILES CCC(CC)(NC(=O)NC1CCC(C)(C)CC1)C(=O)OCCOCCOC(=O)c1ccc(-c2c3nc(c(-c4c(F)c(F)c(F)c(F)c4F)c4ccc([nH]4)c(-c4c(F)c(F)c(F)c(F)c4F)c4nc(c(-c5c(F)c(F)c(F)c(F)c5F)c5ccc2[nH]5)C=C4)C=C3)cc1
REMARK SMILES IDX 23 1 22 2 21 3 20 4 18 5 19 6 3 7 2 8 1 9 4 10 5 11 6 12
REMARK SMILES IDX 7 13 8 15 9 16 10 18 11 19 17 20 12 21 16 22 13 23 14 24
REMARK SMILES IDX 15 25 24 26 25 27 26 28 27 29 28 30 29 31 30 32 91 33 31 34
REMARK SMILES IDX 90 35 32 36 33 37 34 38 84 39 35 40 89 41 83 42 85 43 36 44
REMARK SMILES IDX 88 45 82 46 81 47 37 49 69 50 49 51 68 52 50 53 53 54 67 55
REMARK SMILES IDX 86 56 51 57 52 58 66 60 87 61 54 62 38 63 39 64 47 65 40 66
REMARK SMILES IDX 41 67 45 68 48 69 42 70 43 71 46 72 44 73 70 74 71 75 79 76
REMARK SMILES IDX 72 77 73 78 77 79 80 80 74 81 75 82 78 83 76 84 55 85 56 86
REMARK SMILES IDX 64 87 57 88 58 89 62 90 65 91 59 92 60 93 63 94 61 95
REMARK H PARENT 6 14 9 17 85 48 53 59
REMARK Flexibility Score: inf
ROOT
ATOM      1  O   UNL A   1      32.457  30.215  27.247  1.00  0.00    -0.374 OA
ENDROOT
BRANCH   1   2
ATOM      2  C   UNL A   1      33.481  29.003  27.194  1.00  0.00     0.202 C 
BRANCH   2   3
ATOM      3  C   UNL A   1      34.157  28.076  26.025  1.00  0.00     0.261 C 
BRANCH   3   4
ATOM      4  O   UNL A   1      33.592  26.777  25.699  1.00  0.00    -0.461 OA
BRANCH   4   5
ATOM      5  C   UNL A   1      33.498  26.482  24.371  1.00  0.00     0.331 C 
ATOM      6  O   UNL A   1      34.017  27.192  23.515  1.00  0.00    -0.249 OA
BRANCH   5   7
ATOM      7  C   UNL A   1      32.747  25.110  24.057  1.00  0.00     0.139 C 
BRANCH   7   8
ATOM      8  C   UNL A   1      33.768  23.963  23.767  1.00  0.00     0.037 C 
ATOM      9  C   UNL A   1      35.123  24.042  24.463  1.00  0.00     0.007 C 
ENDBRANCH   7   8
BRANCH   7  10
ATOM     10  C   UNL A   1      31.911  25.411  22.766  1.00  0.00     0.037 C 
ATOM     11  C   UNL A   1      32.668  25.311  21.437  1.00  0.00     0.007 C 
ENDBRANCH   7  10
BRANCH   7  12
ATOM     12  N   UNL A   1      31.754  24.611  25.081  1.00  0.00    -0.322 N 
ATOM     13  C   UNL A   1      30.827  25.136  25.898  1.00  0.00     0.315 C 
ATOM     14  H   UNL A   1      31.800  23.632  25.176  1.00  0.00     0.166 HD
ATOM     15  O   UNL A   1      30.497  24.479  26.887  1.00  0.00    -0.249 OA
ATOM     16  N   UNL A   1      30.230  26.321  25.711  1.00  0.00    -0.335 N 
ATOM     17  H   UNL A   1      29.839  26.732  26.515  1.00  0.00     0.165 HD
BRANCH  16  18
ATOM     18  C   UNL A   1      30.083  27.075  24.486  1.00  0.00     0.083 C 
ATOM     19  C   UNL A   1      28.319  26.862  23.698  1.00  0.00     0.025 C 
ATOM     20  C   UNL A   1      30.970  28.796  24.395  1.00  0.00     0.025 C 
ATOM     21  C   UNL A   1      27.354  28.451  23.127  1.00  0.00     0.008 C 
ATOM     22  C   UNL A   1      30.016  30.312  23.759  1.00  0.00     0.008 C 
ATOM     23  C   UNL A   1      28.237  30.161  23.071  1.00  0.00    -0.035 C 
ATOM     24  C   UNL A   1      27.325  31.220  23.751  1.00  0.00     0.011 C 
ATOM     25  C   UNL A   1      28.334  30.630  21.597  1.00  0.00     0.011 C 
ENDBRANCH  16  18
ENDBRANCH   7  12
ENDBRANCH   5   7
ENDBRANCH   4   5
ENDBRANCH   3   4
ENDBRANCH   2   3
ENDBRANCH   1   2
BRANCH   1  26
ATOM     26  C   UNL A   1      31.819  31.928  26.871  1.00  0.00     0.202 C 
BRANCH  26  27
ATOM     27  C   UNL A   1      32.128  33.432  27.384  1.00  0.00     0.261 C 
BRANCH  27  28
ATOM     28  O   UNL A   1      33.448  33.948  27.515  1.00  0.00    -0.460 OA
BRANCH  28  29
ATOM     29  C   UNL A   1      33.928  33.979  28.782  1.00  0.00     0.338 C 
ATOM     30  O   UNL A   1      33.351  34.391  29.781  1.00  0.00    -0.246 OA
BRANCH  29  31
ATOM     31  C   UNL A   1      35.149  33.161  28.862  1.00  0.00     0.060 A 
ATOM     32  C   UNL A   1      34.985  31.783  29.078  1.00  0.00     0.016 A 
ATOM     33  C   UNL A   1      36.422  33.722  28.760  1.00  0.00     0.016 A 
ATOM     34  C   UNL A   1      36.092  30.972  29.285  1.00  0.00     0.010 A 
ATOM     35  C   UNL A   1      37.537  32.912  28.995  1.00  0.00     0.010 A 
ATOM     36  C   UNL A   1      37.364  31.553  29.324  1.00  0.00    -0.014 A 
BRANCH  36  37
ATOM     37  C   UNL A   1      38.445  30.820  30.019  1.00  0.00     0.031 A 
ATOM     38  C   UNL A   1      38.668  31.140  31.474  1.00  0.00     0.074 A 
ATOM     39  C   UNL A   1      39.155  29.861  29.401  1.00  0.00     0.049 A 
ATOM     40  N   UNL A   1      39.580  30.698  32.299  1.00  0.00    -0.248 NA
ATOM     41  C   UNL A   1      37.727  32.099  32.083  1.00  0.00     0.031 C 
ATOM     42  C   UNL A   1      38.965  29.429  28.018  1.00  0.00     0.029 A 
ATOM     43  N   UNL A   1      40.185  29.084  29.861  1.00  0.00    -0.354 N 
ATOM     44  C   UNL A   1      39.328  31.329  33.510  1.00  0.00     0.074 A 
ATOM     45  C   UNL A   1      38.199  32.208  33.313  1.00  0.00     0.031 C 
ATOM     46  C   UNL A   1      39.869  28.475  27.733  1.00  0.00     0.029 A 
ATOM     47  C   UNL A   1      40.720  28.261  28.902  1.00  0.00     0.049 A 
ATOM     48  H   UNL A   1      40.510  29.114  30.790  1.00  0.00     0.167 HD
ATOM     49  C   UNL A   1      39.979  31.181  34.687  1.00  0.00     0.037 A 
ATOM     50  C   UNL A   1      41.797  27.455  28.966  1.00  0.00     0.037 A 
ATOM     51  C   UNL A   1      41.103  30.302  34.864  1.00  0.00     0.049 A 
ATOM     52  C   UNL A   1      42.555  27.366  30.268  1.00  0.00     0.074 A 
ATOM     53  C   UNL A   1      41.855  30.075  36.001  1.00  0.00     0.029 A 
ATOM     54  N   UNL A   1      41.636  29.503  33.861  1.00  0.00    -0.354 N 
ATOM     55  N   UNL A   1      42.318  27.970  31.410  1.00  0.00    -0.248 NA
ATOM     56  C   UNL A   1      43.726  26.482  30.292  1.00  0.00     0.031 C 
ATOM     57  C   UNL A   1      42.874  29.176  35.673  1.00  0.00     0.029 A 
ATOM     58  C   UNL A   1      42.721  28.796  34.349  1.00  0.00     0.049 A 
ATOM     59  H   UNL A   1      41.294  29.449  32.940  1.00  0.00     0.167 HD
ATOM     60  C   UNL A   1      43.292  27.518  32.291  1.00  0.00     0.074 A 
ATOM     61  C   UNL A   1      44.105  26.570  31.558  1.00  0.00     0.031 C 
ATOM     62  C   UNL A   1      43.505  27.857  33.588  1.00  0.00     0.037 A 
BRANCH  49  63
ATOM     63  C   UNL A   1      39.513  32.002  35.853  1.00  0.00     0.064 A 
ATOM     64  C   UNL A   1      40.063  33.262  36.139  1.00  0.00     0.173 A 
ATOM     65  C   UNL A   1      38.478  31.539  36.679  1.00  0.00     0.173 A 
ATOM     66  F   UNL A   1      41.070  33.742  35.395  1.00  0.00    -0.203 F 
ATOM     67  C   UNL A   1      39.605  34.017  37.216  1.00  0.00     0.198 A 
ATOM     68  C   UNL A   1      38.001  32.310  37.737  1.00  0.00     0.198 A 
ATOM     69  F   UNL A   1      37.919  30.339  36.454  1.00  0.00    -0.203 F 
ATOM     70  F   UNL A   1      40.173  35.199  37.494  1.00  0.00    -0.200 F 
ATOM     71  C   UNL A   1      38.568  33.546  38.007  1.00  0.00     0.200 A 
ATOM     72  F   UNL A   1      36.993  31.856  38.493  1.00  0.00    -0.200 F 
ATOM     73  F   UNL A   1      38.118  34.280  39.034  1.00  0.00    -0.200 F 
ENDBRANCH  49  63
BRANCH  50  74
ATOM     74  C   UNL A   1      42.244  26.696  27.765  1.00  0.00     0.064 A 
ATOM     75  C   UNL A   1      41.752  25.413  27.487  1.00  0.00     0.173 A 
ATOM     76  C   UNL A   1      43.203  27.227  26.886  1.00  0.00     0.173 A 
ATOM     77  F   UNL A   1      40.854  24.849  28.306  1.00  0.00    -0.203 F 
ATOM     78  C   UNL A   1      42.223  24.680  26.398  1.00  0.00     0.198 A 
ATOM     79  C   UNL A   1      43.645  26.508  25.779  1.00  0.00     0.198 A 
ATOM     80  F   UNL A   1      43.709  28.450  27.103  1.00  0.00    -0.203 F 
ATOM     81  F   UNL A   1      41.780  23.433  26.193  1.00  0.00    -0.200 F 
ATOM     82  C   UNL A   1      43.164  25.230  25.541  1.00  0.00     0.200 A 
ATOM     83  F   UNL A   1      44.545  27.050  24.946  1.00  0.00    -0.200 F 
ATOM     84  F   UNL A   1      43.614  24.525  24.495  1.00  0.00    -0.200 F 
ENDBRANCH  50  74
BRANCH  62  85
ATOM     85  C   UNL A   1      44.636  27.166  34.293  1.00  0.00     0.064 A 
ATOM     86  C   UNL A   1      45.922  27.723  34.344  1.00  0.00     0.173 A 
ATOM     87  C   UNL A   1      44.423  25.941  34.943  1.00  0.00     0.173 A 
ATOM     88  F   UNL A   1      46.179  28.888  33.729  1.00  0.00    -0.203 F 
ATOM     89  C   UNL A   1      46.964  27.058  34.983  1.00  0.00     0.198 A 
ATOM     90  C   UNL A   1      45.459  25.296  35.613  1.00  0.00     0.198 A 
ATOM     91  F   UNL A   1      43.208  25.372  34.936  1.00  0.00    -0.203 F 
ATOM     92  F   UNL A   1      48.200  27.575  34.960  1.00  0.00    -0.200 F 
ATOM     93  C   UNL A   1      46.731  25.848  35.620  1.00  0.00     0.200 A 
ATOM     94  F   UNL A   1      45.227  24.138  36.245  1.00  0.00    -0.200 F 
ATOM     95  F   UNL A   1      47.736  25.208  36.234  1.00  0.00    -0.200 F 
ENDBRANCH  62  85
ENDBRANCH  36  37
ENDBRANCH  29  31
ENDBRANCH  28  29
ENDBRANCH  27  28
ENDBRANCH  26  27
ENDBRANCH   1  26
TORSDOF 18
ENDMDL
MODEL 3
REMARK VINA RESULT:     -12.6      1.184      2.164
REMARK SMILES CCC(CC)(NC(=O)NC1CCC(C)(C)CC1)C(=O)OCCOCCOC(=O)c1ccc(-c2c3nc(c(-c4c(F)c(F)c(F)c(F)c4F)c4ccc([nH]4)c(-c4c(F)c(F)c(F)c(F)c4F)c4nc(c(-c5c(F)c(F)c(F)c(F)c5F)c5ccc2[nH]5)C=C4)C=C3)cc1
REMARK SMILES IDX 23 1 22 2 21 3 20 4 18 5 19 6 3 7 2 8 1 9 4 10 5 11 6 12
REMARK SMILES IDX 7 13 8 15 9 16 10 18 11 19 17 20 12 21 16 22 13 23 14 24
REMARK SMILES IDX 15 25 24 26 25 27 26 28 27 29 28 30 29 31 30 32 91 33 31 34
REMARK SMILES IDX 90 35 32 36 33 37 34 38 84 39 35 40 89 41 83 42 85 43 36 44
REMARK SMILES IDX 88 45 82 46 81 47 37 49 69 50 49 51 68 52 50 53 53 54 67 55
REMARK SMILES IDX 86 56 51 57 52 58 66 60 87 61 54 62 38 63 39 64 47 65 40 66
REMARK SMILES IDX 41 67 45 68 48 69 42 70 43 71 46 72 44 73 70 74 71 75 79 76
REMARK SMILES IDX 72 77 73 78 77 79 80 80 74 81 75 82 78 83 76 84 55 85 56 86
REMARK SMILES IDX 64 87 57 88 58 89 62 90 65 91 59 92 60 93 63 94 61 95
REMARK H PARENT 6 14 9 17 85 48 53 59
REMARK Flexibility Score: inf
ROOT
ATOM      1  O   UNL A   1      37.690  21.685  25.047  1.00  0.00    -0.374 OA
ENDROOT
BRANCH   1   2
ATOM      2  C   UNL A   1      37.019  23.022  25.576  1.00  0.00     0.202 C 
BRANCH   2   3
ATOM      3  C   UNL A   1      35.582  23.784  25.376  1.00  0.00     0.261 C 
BRANCH   3   4
ATOM      4  O   UNL A   1      34.425  23.052  24.890  1.00  0.00    -0.461 OA
BRANCH   4   5
ATOM      5  C   UNL A   1      33.585  22.557  25.845  1.00  0.00     0.331 C 
ATOM      6  O   UNL A   1      33.812  22.708  27.041  1.00  0.00    -0.249 OA
BRANCH   5   7
ATOM      7  C   UNL A   1      32.270  21.865  25.265  1.00  0.00     0.139 C 
BRANCH   7   8
ATOM      8  C   UNL A   1      32.485  20.331  25.061  1.00  0.00     0.037 C 
ATOM      9  C   UNL A   1      33.924  19.829  25.008  1.00  0.00     0.007 C 
ENDBRANCH   7   8
BRANCH   7  10
ATOM     10  C   UNL A   1      32.048  22.556  23.876  1.00  0.00     0.037 C 
ATOM     11  C   UNL A   1      32.071  21.630  22.654  1.00  0.00     0.007 C 
ENDBRANCH   7  10
BRANCH   7  12
ATOM     12  N   UNL A   1      30.984  22.065  26.033  1.00  0.00    -0.322 N 
ATOM     13  C   UNL A   1      30.431  23.011  26.807  1.00  0.00     0.315 C 
ATOM     14  H   UNL A   1      30.388  21.287  25.939  1.00  0.00     0.166 HD
ATOM     15  O   UNL A   1      29.550  22.663  27.597  1.00  0.00    -0.249 OA
ATOM     16  N   UNL A   1      30.763  24.309  26.779  1.00  0.00    -0.335 N 
ATOM     17  H   UNL A   1      30.543  24.822  27.589  1.00  0.00     0.165 HD
BRANCH  16  18
ATOM     18  C   UNL A   1      31.399  25.055  25.716  1.00  0.00     0.083 C 
ATOM     19  C   UNL A   1      30.112  25.775  24.449  1.00  0.00     0.025 C 
ATOM     20  C   UNL A   1      32.966  26.096  26.182  1.00  0.00     0.025 C 
ATOM     21  C   UNL A   1      30.258  27.643  23.930  1.00  0.00     0.008 C 
ATOM     22  C   UNL A   1      33.108  27.898  25.592  1.00  0.00     0.008 C 
ATOM     23  C   UNL A   1      31.805  28.676  24.427  1.00  0.00    -0.035 C 
ATOM     24  C   UNL A   1      31.335  30.038  25.009  1.00  0.00     0.011 C 
ATOM     25  C   UNL A   1      32.588  29.057  23.145  1.00  0.00     0.011 C 
ENDBRANCH  16  18
ENDBRANCH   7  12
ENDBRANCH   5   7
ENDBRANCH   4   5
ENDBRANCH   3   4
ENDBRANCH   2   3
ENDBRANCH   1   2
BRANCH   1  26
ATOM     26  C   UNL A   1      38.436  19.980  25.183  1.00  0.00     0.202 C 
BRANCH  26  27
ATOM     27  C   UNL A   1      39.854  19.356  25.652  1.00  0.00     0.261 C 
BRANCH  27  28
ATOM     28  O   UNL A   1      40.589  19.857  26.763  1.00  0.00    -0.460 OA
BRANCH  28  29
ATOM     29  C   UNL A   1      41.718  20.534  26.444  1.00  0.00     0.338 C 
ATOM     30  O   UNL A   1      42.557  20.223  25.609  1.00  0.00    -0.246 OA
BRANCH  29  31
ATOM     31  C   UNL A   1      41.661  21.883  27.033  1.00  0.00     0.060 A 
ATOM     32  C   UNL A   1      40.933  22.858  26.333  1.00  0.00     0.016 A 
ATOM     33  C   UNL A   1      42.323  22.200  28.220  1.00  0.00     0.016 A 
ATOM     34  C   UNL A   1      40.937  24.177  26.765  1.00  0.00     0.010 A 
ATOM     35  C   UNL A   1      42.351  23.532  28.641  1.00  0.00     0.010 A 
ATOM     36  C   UNL A   1      41.714  24.528  27.875  1.00  0.00    -0.014 A 
BRANCH  36  37
ATOM     37  C   UNL A   1      42.114  25.944  28.026  1.00  0.00     0.031 A 
ATOM     38  C   UNL A   1      43.445  26.347  27.448  1.00  0.00     0.074 A 
ATOM     39  C   UNL A   1      41.299  26.848  28.595  1.00  0.00     0.049 A 
ATOM     40  N   UNL A   1      44.065  27.497  27.495  1.00  0.00    -0.248 NA
ATOM     41  C   UNL A   1      44.181  25.302  26.713  1.00  0.00     0.031 C 
ATOM     42  C   UNL A   1      39.964  26.570  29.119  1.00  0.00     0.029 A 
ATOM     43  N   UNL A   1      41.485  28.184  28.832  1.00  0.00    -0.354 N 
ATOM     44  C   UNL A   1      45.258  27.308  26.810  1.00  0.00     0.074 A 
ATOM     45  C   UNL A   1      45.297  25.931  26.380  1.00  0.00     0.031 C 
ATOM     46  C   UNL A   1      39.457  27.701  29.639  1.00  0.00     0.029 A 
ATOM     47  C   UNL A   1      40.448  28.768  29.515  1.00  0.00     0.049 A 
ATOM     48  H   UNL A   1      42.285  28.678  28.541  1.00  0.00     0.167 HD
ATOM     49  C   UNL A   1      46.234  28.212  26.556  1.00  0.00     0.037 A 
ATOM     50  C   UNL A   1      40.340  30.017  30.009  1.00  0.00     0.037 A 
ATOM     51  C   UNL A   1      46.179  29.580  26.994  1.00  0.00     0.049 A 
ATOM     52  C   UNL A   1      41.476  30.983  29.781  1.00  0.00     0.074 A 
ATOM     53  C   UNL A   1      47.109  30.585  26.811  1.00  0.00     0.029 A 
ATOM     54  N   UNL A   1      45.123  30.129  27.710  1.00  0.00    -0.354 N 
ATOM     55  N   UNL A   1      42.607  30.800  29.139  1.00  0.00    -0.248 NA
ATOM     56  C   UNL A   1      41.320  32.331  30.342  1.00  0.00     0.031 C 
ATOM     57  C   UNL A   1      46.638  31.732  27.460  1.00  0.00     0.029 A 
ATOM     58  C   UNL A   1      45.389  31.458  27.994  1.00  0.00     0.049 A 
ATOM     59  H   UNL A   1      44.309  29.646  27.976  1.00  0.00     0.167 HD
ATOM     60  C   UNL A   1      43.281  32.012  29.195  1.00  0.00     0.074 A 
ATOM     61  C   UNL A   1      42.420  32.930  29.912  1.00  0.00     0.031 C 
ATOM     62  C   UNL A   1      44.504  32.343  28.708  1.00  0.00     0.037 A 
BRANCH  49  63
ATOM     63  C   UNL A   1      47.443  27.742  25.802  1.00  0.00     0.064 A 
ATOM     64  C   UNL A   1      48.585  27.259  26.460  1.00  0.00     0.173 A 
ATOM     65  C   UNL A   1      47.449  27.742  24.398  1.00  0.00     0.173 A 
ATOM     66  F   UNL A   1      48.641  27.258  27.800  1.00  0.00    -0.203 F 
ATOM     67  C   UNL A   1      49.691  26.811  25.742  1.00  0.00     0.198 A 
ATOM     68  C   UNL A   1      48.545  27.265  23.684  1.00  0.00     0.198 A 
ATOM     69  F   UNL A   1      46.385  28.197  23.718  1.00  0.00    -0.203 F 
ATOM     70  F   UNL A   1      50.786  26.393  26.392  1.00  0.00    -0.200 F 
ATOM     71  C   UNL A   1      49.666  26.804  24.355  1.00  0.00     0.200 A 
ATOM     72  F   UNL A   1      48.514  27.251  22.344  1.00  0.00    -0.200 F 
ATOM     73  F   UNL A   1      50.726  26.359  23.665  1.00  0.00    -0.200 F 
ENDBRANCH  49  63
BRANCH  50  74
ATOM     74  C   UNL A   1      39.137  30.418  30.791  1.00  0.00     0.064 A 
ATOM     75  C   UNL A   1      39.080  30.245  32.180  1.00  0.00     0.173 A 
ATOM     76  C   UNL A   1      38.003  30.951  30.156  1.00  0.00     0.173 A 
ATOM     77  F   UNL A   1      40.125  29.718  32.833  1.00  0.00    -0.203 F 
ATOM     78  C   UNL A   1      37.927  30.561  32.900  1.00  0.00     0.198 A 
ATOM     79  C   UNL A   1      36.867  31.299  30.881  1.00  0.00     0.198 A 
ATOM     80  F   UNL A   1      38.002  31.137  28.828  1.00  0.00    -0.203 F 
ATOM     81  F   UNL A   1      37.879  30.328  34.218  1.00  0.00    -0.200 F 
ATOM     82  C   UNL A   1      36.824  31.094  32.251  1.00  0.00     0.200 A 
ATOM     83  F   UNL A   1      35.808  31.827  30.250  1.00  0.00    -0.200 F 
ATOM     84  F   UNL A   1      35.718  31.397  32.943  1.00  0.00    -0.200 F 
ENDBRANCH  50  74
BRANCH  62  85
ATOM     85  C   UNL A   1      44.953  33.761  28.905  1.00  0.00     0.064 A 
ATOM     86  C   UNL A   1      44.654  34.765  27.973  1.00  0.00     0.173 A 
ATOM     87  C   UNL A   1      45.676  34.122  30.052  1.00  0.00     0.173 A 
ATOM     88  F   UNL A   1      43.975  34.468  26.854  1.00  0.00    -0.203 F 
ATOM     89  C   UNL A   1      45.099  36.070  28.161  1.00  0.00     0.198 A 
ATOM     90  C   UNL A   1      46.087  35.436  30.256  1.00  0.00     0.198 A 
ATOM     91  F   UNL A   1      45.976  33.203  30.982  1.00  0.00    -0.203 F 
ATOM     92  F   UNL A   1      44.861  36.999  27.224  1.00  0.00    -0.200 F 
ATOM     93  C   UNL A   1      45.810  36.406  29.304  1.00  0.00     0.200 A 
ATOM     94  F   UNL A   1      46.756  35.762  31.369  1.00  0.00    -0.200 F 
ATOM     95  F   UNL A   1      46.239  37.663  29.482  1.00  0.00    -0.200 F 
ENDBRANCH  62  85
ENDBRANCH  36  37
ENDBRANCH  29  31
ENDBRANCH  28  29
ENDBRANCH  27  28
ENDBRANCH  26  27
ENDBRANCH   1  26
TORSDOF 18
ENDMDL
