MODEL 1
REMARK VINA RESULT:     -11.9      0.000      0.000
REMARK SMILES O=C(N[C@@H](C(=O)OCCOCCOC(=O)c1ccc(-c2c3nc(c(-c4c(F)c(F)c(F)c(F)c4F)c4ccc([nH]4)c(-c4c(F)c(F)c(F)c(F)c4F)c4nc(c(-c5c(F)c(F)c(F)c(F)c5F)c5ccc2[nH]5)C=C4)C=C3)cc1)c1ccccc1)c1ccc(Br)nc1
REMARK SMILES IDX 10 1 9 2 8 3 7 4 5 5 6 6 4 7 3 8 1 9 2 10 85 12 86 13 91 14
REMARK SMILES IDX 87 15 90 16 88 17 89 18 79 19 80 20 84 21 81 22 83 23 82 24
REMARK SMILES IDX 11 25 12 26 13 27 14 28 15 29 16 30 17 31 78 32 18 33 77 34
REMARK SMILES IDX 19 35 20 36 21 37 71 38 22 39 76 40 70 41 72 42 23 43 75 44
REMARK SMILES IDX 69 45 68 46 24 48 56 49 36 50 55 51 37 52 40 53 54 54 73 55
REMARK SMILES IDX 38 56 39 57 53 59 74 60 41 61 25 62 26 63 34 64 27 65 28 66
REMARK SMILES IDX 32 67 35 68 29 69 30 70 33 71 31 72 57 73 58 74 66 75 59 76
REMARK SMILES IDX 60 77 64 78 67 79 61 80 62 81 65 82 63 83 42 84 43 85 51 86
REMARK SMILES IDX 44 87 45 88 49 89 52 90 46 91 47 92 50 93 48 94
REMARK H PARENT 3 11 72 47 40 58
REMARK Flexibility Score: inf
ROOT
ATOM      1  O   UNL A   1      32.252  28.886  25.090  1.00  0.00    -0.374 OA
ENDROOT
BRANCH   1   2
ATOM      2  C   UNL A   1      33.217  28.795  24.044  1.00  0.00     0.202 C 
BRANCH   2   3
ATOM      3  C   UNL A   1      33.913  27.444  23.874  1.00  0.00     0.261 C 
BRANCH   3   4
ATOM      4  O   UNL A   1      32.967  26.387  23.644  1.00  0.00    -0.461 OA
BRANCH   4   5
ATOM      5  C   UNL A   1      33.375  25.427  22.766  1.00  0.00     0.333 C 
ATOM      6  O   UNL A   1      33.677  25.644  21.596  1.00  0.00    -0.249 OA
BRANCH   5   7
ATOM      7  C   UNL A   1      33.392  24.014  23.398  1.00  0.00     0.223 C 
BRANCH   7   8
ATOM      8  N   UNL A   1      32.339  23.733  24.389  1.00  0.00    -0.335 N 
ATOM      9  O   UNL A   1      30.951  22.525  25.683  1.00  0.00    -0.269 OA
ATOM     10  C   UNL A   1      31.895  22.546  24.899  1.00  0.00     0.253 C 
ATOM     11  H   UNL A   1      31.883  24.530  24.743  1.00  0.00     0.165 HD
BRANCH  10  12
ATOM     12  C   UNL A   1      32.473  21.278  24.434  1.00  0.00     0.058 A 
ATOM     13  C   UNL A   1      33.472  20.680  25.199  1.00  0.00     0.018 A 
ATOM     14  C   UNL A   1      32.030  20.626  23.294  1.00  0.00     0.126 A 
ATOM     15  C   UNL A   1      33.919  19.409  24.851  1.00  0.00     0.037 A 
ATOM     16  N   UNL A   1      32.433  19.382  22.946  1.00  0.00    -0.249 NA
ATOM     17  C   UNL A   1      33.356  18.792  23.741  1.00  0.00     0.106 A 
ATOM     18  Br  UNL A   1      33.859  17.011  23.335  1.00  0.00    -0.029 Br
ENDBRANCH  10  12
ENDBRANCH   7   8
BRANCH   7  19
ATOM     19  C   UNL A   1      34.771  23.675  23.958  1.00  0.00    -0.014 A 
ATOM     20  C   UNL A   1      35.097  24.099  25.259  1.00  0.00     0.006 A 
ATOM     21  C   UNL A   1      35.720  22.919  23.249  1.00  0.00     0.006 A 
ATOM     22  C   UNL A   1      36.330  23.780  25.829  1.00  0.00     0.000 A 
ATOM     23  C   UNL A   1      36.955  22.603  23.823  1.00  0.00     0.000 A 
ATOM     24  C   UNL A   1      37.259  23.033  25.110  1.00  0.00     0.000 A 
ENDBRANCH   7  19
ENDBRANCH   5   7
ENDBRANCH   4   5
ENDBRANCH   3   4
ENDBRANCH   2   3
ENDBRANCH   1   2
BRANCH   1  25
ATOM     25  C   UNL A   1      31.288  29.936  25.019  1.00  0.00     0.202 C 
BRANCH  25  26
ATOM     26  C   UNL A   1      31.421  31.069  26.044  1.00  0.00     0.261 C 
BRANCH  26  27
ATOM     27  O   UNL A   1      32.476  30.824  26.993  1.00  0.00    -0.460 OA
BRANCH  27  28
ATOM     28  C   UNL A   1      33.214  31.915  27.308  1.00  0.00     0.338 C 
ATOM     29  O   UNL A   1      32.831  33.075  27.376  1.00  0.00    -0.246 OA
BRANCH  28  30
ATOM     30  C   UNL A   1      34.559  31.518  27.761  1.00  0.00     0.060 A 
ATOM     31  C   UNL A   1      34.763  30.163  28.058  1.00  0.00     0.016 A 
ATOM     32  C   UNL A   1      35.565  32.456  27.998  1.00  0.00     0.016 A 
ATOM     33  C   UNL A   1      35.955  29.749  28.646  1.00  0.00     0.010 A 
ATOM     34  C   UNL A   1      36.757  32.040  28.603  1.00  0.00     0.010 A 
ATOM     35  C   UNL A   1      36.940  30.692  28.965  1.00  0.00    -0.014 A 
BRANCH  35  36
ATOM     36  C   UNL A   1      38.079  30.287  29.826  1.00  0.00     0.031 A 
ATOM     37  C   UNL A   1      39.102  29.331  29.274  1.00  0.00     0.074 A 
ATOM     38  C   UNL A   1      38.230  30.800  31.058  1.00  0.00     0.049 A 
ATOM     39  N   UNL A   1      40.169  28.833  29.846  1.00  0.00    -0.248 NA
ATOM     40  C   UNL A   1      38.898  28.881  27.888  1.00  0.00     0.031 C 
ATOM     41  C   UNL A   1      37.336  31.771  31.683  1.00  0.00     0.029 A 
ATOM     42  N   UNL A   1      39.196  30.571  32.006  1.00  0.00    -0.354 N 
ATOM     43  C   UNL A   1      40.760  28.013  28.894  1.00  0.00     0.074 A 
ATOM     44  C   UNL A   1      39.920  28.056  27.717  1.00  0.00     0.031 C 
ATOM     45  C   UNL A   1      37.789  32.049  32.918  1.00  0.00     0.029 A 
ATOM     46  C   UNL A   1      38.988  31.253  33.179  1.00  0.00     0.049 A 
ATOM     47  H   UNL A   1      39.965  29.973  31.860  1.00  0.00     0.167 HD
ATOM     48  C   UNL A   1      41.904  27.296  28.990  1.00  0.00     0.037 A 
ATOM     49  C   UNL A   1      39.679  31.223  34.335  1.00  0.00     0.037 A 
ATOM     50  C   UNL A   1      42.739  27.250  30.161  1.00  0.00     0.049 A 
ATOM     51  C   UNL A   1      40.907  30.355  34.442  1.00  0.00     0.074 A 
ATOM     52  C   UNL A   1      43.921  26.556  30.353  1.00  0.00     0.029 A 
ATOM     53  N   UNL A   1      42.474  27.925  31.342  1.00  0.00    -0.354 N 
ATOM     54  N   UNL A   1      41.466  29.596  33.531  1.00  0.00    -0.248 NA
ATOM     55  C   UNL A   1      41.599  30.341  35.739  1.00  0.00     0.031 C 
ATOM     56  C   UNL A   1      44.349  26.777  31.666  1.00  0.00     0.029 A 
ATOM     57  C   UNL A   1      43.459  27.647  32.276  1.00  0.00     0.049 A 
ATOM     58  H   UNL A   1      41.701  28.516  31.495  1.00  0.00     0.167 HD
ATOM     59  C   UNL A   1      42.589  29.041  34.133  1.00  0.00     0.074 A 
ATOM     60  C   UNL A   1      42.638  29.559  35.484  1.00  0.00     0.031 C 
ATOM     61  C   UNL A   1      43.499  28.180  33.613  1.00  0.00     0.037 A 
BRANCH  48  62
ATOM     62  C   UNL A   1      42.313  26.482  27.798  1.00  0.00     0.064 A 
ATOM     63  C   UNL A   1      43.252  26.958  26.871  1.00  0.00     0.173 A 
ATOM     64  C   UNL A   1      41.789  25.195  27.604  1.00  0.00     0.173 A 
ATOM     65  F   UNL A   1      43.771  28.187  27.005  1.00  0.00    -0.203 F 
ATOM     66  C   UNL A   1      43.637  26.181  25.781  1.00  0.00     0.198 A 
ATOM     67  C   UNL A   1      42.195  24.412  26.526  1.00  0.00     0.198 A 
ATOM     68  F   UNL A   1      40.891  24.693  28.464  1.00  0.00    -0.203 F 
ATOM     69  F   UNL A   1      44.508  26.669  24.886  1.00  0.00    -0.200 F 
ATOM     70  C   UNL A   1      43.115  24.907  25.613  1.00  0.00     0.200 A 
ATOM     71  F   UNL A   1      41.698  23.177  26.372  1.00  0.00    -0.200 F 
ATOM     72  F   UNL A   1      43.492  24.157  24.569  1.00  0.00    -0.200 F 
ENDBRANCH  48  62
BRANCH  49  73
ATOM     73  C   UNL A   1      39.222  32.028  35.497  1.00  0.00     0.064 A 
ATOM     74  C   UNL A   1      39.627  33.359  35.660  1.00  0.00     0.173 A 
ATOM     75  C   UNL A   1      38.393  31.473  36.483  1.00  0.00     0.173 A 
ATOM     76  F   UNL A   1      40.441  33.927  34.758  1.00  0.00    -0.203 F 
ATOM     77  C   UNL A   1      39.237  34.099  36.776  1.00  0.00     0.198 A 
ATOM     78  C   UNL A   1      37.981  32.221  37.584  1.00  0.00     0.198 A 
ATOM     79  F   UNL A   1      37.978  30.201  36.375  1.00  0.00    -0.203 F 
ATOM     80  F   UNL A   1      39.679  35.354  36.933  1.00  0.00    -0.200 F 
ATOM     81  C   UNL A   1      38.411  33.531  37.734  1.00  0.00     0.200 A 
ATOM     82  F   UNL A   1      37.174  31.670  38.501  1.00  0.00    -0.200 F 
ATOM     83  F   UNL A   1      38.037  34.242  38.807  1.00  0.00    -0.200 F 
ENDBRANCH  49  73
BRANCH  61  84
ATOM     84  C   UNL A   1      44.645  27.773  34.492  1.00  0.00     0.064 A 
ATOM     85  C   UNL A   1      45.794  28.567  34.617  1.00  0.00     0.173 A 
ATOM     86  C   UNL A   1      44.572  26.596  35.252  1.00  0.00     0.173 A 
ATOM     87  F   UNL A   1      45.918  29.694  33.900  1.00  0.00    -0.203 F 
ATOM     88  C   UNL A   1      46.839  28.185  35.454  1.00  0.00     0.198 A 
ATOM     89  C   UNL A   1      45.606  26.232  36.109  1.00  0.00     0.198 A 
ATOM     90  F   UNL A   1      43.491  25.806  35.173  1.00  0.00    -0.203 F 
ATOM     91  F   UNL A   1      47.947  28.937  35.525  1.00  0.00    -0.200 F 
ATOM     92  C   UNL A   1      46.742  27.023  36.205  1.00  0.00     0.200 A 
ATOM     93  F   UNL A   1      45.506  25.115  36.842  1.00  0.00    -0.200 F 
ATOM     94  F   UNL A   1      47.746  26.660  37.015  1.00  0.00    -0.200 F 
ENDBRANCH  61  84
ENDBRANCH  35  36
ENDBRANCH  28  30
ENDBRANCH  27  28
ENDBRANCH  26  27
ENDBRANCH  25  26
ENDBRANCH   1  25
TORSDOF 17
ENDMDL
MODEL 2
REMARK VINA RESULT:     -11.9      4.523      7.492
REMARK SMILES O=C(N[C@@H](C(=O)OCCOCCOC(=O)c1ccc(-c2c3nc(c(-c4c(F)c(F)c(F)c(F)c4F)c4ccc([nH]4)c(-c4c(F)c(F)c(F)c(F)c4F)c4nc(c(-c5c(F)c(F)c(F)c(F)c5F)c5ccc2[nH]5)C=C4)C=C3)cc1)c1ccccc1)c1ccc(Br)nc1
REMARK SMILES IDX 10 1 9 2 8 3 7 4 5 5 6 6 4 7 3 8 1 9 2 10 85 12 86 13 91 14
REMARK SMILES IDX 87 15 90 16 88 17 89 18 79 19 80 20 84 21 81 22 83 23 82 24
REMARK SMILES IDX 11 25 12 26 13 27 14 28 15 29 16 30 17 31 78 32 18 33 77 34
REMARK SMILES IDX 19 35 20 36 21 37 71 38 22 39 76 40 70 41 72 42 23 43 75 44
REMARK SMILES IDX 69 45 68 46 24 48 56 49 36 50 55 51 37 52 40 53 54 54 73 55
REMARK SMILES IDX 38 56 39 57 53 59 74 60 41 61 25 62 26 63 34 64 27 65 28 66
REMARK SMILES IDX 32 67 35 68 29 69 30 70 33 71 31 72 57 73 58 74 66 75 59 76
REMARK SMILES IDX 60 77 64 78 67 79 61 80 62 81 65 82 63 83 42 84 43 85 51 86
REMARK SMILES IDX 44 87 45 88 49 89 52 90 46 91 47 92 50 93 48 94
REMARK H PARENT 3 11 72 47 40 58
REMARK Flexibility Score: inf
ROOT
ATOM      1  O   UNL A   1      35.653  21.777  25.677  1.00  0.00    -0.374 OA
ENDROOT
BRANCH   1   2
ATOM      2  C   UNL A   1      34.418  21.854  26.387  1.00  0.00     0.202 C 
BRANCH   2   3
ATOM      3  C   UNL A   1      33.808  23.248  26.545  1.00  0.00     0.261 C 
BRANCH   3   4
ATOM      4  O   UNL A   1      32.645  23.412  25.717  1.00  0.00    -0.461 OA
BRANCH   4   5
ATOM      5  C   UNL A   1      31.668  24.205  26.244  1.00  0.00     0.333 C 
ATOM      6  O   UNL A   1      31.023  23.929  27.252  1.00  0.00    -0.249 OA
BRANCH   5   7
ATOM      7  C   UNL A   1      31.436  25.490  25.415  1.00  0.00     0.223 C 
BRANCH   7   8
ATOM      8  N   UNL A   1      31.826  25.427  23.995  1.00  0.00    -0.335 N 
ATOM      9  O   UNL A   1      31.884  25.974  21.814  1.00  0.00    -0.269 OA
ATOM     10  C   UNL A   1      31.497  26.241  22.948  1.00  0.00     0.253 C 
ATOM     11  H   UNL A   1      32.420  24.677  23.764  1.00  0.00     0.165 HD
BRANCH  10  12
ATOM     12  C   UNL A   1      30.594  27.381  23.152  1.00  0.00     0.058 A 
ATOM     13  C   UNL A   1      31.146  28.651  23.306  1.00  0.00     0.018 A 
ATOM     14  C   UNL A   1      29.213  27.253  23.144  1.00  0.00     0.126 A 
ATOM     15  C   UNL A   1      30.299  29.755  23.348  1.00  0.00     0.037 A 
ATOM     16  N   UNL A   1      28.370  28.312  23.162  1.00  0.00    -0.249 NA
ATOM     17  C   UNL A   1      28.930  29.541  23.246  1.00  0.00     0.106 A 
ATOM     18  Br  UNL A   1      27.777  31.042  23.167  1.00  0.00    -0.029 Br
ENDBRANCH  10  12
ENDBRANCH   7   8
BRANCH   7  19
ATOM     19  C   UNL A   1      32.058  26.708  26.094  1.00  0.00    -0.014 A 
ATOM     20  C   UNL A   1      33.425  26.971  25.895  1.00  0.00     0.006 A 
ATOM     21  C   UNL A   1      31.317  27.606  26.881  1.00  0.00     0.006 A 
ATOM     22  C   UNL A   1      34.029  28.093  26.464  1.00  0.00     0.000 A 
ATOM     23  C   UNL A   1      31.926  28.728  27.451  1.00  0.00     0.000 A 
ATOM     24  C   UNL A   1      33.280  28.970  27.242  1.00  0.00     0.000 A 
ENDBRANCH   7  19
ENDBRANCH   5   7
ENDBRANCH   4   5
ENDBRANCH   3   4
ENDBRANCH   2   3
ENDBRANCH   1   2
BRANCH   1  25
ATOM     25  C   UNL A   1      35.979  20.543  25.039  1.00  0.00     0.202 C 
BRANCH  25  26
ATOM     26  C   UNL A   1      37.462  20.153  25.001  1.00  0.00     0.261 C 
BRANCH  26  27
ATOM     27  O   UNL A   1      38.328  21.286  25.197  1.00  0.00    -0.460 OA
BRANCH  27  28
ATOM     28  C   UNL A   1      39.348  21.072  26.062  1.00  0.00     0.338 C 
ATOM     29  O   UNL A   1      39.997  20.044  26.203  1.00  0.00    -0.246 OA
BRANCH  28  30
ATOM     30  C   UNL A   1      39.735  22.328  26.729  1.00  0.00     0.060 A 
ATOM     31  C   UNL A   1      39.064  23.495  26.340  1.00  0.00     0.016 A 
ATOM     32  C   UNL A   1      40.801  22.388  27.628  1.00  0.00     0.016 A 
ATOM     33  C   UNL A   1      39.492  24.735  26.806  1.00  0.00     0.010 A 
ATOM     34  C   UNL A   1      41.239  23.637  28.085  1.00  0.00     0.010 A 
ATOM     35  C   UNL A   1      40.611  24.817  27.644  1.00  0.00    -0.014 A 
BRANCH  35  36
ATOM     36  C   UNL A   1      41.217  26.145  27.916  1.00  0.00     0.031 A 
ATOM     37  C   UNL A   1      42.617  26.415  27.439  1.00  0.00     0.074 A 
ATOM     38  C   UNL A   1      40.514  27.111  28.530  1.00  0.00     0.049 A 
ATOM     39  N   UNL A   1      43.348  27.493  27.572  1.00  0.00    -0.248 NA
ATOM     40  C   UNL A   1      43.283  25.326  26.707  1.00  0.00     0.031 C 
ATOM     41  C   UNL A   1      39.134  26.987  28.993  1.00  0.00     0.029 A 
ATOM     42  N   UNL A   1      40.871  28.391  28.872  1.00  0.00    -0.354 N 
ATOM     43  C   UNL A   1      44.555  27.211  26.944  1.00  0.00     0.074 A 
ATOM     44  C   UNL A   1      44.471  25.853  26.454  1.00  0.00     0.031 C 
ATOM     45  C   UNL A   1      38.763  28.143  29.569  1.00  0.00     0.029 A 
ATOM     46  C   UNL A   1      39.887  29.077  29.540  1.00  0.00     0.049 A 
ATOM     47  H   UNL A   1      41.750  28.782  28.659  1.00  0.00     0.167 HD
ATOM     48  C   UNL A   1      45.631  28.017  26.783  1.00  0.00     0.037 A 
ATOM     49  C   UNL A   1      39.904  30.311  30.081  1.00  0.00     0.037 A 
ATOM     50  C   UNL A   1      45.717  29.367  27.272  1.00  0.00     0.049 A 
ATOM     51  C   UNL A   1      41.144  31.159  29.956  1.00  0.00     0.074 A 
ATOM     52  C   UNL A   1      46.763  30.264  27.154  1.00  0.00     0.029 A 
ATOM     53  N   UNL A   1      44.713  30.013  27.977  1.00  0.00    -0.354 N 
ATOM     54  N   UNL A   1      42.273  30.890  29.347  1.00  0.00    -0.248 NA
ATOM     55  C   UNL A   1      41.109  32.483  30.594  1.00  0.00     0.031 C 
ATOM     56  C   UNL A   1      46.410  31.439  27.826  1.00  0.00     0.029 A 
ATOM     57  C   UNL A   1      45.125  31.290  28.322  1.00  0.00     0.049 A 
ATOM     58  H   UNL A   1      43.837  29.622  28.201  1.00  0.00     0.167 HD
ATOM     59  C   UNL A   1      43.068  32.018  29.500  1.00  0.00     0.074 A 
ATOM     60  C   UNL A   1      42.289  32.980  30.252  1.00  0.00     0.031 C 
ATOM     61  C   UNL A   1      44.331  32.239  29.059  1.00  0.00     0.037 A 
BRANCH  48  62
ATOM     62  C   UNL A   1      46.818  27.449  26.063  1.00  0.00     0.064 A 
ATOM     63  C   UNL A   1      46.975  27.596  24.676  1.00  0.00     0.173 A 
ATOM     64  C   UNL A   1      47.830  26.786  26.773  1.00  0.00     0.173 A 
ATOM     65  F   UNL A   1      46.028  28.210  23.951  1.00  0.00    -0.203 F 
ATOM     66  C   UNL A   1      48.094  27.083  24.025  1.00  0.00     0.198 A 
ATOM     67  C   UNL A   1      48.958  26.295  26.122  1.00  0.00     0.198 A 
ATOM     68  F   UNL A   1      47.729  26.623  28.100  1.00  0.00    -0.203 F 
ATOM     69  F   UNL A   1      48.206  27.201  22.694  1.00  0.00    -0.200 F 
ATOM     70  C   UNL A   1      49.087  26.439  24.748  1.00  0.00     0.200 A 
ATOM     71  F   UNL A   1      49.922  25.684  26.823  1.00  0.00    -0.200 F 
ATOM     72  F   UNL A   1      50.167  25.953  24.121  1.00  0.00    -0.200 F 
ENDBRANCH  48  62
BRANCH  49  73
ATOM     73  C   UNL A   1      38.712  30.821  30.807  1.00  0.00     0.064 A 
ATOM     74  C   UNL A   1      37.674  31.474  30.128  1.00  0.00     0.173 A 
ATOM     75  C   UNL A   1      38.600  30.691  32.199  1.00  0.00     0.173 A 
ATOM     76  F   UNL A   1      37.748  31.646  28.800  1.00  0.00    -0.203 F 
ATOM     77  C   UNL A   1      36.579  31.995  30.816  1.00  0.00     0.198 A 
ATOM     78  C   UNL A   1      37.492  31.188  32.882  1.00  0.00     0.198 A 
ATOM     79  F   UNL A   1      39.567  30.076  32.897  1.00  0.00    -0.203 F 
ATOM     80  F   UNL A   1      35.626  32.658  30.148  1.00  0.00    -0.200 F 
ATOM     81  C   UNL A   1      36.488  31.848  32.192  1.00  0.00     0.200 A 
ATOM     82  F   UNL A   1      37.403  31.033  34.211  1.00  0.00    -0.200 F 
ATOM     83  F   UNL A   1      35.435  32.350  32.853  1.00  0.00    -0.200 F 
ENDBRANCH  49  73
BRANCH  61  84
ATOM     84  C   UNL A   1      44.937  33.583  29.342  1.00  0.00     0.064 A 
ATOM     85  C   UNL A   1      45.713  33.814  30.486  1.00  0.00     0.173 A 
ATOM     86  C   UNL A   1      44.773  34.640  28.433  1.00  0.00     0.173 A 
ATOM     87  F   UNL A   1      45.887  32.840  31.392  1.00  0.00    -0.203 F 
ATOM     88  C   UNL A   1      46.285  35.061  30.721  1.00  0.00     0.198 A 
ATOM     89  C   UNL A   1      45.369  35.877  28.657  1.00  0.00     0.198 A 
ATOM     90  F   UNL A   1      44.044  34.467  27.320  1.00  0.00    -0.203 F 
ATOM     91  F   UNL A   1      46.988  35.273  31.844  1.00  0.00    -0.200 F 
ATOM     92  C   UNL A   1      46.120  36.089  29.804  1.00  0.00     0.200 A 
ATOM     93  F   UNL A   1      45.218  36.864  27.765  1.00  0.00    -0.200 F 
ATOM     94  F   UNL A   1      46.676  37.287  30.030  1.00  0.00    -0.200 F 
ENDBRANCH  61  84
ENDBRANCH  35  36
ENDBRANCH  28  30
ENDBRANCH  27  28
ENDBRANCH  26  27
ENDBRANCH  25  26
ENDBRANCH   1  25
TORSDOF 17
ENDMDL
MODEL 3
REMARK VINA RESULT:     -11.8      0.352      2.019
REMARK SMILES O=C(N[C@@H](C(=O)OCCOCCOC(=O)c1ccc(-c2c3nc(c(-c4c(F)c(F)c(F)c(F)c4F)c4ccc([nH]4)c(-c4c(F)c(F)c(F)c(F)c4F)c4nc(c(-c5c(F)c(F)c(F)c(F)c5F)c5ccc2[nH]5)C=C4)C=C3)cc1)c1ccccc1)c1ccc(Br)nc1
REMARK SMILES IDX 10 1 9 2 8 3 7 4 5 5 6 6 4 7 3 8 1 9 2 10 85 12 86 13 91 14
REMARK SMILES IDX 87 15 90 16 88 17 89 18 79 19 80 20 84 21 81 22 83 23 82 24
REMARK SMILES IDX 11 25 12 26 13 27 14 28 15 29 16 30 17 31 78 32 18 33 77 34
REMARK SMILES IDX 19 35 20 36 21 37 71 38 22 39 76 40 70 41 72 42 23 43 75 44
REMARK SMILES IDX 69 45 68 46 24 48 56 49 36 50 55 51 37 52 40 53 54 54 73 55
REMARK SMILES IDX 38 56 39 57 53 59 74 60 41 61 25 62 26 63 34 64 27 65 28 66
REMARK SMILES IDX 32 67 35 68 29 69 30 70 33 71 31 72 57 73 58 74 66 75 59 76
REMARK SMILES IDX 60 77 64 78 67 79 61 80 62 81 65 82 63 83 42 84 43 85 51 86
REMARK SMILES IDX 44 87 45 88 49 89 52 90 46 91 47 92 50 93 48 94
REMARK H PARENT 3 11 72 47 40 58
REMARK Flexibility Score: inf
ROOT
ATOM      1  O   UNL A   1      32.148  28.977  25.391  1.00  0.00    -0.374 OA
ENDROOT
BRANCH   1   2
ATOM      2  C   UNL A   1      32.994  28.682  24.282  1.00  0.00     0.202 C 
BRANCH   2   3
ATOM      3  C   UNL A   1      33.653  27.302  24.275  1.00  0.00     0.261 C 
BRANCH   3   4
ATOM      4  O   UNL A   1      32.774  26.300  23.736  1.00  0.00    -0.461 OA
BRANCH   4   5
ATOM      5  C   UNL A   1      33.373  25.384  22.921  1.00  0.00     0.333 C 
ATOM      6  O   UNL A   1      33.836  25.643  21.814  1.00  0.00    -0.249 OA
BRANCH   5   7
ATOM      7  C   UNL A   1      33.385  23.964  23.534  1.00  0.00     0.223 C 
BRANCH   7   8
ATOM      8  N   UNL A   1      32.330  23.673  24.521  1.00  0.00    -0.335 N 
ATOM      9  O   UNL A   1      30.938  22.453  25.798  1.00  0.00    -0.269 OA
ATOM     10  C   UNL A   1      31.884  22.481  25.016  1.00  0.00     0.253 C 
ATOM     11  H   UNL A   1      31.874  24.467  24.882  1.00  0.00     0.165 HD
BRANCH  10  12
ATOM     12  C   UNL A   1      32.462  21.218  24.539  1.00  0.00     0.058 A 
ATOM     13  C   UNL A   1      33.408  20.574  25.334  1.00  0.00     0.018 A 
ATOM     14  C   UNL A   1      32.067  20.613  23.356  1.00  0.00     0.126 A 
ATOM     15  C   UNL A   1      33.849  19.307  24.967  1.00  0.00     0.037 A 
ATOM     16  N   UNL A   1      32.464  19.373  22.988  1.00  0.00    -0.249 NA
ATOM     17  C   UNL A   1      33.333  18.738  23.808  1.00  0.00     0.106 A 
ATOM     18  Br  UNL A   1      33.824  16.962  23.369  1.00  0.00    -0.029 Br
ENDBRANCH  10  12
ENDBRANCH   7   8
BRANCH   7  19
ATOM     19  C   UNL A   1      34.762  23.613  24.093  1.00  0.00    -0.014 A 
ATOM     20  C   UNL A   1      35.629  22.826  23.314  1.00  0.00     0.006 A 
ATOM     21  C   UNL A   1      35.223  24.075  25.338  1.00  0.00     0.006 A 
ATOM     22  C   UNL A   1      36.912  22.512  23.765  1.00  0.00     0.000 A 
ATOM     23  C   UNL A   1      36.508  23.756  25.788  1.00  0.00     0.000 A 
ATOM     24  C   UNL A   1      37.350  22.975  25.002  1.00  0.00     0.000 A 
ENDBRANCH   7  19
ENDBRANCH   5   7
ENDBRANCH   4   5
ENDBRANCH   3   4
ENDBRANCH   2   3
ENDBRANCH   1   2
BRANCH   1  25
ATOM     25  C   UNL A   1      31.364  30.169  25.334  1.00  0.00     0.202 C 
BRANCH  25  26
ATOM     26  C   UNL A   1      31.610  31.213  26.430  1.00  0.00     0.261 C 
BRANCH  26  27
ATOM     27  O   UNL A   1      32.773  30.908  27.222  1.00  0.00    -0.460 OA
BRANCH  27  28
ATOM     28  C   UNL A   1      33.563  31.974  27.495  1.00  0.00     0.338 C 
ATOM     29  O   UNL A   1      33.232  33.151  27.536  1.00  0.00    -0.246 OA
BRANCH  28  30
ATOM     30  C   UNL A   1      34.898  31.530  27.937  1.00  0.00     0.060 A 
ATOM     31  C   UNL A   1      35.045  30.179  28.278  1.00  0.00     0.016 A 
ATOM     32  C   UNL A   1      35.950  32.428  28.121  1.00  0.00     0.016 A 
ATOM     33  C   UNL A   1      36.229  29.730  28.858  1.00  0.00     0.010 A 
ATOM     34  C   UNL A   1      37.134  31.979  28.719  1.00  0.00     0.010 A 
ATOM     35  C   UNL A   1      37.262  30.637  29.125  1.00  0.00    -0.014 A 
BRANCH  35  36
ATOM     36  C   UNL A   1      38.399  30.209  29.978  1.00  0.00     0.031 A 
ATOM     37  C   UNL A   1      39.396  29.230  29.422  1.00  0.00     0.074 A 
ATOM     38  C   UNL A   1      38.569  30.722  31.209  1.00  0.00     0.049 A 
ATOM     39  N   UNL A   1      40.456  28.710  29.987  1.00  0.00    -0.248 NA
ATOM     40  C   UNL A   1      39.173  28.781  28.038  1.00  0.00     0.031 C 
ATOM     41  C   UNL A   1      37.701  31.713  31.838  1.00  0.00     0.029 A 
ATOM     42  N   UNL A   1      39.537  30.473  32.150  1.00  0.00    -0.354 N 
ATOM     43  C   UNL A   1      41.022  27.875  29.032  1.00  0.00     0.074 A 
ATOM     44  C   UNL A   1      40.176  27.935  27.861  1.00  0.00     0.031 C 
ATOM     45  C   UNL A   1      38.169  31.983  33.068  1.00  0.00     0.029 A 
ATOM     46  C   UNL A   1      39.352  31.163  33.323  1.00  0.00     0.049 A 
ATOM     47  H   UNL A   1      40.291  29.859  31.999  1.00  0.00     0.167 HD
ATOM     48  C   UNL A   1      42.152  27.135  29.122  1.00  0.00     0.037 A 
ATOM     49  C   UNL A   1      40.051  31.119  34.474  1.00  0.00     0.037 A 
ATOM     50  C   UNL A   1      42.994  27.073  30.287  1.00  0.00     0.049 A 
ATOM     51  C   UNL A   1      41.261  30.225  34.574  1.00  0.00     0.074 A 
ATOM     52  C   UNL A   1      44.162  26.354  30.472  1.00  0.00     0.029 A 
ATOM     53  N   UNL A   1      42.752  27.756  31.468  1.00  0.00    -0.354 N 
ATOM     54  N   UNL A   1      41.797  29.453  33.661  1.00  0.00    -0.248 NA
ATOM     55  C   UNL A   1      41.961  30.200  35.866  1.00  0.00     0.031 C 
ATOM     56  C   UNL A   1      44.604  26.569  31.782  1.00  0.00     0.029 A 
ATOM     57  C   UNL A   1      43.737  27.459  32.396  1.00  0.00     0.049 A 
ATOM     58  H   UNL A   1      41.993  28.363  31.626  1.00  0.00     0.167 HD
ATOM     59  C   UNL A   1      42.912  28.876  34.256  1.00  0.00     0.074 A 
ATOM     60  C   UNL A   1      42.981  29.395  35.606  1.00  0.00     0.031 C 
ATOM     61  C   UNL A   1      43.798  27.994  33.731  1.00  0.00     0.037 A 
BRANCH  48  62
ATOM     62  C   UNL A   1      42.534  26.309  27.929  1.00  0.00     0.064 A 
ATOM     63  C   UNL A   1      42.003  25.027  27.724  1.00  0.00     0.173 A 
ATOM     64  C   UNL A   1      43.408  26.822  26.960  1.00  0.00     0.173 A 
ATOM     65  F   UNL A   1      41.174  24.485  28.628  1.00  0.00    -0.203 F 
ATOM     66  C   UNL A   1      42.350  24.281  26.600  1.00  0.00     0.198 A 
ATOM     67  C   UNL A   1      43.734  26.084  25.826  1.00  0.00     0.198 A 
ATOM     68  F   UNL A   1      43.940  28.045  27.109  1.00  0.00    -0.203 F 
ATOM     69  F   UNL A   1      41.862  23.043  26.441  1.00  0.00    -0.200 F 
ATOM     70  C   UNL A   1      43.209  24.812  25.649  1.00  0.00     0.200 A 
ATOM     71  F   UNL A   1      44.555  26.603  24.903  1.00  0.00    -0.200 F 
ATOM     72  F   UNL A   1      43.536  24.097  24.564  1.00  0.00    -0.200 F 
ENDBRANCH  48  62
BRANCH  49  73
ATOM     73  C   UNL A   1      39.619  31.937  35.637  1.00  0.00     0.064 A 
ATOM     74  C   UNL A   1      38.618  31.487  36.508  1.00  0.00     0.173 A 
ATOM     75  C   UNL A   1      40.180  33.200  35.884  1.00  0.00     0.173 A 
ATOM     76  F   UNL A   1      38.034  30.298  36.299  1.00  0.00    -0.203 F 
ATOM     77  C   UNL A   1      38.180  32.276  37.571  1.00  0.00     0.198 A 
ATOM     78  C   UNL A   1      39.760  33.976  36.962  1.00  0.00     0.198 A 
ATOM     79  F   UNL A   1      41.140  33.678  35.078  1.00  0.00    -0.203 F 
ATOM     80  F   UNL A   1      37.188  31.843  38.359  1.00  0.00    -0.200 F 
ATOM     81  C   UNL A   1      38.755  33.517  37.799  1.00  0.00     0.200 A 
ATOM     82  F   UNL A   1      40.327  35.170  37.185  1.00  0.00    -0.200 F 
ATOM     83  F   UNL A   1      38.333  34.276  38.820  1.00  0.00    -0.200 F 
ENDBRANCH  49  73
BRANCH  61  84
ATOM     84  C   UNL A   1      44.942  27.564  34.603  1.00  0.00     0.064 A 
ATOM     85  C   UNL A   1      44.864  26.418  35.406  1.00  0.00     0.173 A 
ATOM     86  C   UNL A   1      46.147  28.285  34.599  1.00  0.00     0.173 A 
ATOM     87  F   UNL A   1      43.730  25.703  35.455  1.00  0.00    -0.203 F 
ATOM     88  C   UNL A   1      45.943  26.021  36.192  1.00  0.00     0.198 A 
ATOM     89  C   UNL A   1      47.232  27.870  35.365  1.00  0.00     0.198 A 
ATOM     90  F   UNL A   1      46.273  29.385  33.842  1.00  0.00    -0.203 F 
ATOM     91  F   UNL A   1      45.832  24.947  36.986  1.00  0.00    -0.200 F 
ATOM     92  C   UNL A   1      47.128  26.742  36.166  1.00  0.00     0.200 A 
ATOM     93  F   UNL A   1      48.379  28.561  35.329  1.00  0.00    -0.200 F 
ATOM     94  F   UNL A   1      48.167  26.356  36.918  1.00  0.00    -0.200 F 
ENDBRANCH  61  84
ENDBRANCH  35  36
ENDBRANCH  28  30
ENDBRANCH  27  28
ENDBRANCH  26  27
ENDBRANCH  25  26
ENDBRANCH   1  25
TORSDOF 17
ENDMDL
