MODEL 1
REMARK VINA RESULT:     -12.4      0.000      0.000
REMARK SMILES O=C(OCCOCCOC(=O)c1c(C2CC2)nn(-c2ccc(Cl)c(F)c2)c1Cl)c1ccc(-c2c3nc(c(-c4c(F)c(F)c(F)c(F)c4F)c4ccc([nH]4)c(-c4c(F)c(F)c(F)c(F)c4F)c4nc(c(-c5c(F)c(F)c(F)c(F)c5F)c5ccc2[nH]5)C=C4)C=C3)cc1
REMARK SMILES IDX 5 1 4 2 3 3 2 4 1 5 29 6 30 7 91 8 31 9 90 10 32 11 33 12
REMARK SMILES IDX 34 13 84 14 35 15 89 16 83 17 85 18 36 19 88 20 82 21 81 22
REMARK SMILES IDX 37 24 69 25 49 26 68 27 50 28 53 29 67 30 86 31 51 32 52 33
REMARK SMILES IDX 66 35 87 36 54 37 38 38 39 39 47 40 40 41 41 42 45 43 48 44
REMARK SMILES IDX 42 45 43 46 46 47 44 48 70 49 71 50 79 51 72 52 73 53 77 54
REMARK SMILES IDX 80 55 74 56 75 57 78 58 76 59 55 60 56 61 64 62 57 63 58 64
REMARK SMILES IDX 62 65 65 66 59 67 60 68 63 69 61 70 6 71 7 72 8 73 9 74
REMARK SMILES IDX 10 75 11 76 12 77 13 78 27 79 17 80 18 81 28 82 14 83 15 84
REMARK SMILES IDX 16 85 19 86 20 87 26 88 21 89 24 90 22 91 25 92 23 93
REMARK H PARENT 85 23 53 34
REMARK Flexibility Score: inf
ROOT
ATOM      1  C   UNL A   1      32.361  30.288  26.827  1.00  0.00     0.202 C 
ENDROOT
BRANCH   1   2
ATOM      2  C   UNL A   1      33.071  31.567  27.251  1.00  0.00     0.261 C 
BRANCH   2   3
ATOM      3  O   UNL A   1      34.157  31.359  28.162  1.00  0.00    -0.460 OA
BRANCH   3   4
ATOM      4  C   UNL A   1      35.359  31.930  27.931  1.00  0.00     0.338 C 
ATOM      5  O   UNL A   1      35.480  33.103  27.604  1.00  0.00    -0.246 OA
BRANCH   4   6
ATOM      6  C   UNL A   1      36.478  31.175  28.528  1.00  0.00     0.060 A 
ATOM      7  C   UNL A   1      37.575  31.780  29.142  1.00  0.00     0.016 A 
ATOM      8  C   UNL A   1      36.467  29.798  28.292  1.00  0.00     0.016 A 
ATOM      9  C   UNL A   1      38.752  31.080  29.247  1.00  0.00     0.010 A 
ATOM     10  C   UNL A   1      37.621  29.068  28.477  1.00  0.00     0.010 A 
ATOM     11  C   UNL A   1      38.775  29.739  28.863  1.00  0.00    -0.014 A 
BRANCH  11  12
ATOM     12  C   UNL A   1      40.022  29.033  29.060  1.00  0.00     0.031 A 
ATOM     13  C   UNL A   1      40.346  28.856  30.495  1.00  0.00     0.074 A 
ATOM     14  C   UNL A   1      40.769  28.560  28.046  1.00  0.00     0.049 A 
ATOM     15  N   UNL A   1      41.307  29.416  31.150  1.00  0.00    -0.248 NA
ATOM     16  C   UNL A   1      39.374  28.145  31.343  1.00  0.00     0.031 C 
ATOM     17  C   UNL A   1      40.434  28.474  26.625  1.00  0.00     0.029 A 
ATOM     18  N   UNL A   1      41.991  27.971  28.106  1.00  0.00    -0.354 N 
ATOM     19  C   UNL A   1      41.182  28.970  32.460  1.00  0.00     0.074 A 
ATOM     20  C   UNL A   1      39.893  28.339  32.556  1.00  0.00     0.031 C 
ATOM     21  C   UNL A   1      41.317  27.653  26.009  1.00  0.00     0.029 A 
ATOM     22  C   UNL A   1      42.353  27.281  26.958  1.00  0.00     0.049 A 
ATOM     23  H   UNL A   1      42.572  28.028  28.900  1.00  0.00     0.167 HD
ATOM     24  C   UNL A   1      42.268  28.936  33.277  1.00  0.00     0.037 A 
ATOM     25  C   UNL A   1      43.394  26.418  26.846  1.00  0.00     0.037 A 
ATOM     26  C   UNL A   1      43.304  29.814  32.791  1.00  0.00     0.049 A 
ATOM     27  C   UNL A   1      44.336  26.710  27.958  1.00  0.00     0.074 A 
ATOM     28  C   UNL A   1      43.390  31.173  32.561  1.00  0.00     0.029 A 
ATOM     29  N   UNL A   1      44.340  29.250  32.089  1.00  0.00    -0.354 N 
ATOM     30  N   UNL A   1      45.045  27.802  28.032  1.00  0.00    -0.248 NA
ATOM     31  C   UNL A   1      44.125  26.017  29.221  1.00  0.00     0.031 C 
ATOM     32  C   UNL A   1      44.156  31.298  31.364  1.00  0.00     0.029 A 
ATOM     33  C   UNL A   1      44.562  30.021  30.978  1.00  0.00     0.049 A 
ATOM     34  H   UNL A   1      44.836  28.436  32.339  1.00  0.00     0.167 HD
ATOM     35  C   UNL A   1      44.973  28.174  29.366  1.00  0.00     0.074 A 
ATOM     36  C   UNL A   1      44.463  26.997  30.065  1.00  0.00     0.031 C 
ATOM     37  C   UNL A   1      45.052  29.488  29.731  1.00  0.00     0.037 A 
BRANCH  24  38
ATOM     38  C   UNL A   1      42.553  27.806  34.236  1.00  0.00     0.064 A 
ATOM     39  C   UNL A   1      43.113  26.615  33.733  1.00  0.00     0.173 A 
ATOM     40  C   UNL A   1      42.003  27.719  35.534  1.00  0.00     0.173 A 
ATOM     41  F   UNL A   1      43.651  26.579  32.504  1.00  0.00    -0.203 F 
ATOM     42  C   UNL A   1      43.034  25.410  34.435  1.00  0.00     0.198 A 
ATOM     43  C   UNL A   1      41.973  26.526  36.252  1.00  0.00     0.198 A 
ATOM     44  F   UNL A   1      41.368  28.741  36.118  1.00  0.00    -0.203 F 
ATOM     45  F   UNL A   1      43.452  24.276  33.857  1.00  0.00    -0.200 F 
ATOM     46  C   UNL A   1      42.455  25.365  35.689  1.00  0.00     0.200 A 
ATOM     47  F   UNL A   1      41.389  26.501  37.458  1.00  0.00    -0.200 F 
ATOM     48  F   UNL A   1      42.314  24.200  36.333  1.00  0.00    -0.200 F 
ENDBRANCH  24  38
BRANCH  25  49
ATOM     49  C   UNL A   1      43.464  25.154  26.073  1.00  0.00     0.064 A 
ATOM     50  C   UNL A   1      44.526  24.907  25.188  1.00  0.00     0.173 A 
ATOM     51  C   UNL A   1      42.659  24.047  26.407  1.00  0.00     0.173 A 
ATOM     52  F   UNL A   1      45.369  25.896  24.855  1.00  0.00    -0.203 F 
ATOM     53  C   UNL A   1      44.789  23.625  24.694  1.00  0.00     0.198 A 
ATOM     54  C   UNL A   1      42.918  22.769  25.909  1.00  0.00     0.198 A 
ATOM     55  F   UNL A   1      41.667  24.161  27.303  1.00  0.00    -0.203 F 
ATOM     56  F   UNL A   1      45.853  23.416  23.906  1.00  0.00    -0.200 F 
ATOM     57  C   UNL A   1      43.991  22.555  25.064  1.00  0.00     0.200 A 
ATOM     58  F   UNL A   1      42.163  21.735  26.307  1.00  0.00    -0.200 F 
ATOM     59  F   UNL A   1      44.281  21.315  24.646  1.00  0.00    -0.200 F 
ENDBRANCH  25  49
BRANCH  37  60
ATOM     60  C   UNL A   1      45.496  30.478  28.690  1.00  0.00     0.064 A 
ATOM     61  C   UNL A   1      44.643  31.088  27.752  1.00  0.00     0.173 A 
ATOM     62  C   UNL A   1      46.827  30.915  28.729  1.00  0.00     0.173 A 
ATOM     63  F   UNL A   1      43.334  30.806  27.722  1.00  0.00    -0.203 F 
ATOM     64  C   UNL A   1      45.121  32.046  26.860  1.00  0.00     0.198 A 
ATOM     65  C   UNL A   1      47.291  31.901  27.865  1.00  0.00     0.198 A 
ATOM     66  F   UNL A   1      47.674  30.411  29.640  1.00  0.00    -0.203 F 
ATOM     67  F   UNL A   1      44.294  32.598  25.959  1.00  0.00    -0.200 F 
ATOM     68  C   UNL A   1      46.442  32.455  26.921  1.00  0.00     0.200 A 
ATOM     69  F   UNL A   1      48.556  32.331  27.965  1.00  0.00    -0.200 F 
ATOM     70  F   UNL A   1      46.894  33.404  26.087  1.00  0.00    -0.200 F 
ENDBRANCH  37  60
ENDBRANCH  11  12
ENDBRANCH   4   6
ENDBRANCH   3   4
ENDBRANCH   2   3
ENDBRANCH   1   2
BRANCH   1  71
ATOM     71  O   UNL A   1      32.911  29.577  25.721  1.00  0.00    -0.374 OA
BRANCH  71  72
ATOM     72  C   UNL A   1      33.394  28.259  26.032  1.00  0.00     0.202 C 
BRANCH  72  73
ATOM     73  C   UNL A   1      32.452  27.296  26.770  1.00  0.00     0.261 C 
BRANCH  73  74
ATOM     74  O   UNL A   1      31.213  27.100  26.071  1.00  0.00    -0.460 OA
BRANCH  74  75
ATOM     75  C   UNL A   1      30.707  25.832  25.952  1.00  0.00     0.343 C 
ATOM     76  O   UNL A   1      29.664  25.459  26.452  1.00  0.00    -0.246 OA
BRANCH  75  77
ATOM     77  C   UNL A   1      31.553  25.019  25.094  1.00  0.00     0.121 A 
ATOM     78  C   UNL A   1      31.970  25.088  23.728  1.00  0.00     0.082 A 
ATOM     79  C   UNL A   1      32.123  23.840  25.525  1.00  0.00     0.147 A 
ATOM     80  N   UNL A   1      32.782  24.068  23.394  1.00  0.00    -0.170 NA
ATOM     81  N   UNL A   1      32.769  23.260  24.469  1.00  0.00    -0.221 N 
ATOM     82  Cl  UNL A   1      32.131  23.081  27.067  1.00  0.00    -0.061 Cl
BRANCH  78  83
ATOM     83  C   UNL A   1      31.672  26.072  22.592  1.00  0.00     0.041 C 
ATOM     84  C   UNL A   1      30.641  27.163  22.624  1.00  0.00     0.011 C 
ATOM     85  C   UNL A   1      32.092  27.515  22.692  1.00  0.00     0.011 C 
ENDBRANCH  78  83
BRANCH  81  86
ATOM     86  C   UNL A   1      33.251  21.941  24.380  1.00  0.00     0.069 A 
ATOM     87  C   UNL A   1      34.553  21.644  24.792  1.00  0.00     0.030 A 
ATOM     88  C   UNL A   1      32.375  20.935  23.957  1.00  0.00     0.069 A 
ATOM     89  C   UNL A   1      34.940  20.304  24.877  1.00  0.00     0.026 A 
ATOM     90  C   UNL A   1      32.785  19.614  24.018  1.00  0.00     0.143 A 
ATOM     91  C   UNL A   1      34.051  19.290  24.501  1.00  0.00     0.076 A 
ATOM     92  F   UNL A   1      31.927  18.661  23.627  1.00  0.00    -0.205 F 
ATOM     93  Cl  UNL A   1      34.519  17.643  24.669  1.00  0.00    -0.081 Cl
ENDBRANCH  81  86
ENDBRANCH  75  77
ENDBRANCH  74  75
ENDBRANCH  73  74
ENDBRANCH  72  73
ENDBRANCH  71  72
ENDBRANCH   1  71
TORSDOF 16
ENDMDL
MODEL 2
REMARK VINA RESULT:     -12.4      4.776      7.730
REMARK SMILES O=C(OCCOCCOC(=O)c1c(C2CC2)nn(-c2ccc(Cl)c(F)c2)c1Cl)c1ccc(-c2c3nc(c(-c4c(F)c(F)c(F)c(F)c4F)c4ccc([nH]4)c(-c4c(F)c(F)c(F)c(F)c4F)c4nc(c(-c5c(F)c(F)c(F)c(F)c5F)c5ccc2[nH]5)C=C4)C=C3)cc1
REMARK SMILES IDX 5 1 4 2 3 3 2 4 1 5 29 6 30 7 91 8 31 9 90 10 32 11 33 12
REMARK SMILES IDX 34 13 84 14 35 15 89 16 83 17 85 18 36 19 88 20 82 21 81 22
REMARK SMILES IDX 37 24 69 25 49 26 68 27 50 28 53 29 67 30 86 31 51 32 52 33
REMARK SMILES IDX 66 35 87 36 54 37 38 38 39 39 47 40 40 41 41 42 45 43 48 44
REMARK SMILES IDX 42 45 43 46 46 47 44 48 70 49 71 50 79 51 72 52 73 53 77 54
REMARK SMILES IDX 80 55 74 56 75 57 78 58 76 59 55 60 56 61 64 62 57 63 58 64
REMARK SMILES IDX 62 65 65 66 59 67 60 68 63 69 61 70 6 71 7 72 8 73 9 74
REMARK SMILES IDX 10 75 11 76 12 77 13 78 27 79 17 80 18 81 28 82 14 83 15 84
REMARK SMILES IDX 16 85 19 86 20 87 26 88 21 89 24 90 22 91 25 92 23 93
REMARK H PARENT 85 23 53 34
REMARK Flexibility Score: inf
ROOT
ATOM      1  C   UNL A   1      34.129  34.237  29.292  1.00  0.00     0.202 C 
ENDROOT
BRANCH   1   2
ATOM      2  C   UNL A   1      34.799  34.259  27.925  1.00  0.00     0.261 C 
BRANCH   2   3
ATOM      3  O   UNL A   1      35.776  33.228  27.736  1.00  0.00    -0.460 OA
BRANCH   3   4
ATOM      4  C   UNL A   1      35.449  31.933  27.946  1.00  0.00     0.338 C 
ATOM      5  O   UNL A   1      34.516  31.388  27.373  1.00  0.00    -0.246 OA
BRANCH   4   6
ATOM      6  C   UNL A   1      36.549  31.153  28.545  1.00  0.00     0.060 A 
ATOM      7  C   UNL A   1      37.623  31.730  29.223  1.00  0.00     0.016 A 
ATOM      8  C   UNL A   1      36.550  29.788  28.245  1.00  0.00     0.016 A 
ATOM      9  C   UNL A   1      38.798  31.028  29.336  1.00  0.00     0.010 A 
ATOM     10  C   UNL A   1      37.700  29.052  28.435  1.00  0.00     0.010 A 
ATOM     11  C   UNL A   1      38.838  29.706  28.891  1.00  0.00    -0.014 A 
BRANCH  11  12
ATOM     12  C   UNL A   1      40.080  28.993  29.098  1.00  0.00     0.031 A 
ATOM     13  C   UNL A   1      40.391  28.814  30.536  1.00  0.00     0.074 A 
ATOM     14  C   UNL A   1      40.832  28.517  28.090  1.00  0.00     0.049 A 
ATOM     15  N   UNL A   1      41.349  29.368  31.199  1.00  0.00    -0.248 NA
ATOM     16  C   UNL A   1      39.408  28.107  31.375  1.00  0.00     0.031 C 
ATOM     17  C   UNL A   1      40.508  28.435  26.667  1.00  0.00     0.029 A 
ATOM     18  N   UNL A   1      42.050  27.922  28.160  1.00  0.00    -0.354 N 
ATOM     19  C   UNL A   1      41.211  28.921  32.508  1.00  0.00     0.074 A 
ATOM     20  C   UNL A   1      39.918  28.297  32.593  1.00  0.00     0.031 C 
ATOM     21  C   UNL A   1      41.392  27.609  26.057  1.00  0.00     0.029 A 
ATOM     22  C   UNL A   1      42.418  27.231  27.014  1.00  0.00     0.049 A 
ATOM     23  H   UNL A   1      42.625  27.975  28.958  1.00  0.00     0.167 HD
ATOM     24  C   UNL A   1      42.290  28.882  33.333  1.00  0.00     0.037 A 
ATOM     25  C   UNL A   1      43.455  26.362  26.910  1.00  0.00     0.037 A 
ATOM     26  C   UNL A   1      43.334  29.754  32.857  1.00  0.00     0.049 A 
ATOM     27  C   UNL A   1      44.390  26.649  28.030  1.00  0.00     0.074 A 
ATOM     28  C   UNL A   1      43.430  31.113  32.628  1.00  0.00     0.029 A 
ATOM     29  N   UNL A   1      44.373  29.185  32.162  1.00  0.00    -0.354 N 
ATOM     30  N   UNL A   1      45.104  27.737  28.111  1.00  0.00    -0.248 NA
ATOM     31  C   UNL A   1      44.165  25.955  29.291  1.00  0.00     0.031 C 
ATOM     32  C   UNL A   1      44.206  31.235  31.438  1.00  0.00     0.029 A 
ATOM     33  C   UNL A   1      44.608  29.956  31.054  1.00  0.00     0.049 A 
ATOM     34  H   UNL A   1      44.863  28.369  32.416  1.00  0.00     0.167 HD
ATOM     35  C   UNL A   1      45.023  28.108  29.444  1.00  0.00     0.074 A 
ATOM     36  C   UNL A   1      44.501  26.933  30.138  1.00  0.00     0.031 C 
ATOM     37  C   UNL A   1      45.106  29.421  29.811  1.00  0.00     0.037 A 
BRANCH  24  38
ATOM     38  C   UNL A   1      42.561  27.749  34.294  1.00  0.00     0.064 A 
ATOM     39  C   UNL A   1      43.078  26.540  33.787  1.00  0.00     0.173 A 
ATOM     40  C   UNL A   1      42.034  27.685  35.603  1.00  0.00     0.173 A 
ATOM     41  F   UNL A   1      43.591  26.482  32.550  1.00  0.00    -0.203 F 
ATOM     42  C   UNL A   1      42.979  25.341  34.498  1.00  0.00     0.198 A 
ATOM     43  C   UNL A   1      41.983  26.498  36.328  1.00  0.00     0.198 A 
ATOM     44  F   UNL A   1      41.439  28.727  36.191  1.00  0.00    -0.203 F 
ATOM     45  F   UNL A   1      43.354  24.194  33.919  1.00  0.00    -0.200 F 
ATOM     46  C   UNL A   1      42.422  25.320  35.763  1.00  0.00     0.200 A 
ATOM     47  F   UNL A   1      41.421  26.495  37.545  1.00  0.00    -0.200 F 
ATOM     48  F   UNL A   1      42.261  24.163  36.417  1.00  0.00    -0.200 F 
ENDBRANCH  24  38
BRANCH  25  49
ATOM     49  C   UNL A   1      43.525  25.098  26.137  1.00  0.00     0.064 A 
ATOM     50  C   UNL A   1      44.554  24.877  25.206  1.00  0.00     0.173 A 
ATOM     51  C   UNL A   1      42.766  23.972  26.508  1.00  0.00     0.173 A 
ATOM     52  F   UNL A   1      45.354  25.888  24.834  1.00  0.00    -0.203 F 
ATOM     53  C   UNL A   1      44.829  23.602  24.702  1.00  0.00     0.198 A 
ATOM     54  C   UNL A   1      43.037  22.699  26.000  1.00  0.00     0.198 A 
ATOM     55  F   UNL A   1      41.812  24.061  27.446  1.00  0.00    -0.203 F 
ATOM     56  F   UNL A   1      45.862  23.419  23.868  1.00  0.00    -0.200 F 
ATOM     57  C   UNL A   1      44.077  22.512  25.110  1.00  0.00     0.200 A 
ATOM     58  F   UNL A   1      42.328  21.647  26.433  1.00  0.00    -0.200 F 
ATOM     59  F   UNL A   1      44.381  21.279  24.680  1.00  0.00    -0.200 F 
ENDBRANCH  25  49
BRANCH  37  60
ATOM     60  C   UNL A   1      45.564  30.410  28.775  1.00  0.00     0.064 A 
ATOM     61  C   UNL A   1      44.716  31.054  27.856  1.00  0.00     0.173 A 
ATOM     62  C   UNL A   1      46.907  30.808  28.798  1.00  0.00     0.173 A 
ATOM     63  F   UNL A   1      43.399  30.811  27.841  1.00  0.00    -0.203 F 
ATOM     64  C   UNL A   1      45.208  32.009  26.967  1.00  0.00     0.198 A 
ATOM     65  C   UNL A   1      47.387  31.790  27.939  1.00  0.00     0.198 A 
ATOM     66  F   UNL A   1      47.752  30.270  29.692  1.00  0.00    -0.203 F 
ATOM     67  F   UNL A   1      44.385  32.594  26.084  1.00  0.00    -0.200 F 
ATOM     68  C   UNL A   1      46.542  32.379  27.013  1.00  0.00     0.200 A 
ATOM     69  F   UNL A   1      48.665  32.183  28.025  1.00  0.00    -0.200 F 
ATOM     70  F   UNL A   1      47.008  33.323  26.183  1.00  0.00    -0.200 F 
ENDBRANCH  37  60
ENDBRANCH  11  12
ENDBRANCH   4   6
ENDBRANCH   3   4
ENDBRANCH   2   3
ENDBRANCH   1   2
BRANCH   1  71
ATOM     71  O   UNL A   1      34.972  34.049  30.425  1.00  0.00    -0.374 OA
BRANCH  71  72
ATOM     72  C   UNL A   1      34.352  34.331  31.691  1.00  0.00     0.202 C 
BRANCH  72  73
ATOM     73  C   UNL A   1      34.683  33.418  32.881  1.00  0.00     0.261 C 
BRANCH  73  74
ATOM     74  O   UNL A   1      36.072  33.054  32.920  1.00  0.00    -0.460 OA
BRANCH  74  75
ATOM     75  C   UNL A   1      36.989  33.969  33.366  1.00  0.00     0.343 C 
ATOM     76  O   UNL A   1      36.706  34.992  33.959  1.00  0.00    -0.246 OA
BRANCH  75  77
ATOM     77  C   UNL A   1      38.343  33.517  33.093  1.00  0.00     0.121 A 
ATOM     78  C   UNL A   1      39.291  32.694  33.778  1.00  0.00     0.082 A 
ATOM     79  C   UNL A   1      39.047  33.928  31.981  1.00  0.00     0.147 A 
ATOM     80  N   UNL A   1      40.442  32.569  33.092  1.00  0.00    -0.170 NA
ATOM     81  N   UNL A   1      40.313  33.421  32.059  1.00  0.00    -0.221 N 
ATOM     82  Cl  UNL A   1      38.584  34.898  30.640  1.00  0.00    -0.061 Cl
BRANCH  78  83
ATOM     83  C   UNL A   1      39.255  31.949  35.117  1.00  0.00     0.041 C 
ATOM     84  C   UNL A   1      38.034  31.715  35.957  1.00  0.00     0.011 C 
ATOM     85  C   UNL A   1      38.652  30.573  35.216  1.00  0.00     0.011 C 
ENDBRANCH  78  83
BRANCH  81  86
ATOM     86  C   UNL A   1      41.435  33.797  31.297  1.00  0.00     0.069 A 
ATOM     87  C   UNL A   1      41.627  33.256  30.023  1.00  0.00     0.030 A 
ATOM     88  C   UNL A   1      42.292  34.779  31.807  1.00  0.00     0.069 A 
ATOM     89  C   UNL A   1      42.635  33.789  29.214  1.00  0.00     0.026 A 
ATOM     90  C   UNL A   1      43.305  35.274  31.003  1.00  0.00     0.143 A 
ATOM     91  C   UNL A   1      43.464  34.806  29.701  1.00  0.00     0.076 A 
ATOM     92  F   UNL A   1      44.105  36.228  31.500  1.00  0.00    -0.205 F 
ATOM     93  Cl  UNL A   1      44.659  35.494  28.673  1.00  0.00    -0.081 Cl
ENDBRANCH  81  86
ENDBRANCH  75  77
ENDBRANCH  74  75
ENDBRANCH  73  74
ENDBRANCH  72  73
ENDBRANCH  71  72
ENDBRANCH   1  71
TORSDOF 16
ENDMDL
MODEL 3
REMARK VINA RESULT:     -12.4      1.179      2.091
REMARK SMILES O=C(OCCOCCOC(=O)c1c(C2CC2)nn(-c2ccc(Cl)c(F)c2)c1Cl)c1ccc(-c2c3nc(c(-c4c(F)c(F)c(F)c(F)c4F)c4ccc([nH]4)c(-c4c(F)c(F)c(F)c(F)c4F)c4nc(c(-c5c(F)c(F)c(F)c(F)c5F)c5ccc2[nH]5)C=C4)C=C3)cc1
REMARK SMILES IDX 5 1 4 2 3 3 2 4 1 5 29 6 30 7 91 8 31 9 90 10 32 11 33 12
REMARK SMILES IDX 34 13 84 14 35 15 89 16 83 17 85 18 36 19 88 20 82 21 81 22
REMARK SMILES IDX 37 24 69 25 49 26 68 27 50 28 53 29 67 30 86 31 51 32 52 33
REMARK SMILES IDX 66 35 87 36 54 37 38 38 39 39 47 40 40 41 41 42 45 43 48 44
REMARK SMILES IDX 42 45 43 46 46 47 44 48 70 49 71 50 79 51 72 52 73 53 77 54
REMARK SMILES IDX 80 55 74 56 75 57 78 58 76 59 55 60 56 61 64 62 57 63 58 64
REMARK SMILES IDX 62 65 65 66 59 67 60 68 63 69 61 70 6 71 7 72 8 73 9 74
REMARK SMILES IDX 10 75 11 76 12 77 13 78 27 79 17 80 18 81 28 82 14 83 15 84
REMARK SMILES IDX 16 85 19 86 20 87 26 88 21 89 24 90 22 91 25 92 23 93
REMARK H PARENT 85 23 53 34
REMARK Flexibility Score: inf
ROOT
ATOM      1  C   UNL A   1      33.393  29.861  26.586  1.00  0.00     0.202 C 
ENDROOT
BRANCH   1   2
ATOM      2  C   UNL A   1      33.308  31.231  27.244  1.00  0.00     0.261 C 
BRANCH   2   3
ATOM      3  O   UNL A   1      34.290  31.453  28.264  1.00  0.00    -0.460 OA
BRANCH   3   4
ATOM      4  C   UNL A   1      35.515  31.923  27.938  1.00  0.00     0.338 C 
ATOM      5  O   UNL A   1      35.698  33.065  27.539  1.00  0.00    -0.246 OA
BRANCH   4   6
ATOM      6  C   UNL A   1      36.610  31.123  28.520  1.00  0.00     0.060 A 
ATOM      7  C   UNL A   1      37.695  31.678  29.198  1.00  0.00     0.016 A 
ATOM      8  C   UNL A   1      36.594  29.762  28.202  1.00  0.00     0.016 A 
ATOM      9  C   UNL A   1      38.863  30.962  29.293  1.00  0.00     0.010 A 
ATOM     10  C   UNL A   1      37.737  29.010  28.374  1.00  0.00     0.010 A 
ATOM     11  C   UNL A   1      38.885  29.646  28.830  1.00  0.00    -0.014 A 
BRANCH  11  12
ATOM     12  C   UNL A   1      40.120  28.916  29.018  1.00  0.00     0.031 A 
ATOM     13  C   UNL A   1      40.379  28.610  30.446  1.00  0.00     0.074 A 
ATOM     14  C   UNL A   1      40.910  28.531  28.000  1.00  0.00     0.049 A 
ATOM     15  N   UNL A   1      41.311  29.102  31.190  1.00  0.00    -0.248 NA
ATOM     16  C   UNL A   1      39.367  27.832  31.182  1.00  0.00     0.031 C 
ATOM     17  C   UNL A   1      40.639  28.575  26.565  1.00  0.00     0.029 A 
ATOM     18  N   UNL A   1      42.127  27.931  28.062  1.00  0.00    -0.354 N 
ATOM     19  C   UNL A   1      41.125  28.541  32.448  1.00  0.00     0.074 A 
ATOM     20  C   UNL A   1      39.832  27.913  32.429  1.00  0.00     0.031 C 
ATOM     21  C   UNL A   1      41.547  27.807  25.917  1.00  0.00     0.029 A 
ATOM     22  C   UNL A   1      42.538  27.344  26.874  1.00  0.00     0.049 A 
ATOM     23  H   UNL A   1      42.671  27.913  28.883  1.00  0.00     0.167 HD
ATOM     24  C   UNL A   1      42.173  28.428  33.306  1.00  0.00     0.037 A 
ATOM     25  C   UNL A   1      43.581  26.487  26.731  1.00  0.00     0.037 A 
ATOM     26  C   UNL A   1      43.232  29.338  32.947  1.00  0.00     0.049 A 
ATOM     27  C   UNL A   1      44.473  26.673  27.906  1.00  0.00     0.074 A 
ATOM     28  C   UNL A   1      43.333  30.712  32.844  1.00  0.00     0.029 A 
ATOM     29  N   UNL A   1      44.298  28.833  32.244  1.00  0.00    -0.354 N 
ATOM     30  N   UNL A   1      45.181  27.749  28.110  1.00  0.00    -0.248 NA
ATOM     31  C   UNL A   1      44.203  25.870  29.092  1.00  0.00     0.031 C 
ATOM     32  C   UNL A   1      44.152  30.939  31.699  1.00  0.00     0.029 A 
ATOM     33  C   UNL A   1      44.571  29.698  31.218  1.00  0.00     0.049 A 
ATOM     34  H   UNL A   1      44.780  27.997  32.442  1.00  0.00     0.167 HD
ATOM     35  C   UNL A   1      45.050  28.000  29.467  1.00  0.00     0.074 A 
ATOM     36  C   UNL A   1      44.505  26.769  30.034  1.00  0.00     0.031 C 
ATOM     37  C   UNL A   1      45.116  29.276  29.951  1.00  0.00     0.037 A 
BRANCH  24  38
ATOM     38  C   UNL A   1      42.412  27.215  34.171  1.00  0.00     0.064 A 
ATOM     39  C   UNL A   1      42.081  27.283  35.539  1.00  0.00     0.173 A 
ATOM     40  C   UNL A   1      43.240  26.132  33.799  1.00  0.00     0.173 A 
ATOM     41  F   UNL A   1      41.310  28.277  36.007  1.00  0.00    -0.203 F 
ATOM     42  C   UNL A   1      42.623  26.397  36.474  1.00  0.00     0.198 A 
ATOM     43  C   UNL A   1      43.737  25.221  34.727  1.00  0.00     0.198 A 
ATOM     44  F   UNL A   1      43.703  25.975  32.555  1.00  0.00    -0.203 F 
ATOM     45  F   UNL A   1      42.393  26.587  37.779  1.00  0.00    -0.200 F 
ATOM     46  C   UNL A   1      43.458  25.373  36.067  1.00  0.00     0.200 A 
ATOM     47  F   UNL A   1      44.561  24.248  34.314  1.00  0.00    -0.200 F 
ATOM     48  F   UNL A   1      44.035  24.567  36.967  1.00  0.00    -0.200 F 
ENDBRANCH  24  38
BRANCH  25  49
ATOM     49  C   UNL A   1      43.682  25.297  25.853  1.00  0.00     0.064 A 
ATOM     50  C   UNL A   1      44.864  25.020  25.147  1.00  0.00     0.173 A 
ATOM     51  C   UNL A   1      42.736  24.256  25.920  1.00  0.00     0.173 A 
ATOM     52  F   UNL A   1      45.837  25.941  25.073  1.00  0.00    -0.203 F 
ATOM     53  C   UNL A   1      45.101  23.767  24.571  1.00  0.00     0.198 A 
ATOM     54  C   UNL A   1      42.971  23.007  25.341  1.00  0.00     0.198 A 
ATOM     55  F   UNL A   1      41.610  24.392  26.635  1.00  0.00    -0.203 F 
ATOM     56  F   UNL A   1      46.271  23.519  23.964  1.00  0.00    -0.200 F 
ATOM     57  C   UNL A   1      44.159  22.758  24.680  1.00  0.00     0.200 A 
ATOM     58  F   UNL A   1      42.068  22.027  25.488  1.00  0.00    -0.200 F 
ATOM     59  F   UNL A   1      44.412  21.537  24.189  1.00  0.00    -0.200 F 
ENDBRANCH  25  49
BRANCH  37  60
ATOM     60  C   UNL A   1      45.609  30.352  29.024  1.00  0.00     0.064 A 
ATOM     61  C   UNL A   1      46.964  30.675  28.825  1.00  0.00     0.173 A 
ATOM     62  C   UNL A   1      44.667  31.001  28.216  1.00  0.00     0.173 A 
ATOM     63  F   UNL A   1      47.934  30.024  29.479  1.00  0.00    -0.203 F 
ATOM     64  C   UNL A   1      47.345  31.645  27.898  1.00  0.00     0.198 A 
ATOM     65  C   UNL A   1      45.053  31.938  27.263  1.00  0.00     0.198 A 
ATOM     66  F   UNL A   1      43.365  30.694  28.321  1.00  0.00    -0.203 F 
ATOM     67  F   UNL A   1      48.641  31.952  27.741  1.00  0.00    -0.200 F 
ATOM     68  C   UNL A   1      46.390  32.271  27.115  1.00  0.00     0.200 A 
ATOM     69  F   UNL A   1      44.130  32.501  26.472  1.00  0.00    -0.200 F 
ATOM     70  F   UNL A   1      46.758  33.177  26.198  1.00  0.00    -0.200 F 
ENDBRANCH  37  60
ENDBRANCH  11  12
ENDBRANCH   4   6
ENDBRANCH   3   4
ENDBRANCH   2   3
ENDBRANCH   1   2
BRANCH   1  71
ATOM     71  O   UNL A   1      32.283  29.451  25.794  1.00  0.00    -0.374 OA
BRANCH  71  72
ATOM     72  C   UNL A   1      32.615  29.029  24.461  1.00  0.00     0.202 C 
BRANCH  72  73
ATOM     73  C   UNL A   1      33.891  28.198  24.259  1.00  0.00     0.261 C 
BRANCH  73  74
ATOM     74  O   UNL A   1      33.628  26.786  24.244  1.00  0.00    -0.460 OA
BRANCH  74  75
ATOM     75  C   UNL A   1      33.463  26.152  23.040  1.00  0.00     0.343 C 
ATOM     76  O   UNL A   1      33.940  26.537  21.991  1.00  0.00    -0.246 OA
BRANCH  75  77
ATOM     77  C   UNL A   1      32.698  24.927  23.204  1.00  0.00     0.121 A 
ATOM     78  C   UNL A   1      31.323  24.620  23.452  1.00  0.00     0.082 A 
ATOM     79  C   UNL A   1      33.290  23.683  23.202  1.00  0.00     0.147 A 
ATOM     80  N   UNL A   1      31.105  23.294  23.520  1.00  0.00    -0.170 NA
ATOM     81  N   UNL A   1      32.333  22.748  23.480  1.00  0.00    -0.221 N 
ATOM     82  Cl  UNL A   1      34.915  23.200  22.920  1.00  0.00    -0.061 Cl
BRANCH  78  83
ATOM     83  C   UNL A   1      30.078  25.489  23.657  1.00  0.00     0.041 C 
ATOM     84  C   UNL A   1      29.970  26.660  24.590  1.00  0.00     0.011 C 
ATOM     85  C   UNL A   1      30.020  26.893  23.114  1.00  0.00     0.011 C 
ENDBRANCH  78  83
BRANCH  81  86
ATOM     86  C   UNL A   1      32.530  21.402  23.841  1.00  0.00     0.069 A 
ATOM     87  C   UNL A   1      32.892  21.075  25.151  1.00  0.00     0.030 A 
ATOM     88  C   UNL A   1      32.269  20.408  22.890  1.00  0.00     0.069 A 
ATOM     89  C   UNL A   1      32.890  19.730  25.531  1.00  0.00     0.026 A 
ATOM     90  C   UNL A   1      32.301  19.079  23.276  1.00  0.00     0.143 A 
ATOM     91  C   UNL A   1      32.582  18.735  24.597  1.00  0.00     0.076 A 
ATOM     92  F   UNL A   1      32.029  18.142  22.357  1.00  0.00    -0.205 F 
ATOM     93  Cl  UNL A   1      32.523  17.090  25.094  1.00  0.00    -0.081 Cl
ENDBRANCH  81  86
ENDBRANCH  75  77
ENDBRANCH  74  75
ENDBRANCH  73  74
ENDBRANCH  72  73
ENDBRANCH  71  72
ENDBRANCH   1  71
TORSDOF 16
ENDMDL
