MODEL 1
REMARK VINA RESULT:     -11.6      0.000      0.000
REMARK SMILES O=C(OCCOCCOC(=O)c1ccccc1Nc1cccc(C(F)(F)F)c1)c1ccc(-c2c3nc(c(-c4c(F)c(F)c(F)c(F)c4F)c4ccc([nH]4)c(-c4c(F)c(F)c(F)c(F)c4F)c4nc(c(-c5c(F)c(F)c(F)c(F)c5F)c5ccc2[nH]5)C=C4)C=C3)cc1
REMARK SMILES IDX 7 1 6 2 5 3 4 4 3 5 2 6 1 7 29 8 30 9 91 10 31 11 90 12
REMARK SMILES IDX 32 13 33 14 34 15 84 16 35 17 89 18 83 19 85 20 36 21 88 22
REMARK SMILES IDX 82 23 81 24 37 26 69 27 49 28 68 29 50 30 53 31 67 32 86 33
REMARK SMILES IDX 51 34 52 35 66 37 87 38 54 39 38 40 39 41 47 42 40 43 41 44
REMARK SMILES IDX 45 45 48 46 42 47 43 48 46 49 44 50 70 51 71 52 79 53 72 54
REMARK SMILES IDX 73 55 77 56 80 57 74 58 75 59 78 60 76 61 55 62 56 63 64 64
REMARK SMILES IDX 57 65 58 66 62 67 65 68 59 69 60 70 63 71 61 72 8 73 9 74
REMARK SMILES IDX 10 75 11 76 12 77 13 78 17 79 14 80 16 81 15 82 18 83 19 85
REMARK SMILES IDX 20 86 28 87 21 88 23 89 22 90 24 91 25 92 26 93 27 94
REMARK H PARENT 85 25 53 36 18 84
REMARK Flexibility Score: inf
ROOT
ATOM      1  C   UNL A   1      33.985  29.220  26.477  1.00  0.00     0.202 C 
ENDROOT
BRANCH   1   2
ATOM      2  O   UNL A   1      33.170  30.327  26.082  1.00  0.00    -0.374 OA
BRANCH   2   3
ATOM      3  C   UNL A   1      32.033  30.599  26.898  1.00  0.00     0.202 C 
BRANCH   3   4
ATOM      4  C   UNL A   1      31.517  32.034  26.777  1.00  0.00     0.261 C 
BRANCH   4   5
ATOM      5  O   UNL A   1      32.613  32.963  26.804  1.00  0.00    -0.460 OA
BRANCH   5   6
ATOM      6  C   UNL A   1      33.241  33.501  27.874  1.00  0.00     0.338 C 
ATOM      7  O   UNL A   1      32.800  34.547  28.349  1.00  0.00    -0.246 OA
BRANCH   6   8
ATOM      8  C   UNL A   1      34.456  32.911  28.518  1.00  0.00     0.060 A 
ATOM      9  C   UNL A   1      34.475  31.724  29.249  1.00  0.00     0.016 A 
ATOM     10  C   UNL A   1      35.686  33.552  28.283  1.00  0.00     0.016 A 
ATOM     11  C   UNL A   1      35.648  31.199  29.760  1.00  0.00     0.010 A 
ATOM     12  C   UNL A   1      36.885  33.015  28.768  1.00  0.00     0.010 A 
ATOM     13  C   UNL A   1      36.860  31.835  29.515  1.00  0.00    -0.014 A 
BRANCH  13  14
ATOM     14  C   UNL A   1      38.045  31.261  30.170  1.00  0.00     0.031 A 
ATOM     15  C   UNL A   1      38.264  31.557  31.619  1.00  0.00     0.074 A 
ATOM     16  C   UNL A   1      38.761  30.327  29.516  1.00  0.00     0.049 A 
ATOM     17  N   UNL A   1      39.198  31.124  32.420  1.00  0.00    -0.248 NA
ATOM     18  C   UNL A   1      37.275  32.439  32.261  1.00  0.00     0.031 C 
ATOM     19  C   UNL A   1      38.505  29.882  28.144  1.00  0.00     0.029 A 
ATOM     20  N   UNL A   1      39.807  29.550  29.929  1.00  0.00    -0.354 N 
ATOM     21  C   UNL A   1      38.915  31.686  33.656  1.00  0.00     0.074 A 
ATOM     22  C   UNL A   1      37.733  32.501  33.502  1.00  0.00     0.031 C 
ATOM     23  C   UNL A   1      39.354  28.889  27.839  1.00  0.00     0.029 A 
ATOM     24  C   UNL A   1      40.254  28.678  28.966  1.00  0.00     0.049 A 
ATOM     25  H   UNL A   1      40.202  29.609  30.829  1.00  0.00     0.167 HD
ATOM     26  C   UNL A   1      39.595  31.527  34.815  1.00  0.00     0.037 A 
ATOM     27  C   UNL A   1      41.300  27.831  28.994  1.00  0.00     0.037 A 
ATOM     28  C   UNL A   1      40.778  30.719  34.926  1.00  0.00     0.049 A 
ATOM     29  C   UNL A   1      42.108  27.765  30.263  1.00  0.00     0.074 A 
ATOM     30  C   UNL A   1      41.630  30.566  36.003  1.00  0.00     0.029 A 
ATOM     31  N   UNL A   1      41.272  29.917  33.902  1.00  0.00    -0.354 N 
ATOM     32  N   UNL A   1      41.901  28.376  31.407  1.00  0.00    -0.248 NA
ATOM     33  C   UNL A   1      43.298  26.909  30.246  1.00  0.00     0.031 C 
ATOM     34  C   UNL A   1      42.660  29.700  35.617  1.00  0.00     0.029 A 
ATOM     35  C   UNL A   1      42.423  29.273  34.318  1.00  0.00     0.049 A 
ATOM     36  H   UNL A   1      40.862  29.823  33.012  1.00  0.00     0.167 HD
ATOM     37  C   UNL A   1      42.926  27.972  32.249  1.00  0.00     0.074 A 
ATOM     38  C   UNL A   1      43.735  27.036  31.490  1.00  0.00     0.031 C 
ATOM     39  C   UNL A   1      43.190  28.345  33.526  1.00  0.00     0.037 A 
BRANCH  26  40
ATOM     40  C   UNL A   1      39.104  32.298  36.003  1.00  0.00     0.064 A 
ATOM     41  C   UNL A   1      39.533  33.608  36.266  1.00  0.00     0.173 A 
ATOM     42  C   UNL A   1      38.226  31.699  36.919  1.00  0.00     0.173 A 
ATOM     43  F   UNL A   1      40.401  34.212  35.439  1.00  0.00    -0.203 F 
ATOM     44  C   UNL A   1      39.125  34.278  37.417  1.00  0.00     0.198 A 
ATOM     45  C   UNL A   1      37.799  32.382  38.055  1.00  0.00     0.198 A 
ATOM     46  F   UNL A   1      37.795  30.445  36.722  1.00  0.00    -0.203 F 
ATOM     47  F   UNL A   1      39.596  35.505  37.679  1.00  0.00    -0.200 F 
ATOM     48  C   UNL A   1      38.256  33.667  38.308  1.00  0.00     0.200 A 
ATOM     49  F   UNL A   1      36.960  31.789  38.915  1.00  0.00    -0.200 F 
ATOM     50  F   UNL A   1      37.871  34.309  39.420  1.00  0.00    -0.200 F 
ENDBRANCH  26  40
BRANCH  27  51
ATOM     51  C   UNL A   1      41.678  27.050  27.784  1.00  0.00     0.064 A 
ATOM     52  C   UNL A   1      41.207  25.748  27.569  1.00  0.00     0.173 A 
ATOM     53  C   UNL A   1      42.557  27.585  26.827  1.00  0.00     0.173 A 
ATOM     54  F   UNL A   1      40.382  25.177  28.459  1.00  0.00    -0.203 F 
ATOM     55  C   UNL A   1      41.622  25.003  26.463  1.00  0.00     0.198 A 
ATOM     56  C   UNL A   1      42.942  26.854  25.705  1.00  0.00     0.198 A 
ATOM     57  F   UNL A   1      43.045  28.824  26.981  1.00  0.00    -0.203 F 
ATOM     58  F   UNL A   1      41.205  23.738  26.315  1.00  0.00    -0.200 F 
ATOM     59  C   UNL A   1      42.485  25.558  25.530  1.00  0.00     0.200 A 
ATOM     60  F   UNL A   1      43.765  27.404  24.801  1.00  0.00    -0.200 F 
ATOM     61  F   UNL A   1      42.886  24.841  24.472  1.00  0.00    -0.200 F 
ENDBRANCH  27  51
BRANCH  39  62
ATOM     62  C   UNL A   1      44.383  27.713  34.176  1.00  0.00     0.064 A 
ATOM     63  C   UNL A   1      45.646  28.320  34.135  1.00  0.00     0.173 A 
ATOM     64  C   UNL A   1      44.250  26.505  34.874  1.00  0.00     0.173 A 
ATOM     65  F   UNL A   1      45.823  29.468  33.464  1.00  0.00    -0.203 F 
ATOM     66  C   UNL A   1      46.743  27.722  34.748  1.00  0.00     0.198 A 
ATOM     67  C   UNL A   1      45.341  25.927  35.513  1.00  0.00     0.198 A 
ATOM     68  F   UNL A   1      43.059  25.892  34.946  1.00  0.00    -0.203 F 
ATOM     69  F   UNL A   1      47.953  28.290  34.652  1.00  0.00    -0.200 F 
ATOM     70  C   UNL A   1      46.588  26.531  35.442  1.00  0.00     0.200 A 
ATOM     71  F   UNL A   1      45.188  24.784  36.196  1.00  0.00    -0.200 F 
ATOM     72  F   UNL A   1      47.645  25.960  36.036  1.00  0.00    -0.200 F 
ENDBRANCH  39  62
ENDBRANCH  13  14
ENDBRANCH   6   8
ENDBRANCH   5   6
ENDBRANCH   4   5
ENDBRANCH   3   4
ENDBRANCH   2   3
ENDBRANCH   1   2
BRANCH   1  73
ATOM     73  C   UNL A   1      33.654  28.031  25.573  1.00  0.00     0.261 C 
BRANCH  73  74
ATOM     74  O   UNL A   1      33.223  26.944  26.406  1.00  0.00    -0.460 OA
BRANCH  74  75
ATOM     75  C   UNL A   1      31.885  26.674  26.390  1.00  0.00     0.340 C 
ATOM     76  O   UNL A   1      31.017  27.284  26.974  1.00  0.00    -0.246 OA
BRANCH  75  77
ATOM     77  C   UNL A   1      31.644  25.607  25.373  1.00  0.00     0.083 A 
ATOM     78  C   UNL A   1      31.973  24.299  25.765  1.00  0.00     0.018 A 
ATOM     79  C   UNL A   1      31.065  25.867  24.106  1.00  0.00     0.053 A 
ATOM     80  C   UNL A   1      31.703  23.226  24.920  1.00  0.00     0.001 A 
ATOM     81  C   UNL A   1      30.836  24.770  23.265  1.00  0.00     0.027 A 
ATOM     82  C   UNL A   1      31.133  23.464  23.674  1.00  0.00     0.002 A 
BRANCH  79  83
ATOM     83  N   UNL A   1      30.831  27.195  23.699  1.00  0.00    -0.355 N 
ATOM     84  H   UNL A   1      31.669  27.671  23.493  1.00  0.00     0.167 HD
BRANCH  83  85
ATOM     85  C   UNL A   1      29.709  28.007  23.515  1.00  0.00     0.039 A 
ATOM     86  C   UNL A   1      28.454  27.382  23.549  1.00  0.00     0.026 A 
ATOM     87  C   UNL A   1      29.766  29.385  23.310  1.00  0.00     0.039 A 
ATOM     88  C   UNL A   1      27.278  28.110  23.396  1.00  0.00     0.003 A 
ATOM     89  C   UNL A   1      28.589  30.134  23.133  1.00  0.00     0.058 A 
ATOM     90  C   UNL A   1      27.345  29.484  23.191  1.00  0.00     0.013 A 
BRANCH  89  91
ATOM     91  C   UNL A   1      28.643  31.621  22.894  1.00  0.00     0.416 C 
ATOM     92  F   UNL A   1      29.117  32.307  23.971  1.00  0.00    -0.166 F 
ATOM     93  F   UNL A   1      29.459  31.947  21.855  1.00  0.00    -0.166 F 
ATOM     94  F   UNL A   1      27.432  32.172  22.606  1.00  0.00    -0.166 F 
ENDBRANCH  89  91
ENDBRANCH  83  85
ENDBRANCH  79  83
ENDBRANCH  75  77
ENDBRANCH  74  75
ENDBRANCH  73  74
ENDBRANCH   1  73
TORSDOF 17
ENDMDL
MODEL 2
REMARK VINA RESULT:     -11.3      5.582     11.113
REMARK SMILES O=C(OCCOCCOC(=O)c1ccccc1Nc1cccc(C(F)(F)F)c1)c1ccc(-c2c3nc(c(-c4c(F)c(F)c(F)c(F)c4F)c4ccc([nH]4)c(-c4c(F)c(F)c(F)c(F)c4F)c4nc(c(-c5c(F)c(F)c(F)c(F)c5F)c5ccc2[nH]5)C=C4)C=C3)cc1
REMARK SMILES IDX 7 1 6 2 5 3 4 4 3 5 2 6 1 7 29 8 30 9 91 10 31 11 90 12
REMARK SMILES IDX 32 13 33 14 34 15 84 16 35 17 89 18 83 19 85 20 36 21 88 22
REMARK SMILES IDX 82 23 81 24 37 26 69 27 49 28 68 29 50 30 53 31 67 32 86 33
REMARK SMILES IDX 51 34 52 35 66 37 87 38 54 39 38 40 39 41 47 42 40 43 41 44
REMARK SMILES IDX 45 45 48 46 42 47 43 48 46 49 44 50 70 51 71 52 79 53 72 54
REMARK SMILES IDX 73 55 77 56 80 57 74 58 75 59 78 60 76 61 55 62 56 63 64 64
REMARK SMILES IDX 57 65 58 66 62 67 65 68 59 69 60 70 63 71 61 72 8 73 9 74
REMARK SMILES IDX 10 75 11 76 12 77 13 78 17 79 14 80 16 81 15 82 18 83 19 85
REMARK SMILES IDX 20 86 28 87 21 88 23 89 22 90 24 91 25 92 26 93 27 94
REMARK H PARENT 85 25 53 36 18 84
REMARK Flexibility Score: inf
ROOT
ATOM      1  C   UNL A   1      37.823  21.676  25.357  1.00  0.00     0.202 C 
ENDROOT
BRANCH   1   2
ATOM      2  O   UNL A   1      37.407  20.458  24.736  1.00  0.00    -0.374 OA
BRANCH   2   3
ATOM      3  C   UNL A   1      38.249  19.325  24.937  1.00  0.00     0.202 C 
BRANCH   3   4
ATOM      4  C   UNL A   1      39.320  19.536  26.009  1.00  0.00     0.261 C 
BRANCH   4   5
ATOM      5  O   UNL A   1      40.542  18.880  25.631  1.00  0.00    -0.460 OA
BRANCH   5   6
ATOM      6  C   UNL A   1      41.817  19.250  25.888  1.00  0.00     0.338 C 
ATOM      7  O   UNL A   1      42.706  18.406  25.784  1.00  0.00    -0.246 OA
BRANCH   6   8
ATOM      8  C   UNL A   1      42.222  20.629  26.307  1.00  0.00     0.060 A 
ATOM      9  C   UNL A   1      42.510  21.012  27.616  1.00  0.00     0.016 A 
ATOM     10  C   UNL A   1      42.419  21.580  25.290  1.00  0.00     0.016 A 
ATOM     11  C   UNL A   1      42.945  22.289  27.924  1.00  0.00     0.010 A 
ATOM     12  C   UNL A   1      42.888  22.866  25.583  1.00  0.00     0.010 A 
ATOM     13  C   UNL A   1      43.145  23.220  26.911  1.00  0.00    -0.014 A 
BRANCH  13  14
ATOM     14  C   UNL A   1      43.520  24.578  27.334  1.00  0.00     0.031 A 
ATOM     15  C   UNL A   1      44.906  25.051  27.037  1.00  0.00     0.074 A 
ATOM     16  C   UNL A   1      42.557  25.412  27.767  1.00  0.00     0.049 A 
ATOM     17  N   UNL A   1      45.448  26.217  27.261  1.00  0.00    -0.248 NA
ATOM     18  C   UNL A   1      45.797  24.088  26.369  1.00  0.00     0.031 C 
ATOM     19  C   UNL A   1      41.147  25.052  27.936  1.00  0.00     0.029 A 
ATOM     20  N   UNL A   1      42.603  26.740  28.090  1.00  0.00    -0.354 N 
ATOM     21  C   UNL A   1      46.742  26.125  26.770  1.00  0.00     0.074 A 
ATOM     22  C   UNL A   1      46.913  24.789  26.247  1.00  0.00     0.031 C 
ATOM     23  C   UNL A   1      40.457  26.141  28.305  1.00  0.00     0.029 A 
ATOM     24  C   UNL A   1      41.385  27.254  28.464  1.00  0.00     0.049 A 
ATOM     25  H   UNL A   1      43.428  27.276  28.058  1.00  0.00     0.167 HD
ATOM     26  C   UNL A   1      47.696  27.083  26.762  1.00  0.00     0.037 A 
ATOM     27  C   UNL A   1      41.075  28.483  28.915  1.00  0.00     0.037 A 
ATOM     28  C   UNL A   1      47.493  28.397  27.306  1.00  0.00     0.049 A 
ATOM     29  C   UNL A   1      42.189  29.493  29.006  1.00  0.00     0.074 A 
ATOM     30  C   UNL A   1      48.406  29.421  27.473  1.00  0.00     0.029 A 
ATOM     31  N   UNL A   1      46.270  28.866  27.773  1.00  0.00    -0.354 N 
ATOM     32  N   UNL A   1      43.442  29.376  28.634  1.00  0.00    -0.248 NA
ATOM     33  C   UNL A   1      41.854  30.797  29.587  1.00  0.00     0.031 C 
ATOM     34  C   UNL A   1      47.742  30.496  28.075  1.00  0.00     0.029 A 
ATOM     35  C   UNL A   1      46.405  30.162  28.237  1.00  0.00     0.049 A 
ATOM     36  H   UNL A   1      45.432  28.350  27.774  1.00  0.00     0.167 HD
ATOM     37  C   UNL A   1      44.045  30.590  28.926  1.00  0.00     0.074 A 
ATOM     38  C   UNL A   1      43.007  31.441  29.476  1.00  0.00     0.031 C 
ATOM     39  C   UNL A   1      45.338  30.970  28.770  1.00  0.00     0.037 A 
BRANCH  26  40
ATOM     40  C   UNL A   1      49.039  26.701  26.216  1.00  0.00     0.064 A 
ATOM     41  C   UNL A   1      50.003  26.052  27.003  1.00  0.00     0.173 A 
ATOM     42  C   UNL A   1      49.384  27.031  24.897  1.00  0.00     0.173 A 
ATOM     43  F   UNL A   1      49.735  25.747  28.283  1.00  0.00    -0.203 F 
ATOM     44  C   UNL A   1      51.272  25.775  26.499  1.00  0.00     0.198 A 
ATOM     45  C   UNL A   1      50.645  26.729  24.388  1.00  0.00     0.198 A 
ATOM     46  F   UNL A   1      48.505  27.663  24.106  1.00  0.00    -0.203 F 
ATOM     47  F   UNL A   1      52.196  25.211  27.289  1.00  0.00    -0.200 F 
ATOM     48  C   UNL A   1      51.591  26.110  25.192  1.00  0.00     0.200 A 
ATOM     49  F   UNL A   1      50.951  27.055  23.124  1.00  0.00    -0.200 F 
ATOM     50  F   UNL A   1      52.815  25.853  24.711  1.00  0.00    -0.200 F 
ENDBRANCH  26  40
BRANCH  27  51
ATOM     51  C   UNL A   1      39.694  28.798  29.377  1.00  0.00     0.064 A 
ATOM     52  C   UNL A   1      39.271  28.520  30.684  1.00  0.00     0.173 A 
ATOM     53  C   UNL A   1      38.750  29.355  28.497  1.00  0.00     0.173 A 
ATOM     54  F   UNL A   1      40.122  27.968  31.561  1.00  0.00    -0.203 F 
ATOM     55  C   UNL A   1      37.955  28.760  31.083  1.00  0.00     0.198 A 
ATOM     56  C   UNL A   1      37.447  29.628  28.908  1.00  0.00     0.198 A 
ATOM     57  F   UNL A   1      39.095  29.638  27.233  1.00  0.00    -0.203 F 
ATOM     58  F   UNL A   1      37.562  28.427  32.320  1.00  0.00    -0.200 F 
ATOM     59  C   UNL A   1      37.046  29.317  30.197  1.00  0.00     0.200 A 
ATOM     60  F   UNL A   1      36.579  30.180  28.049  1.00  0.00    -0.200 F 
ATOM     61  F   UNL A   1      35.782  29.543  30.580  1.00  0.00    -0.200 F 
ENDBRANCH  27  51
BRANCH  39  62
ATOM     62  C   UNL A   1      45.677  32.372  29.177  1.00  0.00     0.064 A 
ATOM     63  C   UNL A   1      45.554  33.444  28.282  1.00  0.00     0.173 A 
ATOM     64  C   UNL A   1      46.099  32.645  30.485  1.00  0.00     0.173 A 
ATOM     65  F   UNL A   1      45.170  33.227  27.015  1.00  0.00    -0.203 F 
ATOM     66  C   UNL A   1      45.868  34.740  28.677  1.00  0.00     0.198 A 
ATOM     67  C   UNL A   1      46.381  33.946  30.886  1.00  0.00     0.198 A 
ATOM     68  F   UNL A   1      46.224  31.651  31.377  1.00  0.00    -0.203 F 
ATOM     69  F   UNL A   1      45.795  35.745  27.793  1.00  0.00    -0.200 F 
ATOM     70  C   UNL A   1      46.275  34.991  29.980  1.00  0.00     0.200 A 
ATOM     71  F   UNL A   1      46.759  34.189  32.149  1.00  0.00    -0.200 F 
ATOM     72  F   UNL A   1      46.572  36.241  30.360  1.00  0.00    -0.200 F 
ENDBRANCH  39  62
ENDBRANCH  13  14
ENDBRANCH   6   8
ENDBRANCH   5   6
ENDBRANCH   4   5
ENDBRANCH   3   4
ENDBRANCH   2   3
ENDBRANCH   1   2
BRANCH   1  73
ATOM     73  C   UNL A   1      37.256  22.847  24.550  1.00  0.00     0.261 C 
BRANCH  73  74
ATOM     74  O   UNL A   1      36.061  23.301  25.204  1.00  0.00    -0.460 OA
BRANCH  74  75
ATOM     75  C   UNL A   1      35.030  23.658  24.383  1.00  0.00     0.340 C 
ATOM     76  O   UNL A   1      35.041  23.669  23.172  1.00  0.00    -0.246 OA
BRANCH  75  77
ATOM     77  C   UNL A   1      33.814  23.851  25.229  1.00  0.00     0.083 A 
ATOM     78  C   UNL A   1      33.437  25.182  25.467  1.00  0.00     0.018 A 
ATOM     79  C   UNL A   1      33.039  22.771  25.722  1.00  0.00     0.053 A 
ATOM     80  C   UNL A   1      32.269  25.464  26.170  1.00  0.00     0.001 A 
ATOM     81  C   UNL A   1      31.888  23.087  26.454  1.00  0.00     0.027 A 
ATOM     82  C   UNL A   1      31.496  24.416  26.659  1.00  0.00     0.002 A 
BRANCH  79  83
ATOM     83  N   UNL A   1      33.488  21.447  25.550  1.00  0.00    -0.355 N 
ATOM     84  H   UNL A   1      34.145  21.188  26.237  1.00  0.00     0.167 HD
BRANCH  83  85
ATOM     85  C   UNL A   1      33.236  20.409  24.649  1.00  0.00     0.039 A 
ATOM     86  C   UNL A   1      32.390  20.692  23.567  1.00  0.00     0.026 A 
ATOM     87  C   UNL A   1      33.777  19.129  24.761  1.00  0.00     0.039 A 
ATOM     88  C   UNL A   1      32.097  19.729  22.607  1.00  0.00     0.003 A 
ATOM     89  C   UNL A   1      33.475  18.137  23.810  1.00  0.00     0.058 A 
ATOM     90  C   UNL A   1      32.641  18.455  22.726  1.00  0.00     0.013 A 
BRANCH  89  91
ATOM     91  C   UNL A   1      34.043  16.746  23.932  1.00  0.00     0.416 C 
ATOM     92  F   UNL A   1      34.403  16.220  22.729  1.00  0.00    -0.166 F 
ATOM     93  F   UNL A   1      35.162  16.712  24.706  1.00  0.00    -0.166 F 
ATOM     94  F   UNL A   1      33.178  15.851  24.486  1.00  0.00    -0.166 F 
ENDBRANCH  89  91
ENDBRANCH  83  85
ENDBRANCH  79  83
ENDBRANCH  75  77
ENDBRANCH  74  75
ENDBRANCH  73  74
ENDBRANCH   1  73
TORSDOF 17
ENDMDL
MODEL 3
REMARK VINA RESULT:     -11.2      5.328     11.020
REMARK SMILES O=C(OCCOCCOC(=O)c1ccccc1Nc1cccc(C(F)(F)F)c1)c1ccc(-c2c3nc(c(-c4c(F)c(F)c(F)c(F)c4F)c4ccc([nH]4)c(-c4c(F)c(F)c(F)c(F)c4F)c4nc(c(-c5c(F)c(F)c(F)c(F)c5F)c5ccc2[nH]5)C=C4)C=C3)cc1
REMARK SMILES IDX 7 1 6 2 5 3 4 4 3 5 2 6 1 7 29 8 30 9 91 10 31 11 90 12
REMARK SMILES IDX 32 13 33 14 34 15 84 16 35 17 89 18 83 19 85 20 36 21 88 22
REMARK SMILES IDX 82 23 81 24 37 26 69 27 49 28 68 29 50 30 53 31 67 32 86 33
REMARK SMILES IDX 51 34 52 35 66 37 87 38 54 39 38 40 39 41 47 42 40 43 41 44
REMARK SMILES IDX 45 45 48 46 42 47 43 48 46 49 44 50 70 51 71 52 79 53 72 54
REMARK SMILES IDX 73 55 77 56 80 57 74 58 75 59 78 60 76 61 55 62 56 63 64 64
REMARK SMILES IDX 57 65 58 66 62 67 65 68 59 69 60 70 63 71 61 72 8 73 9 74
REMARK SMILES IDX 10 75 11 76 12 77 13 78 17 79 14 80 16 81 15 82 18 83 19 85
REMARK SMILES IDX 20 86 28 87 21 88 23 89 22 90 24 91 25 92 26 93 27 94
REMARK H PARENT 85 25 53 36 18 84
REMARK Flexibility Score: inf
ROOT
ATOM      1  C   UNL A   1      37.233  22.240  25.746  1.00  0.00     0.202 C 
ENDROOT
BRANCH   1   2
ATOM      2  O   UNL A   1      38.457  21.548  25.486  1.00  0.00    -0.374 OA
BRANCH   2   3
ATOM      3  C   UNL A   1      38.339  20.225  24.965  1.00  0.00     0.202 C 
BRANCH   3   4
ATOM      4  C   UNL A   1      39.124  19.179  25.758  1.00  0.00     0.261 C 
BRANCH   4   5
ATOM      5  O   UNL A   1      40.521  19.245  25.426  1.00  0.00    -0.460 OA
BRANCH   5   6
ATOM      6  C   UNL A   1      41.565  19.585  26.216  1.00  0.00     0.338 C 
ATOM      7  O   UNL A   1      42.247  18.687  26.707  1.00  0.00    -0.246 OA
BRANCH   6   8
ATOM      8  C   UNL A   1      41.941  20.995  26.548  1.00  0.00     0.060 A 
ATOM      9  C   UNL A   1      41.907  22.062  25.651  1.00  0.00     0.016 A 
ATOM     10  C   UNL A   1      42.257  21.280  27.888  1.00  0.00     0.016 A 
ATOM     11  C   UNL A   1      42.203  23.355  26.042  1.00  0.00     0.010 A 
ATOM     12  C   UNL A   1      42.528  22.589  28.305  1.00  0.00     0.010 A 
ATOM     13  C   UNL A   1      42.506  23.629  27.371  1.00  0.00    -0.014 A 
BRANCH  13  14
ATOM     14  C   UNL A   1      42.896  25.012  27.682  1.00  0.00     0.031 A 
ATOM     15  C   UNL A   1      44.224  25.496  27.197  1.00  0.00     0.074 A 
ATOM     16  C   UNL A   1      41.974  25.848  28.193  1.00  0.00     0.049 A 
ATOM     17  N   UNL A   1      44.761  26.681  27.300  1.00  0.00    -0.248 NA
ATOM     18  C   UNL A   1      45.050  24.519  26.469  1.00  0.00     0.031 C 
ATOM     19  C   UNL A   1      40.604  25.470  28.550  1.00  0.00     0.029 A 
ATOM     20  N   UNL A   1      42.026  27.191  28.448  1.00  0.00    -0.354 N 
ATOM     21  C   UNL A   1      45.987  26.590  26.658  1.00  0.00     0.074 A 
ATOM     22  C   UNL A   1      46.126  25.234  26.180  1.00  0.00     0.031 C 
ATOM     23  C   UNL A   1      39.937  26.563  28.951  1.00  0.00     0.029 A 
ATOM     24  C   UNL A   1      40.850  27.699  28.944  1.00  0.00     0.049 A 
ATOM     25  H   UNL A   1      42.827  27.740  28.291  1.00  0.00     0.167 HD
ATOM     26  C   UNL A   1      46.910  27.564  26.491  1.00  0.00     0.037 A 
ATOM     27  C   UNL A   1      40.568  28.942  29.375  1.00  0.00     0.037 A 
ATOM     28  C   UNL A   1      46.742  28.899  26.995  1.00  0.00     0.049 A 
ATOM     29  C   UNL A   1      41.659  29.976  29.282  1.00  0.00     0.074 A 
ATOM     30  C   UNL A   1      47.644  29.947  27.003  1.00  0.00     0.029 A 
ATOM     31  N   UNL A   1      45.574  29.366  27.588  1.00  0.00    -0.354 N 
ATOM     32  N   UNL A   1      42.860  29.864  28.766  1.00  0.00    -0.248 NA
ATOM     33  C   UNL A   1      41.366  31.300  29.841  1.00  0.00     0.031 C 
ATOM     34  C   UNL A   1      47.032  31.036  27.633  1.00  0.00     0.029 A 
ATOM     35  C   UNL A   1      45.733  30.685  27.973  1.00  0.00     0.049 A 
ATOM     36  H   UNL A   1      44.755  28.836  27.715  1.00  0.00     0.167 HD
ATOM     37  C   UNL A   1      43.465  31.102  28.927  1.00  0.00     0.074 A 
ATOM     38  C   UNL A   1      42.481  31.959  29.561  1.00  0.00     0.031 C 
ATOM     39  C   UNL A   1      44.719  31.498  28.596  1.00  0.00     0.037 A 
BRANCH  26  40
ATOM     40  C   UNL A   1      48.184  27.182  25.801  1.00  0.00     0.064 A 
ATOM     41  C   UNL A   1      49.303  26.720  26.513  1.00  0.00     0.173 A 
ATOM     42  C   UNL A   1      48.306  27.325  24.411  1.00  0.00     0.173 A 
ATOM     43  F   UNL A   1      49.250  26.600  27.849  1.00  0.00    -0.203 F 
ATOM     44  C   UNL A   1      50.503  26.443  25.862  1.00  0.00     0.198 A 
ATOM     45  C   UNL A   1      49.499  27.023  23.760  1.00  0.00     0.198 A 
ATOM     46  F   UNL A   1      47.272  27.774  23.685  1.00  0.00    -0.203 F 
ATOM     47  F   UNL A   1      51.575  26.062  26.569  1.00  0.00    -0.200 F 
ATOM     48  C   UNL A   1      50.599  26.591  24.486  1.00  0.00     0.200 A 
ATOM     49  F   UNL A   1      49.590  27.167  22.430  1.00  0.00    -0.200 F 
ATOM     50  F   UNL A   1      51.757  26.334  23.861  1.00  0.00    -0.200 F 
ENDBRANCH  26  40
BRANCH  27  51
ATOM     51  C   UNL A   1      39.246  29.253  29.988  1.00  0.00     0.064 A 
ATOM     52  C   UNL A   1      38.219  29.865  29.257  1.00  0.00     0.173 A 
ATOM     53  C   UNL A   1      38.996  28.972  31.342  1.00  0.00     0.173 A 
ATOM     54  F   UNL A   1      38.408  30.177  27.966  1.00  0.00    -0.203 F 
ATOM     55  C   UNL A   1      37.009  30.210  29.861  1.00  0.00     0.198 A 
ATOM     56  C   UNL A   1      37.774  29.283  31.935  1.00  0.00     0.198 A 
ATOM     57  F   UNL A   1      39.942  28.391  32.093  1.00  0.00    -0.203 F 
ATOM     58  F   UNL A   1      36.068  30.851  29.154  1.00  0.00    -0.200 F 
ATOM     59  C   UNL A   1      36.786  29.914  31.198  1.00  0.00     0.200 A 
ATOM     60  F   UNL A   1      37.562  28.981  33.223  1.00  0.00    -0.200 F 
ATOM     61  F   UNL A   1      35.625  30.250  31.778  1.00  0.00    -0.200 F 
ENDBRANCH  27  51
BRANCH  39  62
ATOM     62  C   UNL A   1      45.072  32.924  28.894  1.00  0.00     0.064 A 
ATOM     63  C   UNL A   1      45.653  33.295  30.115  1.00  0.00     0.173 A 
ATOM     64  C   UNL A   1      44.855  33.921  27.933  1.00  0.00     0.173 A 
ATOM     65  F   UNL A   1      45.863  32.377  31.071  1.00  0.00    -0.203 F 
ATOM     66  C   UNL A   1      45.979  34.622  30.374  1.00  0.00     0.198 A 
ATOM     67  C   UNL A   1      45.213  35.241  28.182  1.00  0.00     0.198 A 
ATOM     68  F   UNL A   1      44.309  33.611  26.748  1.00  0.00    -0.203 F 
ATOM     69  F   UNL A   1      46.484  34.966  31.566  1.00  0.00    -0.200 F 
ATOM     70  C   UNL A   1      45.765  35.592  29.405  1.00  0.00     0.200 A 
ATOM     71  F   UNL A   1      45.020  36.175  27.240  1.00  0.00    -0.200 F 
ATOM     72  F   UNL A   1      46.085  36.869  29.654  1.00  0.00    -0.200 F 
ENDBRANCH  39  62
ENDBRANCH  13  14
ENDBRANCH   6   8
ENDBRANCH   5   6
ENDBRANCH   4   5
ENDBRANCH   3   4
ENDBRANCH   2   3
ENDBRANCH   1   2
BRANCH   1  73
ATOM     73  C   UNL A   1      37.296  23.604  25.056  1.00  0.00     0.261 C 
BRANCH  73  74
ATOM     74  O   UNL A   1      36.091  24.319  25.372  1.00  0.00    -0.460 OA
BRANCH  74  75
ATOM     75  C   UNL A   1      35.060  24.169  24.491  1.00  0.00     0.340 C 
ATOM     76  O   UNL A   1      35.139  23.799  23.341  1.00  0.00    -0.246 OA
BRANCH  75  77
ATOM     77  C   UNL A   1      33.782  24.356  25.243  1.00  0.00     0.083 A 
ATOM     78  C   UNL A   1      33.365  25.685  25.424  1.00  0.00     0.018 A 
ATOM     79  C   UNL A   1      32.994  23.272  25.703  1.00  0.00     0.053 A 
ATOM     80  C   UNL A   1      32.144  25.958  26.034  1.00  0.00     0.001 A 
ATOM     81  C   UNL A   1      31.786  23.581  26.343  1.00  0.00     0.027 A 
ATOM     82  C   UNL A   1      31.357  24.906  26.490  1.00  0.00     0.002 A 
BRANCH  79  83
ATOM     83  N   UNL A   1      33.478  21.954  25.594  1.00  0.00    -0.355 N 
ATOM     84  H   UNL A   1      34.194  21.769  26.245  1.00  0.00     0.167 HD
BRANCH  83  85
ATOM     85  C   UNL A   1      33.197  20.843  24.794  1.00  0.00     0.039 A 
ATOM     86  C   UNL A   1      32.456  21.068  23.624  1.00  0.00     0.026 A 
ATOM     87  C   UNL A   1      33.613  19.545  25.086  1.00  0.00     0.039 A 
ATOM     88  C   UNL A   1      32.146  20.027  22.754  1.00  0.00     0.003 A 
ATOM     89  C   UNL A   1      33.291  18.478  24.228  1.00  0.00     0.058 A 
ATOM     90  C   UNL A   1      32.565  18.735  23.054  1.00  0.00     0.013 A 
BRANCH  89  91
ATOM     91  C   UNL A   1      33.722  17.069  24.545  1.00  0.00     0.416 C 
ATOM     92  F   UNL A   1      35.076  16.925  24.549  1.00  0.00    -0.166 F 
ATOM     93  F   UNL A   1      33.299  16.664  25.773  1.00  0.00    -0.166 F 
ATOM     94  F   UNL A   1      33.252  16.143  23.664  1.00  0.00    -0.166 F 
ENDBRANCH  89  91
ENDBRANCH  83  85
ENDBRANCH  79  83
ENDBRANCH  75  77
ENDBRANCH  74  75
ENDBRANCH  73  74
ENDBRANCH   1  73
TORSDOF 17
ENDMDL
