MODEL 1
REMARK VINA RESULT:     -10.5      0.000      0.000
REMARK SMILES CCN1CC(=O)N(C[C@@H]([NH3+])C(=O)OCCOCCOC(=O)c2ccc(-c3c4nc(c(-c5c(F)c(F)c(F)c(F)c5F)c5ccc([nH]5)c(-c5c(F)c(F)c(F)c(F)c5F)c5nc(c(-c6c(F)c(F)c(F)c(F)c6F)c6ccc3[nH]6)C=C5)C=C4)cc2)CC1=O
REMARK SMILES IDX 15 1 14 2 13 3 11 4 12 5 9 6 8 7 7 8 3 9 4 10 86 11 5 12
REMARK SMILES IDX 85 13 87 14 6 15 2 16 1 17 10 18 16 22 17 23 18 24 19 25
REMARK SMILES IDX 20 26 21 27 22 28 23 29 84 30 24 31 83 32 25 33 26 34 27 35
REMARK SMILES IDX 77 36 28 37 82 38 76 39 78 40 29 41 81 42 75 43 74 44 30 46
REMARK SMILES IDX 62 47 42 48 61 49 43 50 46 51 60 52 79 53 44 54 45 55 59 57
REMARK SMILES IDX 80 58 47 59 31 60 32 61 40 62 33 63 34 64 38 65 41 66 35 67
REMARK SMILES IDX 36 68 39 69 37 70 63 71 64 72 72 73 65 74 66 75 70 76 73 77
REMARK SMILES IDX 67 78 68 79 71 80 69 81 48 82 49 83 57 84 50 85 51 86 55 87
REMARK SMILES IDX 58 88 52 89 53 90 56 91 54 92
REMARK H PARENT 10 19 10 20 10 21 78 45 46 56
REMARK Flexibility Score: inf
ROOT
ATOM      1  C   UNL A   1      41.558  20.998  26.506  1.00  0.00     0.202 C 
ENDROOT
BRANCH   1   2
ATOM      2  C   UNL A   1      40.377  21.907  26.853  1.00  0.00     0.261 C 
BRANCH   2   3
ATOM      3  O   UNL A   1      39.146  21.428  26.287  1.00  0.00    -0.459 OA
BRANCH   3   4
ATOM      4  C   UNL A   1      38.303  22.391  25.837  1.00  0.00     0.366 C 
ATOM      5  O   UNL A   1      38.310  23.563  26.209  1.00  0.00    -0.245 OA
BRANCH   4   6
ATOM      6  C   UNL A   1      37.266  21.891  24.815  1.00  0.00     0.311 C 
BRANCH   6   7
ATOM      7  C   UNL A   1      35.958  21.350  25.435  1.00  0.00     0.197 C 
BRANCH   7   8
ATOM      8  N   UNL A   1      34.759  22.126  25.082  1.00  0.00    -0.325 N 
ATOM      9  N   UNL A   1      32.888  23.937  24.062  1.00  0.00    -0.332 N 
ATOM     10  C   UNL A   1      32.880  23.668  25.506  1.00  0.00     0.219 C 
ATOM     11  C   UNL A   1      33.365  22.947  23.196  1.00  0.00     0.242 C 
ATOM     12  C   UNL A   1      34.160  22.972  26.005  1.00  0.00     0.242 C 
ATOM     13  C   UNL A   1      34.013  21.751  23.887  1.00  0.00     0.220 C 
ATOM     14  O   UNL A   1      33.131  22.941  21.988  1.00  0.00    -0.273 OA
ATOM     15  O   UNL A   1      34.543  23.058  27.171  1.00  0.00    -0.273 OA
BRANCH   9  16
ATOM     16  C   UNL A   1      32.011  24.944  23.465  1.00  0.00     0.116 C 
ATOM     17  C   UNL A   1      30.522  24.652  23.455  1.00  0.00     0.027 C 
ENDBRANCH   9  16
ENDBRANCH   7   8
ENDBRANCH   6   7
BRANCH   6  18
ATOM     18  N   UNL A   1      37.028  22.994  23.843  1.00  0.00    -0.344 N 
ATOM     19  H   UNL A   1      37.828  23.627  23.843  1.00  0.00     0.345 HD
ATOM     20  H   UNL A   1      36.188  23.508  24.110  1.00  0.00     0.345 HD
ATOM     21  H   UNL A   1      36.905  22.604  22.908  1.00  0.00     0.345 HD
ENDBRANCH   6  18
ENDBRANCH   4   6
ENDBRANCH   3   4
ENDBRANCH   2   3
ENDBRANCH   1   2
BRANCH   1  22
ATOM     22  O   UNL A   1      42.367  21.403  25.406  1.00  0.00    -0.374 OA
BRANCH  22  23
ATOM     23  C   UNL A   1      43.781  21.461  25.602  1.00  0.00     0.202 C 
BRANCH  23  24
ATOM     24  C   UNL A   1      44.549  22.507  24.783  1.00  0.00     0.261 C 
BRANCH  24  25
ATOM     25  O   UNL A   1      43.789  23.715  24.583  1.00  0.00    -0.460 OA
BRANCH  25  26
ATOM     26  C   UNL A   1      44.403  24.845  25.006  1.00  0.00     0.338 C 
ATOM     27  O   UNL A   1      45.473  25.298  24.617  1.00  0.00    -0.246 OA
BRANCH  26  28
ATOM     28  C   UNL A   1      43.527  25.608  25.912  1.00  0.00     0.060 A 
ATOM     29  C   UNL A   1      43.889  26.933  26.189  1.00  0.00     0.016 A 
ATOM     30  C   UNL A   1      42.444  25.018  26.568  1.00  0.00     0.016 A 
ATOM     31  C   UNL A   1      43.208  27.652  27.167  1.00  0.00     0.010 A 
ATOM     32  C   UNL A   1      41.764  25.742  27.556  1.00  0.00     0.010 A 
ATOM     33  C   UNL A   1      42.171  27.047  27.889  1.00  0.00    -0.014 A 
BRANCH  33  34
ATOM     34  C   UNL A   1      41.637  27.738  29.090  1.00  0.00     0.031 A 
ATOM     35  C   UNL A   1      42.360  27.595  30.402  1.00  0.00     0.074 A 
ATOM     36  C   UNL A   1      40.566  28.546  28.999  1.00  0.00     0.049 A 
ATOM     37  N   UNL A   1      42.110  28.157  31.557  1.00  0.00    -0.248 NA
ATOM     38  C   UNL A   1      43.526  26.697  30.410  1.00  0.00     0.031 C 
ATOM     39  C   UNL A   1      39.799  28.796  27.782  1.00  0.00     0.029 A 
ATOM     40  N   UNL A   1      39.946  29.314  29.954  1.00  0.00    -0.354 N 
ATOM     41  C   UNL A   1      43.088  27.690  32.425  1.00  0.00     0.074 A 
ATOM     42  C   UNL A   1      43.913  26.767  31.676  1.00  0.00     0.031 C 
ATOM     43  C   UNL A   1      38.811  29.664  28.062  1.00  0.00     0.029 A 
ATOM     44  C   UNL A   1      38.866  30.015  29.479  1.00  0.00     0.049 A 
ATOM     45  H   UNL A   1      40.249  29.359  30.890  1.00  0.00     0.167 HD
ATOM     46  C   UNL A   1      43.292  28.012  33.725  1.00  0.00     0.037 A 
ATOM     47  C   UNL A   1      38.018  30.843  30.120  1.00  0.00     0.037 A 
ATOM     48  C   UNL A   1      42.471  28.927  34.477  1.00  0.00     0.049 A 
ATOM     49  C   UNL A   1      38.228  31.136  31.583  1.00  0.00     0.074 A 
ATOM     50  C   UNL A   1      42.603  29.324  35.796  1.00  0.00     0.029 A 
ATOM     51  N   UNL A   1      41.357  29.582  33.973  1.00  0.00    -0.354 N 
ATOM     52  N   UNL A   1      39.174  30.714  32.386  1.00  0.00    -0.248 NA
ATOM     53  C   UNL A   1      37.254  32.030  32.224  1.00  0.00     0.031 C 
ATOM     54  C   UNL A   1      41.543  30.186  36.103  1.00  0.00     0.029 A 
ATOM     55  C   UNL A   1      40.779  30.362  34.962  1.00  0.00     0.049 A 
ATOM     56  H   UNL A   1      41.025  29.503  33.049  1.00  0.00     0.167 HD
ATOM     57  C   UNL A   1      38.924  31.308  33.616  1.00  0.00     0.074 A 
ATOM     58  C   UNL A   1      37.747  32.135  33.449  1.00  0.00     0.031 C 
ATOM     59  C   UNL A   1      39.607  31.180  34.781  1.00  0.00     0.037 A 
BRANCH  46  60
ATOM     60  C   UNL A   1      44.442  27.352  34.425  1.00  0.00     0.064 A 
ATOM     61  C   UNL A   1      45.689  27.984  34.547  1.00  0.00     0.173 A 
ATOM     62  C   UNL A   1      44.291  26.081  35.000  1.00  0.00     0.173 A 
ATOM     63  F   UNL A   1      45.888  29.193  34.002  1.00  0.00    -0.203 F 
ATOM     64  C   UNL A   1      46.749  27.357  35.197  1.00  0.00     0.198 A 
ATOM     65  C   UNL A   1      45.346  25.468  35.671  1.00  0.00     0.198 A 
ATOM     66  F   UNL A   1      43.118  25.435  34.915  1.00  0.00    -0.203 F 
ATOM     67  F   UNL A   1      47.945  27.960  35.261  1.00  0.00    -0.200 F 
ATOM     68  C   UNL A   1      46.575  26.103  35.762  1.00  0.00     0.200 A 
ATOM     69  F   UNL A   1      45.174  24.260  36.226  1.00  0.00    -0.200 F 
ATOM     70  F   UNL A   1      47.597  25.501  36.389  1.00  0.00    -0.200 F 
ENDBRANCH  46  60
BRANCH  47  71
ATOM     71  C   UNL A   1      36.890  31.464  29.380  1.00  0.00     0.064 A 
ATOM     72  C   UNL A   1      36.878  32.838  29.098  1.00  0.00     0.173 A 
ATOM     73  C   UNL A   1      35.791  30.701  28.960  1.00  0.00     0.173 A 
ATOM     74  F   UNL A   1      37.894  33.612  29.505  1.00  0.00    -0.203 F 
ATOM     75  C   UNL A   1      35.802  33.427  28.440  1.00  0.00     0.198 A 
ATOM     76  C   UNL A   1      34.727  31.288  28.277  1.00  0.00     0.198 A 
ATOM     77  F   UNL A   1      35.753  29.384  29.209  1.00  0.00    -0.203 F 
ATOM     78  F   UNL A   1      35.795  34.749  28.222  1.00  0.00    -0.200 F 
ATOM     79  C   UNL A   1      34.730  32.651  28.024  1.00  0.00     0.200 A 
ATOM     80  F   UNL A   1      33.697  30.533  27.871  1.00  0.00    -0.200 F 
ATOM     81  F   UNL A   1      33.695  33.218  27.389  1.00  0.00    -0.200 F 
ENDBRANCH  47  71
BRANCH  59  82
ATOM     82  C   UNL A   1      39.113  31.973  35.956  1.00  0.00     0.064 A 
ATOM     83  C   UNL A   1      39.521  33.298  36.176  1.00  0.00     0.173 A 
ATOM     84  C   UNL A   1      38.206  31.408  36.866  1.00  0.00     0.173 A 
ATOM     85  F   UNL A   1      40.399  33.880  35.343  1.00  0.00    -0.203 F 
ATOM     86  C   UNL A   1      39.065  34.015  37.279  1.00  0.00     0.198 A 
ATOM     87  C   UNL A   1      37.729  32.139  37.952  1.00  0.00     0.198 A 
ATOM     88  F   UNL A   1      37.777  30.148  36.699  1.00  0.00    -0.203 F 
ATOM     89  F   UNL A   1      39.511  35.260  37.497  1.00  0.00    -0.200 F 
ATOM     90  C   UNL A   1      38.166  33.437  38.162  1.00  0.00     0.200 A 
ATOM     91  F   UNL A   1      36.852  31.582  38.798  1.00  0.00    -0.200 F 
ATOM     92  F   UNL A   1      37.729  34.129  39.223  1.00  0.00    -0.200 F 
ENDBRANCH  59  82
ENDBRANCH  33  34
ENDBRANCH  26  28
ENDBRANCH  25  26
ENDBRANCH  24  25
ENDBRANCH  23  24
ENDBRANCH  22  23
ENDBRANCH   1  22
TORSDOF 18
ENDMDL
MODEL 2
REMARK VINA RESULT:     -10.5      3.091      8.649
REMARK SMILES CCN1CC(=O)N(C[C@@H]([NH3+])C(=O)OCCOCCOC(=O)c2ccc(-c3c4nc(c(-c5c(F)c(F)c(F)c(F)c5F)c5ccc([nH]5)c(-c5c(F)c(F)c(F)c(F)c5F)c5nc(c(-c6c(F)c(F)c(F)c(F)c6F)c6ccc3[nH]6)C=C5)C=C4)cc2)CC1=O
REMARK SMILES IDX 15 1 14 2 13 3 11 4 12 5 9 6 8 7 7 8 3 9 4 10 86 11 5 12
REMARK SMILES IDX 85 13 87 14 6 15 2 16 1 17 10 18 16 22 17 23 18 24 19 25
REMARK SMILES IDX 20 26 21 27 22 28 23 29 84 30 24 31 83 32 25 33 26 34 27 35
REMARK SMILES IDX 77 36 28 37 82 38 76 39 78 40 29 41 81 42 75 43 74 44 30 46
REMARK SMILES IDX 62 47 42 48 61 49 43 50 46 51 60 52 79 53 44 54 45 55 59 57
REMARK SMILES IDX 80 58 47 59 31 60 32 61 40 62 33 63 34 64 38 65 41 66 35 67
REMARK SMILES IDX 36 68 39 69 37 70 63 71 64 72 72 73 65 74 66 75 70 76 73 77
REMARK SMILES IDX 67 78 68 79 71 80 69 81 48 82 49 83 57 84 50 85 51 86 55 87
REMARK SMILES IDX 58 88 52 89 53 90 56 91 54 92
REMARK H PARENT 10 19 10 20 10 21 78 45 46 56
REMARK Flexibility Score: inf
ROOT
ATOM      1  C   UNL A   1      31.522  27.905  25.496  1.00  0.00     0.202 C 
ENDROOT
BRANCH   1   2
ATOM      2  C   UNL A   1      32.038  26.682  26.256  1.00  0.00     0.261 C 
BRANCH   2   3
ATOM      3  O   UNL A   1      30.989  25.739  26.532  1.00  0.00    -0.459 OA
BRANCH   3   4
ATOM      4  C   UNL A   1      31.373  24.437  26.556  1.00  0.00     0.366 C 
ATOM      5  O   UNL A   1      32.263  23.979  27.270  1.00  0.00    -0.245 OA
BRANCH   4   6
ATOM      6  C   UNL A   1      30.616  23.541  25.560  1.00  0.00     0.311 C 
BRANCH   6   7
ATOM      7  C   UNL A   1      31.258  23.447  24.158  1.00  0.00     0.197 C 
BRANCH   7   8
ATOM      8  N   UNL A   1      32.592  22.825  24.148  1.00  0.00    -0.325 N 
ATOM      9  N   UNL A   1      35.008  21.549  24.745  1.00  0.00    -0.332 N 
ATOM     10  C   UNL A   1      35.054  22.797  23.972  1.00  0.00     0.219 C 
ATOM     11  C   UNL A   1      33.860  20.753  24.670  1.00  0.00     0.242 C 
ATOM     12  C   UNL A   1      33.738  23.598  24.027  1.00  0.00     0.242 C 
ATOM     13  C   UNL A   1      32.689  21.387  23.926  1.00  0.00     0.220 C 
ATOM     14  O   UNL A   1      33.838  19.572  25.013  1.00  0.00    -0.273 OA
ATOM     15  O   UNL A   1      33.701  24.814  23.845  1.00  0.00    -0.273 OA
BRANCH   9  16
ATOM     16  C   UNL A   1      36.229  20.874  25.183  1.00  0.00     0.116 C 
ATOM     17  C   UNL A   1      37.545  21.585  24.931  1.00  0.00     0.027 C 
ENDBRANCH   9  16
ENDBRANCH   7   8
ENDBRANCH   6   7
BRANCH   6  18
ATOM     18  N   UNL A   1      30.439  22.208  26.203  1.00  0.00    -0.344 N 
ATOM     19  H   UNL A   1      29.445  21.992  26.270  1.00  0.00     0.345 HD
ATOM     20  H   UNL A   1      30.848  22.225  27.137  1.00  0.00     0.345 HD
ATOM     21  H   UNL A   1      30.905  21.495  25.641  1.00  0.00     0.345 HD
ENDBRANCH   6  18
ENDBRANCH   4   6
ENDBRANCH   3   4
ENDBRANCH   2   3
ENDBRANCH   1   2
BRANCH   1  22
ATOM     22  O   UNL A   1      32.150  29.148  25.795  1.00  0.00    -0.374 OA
BRANCH  22  23
ATOM     23  C   UNL A   1      31.446  30.348  25.467  1.00  0.00     0.202 C 
BRANCH  23  24
ATOM     24  C   UNL A   1      31.562  31.509  26.463  1.00  0.00     0.261 C 
BRANCH  24  25
ATOM     25  O   UNL A   1      32.616  31.306  27.425  1.00  0.00    -0.460 OA
BRANCH  25  26
ATOM     26  C   UNL A   1      33.464  32.352  27.563  1.00  0.00     0.338 C 
ATOM     27  O   UNL A   1      33.178  33.544  27.574  1.00  0.00    -0.246 OA
BRANCH  26  28
ATOM     28  C   UNL A   1      34.824  31.884  27.883  1.00  0.00     0.060 A 
ATOM     29  C   UNL A   1      34.999  30.508  28.080  1.00  0.00     0.016 A 
ATOM     30  C   UNL A   1      35.881  32.771  28.100  1.00  0.00     0.016 A 
ATOM     31  C   UNL A   1      36.213  30.020  28.554  1.00  0.00     0.010 A 
ATOM     32  C   UNL A   1      37.101  32.278  28.582  1.00  0.00     0.010 A 
ATOM     33  C   UNL A   1      37.258  30.905  28.852  1.00  0.00    -0.014 A 
BRANCH  33  34
ATOM     34  C   UNL A   1      38.440  30.395  29.591  1.00  0.00     0.031 A 
ATOM     35  C   UNL A   1      38.664  30.837  31.012  1.00  0.00     0.074 A 
ATOM     36  C   UNL A   1      39.262  29.488  29.033  1.00  0.00     0.049 A 
ATOM     37  N   UNL A   1      39.589  30.470  31.862  1.00  0.00    -0.248 NA
ATOM     38  C   UNL A   1      37.714  31.825  31.546  1.00  0.00     0.031 C 
ATOM     39  C   UNL A   1      39.134  28.955  27.680  1.00  0.00     0.029 A 
ATOM     40  N   UNL A   1      40.364  28.851  29.546  1.00  0.00    -0.354 N 
ATOM     41  C   UNL A   1      39.329  31.174  33.031  1.00  0.00     0.074 A 
ATOM     42  C   UNL A   1      38.184  32.019  32.770  1.00  0.00     0.031 C 
ATOM     43  C   UNL A   1      40.118  28.064  27.469  1.00  0.00     0.029 A 
ATOM     44  C   UNL A   1      40.954  27.979  28.665  1.00  0.00     0.049 A 
ATOM     45  H   UNL A   1      40.698  29.003  30.460  1.00  0.00     0.167 HD
ATOM     46  C   UNL A   1      39.975  31.110  34.220  1.00  0.00     0.037 A 
ATOM     47  C   UNL A   1      42.048  27.206  28.809  1.00  0.00     0.037 A 
ATOM     48  C   UNL A   1      41.117  30.274  34.484  1.00  0.00     0.049 A 
ATOM     49  C   UNL A   1      42.787  27.200  30.122  1.00  0.00     0.074 A 
ATOM     50  C   UNL A   1      41.834  30.134  35.660  1.00  0.00     0.029 A 
ATOM     51  N   UNL A   1      41.715  29.439  33.551  1.00  0.00    -0.354 N 
ATOM     52  N   UNL A   1      42.514  27.845  31.230  1.00  0.00    -0.248 NA
ATOM     53  C   UNL A   1      43.982  26.350  30.204  1.00  0.00     0.031 C 
ATOM     54  C   UNL A   1      42.892  29.247  35.426  1.00  0.00     0.029 A 
ATOM     55  C   UNL A   1      42.805  28.799  34.118  1.00  0.00     0.049 A 
ATOM     56  H   UNL A   1      41.409  29.320  32.623  1.00  0.00     0.167 HD
ATOM     57  C   UNL A   1      43.485  27.461  32.145  1.00  0.00     0.074 A 
ATOM     58  C   UNL A   1      44.345  26.512  31.468  1.00  0.00     0.031 C 
ATOM     59  C   UNL A   1      43.652  27.858  33.432  1.00  0.00     0.037 A 
BRANCH  46  60
ATOM     60  C   UNL A   1      39.468  31.988  35.326  1.00  0.00     0.064 A 
ATOM     61  C   UNL A   1      38.566  31.511  36.289  1.00  0.00     0.173 A 
ATOM     62  C   UNL A   1      39.905  33.317  35.436  1.00  0.00     0.173 A 
ATOM     63  F   UNL A   1      38.108  30.253  36.219  1.00  0.00    -0.203 F 
ATOM     64  C   UNL A   1      38.102  32.339  37.307  1.00  0.00     0.198 A 
ATOM     65  C   UNL A   1      39.458  34.135  36.471  1.00  0.00     0.198 A 
ATOM     66  F   UNL A   1      40.769  33.821  34.543  1.00  0.00    -0.203 F 
ATOM     67  F   UNL A   1      37.205  31.876  38.190  1.00  0.00    -0.200 F 
ATOM     68  C   UNL A   1      38.552  33.647  37.401  1.00  0.00     0.200 A 
ATOM     69  F   UNL A   1      39.901  35.396  36.566  1.00  0.00    -0.200 F 
ATOM     70  F   UNL A   1      38.105  34.443  38.383  1.00  0.00    -0.200 F 
ENDBRANCH  46  60
BRANCH  47  71
ATOM     71  C   UNL A   1      42.510  26.361  27.679  1.00  0.00     0.064 A 
ATOM     72  C   UNL A   1      43.481  26.823  26.779  1.00  0.00     0.173 A 
ATOM     73  C   UNL A   1      41.974  25.083  27.463  1.00  0.00     0.173 A 
ATOM     74  F   UNL A   1      44.001  28.050  26.929  1.00  0.00    -0.203 F 
ATOM     75  C   UNL A   1      43.886  26.046  25.696  1.00  0.00     0.198 A 
ATOM     76  C   UNL A   1      42.400  24.296  26.394  1.00  0.00     0.198 A 
ATOM     77  F   UNL A   1      41.040  24.596  28.293  1.00  0.00    -0.203 F 
ATOM     78  F   UNL A   1      44.782  26.529  24.826  1.00  0.00    -0.200 F 
ATOM     79  C   UNL A   1      43.350  24.781  25.508  1.00  0.00     0.200 A 
ATOM     80  F   UNL A   1      41.885  23.071  26.221  1.00  0.00    -0.200 F 
ATOM     81  F   UNL A   1      43.740  24.033  24.467  1.00  0.00    -0.200 F 
ENDBRANCH  47  71
BRANCH  59  82
ATOM     82  C   UNL A   1      44.791  27.246  34.195  1.00  0.00     0.064 A 
ATOM     83  C   UNL A   1      46.056  27.852  34.242  1.00  0.00     0.173 A 
ATOM     84  C   UNL A   1      44.611  26.049  34.904  1.00  0.00     0.173 A 
ATOM     85  F   UNL A   1      46.284  28.991  33.569  1.00  0.00    -0.203 F 
ATOM     86  C   UNL A   1      47.107  27.264  34.942  1.00  0.00     0.198 A 
ATOM     87  C   UNL A   1      45.657  25.479  35.628  1.00  0.00     0.198 A 
ATOM     88  F   UNL A   1      43.420  25.432  34.899  1.00  0.00    -0.203 F 
ATOM     89  F   UNL A   1      48.320  27.832  34.927  1.00  0.00    -0.200 F 
ATOM     90  C   UNL A   1      46.904  26.082  35.639  1.00  0.00     0.200 A 
ATOM     91  F   UNL A   1      45.456  24.343  36.309  1.00  0.00    -0.200 F 
ATOM     92  F   UNL A   1      47.917  25.518  36.311  1.00  0.00    -0.200 F 
ENDBRANCH  59  82
ENDBRANCH  33  34
ENDBRANCH  26  28
ENDBRANCH  25  26
ENDBRANCH  24  25
ENDBRANCH  23  24
ENDBRANCH  22  23
ENDBRANCH   1  22
TORSDOF 18
ENDMDL
MODEL 3
REMARK VINA RESULT:     -10.5      3.192      8.901
REMARK SMILES CCN1CC(=O)N(C[C@@H]([NH3+])C(=O)OCCOCCOC(=O)c2ccc(-c3c4nc(c(-c5c(F)c(F)c(F)c(F)c5F)c5ccc([nH]5)c(-c5c(F)c(F)c(F)c(F)c5F)c5nc(c(-c6c(F)c(F)c(F)c(F)c6F)c6ccc3[nH]6)C=C5)C=C4)cc2)CC1=O
REMARK SMILES IDX 15 1 14 2 13 3 11 4 12 5 9 6 8 7 7 8 3 9 4 10 86 11 5 12
REMARK SMILES IDX 85 13 87 14 6 15 2 16 1 17 10 18 16 22 17 23 18 24 19 25
REMARK SMILES IDX 20 26 21 27 22 28 23 29 84 30 24 31 83 32 25 33 26 34 27 35
REMARK SMILES IDX 77 36 28 37 82 38 76 39 78 40 29 41 81 42 75 43 74 44 30 46
REMARK SMILES IDX 62 47 42 48 61 49 43 50 46 51 60 52 79 53 44 54 45 55 59 57
REMARK SMILES IDX 80 58 47 59 31 60 32 61 40 62 33 63 34 64 38 65 41 66 35 67
REMARK SMILES IDX 36 68 39 69 37 70 63 71 64 72 72 73 65 74 66 75 70 76 73 77
REMARK SMILES IDX 67 78 68 79 71 80 69 81 48 82 49 83 57 84 50 85 51 86 55 87
REMARK SMILES IDX 58 88 52 89 53 90 56 91 54 92
REMARK H PARENT 10 19 10 20 10 21 78 45 46 56
REMARK Flexibility Score: inf
ROOT
ATOM      1  C   UNL A   1      32.034  29.557  25.230  1.00  0.00     0.202 C 
ENDROOT
BRANCH   1   2
ATOM      2  C   UNL A   1      31.063  28.461  24.785  1.00  0.00     0.261 C 
BRANCH   2   3
ATOM      3  O   UNL A   1      31.195  27.271  25.581  1.00  0.00    -0.459 OA
BRANCH   3   4
ATOM      4  C   UNL A   1      30.442  26.218  25.176  1.00  0.00     0.366 C 
ATOM      5  O   UNL A   1      29.421  26.303  24.496  1.00  0.00    -0.245 OA
BRANCH   4   6
ATOM      6  C   UNL A   1      30.947  24.854  25.680  1.00  0.00     0.311 C 
BRANCH   6   7
ATOM      7  C   UNL A   1      32.285  24.905  26.450  1.00  0.00     0.197 C 
BRANCH   7   8
ATOM      8  N   UNL A   1      33.116  23.701  26.294  1.00  0.00    -0.325 N 
ATOM      9  N   UNL A   1      34.337  21.318  25.484  1.00  0.00    -0.332 N 
ATOM     10  C   UNL A   1      33.949  21.456  26.895  1.00  0.00     0.219 C 
ATOM     11  C   UNL A   1      34.627  22.473  24.750  1.00  0.00     0.242 C 
ATOM     12  C   UNL A   1      32.967  22.616  27.148  1.00  0.00     0.242 C 
ATOM     13  C   UNL A   1      34.314  23.783  25.467  1.00  0.00     0.220 C 
ATOM     14  O   UNL A   1      35.246  22.455  23.688  1.00  0.00    -0.273 OA
ATOM     15  O   UNL A   1      32.203  22.632  28.111  1.00  0.00    -0.273 OA
BRANCH   9  16
ATOM     16  C   UNL A   1      34.887  20.069  24.960  1.00  0.00     0.116 C 
ATOM     17  C   UNL A   1      33.903  18.970  24.605  1.00  0.00     0.027 C 
ENDBRANCH   9  16
ENDBRANCH   7   8
ENDBRANCH   6   7
BRANCH   6  18
ATOM     18  N   UNL A   1      29.849  24.236  26.475  1.00  0.00    -0.344 N 
ATOM     19  H   UNL A   1      29.344  24.963  26.981  1.00  0.00     0.345 HD
ATOM     20  H   UNL A   1      30.243  23.570  27.139  1.00  0.00     0.345 HD
ATOM     21  H   UNL A   1      29.207  23.750  25.848  1.00  0.00     0.345 HD
ENDBRANCH   6  18
ENDBRANCH   4   6
ENDBRANCH   3   4
ENDBRANCH   2   3
ENDBRANCH   1   2
BRANCH   1  22
ATOM     22  O   UNL A   1      31.455  30.812  25.577  1.00  0.00    -0.374 OA
BRANCH  22  23
ATOM     23  C   UNL A   1      31.760  31.355  26.863  1.00  0.00     0.202 C 
BRANCH  23  24
ATOM     24  C   UNL A   1      32.056  32.859  26.924  1.00  0.00     0.261 C 
BRANCH  24  25
ATOM     25  O   UNL A   1      32.597  33.263  28.197  1.00  0.00    -0.460 OA
BRANCH  25  26
ATOM     26  C   UNL A   1      33.725  34.007  28.120  1.00  0.00     0.338 C 
ATOM     27  O   UNL A   1      33.807  35.221  27.981  1.00  0.00    -0.246 OA
BRANCH  26  28
ATOM     28  C   UNL A   1      34.914  33.184  28.404  1.00  0.00     0.060 A 
ATOM     29  C   UNL A   1      34.713  31.980  29.091  1.00  0.00     0.016 A 
ATOM     30  C   UNL A   1      36.208  33.623  28.110  1.00  0.00     0.016 A 
ATOM     31  C   UNL A   1      35.804  31.243  29.543  1.00  0.00     0.010 A 
ATOM     32  C   UNL A   1      37.305  32.882  28.570  1.00  0.00     0.010 A 
ATOM     33  C   UNL A   1      37.106  31.712  29.326  1.00  0.00    -0.014 A 
BRANCH  33  34
ATOM     34  C   UNL A   1      38.233  31.050  30.032  1.00  0.00     0.031 A 
ATOM     35  C   UNL A   1      38.474  31.365  31.483  1.00  0.00     0.074 A 
ATOM     36  C   UNL A   1      38.983  30.121  29.412  1.00  0.00     0.049 A 
ATOM     37  N   UNL A   1      39.355  30.859  32.309  1.00  0.00    -0.248 NA
ATOM     38  C   UNL A   1      37.603  32.386  32.084  1.00  0.00     0.031 C 
ATOM     39  C   UNL A   1      38.828  29.703  28.022  1.00  0.00     0.029 A 
ATOM     40  N   UNL A   1      40.021  29.357  29.883  1.00  0.00    -0.354 N 
ATOM     41  C   UNL A   1      39.139  31.492  33.527  1.00  0.00     0.074 A 
ATOM     42  C   UNL A   1      38.072  32.448  33.322  1.00  0.00     0.031 C 
ATOM     43  C   UNL A   1      39.737  28.751  27.751  1.00  0.00     0.029 A 
ATOM     44  C   UNL A   1      40.548  28.507  28.943  1.00  0.00     0.049 A 
ATOM     45  H   UNL A   1      40.356  29.412  30.807  1.00  0.00     0.167 HD
ATOM     46  C   UNL A   1      39.762  31.286  34.712  1.00  0.00     0.037 A 
ATOM     47  C   UNL A   1      41.571  27.636  29.035  1.00  0.00     0.037 A 
ATOM     48  C   UNL A   1      40.828  30.340  34.919  1.00  0.00     0.049 A 
ATOM     49  C   UNL A   1      42.291  27.471  30.348  1.00  0.00     0.074 A 
ATOM     50  C   UNL A   1      41.516  30.053  36.085  1.00  0.00     0.029 A 
ATOM     51  N   UNL A   1      41.366  29.530  33.929  1.00  0.00    -0.354 N 
ATOM     52  N   UNL A   1      42.058  28.052  31.500  1.00  0.00    -0.248 NA
ATOM     53  C   UNL A   1      43.410  26.519  30.373  1.00  0.00     0.031 C 
ATOM     54  C   UNL A   1      42.499  29.100  35.792  1.00  0.00     0.029 A 
ATOM     55  C   UNL A   1      42.392  28.760  34.453  1.00  0.00     0.049 A 
ATOM     56  H   UNL A   1      41.063  29.507  32.993  1.00  0.00     0.167 HD
ATOM     57  C   UNL A   1      42.983  27.520  32.390  1.00  0.00     0.074 A 
ATOM     58  C   UNL A   1      43.769  26.556  31.648  1.00  0.00     0.031 C 
ATOM     59  C   UNL A   1      43.166  27.804  33.704  1.00  0.00     0.037 A 
BRANCH  46  60
ATOM     60  C   UNL A   1      39.317  32.119  35.877  1.00  0.00     0.064 A 
ATOM     61  C   UNL A   1      38.356  31.655  36.788  1.00  0.00     0.173 A 
ATOM     62  C   UNL A   1      39.871  33.389  36.098  1.00  0.00     0.173 A 
ATOM     63  F   UNL A   1      37.786  30.453  36.612  1.00  0.00    -0.203 F 
ATOM     64  C   UNL A   1      37.950  32.440  37.863  1.00  0.00     0.198 A 
ATOM     65  C   UNL A   1      39.481  34.162  37.189  1.00  0.00     0.198 A 
ATOM     66  F   UNL A   1      40.796  33.879  35.258  1.00  0.00    -0.203 F 
ATOM     67  F   UNL A   1      36.997  31.995  38.695  1.00  0.00    -0.200 F 
ATOM     68  C   UNL A   1      38.515  33.690  38.065  1.00  0.00     0.200 A 
ATOM     69  F   UNL A   1      40.036  35.365  37.389  1.00  0.00    -0.200 F 
ATOM     70  F   UNL A   1      38.124  34.445  39.102  1.00  0.00    -0.200 F 
ENDBRANCH  46  60
BRANCH  47  71
ATOM     71  C   UNL A   1      41.976  26.842  27.847  1.00  0.00     0.064 A 
ATOM     72  C   UNL A   1      41.427  25.575  27.602  1.00  0.00     0.173 A 
ATOM     73  C   UNL A   1      42.938  27.323  26.947  1.00  0.00     0.173 A 
ATOM     74  F   UNL A   1      40.526  25.061  28.451  1.00  0.00    -0.203 F 
ATOM     75  C   UNL A   1      41.837  24.813  26.510  1.00  0.00     0.198 A 
ATOM     76  C   UNL A   1      43.326  26.571  25.840  1.00  0.00     0.198 A 
ATOM     77  F   UNL A   1      43.496  28.527  27.140  1.00  0.00    -0.203 F 
ATOM     78  F   UNL A   1      41.329  23.588  26.323  1.00  0.00    -0.200 F 
ATOM     79  C   UNL A   1      42.781  25.314  25.627  1.00  0.00     0.200 A 
ATOM     80  F   UNL A   1      44.234  27.062  24.985  1.00  0.00    -0.200 F 
ATOM     81  F   UNL A   1      43.174  24.582  24.576  1.00  0.00    -0.200 F 
ENDBRANCH  47  71
BRANCH  59  82
ATOM     82  C   UNL A   1      44.240  27.044  34.426  1.00  0.00     0.064 A 
ATOM     83  C   UNL A   1      43.987  25.802  35.028  1.00  0.00     0.173 A 
ATOM     84  C   UNL A   1      45.545  27.556  34.504  1.00  0.00     0.173 A 
ATOM     85  F   UNL A   1      42.752  25.276  34.994  1.00  0.00    -0.203 F 
ATOM     86  C   UNL A   1      44.990  25.117  35.707  1.00  0.00     0.198 A 
ATOM     87  C   UNL A   1      46.553  26.853  35.160  1.00  0.00     0.198 A 
ATOM     88  F   UNL A   1      45.843  28.736  33.940  1.00  0.00    -0.203 F 
ATOM     89  F   UNL A   1      44.711  23.958  36.320  1.00  0.00    -0.200 F 
ATOM     90  C   UNL A   1      46.273  25.640  35.768  1.00  0.00     0.200 A 
ATOM     91  F   UNL A   1      47.795  27.355  35.207  1.00  0.00    -0.200 F 
ATOM     92  F   UNL A   1      47.237  24.979  36.423  1.00  0.00    -0.200 F 
ENDBRANCH  59  82
ENDBRANCH  33  34
ENDBRANCH  26  28
ENDBRANCH  25  26
ENDBRANCH  24  25
ENDBRANCH  23  24
ENDBRANCH  22  23
ENDBRANCH   1  22
TORSDOF 18
ENDMDL
