MODEL 1
REMARK VINA RESULT:     -12.2      0.000      0.000
REMARK SMILES COc1ccc(CCN2C(=O)CC[C@@H](C(=O)OCCOCCOC(=O)c3ccc(-c4c5nc(c(-c6c(F)c(F)c(F)c(F)c6F)c6ccc([nH]6)c(-c6c(F)c(F)c(F)c(F)c6F)c6nc(c(-c7c(F)c(F)c(F)c(F)c7F)c7ccc4[nH]7)C=C6)C=C5)cc3)[C@@H]2c2ccc(Cl)cc2)cc1OC
REMARK SMILES IDX 19 1 18 2 17 3 15 4 16 5 14 6 9 7 10 8 89 9 11 10 12 11
REMARK SMILES IDX 13 12 8 13 7 14 6 15 3 16 4 17 98 18 5 19 97 20 2 21 1 22
REMARK SMILES IDX 99 23 100 24 90 25 91 26 96 27 92 28 95 29 93 30 94 31 20 32
REMARK SMILES IDX 21 33 22 34 23 35 24 36 25 37 26 38 27 39 88 40 28 41 87 42
REMARK SMILES IDX 29 43 30 44 31 45 81 46 32 47 86 48 80 49 82 50 33 51 85 52
REMARK SMILES IDX 79 53 78 54 34 56 66 57 46 58 65 59 47 60 50 61 64 62 83 63
REMARK SMILES IDX 48 64 49 65 63 67 84 68 51 69 35 70 36 71 44 72 37 73 38 74
REMARK SMILES IDX 42 75 45 76 39 77 40 78 43 79 41 80 67 81 68 82 76 83 69 84
REMARK SMILES IDX 70 85 74 86 77 87 71 88 72 89 75 90 73 91 52 92 53 93 61 94
REMARK SMILES IDX 54 95 55 96 59 97 62 98 56 99 57 100 60 101 58 102
REMARK H PARENT 82 55 50 66
REMARK Flexibility Score: inf
ROOT
ATOM      1  C   UNL A   1      31.222  28.020  23.289  1.00  0.00     0.202 C 
ENDROOT
BRANCH   1   2
ATOM      2  C   UNL A   1      32.284  27.110  22.666  1.00  0.00     0.261 C 
BRANCH   2   3
ATOM      3  O   UNL A   1      31.724  25.895  22.128  1.00  0.00    -0.463 OA
BRANCH   3   4
ATOM      4  C   UNL A   1      32.509  24.786  22.204  1.00  0.00     0.311 C 
ATOM      5  O   UNL A   1      33.558  24.644  21.588  1.00  0.00    -0.252 OA
BRANCH   4   6
ATOM      6  C   UNL A   1      31.900  23.674  23.055  1.00  0.00     0.127 C 
ATOM      7  N   UNL A   1      33.046  24.024  25.283  1.00  0.00    -0.334 N 
ATOM      8  C   UNL A   1      31.988  24.851  25.586  1.00  0.00     0.223 C 
ATOM      9  C   UNL A   1      32.970  23.162  24.077  1.00  0.00     0.129 C 
ATOM     10  O   UNL A   1      32.097  25.885  26.236  1.00  0.00    -0.275 OA
ATOM     11  C   UNL A   1      30.643  24.305  25.190  1.00  0.00     0.101 C 
ATOM     12  C   UNL A   1      30.549  23.985  23.715  1.00  0.00     0.028 C 
BRANCH   7  13
ATOM     13  C   UNL A   1      34.340  24.189  25.967  1.00  0.00     0.125 C 
BRANCH  13  14
ATOM     14  C   UNL A   1      35.656  24.192  25.126  1.00  0.00     0.057 C 
BRANCH  14  15
ATOM     15  C   UNL A   1      36.872  23.383  25.558  1.00  0.00    -0.042 A 
ATOM     16  C   UNL A   1      39.248  21.925  26.120  1.00  0.00     0.160 A 
ATOM     17  C   UNL A   1      39.126  23.257  26.498  1.00  0.00     0.051 A 
ATOM     18  C   UNL A   1      38.177  21.293  25.477  1.00  0.00     0.160 A 
ATOM     19  C   UNL A   1      37.976  23.973  26.178  1.00  0.00     0.008 A 
ATOM     20  C   UNL A   1      37.000  22.028  25.212  1.00  0.00     0.054 A 
BRANCH  16  21
ATOM     21  O   UNL A   1      40.408  21.265  26.422  1.00  0.00    -0.493 OA
ATOM     22  C   UNL A   1      40.791  21.445  27.788  1.00  0.00     0.278 C 
ENDBRANCH  16  21
BRANCH  18  23
ATOM     23  O   UNL A   1      38.120  20.001  25.019  1.00  0.00    -0.493 OA
ATOM     24  C   UNL A   1      36.840  19.456  24.729  1.00  0.00     0.278 C 
ENDBRANCH  18  23
ENDBRANCH  14  15
ENDBRANCH  13  14
ENDBRANCH   7  13
BRANCH   9  25
ATOM     25  C   UNL A   1      32.829  21.668  24.388  1.00  0.00    -0.024 A 
ATOM     26  C   UNL A   1      33.170  21.118  25.635  1.00  0.00     0.007 A 
ATOM     27  C   UNL A   1      32.455  20.775  23.365  1.00  0.00     0.007 A 
ATOM     28  C   UNL A   1      33.139  19.738  25.854  1.00  0.00     0.021 A 
ATOM     29  C   UNL A   1      32.394  19.397  23.590  1.00  0.00     0.021 A 
ATOM     30  C   UNL A   1      32.744  18.884  24.833  1.00  0.00     0.041 A 
ATOM     31  Cl  UNL A   1      32.710  17.186  25.098  1.00  0.00    -0.084 Cl
ENDBRANCH   9  25
ENDBRANCH   4   6
ENDBRANCH   3   4
ENDBRANCH   2   3
ENDBRANCH   1   2
BRANCH   1  32
ATOM     32  O   UNL A   1      31.393  28.409  24.652  1.00  0.00    -0.374 OA
BRANCH  32  33
ATOM     33  C   UNL A   1      31.338  29.800  24.957  1.00  0.00     0.202 C 
BRANCH  33  34
ATOM     34  C   UNL A   1      31.802  30.243  26.352  1.00  0.00     0.261 C 
BRANCH  34  35
ATOM     35  O   UNL A   1      33.222  30.307  26.487  1.00  0.00    -0.460 OA
BRANCH  35  36
ATOM     36  C   UNL A   1      33.638  31.322  27.280  1.00  0.00     0.338 C 
ATOM     37  O   UNL A   1      32.987  32.244  27.735  1.00  0.00    -0.246 OA
BRANCH  36  38
ATOM     38  C   UNL A   1      35.024  31.062  27.673  1.00  0.00     0.060 A 
ATOM     39  C   UNL A   1      35.412  29.722  27.764  1.00  0.00     0.016 A 
ATOM     40  C   UNL A   1      35.900  32.101  27.995  1.00  0.00     0.016 A 
ATOM     41  C   UNL A   1      36.674  29.410  28.246  1.00  0.00     0.010 A 
ATOM     42  C   UNL A   1      37.167  31.786  28.481  1.00  0.00     0.010 A 
ATOM     43  C   UNL A   1      37.535  30.440  28.649  1.00  0.00    -0.014 A 
BRANCH  43  44
ATOM     44  C   UNL A   1      38.749  30.077  29.407  1.00  0.00     0.031 A 
ATOM     45  C   UNL A   1      38.893  30.583  30.812  1.00  0.00     0.074 A 
ATOM     46  C   UNL A   1      39.654  29.245  28.866  1.00  0.00     0.049 A 
ATOM     47  N   UNL A   1      39.836  30.348  31.686  1.00  0.00    -0.248 NA
ATOM     48  C   UNL A   1      37.830  31.477  31.300  1.00  0.00     0.031 C 
ATOM     49  C   UNL A   1      39.576  28.678  27.520  1.00  0.00     0.029 A 
ATOM     50  N   UNL A   1      40.806  28.724  29.389  1.00  0.00    -0.354 N 
ATOM     51  C   UNL A   1      39.478  31.060  32.824  1.00  0.00     0.074 A 
ATOM     52  C   UNL A   1      38.257  31.770  32.518  1.00  0.00     0.031 C 
ATOM     53  C   UNL A   1      40.638  27.879  27.325  1.00  0.00     0.029 A 
ATOM     54  C   UNL A   1      41.477  27.901  28.521  1.00  0.00     0.049 A 
ATOM     55  H   UNL A   1      41.123  28.921  30.300  1.00  0.00     0.167 HD
ATOM     56  C   UNL A   1      40.109  31.100  34.020  1.00  0.00     0.037 A 
ATOM     57  C   UNL A   1      42.643  27.248  28.682  1.00  0.00     0.037 A 
ATOM     58  C   UNL A   1      41.325  30.385  34.304  1.00  0.00     0.049 A 
ATOM     59  C   UNL A   1      43.353  27.354  30.005  1.00  0.00     0.074 A 
ATOM     60  C   UNL A   1      42.050  30.344  35.481  1.00  0.00     0.029 A 
ATOM     61  N   UNL A   1      42.001  29.589  33.389  1.00  0.00    -0.354 N 
ATOM     62  N   UNL A   1      42.995  28.005  31.088  1.00  0.00    -0.248 NA
ATOM     63  C   UNL A   1      44.621  26.626  30.135  1.00  0.00     0.031 C 
ATOM     64  C   UNL A   1      43.193  29.567  35.260  1.00  0.00     0.029 A 
ATOM     65  C   UNL A   1      43.149  29.073  33.966  1.00  0.00     0.049 A 
ATOM     66  H   UNL A   1      41.708  29.418  32.464  1.00  0.00     0.167 HD
ATOM     67  C   UNL A   1      43.979  27.744  32.033  1.00  0.00     0.074 A 
ATOM     68  C   UNL A   1      44.936  26.860  31.400  1.00  0.00     0.031 C 
ATOM     69  C   UNL A   1      44.083  28.193  33.309  1.00  0.00     0.037 A 
BRANCH  56  70
ATOM     70  C   UNL A   1      39.509  31.964  35.092  1.00  0.00     0.064 A 
ATOM     71  C   UNL A   1      39.717  33.352  35.126  1.00  0.00     0.173 A 
ATOM     72  C   UNL A   1      38.703  31.398  36.090  1.00  0.00     0.173 A 
ATOM     73  F   UNL A   1      40.494  33.943  34.206  1.00  0.00    -0.203 F 
ATOM     74  C   UNL A   1      39.162  34.135  36.137  1.00  0.00     0.198 A 
ATOM     75  C   UNL A   1      38.126  32.188  37.081  1.00  0.00     0.198 A 
ATOM     76  F   UNL A   1      38.474  30.076  36.105  1.00  0.00    -0.203 F 
ATOM     77  F   UNL A   1      39.416  35.450  36.180  1.00  0.00    -0.200 F 
ATOM     78  C   UNL A   1      38.361  33.554  37.108  1.00  0.00     0.200 A 
ATOM     79  F   UNL A   1      37.344  31.625  38.013  1.00  0.00    -0.200 F 
ATOM     80  F   UNL A   1      37.825  34.308  38.077  1.00  0.00    -0.200 F 
ENDBRANCH  56  70
BRANCH  57  81
ATOM     81  C   UNL A   1      43.200  26.438  27.567  1.00  0.00     0.064 A 
ATOM     82  C   UNL A   1      44.080  26.997  26.630  1.00  0.00     0.173 A 
ATOM     83  C   UNL A   1      42.859  25.086  27.415  1.00  0.00     0.173 A 
ATOM     84  F   UNL A   1      44.422  28.291  26.722  1.00  0.00    -0.203 F 
ATOM     85  C   UNL A   1      44.581  26.240  25.573  1.00  0.00     0.198 A 
ATOM     86  C   UNL A   1      43.385  24.322  26.375  1.00  0.00     0.198 A 
ATOM     87  F   UNL A   1      42.024  24.500  28.286  1.00  0.00    -0.203 F 
ATOM     88  F   UNL A   1      45.384  26.812  24.665  1.00  0.00    -0.200 F 
ATOM     89  C   UNL A   1      44.238  24.903  25.449  1.00  0.00     0.200 A 
ATOM     90  F   UNL A   1      43.064  23.026  26.269  1.00  0.00    -0.200 F 
ATOM     91  F   UNL A   1      44.725  24.175  24.435  1.00  0.00    -0.200 F 
ENDBRANCH  57  81
BRANCH  69  92
ATOM     92  C   UNL A   1      45.257  27.706  34.109  1.00  0.00     0.064 A 
ATOM     93  C   UNL A   1      45.203  26.514  34.847  1.00  0.00     0.173 A 
ATOM     94  C   UNL A   1      46.459  28.429  34.114  1.00  0.00     0.173 A 
ATOM     95  F   UNL A   1      44.072  25.795  34.885  1.00  0.00    -0.203 F 
ATOM     96  C   UNL A   1      46.298  26.083  35.589  1.00  0.00     0.198 A 
ATOM     97  C   UNL A   1      47.564  27.976  34.829  1.00  0.00     0.198 A 
ATOM     98  F   UNL A   1      46.566  29.571  33.417  1.00  0.00    -0.203 F 
ATOM     99  F   UNL A   1      46.205  24.973  36.334  1.00  0.00    -0.200 F 
ATOM    100  C   UNL A   1      47.479  26.811  35.574  1.00  0.00     0.200 A 
ATOM    101  F   UNL A   1      48.710  28.671  34.799  1.00  0.00    -0.200 F 
ATOM    102  F   UNL A   1      48.535  26.391  36.286  1.00  0.00    -0.200 F 
ENDBRANCH  69  92
ENDBRANCH  43  44
ENDBRANCH  36  38
ENDBRANCH  35  36
ENDBRANCH  34  35
ENDBRANCH  33  34
ENDBRANCH  32  33
ENDBRANCH   1  32
TORSDOF 20
ENDMDL
MODEL 2
REMARK VINA RESULT:     -11.7      0.689      2.163
REMARK SMILES COc1ccc(CCN2C(=O)CC[C@@H](C(=O)OCCOCCOC(=O)c3ccc(-c4c5nc(c(-c6c(F)c(F)c(F)c(F)c6F)c6ccc([nH]6)c(-c6c(F)c(F)c(F)c(F)c6F)c6nc(c(-c7c(F)c(F)c(F)c(F)c7F)c7ccc4[nH]7)C=C6)C=C5)cc3)[C@@H]2c2ccc(Cl)cc2)cc1OC
REMARK SMILES IDX 19 1 18 2 17 3 15 4 16 5 14 6 9 7 10 8 89 9 11 10 12 11
REMARK SMILES IDX 13 12 8 13 7 14 6 15 3 16 4 17 98 18 5 19 97 20 2 21 1 22
REMARK SMILES IDX 99 23 100 24 90 25 91 26 96 27 92 28 95 29 93 30 94 31 20 32
REMARK SMILES IDX 21 33 22 34 23 35 24 36 25 37 26 38 27 39 88 40 28 41 87 42
REMARK SMILES IDX 29 43 30 44 31 45 81 46 32 47 86 48 80 49 82 50 33 51 85 52
REMARK SMILES IDX 79 53 78 54 34 56 66 57 46 58 65 59 47 60 50 61 64 62 83 63
REMARK SMILES IDX 48 64 49 65 63 67 84 68 51 69 35 70 36 71 44 72 37 73 38 74
REMARK SMILES IDX 42 75 45 76 39 77 40 78 43 79 41 80 67 81 68 82 76 83 69 84
REMARK SMILES IDX 70 85 74 86 77 87 71 88 72 89 75 90 73 91 52 92 53 93 61 94
REMARK SMILES IDX 54 95 55 96 59 97 62 98 56 99 57 100 60 101 58 102
REMARK H PARENT 82 55 50 66
REMARK Flexibility Score: inf
ROOT
ATOM      1  C   UNL A   1      31.286  28.195  23.157  1.00  0.00     0.202 C 
ENDROOT
BRANCH   1   2
ATOM      2  C   UNL A   1      32.285  27.200  22.559  1.00  0.00     0.261 C 
BRANCH   2   3
ATOM      3  O   UNL A   1      31.768  25.856  22.516  1.00  0.00    -0.463 OA
BRANCH   3   4
ATOM      4  C   UNL A   1      32.689  24.855  22.559  1.00  0.00     0.311 C 
ATOM      5  O   UNL A   1      33.835  24.958  22.139  1.00  0.00    -0.252 OA
BRANCH   4   6
ATOM      6  C   UNL A   1      32.124  23.538  23.088  1.00  0.00     0.127 C 
ATOM      7  N   UNL A   1      33.117  23.432  25.413  1.00  0.00    -0.334 N 
ATOM      8  C   UNL A   1      31.982  24.097  25.821  1.00  0.00     0.223 C 
ATOM      9  C   UNL A   1      33.175  22.872  24.040  1.00  0.00     0.129 C 
ATOM     10  O   UNL A   1      31.974  24.955  26.696  1.00  0.00    -0.275 OA
ATOM     11  C   UNL A   1      30.708  23.573  25.216  1.00  0.00     0.101 C 
ATOM     12  C   UNL A   1      30.719  23.600  23.704  1.00  0.00     0.028 C 
BRANCH   7  13
ATOM     13  C   UNL A   1      34.355  23.516  26.207  1.00  0.00     0.125 C 
BRANCH  13  14
ATOM     14  C   UNL A   1      35.628  24.165  25.575  1.00  0.00     0.057 C 
BRANCH  14  15
ATOM     15  C   UNL A   1      36.992  23.497  25.682  1.00  0.00    -0.042 A 
ATOM     16  C   UNL A   1      39.463  22.162  26.127  1.00  0.00     0.160 A 
ATOM     17  C   UNL A   1      38.432  21.535  25.438  1.00  0.00     0.051 A 
ATOM     18  C   UNL A   1      39.287  23.473  26.584  1.00  0.00     0.160 A 
ATOM     19  C   UNL A   1      37.211  22.182  25.265  1.00  0.00     0.008 A 
ATOM     20  C   UNL A   1      38.056  24.127  26.348  1.00  0.00     0.054 A 
BRANCH  16  21
ATOM     21  O   UNL A   1      40.636  21.480  26.306  1.00  0.00    -0.493 OA
ATOM     22  C   UNL A   1      40.777  20.992  27.643  1.00  0.00     0.278 C 
ENDBRANCH  16  21
BRANCH  18  23
ATOM     23  O   UNL A   1      40.177  24.241  27.291  1.00  0.00    -0.493 OA
ATOM     24  C   UNL A   1      39.666  25.052  28.341  1.00  0.00     0.278 C 
ENDBRANCH  18  23
ENDBRANCH  14  15
ENDBRANCH  13  14
ENDBRANCH   7  13
BRANCH   9  25
ATOM     25  C   UNL A   1      33.135  21.341  23.990  1.00  0.00    -0.024 A 
ATOM     26  C   UNL A   1      33.973  20.535  24.778  1.00  0.00     0.007 A 
ATOM     27  C   UNL A   1      32.317  20.694  23.043  1.00  0.00     0.007 A 
ATOM     28  C   UNL A   1      33.995  19.146  24.631  1.00  0.00     0.021 A 
ATOM     29  C   UNL A   1      32.315  19.303  22.914  1.00  0.00     0.021 A 
ATOM     30  C   UNL A   1      33.161  18.534  23.705  1.00  0.00     0.041 A 
ATOM     31  Cl  UNL A   1      33.190  16.826  23.517  1.00  0.00    -0.084 Cl
ENDBRANCH   9  25
ENDBRANCH   4   6
ENDBRANCH   3   4
ENDBRANCH   2   3
ENDBRANCH   1   2
BRANCH   1  32
ATOM     32  O   UNL A   1      31.288  28.373  24.573  1.00  0.00    -0.374 OA
BRANCH  32  33
ATOM     33  C   UNL A   1      31.446  29.698  25.074  1.00  0.00     0.202 C 
BRANCH  33  34
ATOM     34  C   UNL A   1      32.118  29.866  26.445  1.00  0.00     0.261 C 
BRANCH  34  35
ATOM     35  O   UNL A   1      33.462  30.342  26.367  1.00  0.00    -0.460 OA
BRANCH  35  36
ATOM     36  C   UNL A   1      33.776  31.219  27.349  1.00  0.00     0.338 C 
ATOM     37  O   UNL A   1      33.042  31.986  27.943  1.00  0.00    -0.246 OA
BRANCH  36  38
ATOM     38  C   UNL A   1      35.170  30.995  27.737  1.00  0.00     0.060 A 
ATOM     39  C   UNL A   1      35.563  29.669  27.941  1.00  0.00     0.016 A 
ATOM     40  C   UNL A   1      36.049  32.060  27.949  1.00  0.00     0.016 A 
ATOM     41  C   UNL A   1      36.834  29.403  28.424  1.00  0.00     0.010 A 
ATOM     42  C   UNL A   1      37.326  31.791  28.437  1.00  0.00     0.010 A 
ATOM     43  C   UNL A   1      37.700  30.465  28.718  1.00  0.00    -0.014 A 
BRANCH  43  44
ATOM     44  C   UNL A   1      38.929  30.173  29.482  1.00  0.00     0.031 A 
ATOM     45  C   UNL A   1      39.035  30.684  30.888  1.00  0.00     0.074 A 
ATOM     46  C   UNL A   1      39.884  29.397  28.945  1.00  0.00     0.049 A 
ATOM     47  N   UNL A   1      39.985  30.503  31.768  1.00  0.00    -0.248 NA
ATOM     48  C   UNL A   1      37.919  31.513  31.372  1.00  0.00     0.031 C 
ATOM     49  C   UNL A   1      39.847  28.828  27.598  1.00  0.00     0.029 A 
ATOM     50  N   UNL A   1      41.062  28.943  29.474  1.00  0.00    -0.354 N 
ATOM     51  C   UNL A   1      39.580  31.190  32.904  1.00  0.00     0.074 A 
ATOM     52  C   UNL A   1      38.321  31.828  32.592  1.00  0.00     0.031 C 
ATOM     53  C   UNL A   1      40.955  28.093  27.408  1.00  0.00     0.029 A 
ATOM     54  C   UNL A   1      41.785  28.162  28.608  1.00  0.00     0.049 A 
ATOM     55  H   UNL A   1      41.362  29.157  30.387  1.00  0.00     0.167 HD
ATOM     56  C   UNL A   1      40.201  31.265  34.104  1.00  0.00     0.037 A 
ATOM     57  C   UNL A   1      42.986  27.578  28.775  1.00  0.00     0.037 A 
ATOM     58  C   UNL A   1      41.456  30.623  34.394  1.00  0.00     0.049 A 
ATOM     59  C   UNL A   1      43.681  27.723  30.102  1.00  0.00     0.074 A 
ATOM     60  C   UNL A   1      42.175  30.622  35.575  1.00  0.00     0.029 A 
ATOM     61  N   UNL A   1      42.181  29.869  33.481  1.00  0.00    -0.354 N 
ATOM     62  N   UNL A   1      43.280  28.350  31.184  1.00  0.00    -0.248 NA
ATOM     63  C   UNL A   1      44.989  27.071  30.238  1.00  0.00     0.031 C 
ATOM     64  C   UNL A   1      43.362  29.914  35.360  1.00  0.00     0.029 A 
ATOM     65  C   UNL A   1      43.354  29.420  34.064  1.00  0.00     0.049 A 
ATOM     66  H   UNL A   1      41.904  29.683  32.555  1.00  0.00     0.167 HD
ATOM     67  C   UNL A   1      44.272  28.146  32.135  1.00  0.00     0.074 A 
ATOM     68  C   UNL A   1      45.283  27.320  31.506  1.00  0.00     0.031 C 
ATOM     69  C   UNL A   1      44.343  28.598  33.412  1.00  0.00     0.037 A 
BRANCH  56  70
ATOM     70  C   UNL A   1      39.546  32.091  35.174  1.00  0.00     0.064 A 
ATOM     71  C   UNL A   1      38.726  31.514  36.156  1.00  0.00     0.173 A 
ATOM     72  C   UNL A   1      39.753  33.477  35.226  1.00  0.00     0.173 A 
ATOM     73  F   UNL A   1      38.480  30.195  36.143  1.00  0.00    -0.203 F 
ATOM     74  C   UNL A   1      38.117  32.299  37.133  1.00  0.00     0.198 A 
ATOM     75  C   UNL A   1      39.167  34.254  36.222  1.00  0.00     0.198 A 
ATOM     76  F   UNL A   1      40.526  34.080  34.310  1.00  0.00    -0.203 F 
ATOM     77  F   UNL A   1      37.296  31.734  38.030  1.00  0.00    -0.200 F 
ATOM     78  C   UNL A   1      38.343  33.666  37.170  1.00  0.00     0.200 A 
ATOM     79  F   UNL A   1      39.395  35.575  36.260  1.00  0.00    -0.200 F 
ATOM     80  F   UNL A   1      37.760  34.420  38.112  1.00  0.00    -0.200 F 
ENDBRANCH  56  70
BRANCH  57  81
ATOM     81  C   UNL A   1      43.596  26.805  27.662  1.00  0.00     0.064 A 
ATOM     82  C   UNL A   1      43.546  25.404  27.636  1.00  0.00     0.173 A 
ATOM     83  C   UNL A   1      44.247  27.453  26.602  1.00  0.00     0.173 A 
ATOM     84  F   UNL A   1      42.951  24.737  28.636  1.00  0.00    -0.203 F 
ATOM     85  C   UNL A   1      44.140  24.682  26.603  1.00  0.00     0.198 A 
ATOM     86  C   UNL A   1      44.813  26.731  25.554  1.00  0.00     0.198 A 
ATOM     87  F   UNL A   1      44.320  28.793  26.575  1.00  0.00    -0.203 F 
ATOM     88  F   UNL A   1      44.116  23.343  26.626  1.00  0.00    -0.200 F 
ATOM     89  C   UNL A   1      44.768  25.346  25.560  1.00  0.00     0.200 A 
ATOM     90  F   UNL A   1      45.405  27.378  24.540  1.00  0.00    -0.200 F 
ATOM     91  F   UNL A   1      45.334  24.650  24.564  1.00  0.00    -0.200 F 
ENDBRANCH  57  81
BRANCH  69  92
ATOM     92  C   UNL A   1      45.538  28.179  34.218  1.00  0.00     0.064 A 
ATOM     93  C   UNL A   1      46.732  28.916  34.204  1.00  0.00     0.173 A 
ATOM     94  C   UNL A   1      45.478  27.040  35.034  1.00  0.00     0.173 A 
ATOM     95  F   UNL A   1      46.844  30.005  33.430  1.00  0.00    -0.203 F 
ATOM     96  C   UNL A   1      47.832  28.507  34.952  1.00  0.00     0.198 A 
ATOM     97  C   UNL A   1      46.569  26.654  35.807  1.00  0.00     0.198 A 
ATOM     98  F   UNL A   1      44.356  26.305  35.090  1.00  0.00    -0.203 F 
ATOM     99  F   UNL A   1      48.981  29.193  34.879  1.00  0.00    -0.200 F 
ATOM    100  C   UNL A   1      47.748  27.381  35.757  1.00  0.00     0.200 A 
ATOM    101  F   UNL A   1      46.479  25.575  36.598  1.00  0.00    -0.200 F 
ATOM    102  F   UNL A   1      48.808  26.991  36.480  1.00  0.00    -0.200 F 
ENDBRANCH  69  92
ENDBRANCH  43  44
ENDBRANCH  36  38
ENDBRANCH  35  36
ENDBRANCH  34  35
ENDBRANCH  33  34
ENDBRANCH  32  33
ENDBRANCH   1  32
TORSDOF 20
ENDMDL
MODEL 3
REMARK VINA RESULT:     -11.6      4.395      8.629
REMARK SMILES COc1ccc(CCN2C(=O)CC[C@@H](C(=O)OCCOCCOC(=O)c3ccc(-c4c5nc(c(-c6c(F)c(F)c(F)c(F)c6F)c6ccc([nH]6)c(-c6c(F)c(F)c(F)c(F)c6F)c6nc(c(-c7c(F)c(F)c(F)c(F)c7F)c7ccc4[nH]7)C=C6)C=C5)cc3)[C@@H]2c2ccc(Cl)cc2)cc1OC
REMARK SMILES IDX 19 1 18 2 17 3 15 4 16 5 14 6 9 7 10 8 89 9 11 10 12 11
REMARK SMILES IDX 13 12 8 13 7 14 6 15 3 16 4 17 98 18 5 19 97 20 2 21 1 22
REMARK SMILES IDX 99 23 100 24 90 25 91 26 96 27 92 28 95 29 93 30 94 31 20 32
REMARK SMILES IDX 21 33 22 34 23 35 24 36 25 37 26 38 27 39 88 40 28 41 87 42
REMARK SMILES IDX 29 43 30 44 31 45 81 46 32 47 86 48 80 49 82 50 33 51 85 52
REMARK SMILES IDX 79 53 78 54 34 56 66 57 46 58 65 59 47 60 50 61 64 62 83 63
REMARK SMILES IDX 48 64 49 65 63 67 84 68 51 69 35 70 36 71 44 72 37 73 38 74
REMARK SMILES IDX 42 75 45 76 39 77 40 78 43 79 41 80 67 81 68 82 76 83 69 84
REMARK SMILES IDX 70 85 74 86 77 87 71 88 72 89 75 90 73 91 52 92 53 93 61 94
REMARK SMILES IDX 54 95 55 96 59 97 62 98 56 99 57 100 60 101 58 102
REMARK H PARENT 82 55 50 66
REMARK Flexibility Score: inf
ROOT
ATOM      1  C   UNL A   1      37.669  22.638  25.620  1.00  0.00     0.202 C 
ENDROOT
BRANCH   1   2
ATOM      2  C   UNL A   1      36.881  23.563  24.687  1.00  0.00     0.261 C 
BRANCH   2   3
ATOM      3  O   UNL A   1      35.607  23.006  24.305  1.00  0.00    -0.463 OA
BRANCH   3   4
ATOM      4  C   UNL A   1      34.631  23.900  23.989  1.00  0.00     0.311 C 
ATOM      5  O   UNL A   1      34.217  24.091  22.852  1.00  0.00    -0.252 OA
BRANCH   4   6
ATOM      6  C   UNL A   1      34.168  24.733  25.182  1.00  0.00     0.127 C 
ATOM      7  N   UNL A   1      31.702  25.025  24.699  1.00  0.00    -0.334 N 
ATOM      8  C   UNL A   1      31.524  23.867  25.423  1.00  0.00     0.223 C 
ATOM      9  C   UNL A   1      33.024  25.699  24.723  1.00  0.00     0.129 C 
ATOM     10  O   UNL A   1      30.692  23.011  25.143  1.00  0.00    -0.275 OA
ATOM     11  C   UNL A   1      32.327  23.803  26.693  1.00  0.00     0.101 C 
ATOM     12  C   UNL A   1      33.813  23.955  26.458  1.00  0.00     0.028 C 
BRANCH   7  13
ATOM     13  C   UNL A   1      30.704  25.437  23.696  1.00  0.00     0.125 C 
BRANCH  13  14
ATOM     14  C   UNL A   1      31.060  26.571  22.682  1.00  0.00     0.057 C 
BRANCH  14  15
ATOM     15  C   UNL A   1      30.290  27.884  22.662  1.00  0.00    -0.042 A 
ATOM     16  C   UNL A   1      28.874  30.339  22.894  1.00  0.00     0.160 A 
ATOM     17  C   UNL A   1      30.243  30.329  22.654  1.00  0.00     0.051 A 
ATOM     18  C   UNL A   1      28.186  29.125  22.997  1.00  0.00     0.160 A 
ATOM     19  C   UNL A   1      30.933  29.122  22.587  1.00  0.00     0.008 A 
ATOM     20  C   UNL A   1      28.901  27.912  22.871  1.00  0.00     0.054 A 
BRANCH  16  21
ATOM     21  O   UNL A   1      28.237  31.547  22.987  1.00  0.00    -0.493 OA
ATOM     22  C   UNL A   1      28.128  32.199  21.719  1.00  0.00     0.278 C 
ENDBRANCH  16  21
BRANCH  18  23
ATOM     23  O   UNL A   1      26.850  28.938  23.246  1.00  0.00    -0.493 OA
ATOM     24  C   UNL A   1      26.455  27.722  23.868  1.00  0.00     0.278 C 
ENDBRANCH  18  23
ENDBRANCH  14  15
ENDBRANCH  13  14
ENDBRANCH   7  13
BRANCH   9  25
ATOM     25  C   UNL A   1      33.029  27.031  25.482  1.00  0.00    -0.024 A 
ATOM     26  C   UNL A   1      32.256  27.249  26.634  1.00  0.00     0.007 A 
ATOM     27  C   UNL A   1      33.739  28.129  24.959  1.00  0.00     0.007 A 
ATOM     28  C   UNL A   1      32.194  28.507  27.239  1.00  0.00     0.021 A 
ATOM     29  C   UNL A   1      33.702  29.381  25.579  1.00  0.00     0.021 A 
ATOM     30  C   UNL A   1      32.923  29.566  26.714  1.00  0.00     0.041 A 
ATOM     31  Cl  UNL A   1      32.843  31.115  27.454  1.00  0.00    -0.084 Cl
ENDBRANCH   9  25
ENDBRANCH   4   6
ENDBRANCH   3   4
ENDBRANCH   2   3
ENDBRANCH   1   2
BRANCH   1  32
ATOM     32  O   UNL A   1      37.246  21.279  25.724  1.00  0.00    -0.374 OA
BRANCH  32  33
ATOM     33  C   UNL A   1      37.815  20.336  24.819  1.00  0.00     0.202 C 
BRANCH  33  34
ATOM     34  C   UNL A   1      38.990  19.483  25.321  1.00  0.00     0.261 C 
BRANCH  34  35
ATOM     35  O   UNL A   1      39.818  20.157  26.270  1.00  0.00    -0.460 OA
BRANCH  35  36
ATOM     36  C   UNL A   1      41.125  19.822  26.169  1.00  0.00     0.338 C 
ATOM     37  O   UNL A   1      41.613  18.783  25.766  1.00  0.00    -0.246 OA
BRANCH  36  38
ATOM     38  C   UNL A   1      41.929  21.006  26.478  1.00  0.00     0.060 A 
ATOM     39  C   UNL A   1      41.995  21.391  27.821  1.00  0.00     0.016 A 
ATOM     40  C   UNL A   1      42.553  21.749  25.473  1.00  0.00     0.016 A 
ATOM     41  C   UNL A   1      42.641  22.569  28.160  1.00  0.00     0.010 A 
ATOM     42  C   UNL A   1      43.199  22.935  25.815  1.00  0.00     0.010 A 
ATOM     43  C   UNL A   1      43.202  23.366  27.153  1.00  0.00    -0.014 A 
BRANCH  43  44
ATOM     44  C   UNL A   1      43.634  24.733  27.504  1.00  0.00     0.031 A 
ATOM     45  C   UNL A   1      42.585  25.748  27.849  1.00  0.00     0.074 A 
ATOM     46  C   UNL A   1      44.943  25.022  27.589  1.00  0.00     0.049 A 
ATOM     47  N   UNL A   1      42.726  26.986  28.245  1.00  0.00    -0.248 NA
ATOM     48  C   UNL A   1      41.184  25.311  27.733  1.00  0.00     0.031 C 
ATOM     49  C   UNL A   1      46.031  24.087  27.305  1.00  0.00     0.029 A 
ATOM     50  N   UNL A   1      45.576  26.180  27.951  1.00  0.00    -0.354 N 
ATOM     51  C   UNL A   1      41.438  27.471  28.427  1.00  0.00     0.074 A 
ATOM     52  C   UNL A   1      40.526  26.412  28.058  1.00  0.00     0.031 C 
ATOM     53  C   UNL A   1      47.203  24.710  27.511  1.00  0.00     0.029 A 
ATOM     54  C   UNL A   1      46.944  26.090  27.915  1.00  0.00     0.049 A 
ATOM     55  H   UNL A   1      45.096  26.999  28.212  1.00  0.00     0.167 HD
ATOM     56  C   UNL A   1      41.056  28.689  28.877  1.00  0.00     0.037 A 
ATOM     57  C   UNL A   1      47.875  27.026  28.175  1.00  0.00     0.037 A 
ATOM     58  C   UNL A   1      41.980  29.730  29.239  1.00  0.00     0.049 A 
ATOM     59  C   UNL A   1      47.421  28.390  28.622  1.00  0.00     0.074 A 
ATOM     60  C   UNL A   1      41.711  31.001  29.715  1.00  0.00     0.029 A 
ATOM     61  N   UNL A   1      43.362  29.619  29.154  1.00  0.00    -0.354 N 
ATOM     62  N   UNL A   1      46.202  28.835  28.821  1.00  0.00    -0.248 NA
ATOM     63  C   UNL A   1      48.471  29.380  28.893  1.00  0.00     0.031 C 
ATOM     64  C   UNL A   1      42.927  31.675  29.866  1.00  0.00     0.029 A 
ATOM     65  C   UNL A   1      43.958  30.806  29.544  1.00  0.00     0.049 A 
ATOM     66  H   UNL A   1      43.847  28.814  28.859  1.00  0.00     0.167 HD
ATOM     67  C   UNL A   1      46.339  30.144  29.264  1.00  0.00     0.074 A 
ATOM     68  C   UNL A   1      47.762  30.413  29.323  1.00  0.00     0.031 C 
ATOM     69  C   UNL A   1      45.379  31.044  29.593  1.00  0.00     0.037 A 
BRANCH  56  70
ATOM     70  C   UNL A   1      39.583  28.962  28.974  1.00  0.00     0.064 A 
ATOM     71  C   UNL A   1      38.882  28.824  30.183  1.00  0.00     0.173 A 
ATOM     72  C   UNL A   1      38.864  29.381  27.845  1.00  0.00     0.173 A 
ATOM     73  F   UNL A   1      39.517  28.409  31.289  1.00  0.00    -0.203 F 
ATOM     74  C   UNL A   1      37.512  29.070  30.249  1.00  0.00     0.198 A 
ATOM     75  C   UNL A   1      37.501  29.655  27.922  1.00  0.00     0.198 A 
ATOM     76  F   UNL A   1      39.485  29.527  26.664  1.00  0.00    -0.203 F 
ATOM     77  F   UNL A   1      36.854  28.882  31.402  1.00  0.00    -0.200 F 
ATOM     78  C   UNL A   1      36.825  29.493  29.122  1.00  0.00     0.200 A 
ATOM     79  F   UNL A   1      36.841  30.073  26.833  1.00  0.00    -0.200 F 
ATOM     80  F   UNL A   1      35.508  29.733  29.188  1.00  0.00    -0.200 F 
ENDBRANCH  56  70
BRANCH  57  81
ATOM     81  C   UNL A   1      49.317  26.701  28.024  1.00  0.00     0.064 A 
ATOM     82  C   UNL A   1      50.120  26.418  29.138  1.00  0.00     0.173 A 
ATOM     83  C   UNL A   1      49.924  26.671  26.760  1.00  0.00     0.173 A 
ATOM     84  F   UNL A   1      49.591  26.451  30.370  1.00  0.00    -0.203 F 
ATOM     85  C   UNL A   1      51.477  26.136  28.994  1.00  0.00     0.198 A 
ATOM     86  C   UNL A   1      51.274  26.360  26.614  1.00  0.00     0.198 A 
ATOM     87  F   UNL A   1      49.200  26.930  25.660  1.00  0.00    -0.203 F 
ATOM     88  F   UNL A   1      52.231  25.914  30.079  1.00  0.00    -0.200 F 
ATOM     89  C   UNL A   1      52.052  26.102  27.732  1.00  0.00     0.200 A 
ATOM     90  F   UNL A   1      51.821  26.311  25.392  1.00  0.00    -0.200 F 
ATOM     91  F   UNL A   1      53.356  25.826  27.595  1.00  0.00    -0.200 F 
ENDBRANCH  57  81
BRANCH  69  92
ATOM     92  C   UNL A   1      45.841  32.388  30.077  1.00  0.00     0.064 A 
ATOM     93  C   UNL A   1      46.125  32.628  31.430  1.00  0.00     0.173 A 
ATOM     94  C   UNL A   1      46.028  33.441  29.169  1.00  0.00     0.173 A 
ATOM     95  F   UNL A   1      45.949  31.657  32.338  1.00  0.00    -0.203 F 
ATOM     96  C   UNL A   1      46.545  33.883  31.860  1.00  0.00     0.198 A 
ATOM     97  C   UNL A   1      46.483  34.684  29.598  1.00  0.00     0.198 A 
ATOM     98  F   UNL A   1      45.781  33.261  27.862  1.00  0.00    -0.203 F 
ATOM     99  F   UNL A   1      46.754  34.106  33.165  1.00  0.00    -0.200 F 
ATOM    100  C   UNL A   1      46.730  34.907  30.944  1.00  0.00     0.200 A 
ATOM    101  F   UNL A   1      46.677  35.668  28.708  1.00  0.00    -0.200 F 
ATOM    102  F   UNL A   1      47.138  36.115  31.360  1.00  0.00    -0.200 F 
ENDBRANCH  69  92
ENDBRANCH  43  44
ENDBRANCH  36  38
ENDBRANCH  35  36
ENDBRANCH  34  35
ENDBRANCH  33  34
ENDBRANCH  32  33
ENDBRANCH   1  32
TORSDOF 20
ENDMDL
