MODEL 1
REMARK VINA RESULT:     -10.7      0.000      0.000
REMARK SMILES CN(C(=O)c1cccn1CC(=O)OCCOCCOC(=O)c1ccc(-c2c3nc(c(-c4c(F)c(F)c(F)c(F)c4F)c4ccc([nH]4)c(-c4c(F)c(F)c(F)c(F)c4F)c4nc(c(-c5c(F)c(F)c(F)c(F)c5F)c5ccc2[nH]5)C=C4)C=C3)cc1)c1ccc(F)cc1
REMARK SMILES IDX 15 1 14 2 13 3 11 4 12 5 10 6 9 7 5 8 6 9 7 10 8 11 3 12
REMARK SMILES IDX 4 13 2 14 1 15 85 16 86 17 91 18 87 19 90 20 88 21 89 22
REMARK SMILES IDX 16 23 17 24 18 25 19 26 20 27 21 28 22 29 23 30 84 31 24 32
REMARK SMILES IDX 83 33 25 34 26 35 27 36 77 37 28 38 82 39 76 40 78 41 29 42
REMARK SMILES IDX 81 43 75 44 74 45 30 47 62 48 42 49 61 50 43 51 46 52 60 53
REMARK SMILES IDX 79 54 44 55 45 56 59 58 80 59 47 60 31 61 32 62 40 63 33 64
REMARK SMILES IDX 34 65 38 66 41 67 35 68 36 69 39 70 37 71 63 72 64 73 72 74
REMARK SMILES IDX 65 75 66 76 70 77 73 78 67 79 68 80 71 81 69 82 48 83 49 84
REMARK SMILES IDX 57 85 50 86 51 87 55 88 58 89 52 90 53 91 56 92 54 93
REMARK H PARENT 78 46 46 57
REMARK Flexibility Score: inf
ROOT
ATOM      1  C   UNL A   1      38.018  23.344  26.102  1.00  0.00     0.202 C 
ENDROOT
BRANCH   1   2
ATOM      2  C   UNL A   1      36.735  23.289  25.274  1.00  0.00     0.261 C 
BRANCH   2   3
ATOM      3  O   UNL A   1      35.584  23.772  25.996  1.00  0.00    -0.462 OA
BRANCH   3   4
ATOM      4  C   UNL A   1      34.662  22.821  26.303  1.00  0.00     0.326 C 
ATOM      5  O   UNL A   1      34.911  21.815  26.965  1.00  0.00    -0.250 OA
BRANCH   4   6
ATOM      6  C   UNL A   1      33.260  23.094  25.830  1.00  0.00     0.244 C 
BRANCH   6   7
ATOM      7  N   UNL A   1      32.810  22.471  24.584  1.00  0.00    -0.332 N 
ATOM      8  C   UNL A   1      32.892  23.004  23.301  1.00  0.00     0.108 A 
ATOM      9  C   UNL A   1      32.515  21.987  22.430  1.00  0.00     0.033 A 
ATOM     10  C   UNL A   1      32.228  20.828  23.183  1.00  0.00     0.020 A 
ATOM     11  C   UNL A   1      32.466  21.139  24.498  1.00  0.00     0.087 A 
BRANCH   8  12
ATOM     12  C   UNL A   1      33.438  24.322  22.999  1.00  0.00     0.274 C 
ATOM     13  O   UNL A   1      34.644  24.418  22.772  1.00  0.00    -0.267 OA
BRANCH  12  14
ATOM     14  N   UNL A   1      32.597  25.457  23.011  1.00  0.00    -0.310 N 
ATOM     15  C   UNL A   1      31.859  25.934  21.843  1.00  0.00     0.153 C 
BRANCH  14  16
ATOM     16  C   UNL A   1      32.387  26.152  24.259  1.00  0.00     0.044 A 
ATOM     17  C   UNL A   1      33.455  26.794  24.914  1.00  0.00     0.029 A 
ATOM     18  C   UNL A   1      31.130  26.173  24.884  1.00  0.00     0.029 A 
ATOM     19  C   UNL A   1      33.292  27.382  26.170  1.00  0.00     0.041 A 
ATOM     20  C   UNL A   1      30.967  26.753  26.147  1.00  0.00     0.041 A 
ATOM     21  C   UNL A   1      32.050  27.344  26.782  1.00  0.00     0.123 A 
ATOM     22  F   UNL A   1      31.894  27.876  28.000  1.00  0.00    -0.207 F 
ENDBRANCH  14  16
ENDBRANCH  12  14
ENDBRANCH   8  12
ENDBRANCH   6   7
ENDBRANCH   4   6
ENDBRANCH   3   4
ENDBRANCH   2   3
ENDBRANCH   1   2
BRANCH   1  23
ATOM     23  O   UNL A   1      38.876  22.205  26.076  1.00  0.00    -0.374 OA
BRANCH  23  24
ATOM     24  C   UNL A   1      38.449  21.023  25.411  1.00  0.00     0.202 C 
BRANCH  24  25
ATOM     25  C   UNL A   1      39.269  19.752  25.591  1.00  0.00     0.261 C 
BRANCH  25  26
ATOM     26  O   UNL A   1      40.257  19.842  26.608  1.00  0.00    -0.460 OA
BRANCH  26  27
ATOM     27  C   UNL A   1      41.487  19.564  26.124  1.00  0.00     0.338 C 
ATOM     28  O   UNL A   1      41.891  18.495  25.698  1.00  0.00    -0.246 OA
BRANCH  27  29
ATOM     29  C   UNL A   1      42.386  20.688  26.359  1.00  0.00     0.060 A 
ATOM     30  C   UNL A   1      42.378  21.192  27.662  1.00  0.00     0.016 A 
ATOM     31  C   UNL A   1      42.917  21.400  25.275  1.00  0.00     0.016 A 
ATOM     32  C   UNL A   1      42.752  22.496  27.861  1.00  0.00     0.010 A 
ATOM     33  C   UNL A   1      43.275  22.716  25.470  1.00  0.00     0.010 A 
ATOM     34  C   UNL A   1      43.154  23.255  26.757  1.00  0.00    -0.014 A 
BRANCH  34  35
ATOM     35  C   UNL A   1      43.664  24.594  27.035  1.00  0.00     0.031 A 
ATOM     36  C   UNL A   1      42.487  25.581  27.163  1.00  0.00     0.074 A 
ATOM     37  C   UNL A   1      45.028  24.694  27.077  1.00  0.00     0.049 A 
ATOM     38  N   UNL A   1      42.478  26.875  27.158  1.00  0.00    -0.248 NA
ATOM     39  C   UNL A   1      41.094  25.048  27.296  1.00  0.00     0.031 C 
ATOM     40  C   UNL A   1      45.979  23.562  26.936  1.00  0.00     0.029 A 
ATOM     41  N   UNL A   1      45.897  25.750  27.227  1.00  0.00    -0.354 N 
ATOM     42  C   UNL A   1      41.178  27.291  27.520  1.00  0.00     0.074 A 
ATOM     43  C   UNL A   1      40.347  26.132  27.492  1.00  0.00     0.031 C 
ATOM     44  C   UNL A   1      47.258  24.001  26.911  1.00  0.00     0.029 A 
ATOM     45  C   UNL A   1      47.277  25.441  27.068  1.00  0.00     0.049 A 
ATOM     46  H   UNL A   1      45.585  26.661  27.432  1.00  0.00     0.167 HD
ATOM     47  C   UNL A   1      40.906  28.553  27.953  1.00  0.00     0.037 A 
ATOM     48  C   UNL A   1      48.341  26.305  27.029  1.00  0.00     0.037 A 
ATOM     49  C   UNL A   1      42.054  29.374  27.791  1.00  0.00     0.049 A 
ATOM     50  C   UNL A   1      47.763  27.593  27.430  1.00  0.00     0.074 A 
ATOM     51  C   UNL A   1      42.628  29.901  26.666  1.00  0.00     0.029 A 
ATOM     52  N   UNL A   1      42.960  29.400  28.821  1.00  0.00    -0.354 N 
ATOM     53  N   UNL A   1      47.397  27.883  28.642  1.00  0.00    -0.248 NA
ATOM     54  C   UNL A   1      47.472  28.591  26.394  1.00  0.00     0.031 C 
ATOM     55  C   UNL A   1      44.008  29.793  26.924  1.00  0.00     0.029 A 
ATOM     56  C   UNL A   1      44.214  29.429  28.261  1.00  0.00     0.049 A 
ATOM     57  H   UNL A   1      42.751  29.397  29.783  1.00  0.00     0.167 HD
ATOM     58  C   UNL A   1      46.540  28.935  28.439  1.00  0.00     0.074 A 
ATOM     59  C   UNL A   1      46.884  29.508  27.156  1.00  0.00     0.031 C 
ATOM     60  C   UNL A   1      45.322  28.931  29.038  1.00  0.00     0.037 A 
BRANCH  47  61
ATOM     61  C   UNL A   1      39.749  29.118  28.722  1.00  0.00     0.064 A 
ATOM     62  C   UNL A   1      39.670  28.822  30.105  1.00  0.00     0.173 A 
ATOM     63  C   UNL A   1      38.573  29.572  28.113  1.00  0.00     0.173 A 
ATOM     64  F   UNL A   1      40.760  28.446  30.790  1.00  0.00    -0.203 F 
ATOM     65  C   UNL A   1      38.456  28.810  30.786  1.00  0.00     0.198 A 
ATOM     66  C   UNL A   1      37.365  29.610  28.816  1.00  0.00     0.198 A 
ATOM     67  F   UNL A   1      38.539  29.887  26.812  1.00  0.00    -0.203 F 
ATOM     68  F   UNL A   1      38.405  28.365  32.048  1.00  0.00    -0.200 F 
ATOM     69  C   UNL A   1      37.299  29.181  30.133  1.00  0.00     0.200 A 
ATOM     70  F   UNL A   1      36.244  29.987  28.185  1.00  0.00    -0.200 F 
ATOM     71  F   UNL A   1      36.117  29.093  30.756  1.00  0.00    -0.200 F 
ENDBRANCH  47  61
BRANCH  48  72
ATOM     72  C   UNL A   1      49.811  26.324  26.665  1.00  0.00     0.064 A 
ATOM     73  C   UNL A   1      50.350  26.318  25.374  1.00  0.00     0.173 A 
ATOM     74  C   UNL A   1      50.789  26.468  27.698  1.00  0.00     0.173 A 
ATOM     75  F   UNL A   1      49.581  26.069  24.309  1.00  0.00    -0.203 F 
ATOM     76  C   UNL A   1      51.720  26.561  25.136  1.00  0.00     0.198 A 
ATOM     77  C   UNL A   1      52.130  26.769  27.462  1.00  0.00     0.198 A 
ATOM     78  F   UNL A   1      50.475  26.330  28.992  1.00  0.00    -0.203 F 
ATOM     79  F   UNL A   1      52.189  26.553  23.881  1.00  0.00    -0.200 F 
ATOM     80  C   UNL A   1      52.595  26.834  26.174  1.00  0.00     0.200 A 
ATOM     81  F   UNL A   1      52.945  27.016  28.497  1.00  0.00    -0.200 F 
ATOM     82  F   UNL A   1      53.877  27.147  25.938  1.00  0.00    -0.200 F 
ENDBRANCH  48  72
BRANCH  60  83
ATOM     83  C   UNL A   1      45.245  28.054  30.275  1.00  0.00     0.064 A 
ATOM     84  C   UNL A   1      45.982  28.402  31.419  1.00  0.00     0.173 A 
ATOM     85  C   UNL A   1      44.571  26.821  30.335  1.00  0.00     0.173 A 
ATOM     86  F   UNL A   1      46.633  29.574  31.461  1.00  0.00    -0.203 F 
ATOM     87  C   UNL A   1      46.062  27.558  32.531  1.00  0.00     0.198 A 
ATOM     88  C   UNL A   1      44.649  25.974  31.444  1.00  0.00     0.198 A 
ATOM     89  F   UNL A   1      43.809  26.412  29.325  1.00  0.00    -0.203 F 
ATOM     90  F   UNL A   1      46.778  27.930  33.600  1.00  0.00    -0.200 F 
ATOM     91  C   UNL A   1      45.401  26.340  32.540  1.00  0.00     0.200 A 
ATOM     92  F   UNL A   1      43.984  24.807  31.445  1.00  0.00    -0.200 F 
ATOM     93  F   UNL A   1      45.471  25.536  33.611  1.00  0.00    -0.200 F 
ENDBRANCH  60  83
ENDBRANCH  34  35
ENDBRANCH  27  29
ENDBRANCH  26  27
ENDBRANCH  25  26
ENDBRANCH  24  25
ENDBRANCH  23  24
ENDBRANCH   1  23
TORSDOF 18
ENDMDL
MODEL 2
REMARK VINA RESULT:     -10.6      3.415      7.888
REMARK SMILES CN(C(=O)c1cccn1CC(=O)OCCOCCOC(=O)c1ccc(-c2c3nc(c(-c4c(F)c(F)c(F)c(F)c4F)c4ccc([nH]4)c(-c4c(F)c(F)c(F)c(F)c4F)c4nc(c(-c5c(F)c(F)c(F)c(F)c5F)c5ccc2[nH]5)C=C4)C=C3)cc1)c1ccc(F)cc1
REMARK SMILES IDX 15 1 14 2 13 3 11 4 12 5 10 6 9 7 5 8 6 9 7 10 8 11 3 12
REMARK SMILES IDX 4 13 2 14 1 15 85 16 86 17 91 18 87 19 90 20 88 21 89 22
REMARK SMILES IDX 16 23 17 24 18 25 19 26 20 27 21 28 22 29 23 30 84 31 24 32
REMARK SMILES IDX 83 33 25 34 26 35 27 36 77 37 28 38 82 39 76 40 78 41 29 42
REMARK SMILES IDX 81 43 75 44 74 45 30 47 62 48 42 49 61 50 43 51 46 52 60 53
REMARK SMILES IDX 79 54 44 55 45 56 59 58 80 59 47 60 31 61 32 62 40 63 33 64
REMARK SMILES IDX 34 65 38 66 41 67 35 68 36 69 39 70 37 71 63 72 64 73 72 74
REMARK SMILES IDX 65 75 66 76 70 77 73 78 67 79 68 80 71 81 69 82 48 83 49 84
REMARK SMILES IDX 57 85 50 86 51 87 55 88 58 89 52 90 53 91 56 92 54 93
REMARK H PARENT 78 46 46 57
REMARK Flexibility Score: inf
ROOT
ATOM      1  C   UNL A   1      32.965  28.637  23.502  1.00  0.00     0.202 C 
ENDROOT
BRANCH   1   2
ATOM      2  C   UNL A   1      33.164  27.643  22.359  1.00  0.00     0.261 C 
BRANCH   2   3
ATOM      3  O   UNL A   1      32.007  26.813  22.134  1.00  0.00    -0.462 OA
BRANCH   3   4
ATOM      4  C   UNL A   1      32.229  25.477  22.260  1.00  0.00     0.326 C 
ATOM      5  O   UNL A   1      33.188  24.893  21.761  1.00  0.00    -0.250 OA
BRANCH   4   6
ATOM      6  C   UNL A   1      31.244  24.731  23.119  1.00  0.00     0.244 C 
BRANCH   6   7
ATOM      7  N   UNL A   1      31.430  24.752  24.571  1.00  0.00    -0.332 N 
ATOM      8  C   UNL A   1      31.707  23.668  25.399  1.00  0.00     0.108 A 
ATOM      9  C   UNL A   1      31.977  24.196  26.658  1.00  0.00     0.033 A 
ATOM     10  C   UNL A   1      31.890  25.603  26.587  1.00  0.00     0.020 A 
ATOM     11  C   UNL A   1      31.601  25.919  25.284  1.00  0.00     0.087 A 
BRANCH   8  12
ATOM     12  C   UNL A   1      31.835  22.294  24.928  1.00  0.00     0.274 C 
ATOM     13  O   UNL A   1      31.089  21.440  25.407  1.00  0.00    -0.267 OA
BRANCH  12  14
ATOM     14  N   UNL A   1      32.823  21.960  23.976  1.00  0.00    -0.310 N 
ATOM     15  C   UNL A   1      32.526  21.588  22.593  1.00  0.00     0.153 C 
BRANCH  14  16
ATOM     16  C   UNL A   1      34.213  22.059  24.354  1.00  0.00     0.044 A 
ATOM     17  C   UNL A   1      34.886  20.957  24.916  1.00  0.00     0.029 A 
ATOM     18  C   UNL A   1      34.925  23.261  24.219  1.00  0.00     0.029 A 
ATOM     19  C   UNL A   1      36.198  21.066  25.380  1.00  0.00     0.041 A 
ATOM     20  C   UNL A   1      36.237  23.374  24.693  1.00  0.00     0.041 A 
ATOM     21  C   UNL A   1      36.858  22.279  25.277  1.00  0.00     0.123 A 
ATOM     22  F   UNL A   1      38.104  22.398  25.750  1.00  0.00    -0.207 F 
ENDBRANCH  14  16
ENDBRANCH  12  14
ENDBRANCH   8  12
ENDBRANCH   6   7
ENDBRANCH   4   6
ENDBRANCH   3   4
ENDBRANCH   2   3
ENDBRANCH   1   2
BRANCH   1  23
ATOM     23  O   UNL A   1      33.843  28.548  24.623  1.00  0.00    -0.374 OA
BRANCH  23  24
ATOM     24  C   UNL A   1      33.530  29.257  25.815  1.00  0.00     0.202 C 
BRANCH  24  25
ATOM     25  C   UNL A   1      34.145  28.782  27.125  1.00  0.00     0.261 C 
BRANCH  25  26
ATOM     26  O   UNL A   1      35.565  28.777  27.127  1.00  0.00    -0.460 OA
BRANCH  26  27
ATOM     27  C   UNL A   1      36.059  29.897  27.697  1.00  0.00     0.338 C 
ATOM     28  O   UNL A   1      35.629  31.033  27.592  1.00  0.00    -0.246 OA
BRANCH  27  29
ATOM     29  C   UNL A   1      37.344  29.617  28.328  1.00  0.00     0.060 A 
ATOM     30  C   UNL A   1      38.454  29.724  27.486  1.00  0.00     0.016 A 
ATOM     31  C   UNL A   1      37.390  28.954  29.562  1.00  0.00     0.016 A 
ATOM     32  C   UNL A   1      39.584  29.013  27.799  1.00  0.00     0.010 A 
ATOM     33  C   UNL A   1      38.518  28.224  29.869  1.00  0.00     0.010 A 
ATOM     34  C   UNL A   1      39.587  28.237  28.963  1.00  0.00    -0.014 A 
BRANCH  34  35
ATOM     35  C   UNL A   1      40.851  27.603  29.323  1.00  0.00     0.031 A 
ATOM     36  C   UNL A   1      40.892  26.170  28.755  1.00  0.00     0.074 A 
ATOM     37  C   UNL A   1      41.681  28.369  30.095  1.00  0.00     0.049 A 
ATOM     38  N   UNL A   1      41.685  25.186  29.030  1.00  0.00    -0.248 NA
ATOM     39  C   UNL A   1      39.877  25.756  27.736  1.00  0.00     0.031 C 
ATOM     40  C   UNL A   1      41.420  29.770  30.512  1.00  0.00     0.029 A 
ATOM     41  N   UNL A   1      42.894  28.136  30.701  1.00  0.00    -0.354 N 
ATOM     42  C   UNL A   1      41.437  24.166  28.085  1.00  0.00     0.074 A 
ATOM     43  C   UNL A   1      40.251  24.528  27.382  1.00  0.00     0.031 C 
ATOM     44  C   UNL A   1      42.375  30.211  31.361  1.00  0.00     0.029 A 
ATOM     45  C   UNL A   1      43.366  29.172  31.555  1.00  0.00     0.049 A 
ATOM     46  H   UNL A   1      43.403  27.306  30.555  1.00  0.00     0.167 HD
ATOM     47  C   UNL A   1      42.315  23.149  27.856  1.00  0.00     0.037 A 
ATOM     48  C   UNL A   1      44.460  29.158  32.382  1.00  0.00     0.037 A 
ATOM     49  C   UNL A   1      43.358  23.190  28.819  1.00  0.00     0.049 A 
ATOM     50  C   UNL A   1      45.168  27.928  32.008  1.00  0.00     0.074 A 
ATOM     51  C   UNL A   1      43.363  22.871  30.150  1.00  0.00     0.029 A 
ATOM     52  N   UNL A   1      44.450  23.970  28.532  1.00  0.00    -0.354 N 
ATOM     53  N   UNL A   1      45.832  27.777  30.901  1.00  0.00    -0.248 NA
ATOM     54  C   UNL A   1      45.042  26.749  32.871  1.00  0.00     0.031 C 
ATOM     55  C   UNL A   1      44.195  23.856  30.717  1.00  0.00     0.029 A 
ATOM     56  C   UNL A   1      44.837  24.577  29.702  1.00  0.00     0.049 A 
ATOM     57  H   UNL A   1      44.878  24.074  27.652  1.00  0.00     0.167 HD
ATOM     58  C   UNL A   1      45.901  26.410  30.794  1.00  0.00     0.074 A 
ATOM     59  C   UNL A   1      45.720  25.880  32.127  1.00  0.00     0.031 C 
ATOM     60  C   UNL A   1      45.572  25.814  29.620  1.00  0.00     0.037 A 
BRANCH  47  61
ATOM     61  C   UNL A   1      42.467  22.202  26.704  1.00  0.00     0.064 A 
ATOM     62  C   UNL A   1      41.906  20.908  26.837  1.00  0.00     0.173 A 
ATOM     63  C   UNL A   1      43.430  22.363  25.700  1.00  0.00     0.173 A 
ATOM     64  F   UNL A   1      40.927  20.672  27.724  1.00  0.00    -0.203 F 
ATOM     65  C   UNL A   1      42.404  19.815  26.135  1.00  0.00     0.198 A 
ATOM     66  C   UNL A   1      43.890  21.271  24.959  1.00  0.00     0.198 A 
ATOM     67  F   UNL A   1      44.019  23.546  25.485  1.00  0.00    -0.203 F 
ATOM     68  F   UNL A   1      41.954  18.583  26.413  1.00  0.00    -0.200 F 
ATOM     69  C   UNL A   1      43.415  19.993  25.213  1.00  0.00     0.200 A 
ATOM     70  F   UNL A   1      44.860  21.449  24.052  1.00  0.00    -0.200 F 
ATOM     71  F   UNL A   1      43.955  18.936  24.595  1.00  0.00    -0.200 F 
ENDBRANCH  47  61
BRANCH  48  72
ATOM     72  C   UNL A   1      45.069  29.952  33.519  1.00  0.00     0.064 A 
ATOM     73  C   UNL A   1      46.261  30.682  33.481  1.00  0.00     0.173 A 
ATOM     74  C   UNL A   1      44.346  30.093  34.744  1.00  0.00     0.173 A 
ATOM     75  F   UNL A   1      47.110  30.560  32.454  1.00  0.00    -0.203 F 
ATOM     76  C   UNL A   1      46.629  31.567  34.517  1.00  0.00     0.198 A 
ATOM     77  C   UNL A   1      44.675  31.011  35.740  1.00  0.00     0.198 A 
ATOM     78  F   UNL A   1      43.272  29.342  35.021  1.00  0.00    -0.203 F 
ATOM     79  F   UNL A   1      47.778  32.251  34.432  1.00  0.00    -0.200 F 
ATOM     80  C   UNL A   1      45.814  31.765  35.619  1.00  0.00     0.200 A 
ATOM     81  F   UNL A   1      43.863  31.164  36.796  1.00  0.00    -0.200 F 
ATOM     82  F   UNL A   1      46.125  32.667  36.560  1.00  0.00    -0.200 F 
ENDBRANCH  48  72
BRANCH  60  83
ATOM     83  C   UNL A   1      45.686  26.727  28.410  1.00  0.00     0.064 A 
ATOM     84  C   UNL A   1      46.947  27.200  28.015  1.00  0.00     0.173 A 
ATOM     85  C   UNL A   1      44.588  27.251  27.705  1.00  0.00     0.173 A 
ATOM     86  F   UNL A   1      48.052  26.732  28.614  1.00  0.00    -0.203 F 
ATOM     87  C   UNL A   1      47.095  28.153  27.003  1.00  0.00     0.198 A 
ATOM     88  C   UNL A   1      44.730  28.205  26.693  1.00  0.00     0.198 A 
ATOM     89  F   UNL A   1      43.350  26.842  27.968  1.00  0.00    -0.203 F 
ATOM     90  F   UNL A   1      48.318  28.576  26.658  1.00  0.00    -0.200 F 
ATOM     91  C   UNL A   1      45.985  28.662  26.346  1.00  0.00     0.200 A 
ATOM     92  F   UNL A   1      43.646  28.671  26.052  1.00  0.00    -0.200 F 
ATOM     93  F   UNL A   1      46.128  29.569  25.370  1.00  0.00    -0.200 F 
ENDBRANCH  60  83
ENDBRANCH  34  35
ENDBRANCH  27  29
ENDBRANCH  26  27
ENDBRANCH  25  26
ENDBRANCH  24  25
ENDBRANCH  23  24
ENDBRANCH   1  23
TORSDOF 18
ENDMDL
MODEL 3
REMARK VINA RESULT:     -10.4      2.130      3.536
REMARK SMILES CN(C(=O)c1cccn1CC(=O)OCCOCCOC(=O)c1ccc(-c2c3nc(c(-c4c(F)c(F)c(F)c(F)c4F)c4ccc([nH]4)c(-c4c(F)c(F)c(F)c(F)c4F)c4nc(c(-c5c(F)c(F)c(F)c(F)c5F)c5ccc2[nH]5)C=C4)C=C3)cc1)c1ccc(F)cc1
REMARK SMILES IDX 15 1 14 2 13 3 11 4 12 5 10 6 9 7 5 8 6 9 7 10 8 11 3 12
REMARK SMILES IDX 4 13 2 14 1 15 85 16 86 17 91 18 87 19 90 20 88 21 89 22
REMARK SMILES IDX 16 23 17 24 18 25 19 26 20 27 21 28 22 29 23 30 84 31 24 32
REMARK SMILES IDX 83 33 25 34 26 35 27 36 77 37 28 38 82 39 76 40 78 41 29 42
REMARK SMILES IDX 81 43 75 44 74 45 30 47 62 48 42 49 61 50 43 51 46 52 60 53
REMARK SMILES IDX 79 54 44 55 45 56 59 58 80 59 47 60 31 61 32 62 40 63 33 64
REMARK SMILES IDX 34 65 38 66 41 67 35 68 36 69 39 70 37 71 63 72 64 73 72 74
REMARK SMILES IDX 65 75 66 76 70 77 73 78 67 79 68 80 71 81 69 82 48 83 49 84
REMARK SMILES IDX 57 85 50 86 51 87 55 88 58 89 52 90 53 91 56 92 54 93
REMARK H PARENT 78 46 46 57
REMARK Flexibility Score: inf
ROOT
ATOM      1  C   UNL A   1      39.798  21.732  26.151  1.00  0.00     0.202 C 
ENDROOT
BRANCH   1   2
ATOM      2  C   UNL A   1      38.485  21.073  25.731  1.00  0.00     0.261 C 
BRANCH   2   3
ATOM      3  O   UNL A   1      37.818  21.784  24.668  1.00  0.00    -0.462 OA
BRANCH   3   4
ATOM      4  C   UNL A   1      36.579  22.247  24.981  1.00  0.00     0.326 C 
ATOM      5  O   UNL A   1      35.973  21.942  26.006  1.00  0.00    -0.250 OA
BRANCH   4   6
ATOM      6  C   UNL A   1      35.986  23.232  24.009  1.00  0.00     0.244 C 
BRANCH   6   7
ATOM      7  N   UNL A   1      34.824  24.015  24.432  1.00  0.00    -0.332 N 
ATOM      8  C   UNL A   1      33.482  23.675  24.284  1.00  0.00     0.108 A 
ATOM      9  C   UNL A   1      32.756  24.626  24.993  1.00  0.00     0.033 A 
ATOM     10  C   UNL A   1      33.659  25.529  25.596  1.00  0.00     0.020 A 
ATOM     11  C   UNL A   1      34.923  25.100  25.276  1.00  0.00     0.087 A 
BRANCH   8  12
ATOM     12  C   UNL A   1      33.017  22.453  23.638  1.00  0.00     0.274 C 
ATOM     13  O   UNL A   1      32.977  22.421  22.408  1.00  0.00    -0.267 OA
BRANCH  12  14
ATOM     14  N   UNL A   1      32.588  21.357  24.418  1.00  0.00    -0.310 N 
ATOM     15  C   UNL A   1      31.671  21.476  25.551  1.00  0.00     0.153 C 
BRANCH  14  16
ATOM     16  C   UNL A   1      33.010  20.029  24.042  1.00  0.00     0.044 A 
ATOM     17  C   UNL A   1      32.276  19.280  23.103  1.00  0.00     0.029 A 
ATOM     18  C   UNL A   1      34.132  19.423  24.629  1.00  0.00     0.029 A 
ATOM     19  C   UNL A   1      32.611  17.957  22.805  1.00  0.00     0.041 A 
ATOM     20  C   UNL A   1      34.463  18.095  24.338  1.00  0.00     0.041 A 
ATOM     21  C   UNL A   1      33.696  17.372  23.436  1.00  0.00     0.123 A 
ATOM     22  F   UNL A   1      34.002  16.094  23.180  1.00  0.00    -0.207 F 
ENDBRANCH  14  16
ENDBRANCH  12  14
ENDBRANCH   8  12
ENDBRANCH   6   7
ENDBRANCH   4   6
ENDBRANCH   3   4
ENDBRANCH   2   3
ENDBRANCH   1   2
BRANCH   1  23
ATOM     23  O   UNL A   1      41.015  21.108  25.748  1.00  0.00    -0.374 OA
BRANCH  23  24
ATOM     24  C   UNL A   1      41.566  20.068  26.546  1.00  0.00     0.202 C 
BRANCH  24  25
ATOM     25  C   UNL A   1      42.688  19.220  25.962  1.00  0.00     0.261 C 
BRANCH  25  26
ATOM     26  O   UNL A   1      43.069  19.596  24.646  1.00  0.00    -0.460 OA
BRANCH  26  27
ATOM     27  C   UNL A   1      44.413  19.656  24.522  1.00  0.00     0.338 C 
ATOM     28  O   UNL A   1      45.185  18.724  24.376  1.00  0.00    -0.246 OA
BRANCH  27  29
ATOM     29  C   UNL A   1      44.882  21.010  24.792  1.00  0.00     0.060 A 
ATOM     30  C   UNL A   1      45.300  21.243  26.105  1.00  0.00     0.016 A 
ATOM     31  C   UNL A   1      44.588  22.047  23.896  1.00  0.00     0.016 A 
ATOM     32  C   UNL A   1      45.260  22.526  26.586  1.00  0.00     0.010 A 
ATOM     33  C   UNL A   1      44.530  23.334  24.383  1.00  0.00     0.010 A 
ATOM     34  C   UNL A   1      44.833  23.550  25.733  1.00  0.00    -0.014 A 
BRANCH  34  35
ATOM     35  C   UNL A   1      44.930  24.913  26.247  1.00  0.00     0.031 A 
ATOM     36  C   UNL A   1      43.518  25.516  26.385  1.00  0.00     0.074 A 
ATOM     37  C   UNL A   1      46.206  25.363  26.448  1.00  0.00     0.049 A 
ATOM     38  N   UNL A   1      43.148  26.743  26.559  1.00  0.00    -0.248 NA
ATOM     39  C   UNL A   1      42.324  24.617  26.293  1.00  0.00     0.031 C 
ATOM     40  C   UNL A   1      47.442  24.565  26.253  1.00  0.00     0.029 A 
ATOM     41  N   UNL A   1      46.733  26.574  26.835  1.00  0.00    -0.354 N 
ATOM     42  C   UNL A   1      41.763  26.733  26.834  1.00  0.00     0.074 A 
ATOM     43  C   UNL A   1      41.292  25.416  26.558  1.00  0.00     0.031 C 
ATOM     44  C   UNL A   1      48.546  25.326  26.426  1.00  0.00     0.029 A 
ATOM     45  C   UNL A   1      48.152  26.674  26.782  1.00  0.00     0.049 A 
ATOM     46  H   UNL A   1      46.166  27.323  27.129  1.00  0.00     0.167 HD
ATOM     47  C   UNL A   1      41.121  27.789  27.407  1.00  0.00     0.037 A 
ATOM     48  C   UNL A   1      48.932  27.785  26.977  1.00  0.00     0.037 A 
ATOM     49  C   UNL A   1      42.002  28.901  27.484  1.00  0.00     0.049 A 
ATOM     50  C   UNL A   1      47.992  28.789  27.489  1.00  0.00     0.074 A 
ATOM     51  C   UNL A   1      42.477  29.739  26.510  1.00  0.00     0.029 A 
ATOM     52  N   UNL A   1      42.797  28.999  28.598  1.00  0.00    -0.354 N 
ATOM     53  N   UNL A   1      47.483  28.769  28.684  1.00  0.00    -0.248 NA
ATOM     54  C   UNL A   1      47.501  29.828  26.577  1.00  0.00     0.031 C 
ATOM     55  C   UNL A   1      43.812  29.961  26.897  1.00  0.00     0.029 A 
ATOM     56  C   UNL A   1      44.026  29.453  28.184  1.00  0.00     0.049 A 
ATOM     57  H   UNL A   1      42.536  28.785  29.523  1.00  0.00     0.167 HD
ATOM     58  C   UNL A   1      46.380  29.574  28.538  1.00  0.00     0.074 A 
ATOM     59  C   UNL A   1      46.632  30.419  27.392  1.00  0.00     0.031 C 
ATOM     60  C   UNL A   1      45.176  29.149  28.998  1.00  0.00     0.037 A 
BRANCH  47  61
ATOM     61  C   UNL A   1      39.806  27.893  28.119  1.00  0.00     0.064 A 
ATOM     62  C   UNL A   1      38.951  28.967  27.770  1.00  0.00     0.173 A 
ATOM     63  C   UNL A   1      39.542  27.256  29.338  1.00  0.00     0.173 A 
ATOM     64  F   UNL A   1      39.082  29.594  26.591  1.00  0.00    -0.203 F 
ATOM     65  C   UNL A   1      38.013  29.480  28.662  1.00  0.00     0.198 A 
ATOM     66  C   UNL A   1      38.562  27.743  30.208  1.00  0.00     0.198 A 
ATOM     67  F   UNL A   1      40.285  26.226  29.761  1.00  0.00    -0.203 F 
ATOM     68  F   UNL A   1      37.343  30.598  28.352  1.00  0.00    -0.200 F 
ATOM     69  C   UNL A   1      37.837  28.882  29.892  1.00  0.00     0.200 A 
ATOM     70  F   UNL A   1      38.380  27.150  31.396  1.00  0.00    -0.200 F 
ATOM     71  F   UNL A   1      36.997  29.418  30.787  1.00  0.00    -0.200 F 
ENDBRANCH  47  61
BRANCH  48  72
ATOM     72  C   UNL A   1      50.358  28.254  26.778  1.00  0.00     0.064 A 
ATOM     73  C   UNL A   1      50.977  28.546  25.558  1.00  0.00     0.173 A 
ATOM     74  C   UNL A   1      51.168  28.544  27.919  1.00  0.00     0.173 A 
ATOM     75  F   UNL A   1      50.399  28.219  24.398  1.00  0.00    -0.203 F 
ATOM     76  C   UNL A   1      52.233  29.187  25.492  1.00  0.00     0.198 A 
ATOM     77  C   UNL A   1      52.380  29.231  27.858  1.00  0.00     0.198 A 
ATOM     78  F   UNL A   1      50.807  28.176  29.155  1.00  0.00    -0.203 F 
ATOM     79  F   UNL A   1      52.782  29.454  24.299  1.00  0.00    -0.200 F 
ATOM     80  C   UNL A   1      52.907  29.571  26.639  1.00  0.00     0.200 A 
ATOM     81  F   UNL A   1      53.005  29.574  28.993  1.00  0.00    -0.200 F 
ATOM     82  F   UNL A   1      54.059  30.253  26.572  1.00  0.00    -0.200 F 
ENDBRANCH  48  72
BRANCH  60  83
ATOM     83  C   UNL A   1      45.268  28.093  30.086  1.00  0.00     0.064 A 
ATOM     84  C   UNL A   1      45.851  28.420  31.322  1.00  0.00     0.173 A 
ATOM     85  C   UNL A   1      44.918  26.742  29.915  1.00  0.00     0.173 A 
ATOM     86  F   UNL A   1      46.190  29.691  31.583  1.00  0.00    -0.203 F 
ATOM     87  C   UNL A   1      46.091  27.454  32.303  1.00  0.00     0.198 A 
ATOM     88  C   UNL A   1      45.158  25.772  30.893  1.00  0.00     0.198 A 
ATOM     89  F   UNL A   1      44.322  26.329  28.800  1.00  0.00    -0.203 F 
ATOM     90  F   UNL A   1      46.650  27.811  33.468  1.00  0.00    -0.200 F 
ATOM     91  C   UNL A   1      45.752  26.128  32.086  1.00  0.00     0.200 A 
ATOM     92  F   UNL A   1      44.802  24.496  30.674  1.00  0.00    -0.200 F 
ATOM     93  F   UNL A   1      45.974  25.204  33.031  1.00  0.00    -0.200 F 
ENDBRANCH  60  83
ENDBRANCH  34  35
ENDBRANCH  27  29
ENDBRANCH  26  27
ENDBRANCH  25  26
ENDBRANCH  24  25
ENDBRANCH  23  24
ENDBRANCH   1  23
TORSDOF 18
ENDMDL
