MODEL 1
REMARK VINA RESULT:     -11.7      0.000      0.000
REMARK SMILES C[C@](C(=O)OCCOCCOC(=O)c1ccc(-c2c3nc(c(-c4c(F)c(F)c(F)c(F)c4F)c4ccc([nH]4)c(-c4c(F)c(F)c(F)c(F)c4F)c4nc(c(-c5c(F)c(F)c(F)c(F)c5F)c5ccc2[nH]5)C=C4)C=C3)cc1)(c1cc(F)cc(F)c1)[NH+]1CCCC1
REMARK SMILES IDX 9 1 8 2 7 3 6 4 5 5 3 6 4 7 2 8 1 9 77 10 78 11 84 12 79 13
REMARK SMILES IDX 82 14 80 15 81 16 83 17 85 18 86 19 89 20 87 22 88 23 10 24
REMARK SMILES IDX 11 25 12 26 13 27 14 28 15 29 76 30 16 31 75 32 17 33 18 34
REMARK SMILES IDX 19 35 69 36 20 37 74 38 68 39 70 40 21 41 73 42 67 43 66 44
REMARK SMILES IDX 22 46 54 47 34 48 53 49 35 50 38 51 52 52 71 53 36 54 37 55
REMARK SMILES IDX 51 57 72 58 39 59 23 60 24 61 32 62 25 63 26 64 30 65 33 66
REMARK SMILES IDX 27 67 28 68 31 69 29 70 55 71 56 72 64 73 57 74 58 75 62 76
REMARK SMILES IDX 65 77 59 78 60 79 63 80 61 81 40 82 41 83 49 84 42 85 43 86
REMARK SMILES IDX 47 87 50 88 44 89 45 90 48 91 46 92
REMARK H PARENT 85 21 70 45 38 56
REMARK Flexibility Score: inf
ROOT
ATOM      1  C   UNL A   1      32.150  29.578  25.051  1.00  0.00     0.202 C 
ENDROOT
BRANCH   1   2
ATOM      2  O   UNL A   1      31.086  28.761  24.569  1.00  0.00    -0.374 OA
BRANCH   2   3
ATOM      3  C   UNL A   1      31.209  27.351  24.741  1.00  0.00     0.202 C 
BRANCH   3   4
ATOM      4  C   UNL A   1      32.086  26.622  23.723  1.00  0.00     0.261 C 
BRANCH   4   5
ATOM      5  O   UNL A   1      32.448  25.297  24.152  1.00  0.00    -0.458 OA
BRANCH   5   6
ATOM      6  C   UNL A   1      33.600  24.792  23.605  1.00  0.00     0.372 C 
ATOM      7  O   UNL A   1      34.040  25.143  22.515  1.00  0.00    -0.244 OA
BRANCH   6   8
ATOM      8  C   UNL A   1      34.259  23.696  24.513  1.00  0.00     0.218 C 
ATOM      9  C   UNL A   1      34.051  24.187  25.974  1.00  0.00     0.098 C 
BRANCH   8  10
ATOM     10  C   UNL A   1      33.553  22.330  24.283  1.00  0.00     0.029 A 
ATOM     11  C   UNL A   1      33.551  21.314  25.262  1.00  0.00     0.050 A 
ATOM     12  C   UNL A   1      32.860  22.045  23.090  1.00  0.00     0.050 A 
ATOM     13  C   UNL A   1      32.971  20.067  25.016  1.00  0.00     0.126 A 
ATOM     14  C   UNL A   1      32.312  20.782  22.851  1.00  0.00     0.126 A 
ATOM     15  F   UNL A   1      33.003  19.132  25.973  1.00  0.00    -0.207 F 
ATOM     16  C   UNL A   1      32.370  19.781  23.804  1.00  0.00     0.078 A 
ATOM     17  F   UNL A   1      31.722  20.535  21.674  1.00  0.00    -0.207 F 
ENDBRANCH   8  10
BRANCH   8  18
ATOM     18  N   UNL A   1      35.745  23.694  24.404  1.00  0.00    -0.317 N 
ATOM     19  C   UNL A   1      36.454  22.907  23.411  1.00  0.00     0.263 C 
ATOM     20  C   UNL A   1      36.620  23.853  25.552  1.00  0.00     0.263 C 
ATOM     21  H   UNL A   1      35.543  24.617  24.020  1.00  0.00     0.349 HD
ATOM     22  C   UNL A   1      37.143  21.856  24.257  1.00  0.00     0.067 C 
ATOM     23  C   UNL A   1      37.489  22.592  25.548  1.00  0.00     0.067 C 
ENDBRANCH   8  18
ENDBRANCH   6   8
ENDBRANCH   5   6
ENDBRANCH   4   5
ENDBRANCH   3   4
ENDBRANCH   2   3
ENDBRANCH   1   2
BRANCH   1  24
ATOM     24  C   UNL A   1      31.739  30.789  25.897  1.00  0.00     0.261 C 
BRANCH  24  25
ATOM     25  O   UNL A   1      32.385  30.802  27.186  1.00  0.00    -0.460 OA
BRANCH  25  26
ATOM     26  C   UNL A   1      33.163  31.885  27.416  1.00  0.00     0.338 C 
ATOM     27  O   UNL A   1      32.815  33.058  27.439  1.00  0.00    -0.246 OA
BRANCH  26  28
ATOM     28  C   UNL A   1      34.527  31.482  27.801  1.00  0.00     0.060 A 
ATOM     29  C   UNL A   1      34.741  30.125  28.072  1.00  0.00     0.016 A 
ATOM     30  C   UNL A   1      35.534  32.420  28.036  1.00  0.00     0.016 A 
ATOM     31  C   UNL A   1      35.940  29.707  28.649  1.00  0.00     0.010 A 
ATOM     32  C   UNL A   1      36.734  32.000  28.624  1.00  0.00     0.010 A 
ATOM     33  C   UNL A   1      36.923  30.651  28.975  1.00  0.00    -0.014 A 
BRANCH  33  34
ATOM     34  C   UNL A   1      38.061  30.237  29.833  1.00  0.00     0.031 A 
ATOM     35  C   UNL A   1      39.081  29.276  29.283  1.00  0.00     0.074 A 
ATOM     36  C   UNL A   1      38.220  30.751  31.065  1.00  0.00     0.049 A 
ATOM     37  N   UNL A   1      40.156  28.788  29.849  1.00  0.00    -0.248 NA
ATOM     38  C   UNL A   1      38.862  28.807  27.905  1.00  0.00     0.031 C 
ATOM     39  C   UNL A   1      37.329  31.723  31.694  1.00  0.00     0.029 A 
ATOM     40  N   UNL A   1      39.192  30.523  32.007  1.00  0.00    -0.354 N 
ATOM     41  C   UNL A   1      40.736  27.953  28.902  1.00  0.00     0.074 A 
ATOM     42  C   UNL A   1      39.884  27.980  27.733  1.00  0.00     0.031 C 
ATOM     43  C   UNL A   1      37.794  32.007  32.923  1.00  0.00     0.029 A 
ATOM     44  C   UNL A   1      38.999  31.217  33.176  1.00  0.00     0.049 A 
ATOM     45  H   UNL A   1      39.957  29.920  31.859  1.00  0.00     0.167 HD
ATOM     46  C   UNL A   1      41.881  27.236  28.995  1.00  0.00     0.037 A 
ATOM     47  C   UNL A   1      39.706  31.201  34.322  1.00  0.00     0.037 A 
ATOM     48  C   UNL A   1      42.737  27.213  30.152  1.00  0.00     0.049 A 
ATOM     49  C   UNL A   1      40.938  30.342  34.424  1.00  0.00     0.074 A 
ATOM     50  C   UNL A   1      43.931  26.538  30.331  1.00  0.00     0.029 A 
ATOM     51  N   UNL A   1      42.482  27.895  31.333  1.00  0.00    -0.354 N 
ATOM     52  N   UNL A   1      41.493  29.578  33.515  1.00  0.00    -0.248 NA
ATOM     53  C   UNL A   1      41.644  30.344  35.714  1.00  0.00     0.031 C 
ATOM     54  C   UNL A   1      44.377  26.775  31.635  1.00  0.00     0.029 A 
ATOM     55  C   UNL A   1      43.483  27.633  32.254  1.00  0.00     0.049 A 
ATOM     56  H   UNL A   1      41.704  28.478  31.493  1.00  0.00     0.167 HD
ATOM     57  C   UNL A   1      42.624  29.032  34.110  1.00  0.00     0.074 A 
ATOM     58  C   UNL A   1      42.681  29.561  35.457  1.00  0.00     0.031 C 
ATOM     59  C   UNL A   1      43.532  28.173  33.588  1.00  0.00     0.037 A 
BRANCH  46  60
ATOM     60  C   UNL A   1      42.268  26.393  27.817  1.00  0.00     0.064 A 
ATOM     61  C   UNL A   1      43.199  26.837  26.867  1.00  0.00     0.173 A 
ATOM     62  C   UNL A   1      41.731  25.106  27.659  1.00  0.00     0.173 A 
ATOM     63  F   UNL A   1      43.732  28.065  26.966  1.00  0.00    -0.203 F 
ATOM     64  C   UNL A   1      43.563  26.031  25.791  1.00  0.00     0.198 A 
ATOM     65  C   UNL A   1      42.115  24.294  26.597  1.00  0.00     0.198 A 
ATOM     66  F   UNL A   1      40.840  24.634  28.544  1.00  0.00    -0.203 F 
ATOM     67  F   UNL A   1      44.427  26.489  24.874  1.00  0.00    -0.200 F 
ATOM     68  C   UNL A   1      43.026  24.759  25.660  1.00  0.00     0.200 A 
ATOM     69  F   UNL A   1      41.603  23.062  26.477  1.00  0.00    -0.200 F 
ATOM     70  F   UNL A   1      43.383  23.982  24.628  1.00  0.00    -0.200 F 
ENDBRANCH  46  60
BRANCH  47  71
ATOM     71  C   UNL A   1      39.262  32.024  35.477  1.00  0.00     0.064 A 
ATOM     72  C   UNL A   1      39.654  33.364  35.605  1.00  0.00     0.173 A 
ATOM     73  C   UNL A   1      38.452  31.481  36.485  1.00  0.00     0.173 A 
ATOM     74  F   UNL A   1      40.451  33.919  34.680  1.00  0.00    -0.203 F 
ATOM     75  C   UNL A   1      39.265  34.125  36.705  1.00  0.00     0.198 A 
ATOM     76  C   UNL A   1      38.043  32.250  37.571  1.00  0.00     0.198 A 
ATOM     77  F   UNL A   1      38.054  30.202  36.411  1.00  0.00    -0.203 F 
ATOM     78  F   UNL A   1      39.689  35.390  36.826  1.00  0.00    -0.200 F 
ATOM     79  C   UNL A   1      38.456  33.569  37.685  1.00  0.00     0.200 A 
ATOM     80  F   UNL A   1      37.253  31.712  38.511  1.00  0.00    -0.200 F 
ATOM     81  F   UNL A   1      38.080  34.302  38.741  1.00  0.00    -0.200 F 
ENDBRANCH  47  71
BRANCH  59  82
ATOM     82  C   UNL A   1      44.685  27.772  34.462  1.00  0.00     0.064 A 
ATOM     83  C   UNL A   1      44.623  26.641  35.286  1.00  0.00     0.173 A 
ATOM     84  C   UNL A   1      45.881  28.506  34.439  1.00  0.00     0.173 A 
ATOM     85  F   UNL A   1      43.496  25.915  35.354  1.00  0.00    -0.203 F 
ATOM     86  C   UNL A   1      45.710  26.270  36.074  1.00  0.00     0.198 A 
ATOM     87  C   UNL A   1      46.974  28.118  35.207  1.00  0.00     0.198 A 
ATOM     88  F   UNL A   1      45.992  29.593  33.660  1.00  0.00    -0.203 F 
ATOM     89  F   UNL A   1      45.615  25.208  36.887  1.00  0.00    -0.200 F 
ATOM     90  C   UNL A   1      46.886  27.003  36.028  1.00  0.00     0.200 A 
ATOM     91  F   UNL A   1      48.114  28.822  35.154  1.00  0.00    -0.200 F 
ATOM     92  F   UNL A   1      47.933  26.641  36.783  1.00  0.00    -0.200 F 
ENDBRANCH  59  82
ENDBRANCH  33  34
ENDBRANCH  26  28
ENDBRANCH  25  26
ENDBRANCH  24  25
ENDBRANCH   1  24
TORSDOF 16
ENDMDL
MODEL 2
REMARK VINA RESULT:     -11.6      0.281      1.617
REMARK SMILES C[C@](C(=O)OCCOCCOC(=O)c1ccc(-c2c3nc(c(-c4c(F)c(F)c(F)c(F)c4F)c4ccc([nH]4)c(-c4c(F)c(F)c(F)c(F)c4F)c4nc(c(-c5c(F)c(F)c(F)c(F)c5F)c5ccc2[nH]5)C=C4)C=C3)cc1)(c1cc(F)cc(F)c1)[NH+]1CCCC1
REMARK SMILES IDX 9 1 8 2 7 3 6 4 5 5 3 6 4 7 2 8 1 9 77 10 78 11 84 12 79 13
REMARK SMILES IDX 82 14 80 15 81 16 83 17 85 18 86 19 89 20 87 22 88 23 10 24
REMARK SMILES IDX 11 25 12 26 13 27 14 28 15 29 76 30 16 31 75 32 17 33 18 34
REMARK SMILES IDX 19 35 69 36 20 37 74 38 68 39 70 40 21 41 73 42 67 43 66 44
REMARK SMILES IDX 22 46 54 47 34 48 53 49 35 50 38 51 52 52 71 53 36 54 37 55
REMARK SMILES IDX 51 57 72 58 39 59 23 60 24 61 32 62 25 63 26 64 30 65 33 66
REMARK SMILES IDX 27 67 28 68 31 69 29 70 55 71 56 72 64 73 57 74 58 75 62 76
REMARK SMILES IDX 65 77 59 78 60 79 63 80 61 81 40 82 41 83 49 84 42 85 43 86
REMARK SMILES IDX 47 87 50 88 44 89 45 90 48 91 46 92
REMARK H PARENT 85 21 70 45 38 56
REMARK Flexibility Score: inf
ROOT
ATOM      1  C   UNL A   1      31.912  28.831  25.676  1.00  0.00     0.202 C 
ENDROOT
BRANCH   1   2
ATOM      2  O   UNL A   1      31.076  28.397  24.605  1.00  0.00    -0.374 OA
BRANCH   2   3
ATOM      3  C   UNL A   1      31.710  27.797  23.478  1.00  0.00     0.202 C 
BRANCH   3   4
ATOM      4  C   UNL A   1      33.105  27.223  23.715  1.00  0.00     0.261 C 
BRANCH   4   5
ATOM      5  O   UNL A   1      33.071  25.875  24.219  1.00  0.00    -0.458 OA
BRANCH   5   6
ATOM      6  C   UNL A   1      33.848  24.970  23.542  1.00  0.00     0.372 C 
ATOM      7  O   UNL A   1      34.040  25.017  22.330  1.00  0.00    -0.244 OA
BRANCH   6   8
ATOM      8  C   UNL A   1      34.426  23.857  24.485  1.00  0.00     0.218 C 
ATOM      9  C   UNL A   1      34.214  24.389  25.932  1.00  0.00     0.098 C 
BRANCH   8  10
ATOM     10  C   UNL A   1      33.649  22.529  24.265  1.00  0.00     0.029 A 
ATOM     11  C   UNL A   1      33.642  21.498  25.228  1.00  0.00     0.050 A 
ATOM     12  C   UNL A   1      32.895  22.295  23.098  1.00  0.00     0.050 A 
ATOM     13  C   UNL A   1      32.996  20.282  24.988  1.00  0.00     0.126 A 
ATOM     14  C   UNL A   1      32.281  21.062  22.864  1.00  0.00     0.126 A 
ATOM     15  F   UNL A   1      33.025  19.331  25.930  1.00  0.00    -0.207 F 
ATOM     16  C   UNL A   1      32.333  20.043  23.799  1.00  0.00     0.078 A 
ATOM     17  F   UNL A   1      31.632  20.861  21.709  1.00  0.00    -0.207 F 
ENDBRANCH   8  10
BRANCH   8  18
ATOM     18  N   UNL A   1      35.911  23.771  24.410  1.00  0.00    -0.317 N 
ATOM     19  C   UNL A   1      36.597  22.982  23.402  1.00  0.00     0.263 C 
ATOM     20  C   UNL A   1      36.765  23.832  25.582  1.00  0.00     0.263 C 
ATOM     21  H   UNL A   1      35.773  24.719  24.059  1.00  0.00     0.349 HD
ATOM     22  C   UNL A   1      37.201  21.860  24.220  1.00  0.00     0.067 C 
ATOM     23  C   UNL A   1      37.558  22.523  25.547  1.00  0.00     0.067 C 
ENDBRANCH   8  18
ENDBRANCH   6   8
ENDBRANCH   5   6
ENDBRANCH   4   5
ENDBRANCH   3   4
ENDBRANCH   2   3
ENDBRANCH   1   2
BRANCH   1  24
ATOM     24  C   UNL A   1      31.935  30.341  25.943  1.00  0.00     0.261 C 
BRANCH  24  25
ATOM     25  O   UNL A   1      32.351  30.655  27.287  1.00  0.00    -0.460 OA
BRANCH  25  26
ATOM     26  C   UNL A   1      33.150  31.742  27.390  1.00  0.00     0.338 C 
ATOM     27  O   UNL A   1      32.818  32.917  27.312  1.00  0.00    -0.246 OA
BRANCH  26  28
ATOM     28  C   UNL A   1      34.519  31.355  27.773  1.00  0.00     0.060 A 
ATOM     29  C   UNL A   1      34.749  30.001  28.048  1.00  0.00     0.016 A 
ATOM     30  C   UNL A   1      35.516  32.305  28.004  1.00  0.00     0.016 A 
ATOM     31  C   UNL A   1      35.953  29.598  28.623  1.00  0.00     0.010 A 
ATOM     32  C   UNL A   1      36.723  31.900  28.590  1.00  0.00     0.010 A 
ATOM     33  C   UNL A   1      36.927  30.554  28.944  1.00  0.00    -0.014 A 
BRANCH  33  34
ATOM     34  C   UNL A   1      38.071  30.155  29.801  1.00  0.00     0.031 A 
ATOM     35  C   UNL A   1      39.095  29.196  29.255  1.00  0.00     0.074 A 
ATOM     36  C   UNL A   1      38.232  30.681  31.028  1.00  0.00     0.049 A 
ATOM     37  N   UNL A   1      40.176  28.719  29.821  1.00  0.00    -0.248 NA
ATOM     38  C   UNL A   1      38.873  28.712  27.882  1.00  0.00     0.031 C 
ATOM     39  C   UNL A   1      37.338  31.653  31.652  1.00  0.00     0.029 A 
ATOM     40  N   UNL A   1      39.210  30.468  31.967  1.00  0.00    -0.354 N 
ATOM     41  C   UNL A   1      40.756  27.880  28.879  1.00  0.00     0.074 A 
ATOM     42  C   UNL A   1      39.899  27.890  27.713  1.00  0.00     0.031 C 
ATOM     43  C   UNL A   1      37.807  31.951  32.876  1.00  0.00     0.029 A 
ATOM     44  C   UNL A   1      39.018  31.171  33.130  1.00  0.00     0.049 A 
ATOM     45  H   UNL A   1      39.978  29.869  31.821  1.00  0.00     0.167 HD
ATOM     46  C   UNL A   1      41.907  27.171  28.973  1.00  0.00     0.037 A 
ATOM     47  C   UNL A   1      39.729  31.171  34.274  1.00  0.00     0.037 A 
ATOM     48  C   UNL A   1      42.767  27.164  30.127  1.00  0.00     0.049 A 
ATOM     49  C   UNL A   1      40.968  30.320  34.378  1.00  0.00     0.074 A 
ATOM     50  C   UNL A   1      43.967  26.498  30.306  1.00  0.00     0.029 A 
ATOM     51  N   UNL A   1      42.513  27.854  31.302  1.00  0.00    -0.354 N 
ATOM     52  N   UNL A   1      41.524  29.551  33.473  1.00  0.00    -0.248 NA
ATOM     53  C   UNL A   1      41.680  30.338  35.664  1.00  0.00     0.031 C 
ATOM     54  C   UNL A   1      44.418  26.750  31.606  1.00  0.00     0.029 A 
ATOM     55  C   UNL A   1      43.520  27.608  32.221  1.00  0.00     0.049 A 
ATOM     56  H   UNL A   1      41.733  28.434  31.460  1.00  0.00     0.167 HD
ATOM     57  C   UNL A   1      42.660  29.018  34.068  1.00  0.00     0.074 A 
ATOM     58  C   UNL A   1      42.721  29.559  35.410  1.00  0.00     0.031 C 
ATOM     59  C   UNL A   1      43.572  28.160  33.550  1.00  0.00     0.037 A 
BRANCH  46  60
ATOM     60  C   UNL A   1      42.294  26.319  27.800  1.00  0.00     0.064 A 
ATOM     61  C   UNL A   1      43.231  26.754  26.852  1.00  0.00     0.173 A 
ATOM     62  C   UNL A   1      41.750  25.035  27.648  1.00  0.00     0.173 A 
ATOM     63  F   UNL A   1      43.770  27.979  26.947  1.00  0.00    -0.203 F 
ATOM     64  C   UNL A   1      43.595  25.941  25.782  1.00  0.00     0.198 A 
ATOM     65  C   UNL A   1      42.134  24.215  26.591  1.00  0.00     0.198 A 
ATOM     66  F   UNL A   1      40.853  24.572  28.531  1.00  0.00    -0.203 F 
ATOM     67  F   UNL A   1      44.465  26.389  24.866  1.00  0.00    -0.200 F 
ATOM     68  C   UNL A   1      43.052  24.670  25.656  1.00  0.00     0.200 A 
ATOM     69  F   UNL A   1      41.617  22.985  26.476  1.00  0.00    -0.200 F 
ATOM     70  F   UNL A   1      43.409  23.886  24.629  1.00  0.00    -0.200 F 
ENDBRANCH  46  60
BRANCH  47  71
ATOM     71  C   UNL A   1      39.286  32.001  35.423  1.00  0.00     0.064 A 
ATOM     72  C   UNL A   1      38.475  31.466  36.433  1.00  0.00     0.173 A 
ATOM     73  C   UNL A   1      39.651  33.352  35.524  1.00  0.00     0.173 A 
ATOM     74  F   UNL A   1      38.079  30.187  36.365  1.00  0.00    -0.203 F 
ATOM     75  C   UNL A   1      38.032  32.255  37.493  1.00  0.00     0.198 A 
ATOM     76  C   UNL A   1      39.229  34.133  36.597  1.00  0.00     0.198 A 
ATOM     77  F   UNL A   1      40.423  33.912  34.580  1.00  0.00    -0.203 F 
ATOM     78  F   UNL A   1      37.222  31.730  38.423  1.00  0.00    -0.200 F 
ATOM     79  C   UNL A   1      38.414  33.586  37.577  1.00  0.00     0.200 A 
ATOM     80  F   UNL A   1      39.608  35.415  36.680  1.00  0.00    -0.200 F 
ATOM     81  F   UNL A   1      37.991  34.342  38.598  1.00  0.00    -0.200 F 
ENDBRANCH  47  71
BRANCH  59  82
ATOM     82  C   UNL A   1      44.731  27.775  34.422  1.00  0.00     0.064 A 
ATOM     83  C   UNL A   1      45.906  28.539  34.462  1.00  0.00     0.173 A 
ATOM     84  C   UNL A   1      44.647  26.652  35.259  1.00  0.00     0.173 A 
ATOM     85  F   UNL A   1      46.040  29.612  33.669  1.00  0.00    -0.203 F 
ATOM     86  C   UNL A   1      46.964  28.180  35.294  1.00  0.00     0.198 A 
ATOM     87  C   UNL A   1      45.695  26.311  36.109  1.00  0.00     0.198 A 
ATOM     88  F   UNL A   1      43.541  25.892  35.262  1.00  0.00    -0.203 F 
ATOM     89  F   UNL A   1      48.094  28.901  35.286  1.00  0.00    -0.200 F 
ATOM     90  C   UNL A   1      46.855  27.072  36.121  1.00  0.00     0.200 A 
ATOM     91  F   UNL A   1      45.585  25.246  36.915  1.00  0.00    -0.200 F 
ATOM     92  F   UNL A   1      47.872  26.732  36.925  1.00  0.00    -0.200 F 
ENDBRANCH  59  82
ENDBRANCH  33  34
ENDBRANCH  26  28
ENDBRANCH  25  26
ENDBRANCH  24  25
ENDBRANCH   1  24
TORSDOF 16
ENDMDL
MODEL 3
REMARK VINA RESULT:     -11.6      0.501      7.365
REMARK SMILES C[C@](C(=O)OCCOCCOC(=O)c1ccc(-c2c3nc(c(-c4c(F)c(F)c(F)c(F)c4F)c4ccc([nH]4)c(-c4c(F)c(F)c(F)c(F)c4F)c4nc(c(-c5c(F)c(F)c(F)c(F)c5F)c5ccc2[nH]5)C=C4)C=C3)cc1)(c1cc(F)cc(F)c1)[NH+]1CCCC1
REMARK SMILES IDX 9 1 8 2 7 3 6 4 5 5 3 6 4 7 2 8 1 9 77 10 78 11 84 12 79 13
REMARK SMILES IDX 82 14 80 15 81 16 83 17 85 18 86 19 89 20 87 22 88 23 10 24
REMARK SMILES IDX 11 25 12 26 13 27 14 28 15 29 76 30 16 31 75 32 17 33 18 34
REMARK SMILES IDX 19 35 69 36 20 37 74 38 68 39 70 40 21 41 73 42 67 43 66 44
REMARK SMILES IDX 22 46 54 47 34 48 53 49 35 50 38 51 52 52 71 53 36 54 37 55
REMARK SMILES IDX 51 57 72 58 39 59 23 60 24 61 32 62 25 63 26 64 30 65 33 66
REMARK SMILES IDX 27 67 28 68 31 69 29 70 55 71 56 72 64 73 57 74 58 75 62 76
REMARK SMILES IDX 65 77 59 78 60 79 63 80 61 81 40 82 41 83 49 84 42 85 43 86
REMARK SMILES IDX 47 87 50 88 44 89 45 90 48 91 46 92
REMARK H PARENT 85 21 70 45 38 56
REMARK Flexibility Score: inf
ROOT
ATOM      1  C   UNL A   1      32.201  29.593  25.133  1.00  0.00     0.202 C 
ENDROOT
BRANCH   1   2
ATOM      2  O   UNL A   1      31.098  28.808  24.687  1.00  0.00    -0.374 OA
BRANCH   2   3
ATOM      3  C   UNL A   1      31.222  27.390  24.774  1.00  0.00     0.202 C 
BRANCH   3   4
ATOM      4  C   UNL A   1      32.155  26.732  23.759  1.00  0.00     0.261 C 
BRANCH   4   5
ATOM      5  O   UNL A   1      32.469  25.369  24.098  1.00  0.00    -0.458 OA
BRANCH   5   6
ATOM      6  C   UNL A   1      33.628  24.876  23.554  1.00  0.00     0.372 C 
ATOM      7  O   UNL A   1      34.089  25.259  22.484  1.00  0.00    -0.244 OA
BRANCH   6   8
ATOM      8  C   UNL A   1      34.267  23.747  24.438  1.00  0.00     0.218 C 
ATOM      9  C   UNL A   1      33.997  24.171  25.910  1.00  0.00     0.098 C 
BRANCH   8  10
ATOM     10  C   UNL A   1      33.587  22.385  24.121  1.00  0.00     0.029 A 
ATOM     11  C   UNL A   1      32.921  22.147  22.901  1.00  0.00     0.050 A 
ATOM     12  C   UNL A   1      33.620  21.311  25.032  1.00  0.00     0.050 A 
ATOM     13  C   UNL A   1      32.257  20.942  22.657  1.00  0.00     0.126 A 
ATOM     14  C   UNL A   1      32.925  20.125  24.783  1.00  0.00     0.126 A 
ATOM     15  F   UNL A   1      31.631  20.767  21.486  1.00  0.00    -0.207 F 
ATOM     16  C   UNL A   1      32.231  19.932  23.601  1.00  0.00     0.078 A 
ATOM     17  F   UNL A   1      32.928  19.156  25.708  1.00  0.00    -0.207 F 
ENDBRANCH   8  10
BRANCH   8  18
ATOM     18  N   UNL A   1      35.755  23.767  24.386  1.00  0.00    -0.317 N 
ATOM     19  C   UNL A   1      36.512  23.013  23.403  1.00  0.00     0.263 C 
ATOM     20  C   UNL A   1      36.583  23.909  25.570  1.00  0.00     0.263 C 
ATOM     21  H   UNL A   1      35.555  24.696  24.016  1.00  0.00     0.349 HD
ATOM     22  C   UNL A   1      37.182  21.951  24.250  1.00  0.00     0.067 C 
ATOM     23  C   UNL A   1      37.470  22.661  25.570  1.00  0.00     0.067 C 
ENDBRANCH   8  18
ENDBRANCH   6   8
ENDBRANCH   5   6
ENDBRANCH   4   5
ENDBRANCH   3   4
ENDBRANCH   2   3
ENDBRANCH   1   2
BRANCH   1  24
ATOM     24  C   UNL A   1      31.879  30.686  26.159  1.00  0.00     0.261 C 
BRANCH  24  25
ATOM     25  O   UNL A   1      32.704  30.595  27.338  1.00  0.00    -0.460 OA
BRANCH  25  26
ATOM     26  C   UNL A   1      33.497  31.669  27.556  1.00  0.00     0.338 C 
ATOM     27  O   UNL A   1      33.153  32.840  27.641  1.00  0.00    -0.246 OA
BRANCH  26  28
ATOM     28  C   UNL A   1      34.881  31.253  27.841  1.00  0.00     0.060 A 
ATOM     29  C   UNL A   1      35.109  29.888  28.056  1.00  0.00     0.016 A 
ATOM     30  C   UNL A   1      35.904  32.183  28.042  1.00  0.00     0.016 A 
ATOM     31  C   UNL A   1      36.340  29.452  28.543  1.00  0.00     0.010 A 
ATOM     32  C   UNL A   1      37.138  31.744  28.540  1.00  0.00     0.010 A 
ATOM     33  C   UNL A   1      37.345  30.384  28.836  1.00  0.00    -0.014 A 
BRANCH  33  34
ATOM     34  C   UNL A   1      38.533  29.943  29.607  1.00  0.00     0.031 A 
ATOM     35  C   UNL A   1      38.731  30.463  31.006  1.00  0.00     0.074 A 
ATOM     36  C   UNL A   1      39.398  29.049  29.094  1.00  0.00     0.049 A 
ATOM     37  N   UNL A   1      39.689  30.206  31.862  1.00  0.00    -0.248 NA
ATOM     38  C   UNL A   1      37.708  31.393  31.510  1.00  0.00     0.031 C 
ATOM     39  C   UNL A   1      39.292  28.438  27.772  1.00  0.00     0.029 A 
ATOM     40  N   UNL A   1      40.536  28.502  29.632  1.00  0.00    -0.354 N 
ATOM     41  C   UNL A   1      39.386  30.945  32.999  1.00  0.00     0.074 A 
ATOM     42  C   UNL A   1      38.172  31.679  32.719  1.00  0.00     0.031 C 
ATOM     43  C   UNL A   1      40.328  27.599  27.597  1.00  0.00     0.029 A 
ATOM     44  C   UNL A   1      41.182  27.637  28.785  1.00  0.00     0.049 A 
ATOM     45  H   UNL A   1      40.858  28.709  30.539  1.00  0.00     0.167 HD
ATOM     46  C   UNL A   1      40.056  30.999  34.176  1.00  0.00     0.037 A 
ATOM     47  C   UNL A   1      42.339  26.966  28.944  1.00  0.00     0.037 A 
ATOM     48  C   UNL A   1      41.260  30.263  34.461  1.00  0.00     0.049 A 
ATOM     49  C   UNL A   1      43.101  27.096  30.237  1.00  0.00     0.074 A 
ATOM     50  C   UNL A   1      41.996  30.234  35.633  1.00  0.00     0.029 A 
ATOM     51  N   UNL A   1      41.908  29.432  33.560  1.00  0.00    -0.354 N 
ATOM     52  N   UNL A   1      42.794  27.775  31.316  1.00  0.00    -0.248 NA
ATOM     53  C   UNL A   1      44.373  26.365  30.334  1.00  0.00     0.031 C 
ATOM     54  C   UNL A   1      43.114  29.418  35.427  1.00  0.00     0.029 A 
ATOM     55  C   UNL A   1      43.051  28.906  34.141  1.00  0.00     0.049 A 
ATOM     56  H   UNL A   1      41.602  29.244  32.644  1.00  0.00     0.167 HD
ATOM     57  C   UNL A   1      43.815  27.532  32.225  1.00  0.00     0.074 A 
ATOM     58  C   UNL A   1      44.748  26.635  31.576  1.00  0.00     0.031 C 
ATOM     59  C   UNL A   1      43.965  28.008  33.486  1.00  0.00     0.037 A 
BRANCH  46  60
ATOM     60  C   UNL A   1      39.514  31.905  35.240  1.00  0.00     0.064 A 
ATOM     61  C   UNL A   1      38.621  31.442  36.217  1.00  0.00     0.173 A 
ATOM     62  C   UNL A   1      39.928  33.244  35.309  1.00  0.00     0.173 A 
ATOM     63  F   UNL A   1      38.186  30.173  36.186  1.00  0.00    -0.203 F 
ATOM     64  C   UNL A   1      38.145  32.293  37.211  1.00  0.00     0.198 A 
ATOM     65  C   UNL A   1      39.470  34.085  36.318  1.00  0.00     0.198 A 
ATOM     66  F   UNL A   1      40.785  33.733  34.400  1.00  0.00    -0.203 F 
ATOM     67  F   UNL A   1      37.263  31.840  38.113  1.00  0.00    -0.200 F 
ATOM     68  C   UNL A   1      38.575  33.610  37.266  1.00  0.00     0.200 A 
ATOM     69  F   UNL A   1      39.893  35.355  36.375  1.00  0.00    -0.200 F 
ATOM     70  F   UNL A   1      38.121  34.426  38.228  1.00  0.00    -0.200 F 
ENDBRANCH  46  60
BRANCH  47  71
ATOM     71  C   UNL A   1      42.857  26.110  27.847  1.00  0.00     0.064 A 
ATOM     72  C   UNL A   1      43.708  26.630  26.862  1.00  0.00     0.173 A 
ATOM     73  C   UNL A   1      42.496  24.757  27.751  1.00  0.00     0.173 A 
ATOM     74  F   UNL A   1      44.059  27.923  26.897  1.00  0.00    -0.203 F 
ATOM     75  C   UNL A   1      44.166  25.834  25.814  1.00  0.00     0.198 A 
ATOM     76  C   UNL A   1      42.975  23.956  26.717  1.00  0.00     0.198 A 
ATOM     77  F   UNL A   1      41.680  24.213  28.666  1.00  0.00    -0.203 F 
ATOM     78  F   UNL A   1      44.944  26.366  24.862  1.00  0.00    -0.200 F 
ATOM     79  C   UNL A   1      43.804  24.496  25.746  1.00  0.00     0.200 A 
ATOM     80  F   UNL A   1      42.631  22.663  26.660  1.00  0.00    -0.200 F 
ATOM     81  F   UNL A   1      44.247  23.731  24.740  1.00  0.00    -0.200 F 
ENDBRANCH  47  71
BRANCH  59  82
ATOM     82  C   UNL A   1      45.165  27.545  34.260  1.00  0.00     0.064 A 
ATOM     83  C   UNL A   1      45.136  26.372  35.027  1.00  0.00     0.173 A 
ATOM     84  C   UNL A   1      46.370  28.261  34.196  1.00  0.00     0.173 A 
ATOM     85  F   UNL A   1      44.004  25.661  35.131  1.00  0.00    -0.203 F 
ATOM     86  C   UNL A   1      46.266  25.944  35.720  1.00  0.00     0.198 A 
ATOM     87  C   UNL A   1      47.504  27.817  34.869  1.00  0.00     0.198 A 
ATOM     88  F   UNL A   1      46.450  29.386  33.470  1.00  0.00    -0.203 F 
ATOM     89  F   UNL A   1      46.204  24.842  36.482  1.00  0.00    -0.200 F 
ATOM     90  C   UNL A   1      47.449  26.662  35.636  1.00  0.00     0.200 A 
ATOM     91  F   UNL A   1      48.650  28.506  34.778  1.00  0.00    -0.200 F 
ATOM     92  F   UNL A   1      48.536  26.245  36.300  1.00  0.00    -0.200 F 
ENDBRANCH  59  82
ENDBRANCH  33  34
ENDBRANCH  26  28
ENDBRANCH  25  26
ENDBRANCH  24  25
ENDBRANCH   1  24
TORSDOF 16
ENDMDL
