MODEL 1
REMARK VINA RESULT:     -11.6      0.000      0.000
REMARK SMILES COCC[C@@]1(C(=O)OCCOCCOC(=O)c2ccc(-c3c4nc(c(-c5c(F)c(F)c(F)c(F)c5F)c5ccc([nH]5)c(-c5c(F)c(F)c(F)c(F)c5F)c5nc(c(-c6c(F)c(F)c(F)c(F)c6F)c6ccc3[nH]6)C=C5)C=C4)cc2)CCCN(C(=O)NCc2ccc(OC)cc2)C1
REMARK SMILES IDX 10 1 9 2 8 3 6 4 7 5 5 6 80 7 96 8 81 9 83 10 82 11 4 12
REMARK SMILES IDX 3 13 2 14 1 15 84 16 85 17 86 18 87 20 88 21 89 22 95 23
REMARK SMILES IDX 90 24 94 25 91 26 92 27 93 28 11 29 12 30 13 31 14 32 15 33
REMARK SMILES IDX 16 34 17 35 18 36 79 37 19 38 78 39 20 40 21 41 22 42 72 43
REMARK SMILES IDX 23 44 77 45 71 46 73 47 24 48 76 49 70 50 69 51 25 53 57 54
REMARK SMILES IDX 37 55 56 56 38 57 41 58 55 59 74 60 39 61 40 62 54 64 75 65
REMARK SMILES IDX 42 66 26 67 27 68 35 69 28 70 29 71 33 72 36 73 30 74 31 75
REMARK SMILES IDX 34 76 32 77 58 78 59 79 67 80 60 81 61 82 65 83 68 84 62 85
REMARK SMILES IDX 63 86 66 87 64 88 43 89 44 90 52 91 45 92 46 93 50 94 53 95
REMARK SMILES IDX 47 96 48 97 51 98 49 99
REMARK H PARENT 86 19 73 52 41 63
REMARK Flexibility Score: inf
ROOT
ATOM      1  C   UNL A   1      36.948  21.777  24.272  1.00  0.00     0.202 C 
ENDROOT
BRANCH   1   2
ATOM      2  C   UNL A   1      36.410  22.889  25.166  1.00  0.00     0.261 C 
BRANCH   2   3
ATOM      3  O   UNL A   1      35.059  23.185  24.760  1.00  0.00    -0.463 OA
BRANCH   3   4
ATOM      4  C   UNL A   1      34.082  22.831  25.631  1.00  0.00     0.314 C 
ATOM      5  O   UNL A   1      33.954  23.312  26.751  1.00  0.00    -0.252 OA
BRANCH   4   6
ATOM      6  C   UNL A   1      33.112  21.796  25.040  1.00  0.00     0.088 C 
ATOM      7  C   UNL A   1      32.994  22.033  23.511  1.00  0.00     0.022 C 
ATOM      8  C   UNL A   1      31.706  21.944  25.670  1.00  0.00     0.140 C 
ATOM      9  C   UNL A   1      32.256  23.340  23.176  1.00  0.00     0.023 C 
ATOM     10  N   UNL A   1      31.089  23.227  25.324  1.00  0.00    -0.324 N 
ATOM     11  C   UNL A   1      30.909  23.404  23.887  1.00  0.00     0.121 C 
BRANCH   6  12
ATOM     12  C   UNL A   1      33.623  20.363  25.352  1.00  0.00     0.049 C 
BRANCH  12  13
ATOM     13  C   UNL A   1      33.133  19.250  24.415  1.00  0.00     0.161 C 
BRANCH  13  14
ATOM     14  O   UNL A   1      32.161  18.414  25.048  1.00  0.00    -0.385 OA
ATOM     15  C   UNL A   1      32.677  17.127  25.365  1.00  0.00     0.194 C 
ENDBRANCH  13  14
ENDBRANCH  12  13
ENDBRANCH   6  12
BRANCH  10  16
ATOM     16  C   UNL A   1      30.689  24.029  26.353  1.00  0.00     0.317 C 
ATOM     17  O   UNL A   1      29.940  23.624  27.248  1.00  0.00    -0.249 OA
ATOM     18  N   UNL A   1      31.103  25.294  26.507  1.00  0.00    -0.334 N 
ATOM     19  H   UNL A   1      30.641  25.745  27.250  1.00  0.00     0.165 HD
BRANCH  18  20
ATOM     20  C   UNL A   1      32.056  26.165  25.857  1.00  0.00     0.153 C 
BRANCH  20  21
ATOM     21  C   UNL A   1      31.389  27.266  25.066  1.00  0.00    -0.028 A 
ATOM     22  C   UNL A   1      30.404  26.989  24.106  1.00  0.00     0.009 A 
ATOM     23  C   UNL A   1      31.706  28.608  25.324  1.00  0.00     0.009 A 
ATOM     24  C   UNL A   1      29.778  28.023  23.409  1.00  0.00     0.047 A 
ATOM     25  C   UNL A   1      31.075  29.643  24.622  1.00  0.00     0.047 A 
ATOM     26  C   UNL A   1      30.104  29.354  23.665  1.00  0.00     0.118 A 
BRANCH  26  27
ATOM     27  O   UNL A   1      29.411  30.263  22.917  1.00  0.00    -0.497 OA
ATOM     28  C   UNL A   1      28.383  29.752  22.080  1.00  0.00     0.278 C 
ENDBRANCH  26  27
ENDBRANCH  20  21
ENDBRANCH  18  20
ENDBRANCH  10  16
ENDBRANCH   4   6
ENDBRANCH   3   4
ENDBRANCH   2   3
ENDBRANCH   1   2
BRANCH   1  29
ATOM     29  O   UNL A   1      36.925  20.555  25.007  1.00  0.00    -0.374 OA
BRANCH  29  30
ATOM     30  C   UNL A   1      37.908  19.581  24.651  1.00  0.00     0.202 C 
BRANCH  30  31
ATOM     31  C   UNL A   1      39.099  19.504  25.627  1.00  0.00     0.261 C 
BRANCH  31  32
ATOM     32  O   UNL A   1      39.587  20.798  26.016  1.00  0.00    -0.460 OA
BRANCH  32  33
ATOM     33  C   UNL A   1      40.658  20.777  26.839  1.00  0.00     0.338 C 
ATOM     34  O   UNL A   1      41.469  19.879  26.980  1.00  0.00    -0.246 OA
BRANCH  33  35
ATOM     35  C   UNL A   1      40.848  22.131  27.376  1.00  0.00     0.060 A 
ATOM     36  C   UNL A   1      40.097  23.168  26.809  1.00  0.00     0.016 A 
ATOM     37  C   UNL A   1      41.784  22.383  28.379  1.00  0.00     0.016 A 
ATOM     38  C   UNL A   1      40.329  24.482  27.203  1.00  0.00     0.010 A 
ATOM     39  C   UNL A   1      42.029  23.703  28.761  1.00  0.00     0.010 A 
ATOM     40  C   UNL A   1      41.336  24.756  28.139  1.00  0.00    -0.014 A 
BRANCH  40  41
ATOM     41  C   UNL A   1      41.809  26.149  28.292  1.00  0.00     0.031 A 
ATOM     42  C   UNL A   1      43.156  26.502  27.724  1.00  0.00     0.074 A 
ATOM     43  C   UNL A   1      41.037  27.084  28.870  1.00  0.00     0.049 A 
ATOM     44  N   UNL A   1      43.781  27.651  27.712  1.00  0.00    -0.248 NA
ATOM     45  C   UNL A   1      43.899  25.407  27.076  1.00  0.00     0.031 C 
ATOM     46  C   UNL A   1      39.701  26.857  29.417  1.00  0.00     0.029 A 
ATOM     47  N   UNL A   1      41.273  28.417  29.090  1.00  0.00    -0.354 N 
ATOM     48  C   UNL A   1      44.976  27.420  27.046  1.00  0.00     0.074 A 
ATOM     49  C   UNL A   1      45.014  26.016  26.705  1.00  0.00     0.031 C 
ATOM     50  C   UNL A   1      39.235  28.015  29.917  1.00  0.00     0.029 A 
ATOM     51  C   UNL A   1      40.247  29.054  29.743  1.00  0.00     0.049 A 
ATOM     52  H   UNL A   1      42.098  28.873  28.806  1.00  0.00     0.167 HD
ATOM     53  C   UNL A   1      45.951  28.306  26.731  1.00  0.00     0.037 A 
ATOM     54  C   UNL A   1      40.153  30.333  30.157  1.00  0.00     0.037 A 
ATOM     55  C   UNL A   1      45.917  29.697  27.093  1.00  0.00     0.049 A 
ATOM     56  C   UNL A   1      41.287  31.282  29.862  1.00  0.00     0.074 A 
ATOM     57  C   UNL A   1      46.861  30.678  26.852  1.00  0.00     0.029 A 
ATOM     58  N   UNL A   1      44.876  30.301  27.782  1.00  0.00    -0.354 N 
ATOM     59  N   UNL A   1      42.408  31.061  29.217  1.00  0.00    -0.248 NA
ATOM     60  C   UNL A   1      41.139  32.661  30.347  1.00  0.00     0.031 C 
ATOM     61  C   UNL A   1      46.408  31.870  27.428  1.00  0.00     0.029 A 
ATOM     62  C   UNL A   1      45.159  31.641  27.986  1.00  0.00     0.049 A 
ATOM     63  H   UNL A   1      44.056  29.846  28.081  1.00  0.00     0.167 HD
ATOM     64  C   UNL A   1      43.082  32.275  29.192  1.00  0.00     0.074 A 
ATOM     65  C   UNL A   1      42.236  33.234  29.873  1.00  0.00     0.031 C 
ATOM     66  C   UNL A   1      44.291  32.574  28.656  1.00  0.00     0.037 A 
BRANCH  53  67
ATOM     67  C   UNL A   1      47.134  27.787  25.970  1.00  0.00     0.064 A 
ATOM     68  C   UNL A   1      48.281  27.321  26.631  1.00  0.00     0.173 A 
ATOM     69  C   UNL A   1      47.118  27.738  24.569  1.00  0.00     0.173 A 
ATOM     70  F   UNL A   1      48.353  27.364  27.970  1.00  0.00    -0.203 F 
ATOM     71  C   UNL A   1      49.375  26.842  25.916  1.00  0.00     0.198 A 
ATOM     72  C   UNL A   1      48.204  27.235  23.858  1.00  0.00     0.198 A 
ATOM     73  F   UNL A   1      46.047  28.173  23.888  1.00  0.00    -0.203 F 
ATOM     74  F   UNL A   1      50.477  26.441  26.566  1.00  0.00    -0.200 F 
ATOM     75  C   UNL A   1      49.334  26.794  24.530  1.00  0.00     0.200 A 
ATOM     76  F   UNL A   1      48.159  27.181  22.519  1.00  0.00    -0.200 F 
ATOM     77  F   UNL A   1      50.386  26.328  23.842  1.00  0.00    -0.200 F 
ENDBRANCH  53  67
BRANCH  54  78
ATOM     78  C   UNL A   1      38.946  30.795  30.892  1.00  0.00     0.064 A 
ATOM     79  C   UNL A   1      38.878  30.731  32.291  1.00  0.00     0.173 A 
ATOM     80  C   UNL A   1      37.822  31.281  30.208  1.00  0.00     0.173 A 
ATOM     81  F   UNL A   1      39.918  30.251  32.990  1.00  0.00    -0.203 F 
ATOM     82  C   UNL A   1      37.724  31.111  32.974  1.00  0.00     0.198 A 
ATOM     83  C   UNL A   1      36.680  31.688  30.893  1.00  0.00     0.198 A 
ATOM     84  F   UNL A   1      37.834  31.364  28.868  1.00  0.00    -0.203 F 
ATOM     85  F   UNL A   1      37.669  30.989  34.308  1.00  0.00    -0.200 F 
ATOM     86  C   UNL A   1      36.629  31.593  32.276  1.00  0.00     0.200 A 
ATOM     87  F   UNL A   1      35.628  32.165  30.216  1.00  0.00    -0.200 F 
ATOM     88  F   UNL A   1      35.519  31.958  32.934  1.00  0.00    -0.200 F 
ENDBRANCH  54  78
BRANCH  66  89
ATOM     89  C   UNL A   1      44.748  34.000  28.752  1.00  0.00     0.064 A 
ATOM     90  C   UNL A   1      44.420  34.946  27.770  1.00  0.00     0.173 A 
ATOM     91  C   UNL A   1      45.496  34.430  29.859  1.00  0.00     0.173 A 
ATOM     92  F   UNL A   1      43.719  34.579  26.687  1.00  0.00    -0.203 F 
ATOM     93  C   UNL A   1      44.851  36.265  27.878  1.00  0.00     0.198 A 
ATOM     94  C   UNL A   1      45.900  35.757  29.977  1.00  0.00     0.198 A 
ATOM     95  F   UNL A   1      45.826  33.565  30.830  1.00  0.00    -0.203 F 
ATOM     96  F   UNL A   1      44.571  37.140  26.902  1.00  0.00    -0.200 F 
ATOM     97  C   UNL A   1      45.585  36.671  28.983  1.00  0.00     0.200 A 
ATOM     98  F   UNL A   1      46.596  36.150  31.052  1.00  0.00    -0.200 F 
ATOM     99  F   UNL A   1      45.996  37.941  29.086  1.00  0.00    -0.200 F 
ENDBRANCH  66  89
ENDBRANCH  40  41
ENDBRANCH  33  35
ENDBRANCH  32  33
ENDBRANCH  31  32
ENDBRANCH  30  31
ENDBRANCH  29  30
ENDBRANCH   1  29
TORSDOF 21
ENDMDL
MODEL 2
REMARK VINA RESULT:     -11.6      1.379      4.482
REMARK SMILES COCC[C@@]1(C(=O)OCCOCCOC(=O)c2ccc(-c3c4nc(c(-c5c(F)c(F)c(F)c(F)c5F)c5ccc([nH]5)c(-c5c(F)c(F)c(F)c(F)c5F)c5nc(c(-c6c(F)c(F)c(F)c(F)c6F)c6ccc3[nH]6)C=C5)C=C4)cc2)CCCN(C(=O)NCc2ccc(OC)cc2)C1
REMARK SMILES IDX 10 1 9 2 8 3 6 4 7 5 5 6 80 7 96 8 81 9 83 10 82 11 4 12
REMARK SMILES IDX 3 13 2 14 1 15 84 16 85 17 86 18 87 20 88 21 89 22 95 23
REMARK SMILES IDX 90 24 94 25 91 26 92 27 93 28 11 29 12 30 13 31 14 32 15 33
REMARK SMILES IDX 16 34 17 35 18 36 79 37 19 38 78 39 20 40 21 41 22 42 72 43
REMARK SMILES IDX 23 44 77 45 71 46 73 47 24 48 76 49 70 50 69 51 25 53 57 54
REMARK SMILES IDX 37 55 56 56 38 57 41 58 55 59 74 60 39 61 40 62 54 64 75 65
REMARK SMILES IDX 42 66 26 67 27 68 35 69 28 70 29 71 33 72 36 73 30 74 31 75
REMARK SMILES IDX 34 76 32 77 58 78 59 79 67 80 60 81 61 82 65 83 68 84 62 85
REMARK SMILES IDX 63 86 66 87 64 88 43 89 44 90 52 91 45 92 46 93 50 94 53 95
REMARK SMILES IDX 47 96 48 97 51 98 49 99
REMARK H PARENT 86 19 73 52 41 63
REMARK Flexibility Score: inf
ROOT
ATOM      1  C   UNL A   1      35.400  22.724  25.571  1.00  0.00     0.202 C 
ENDROOT
BRANCH   1   2
ATOM      2  C   UNL A   1      34.345  23.227  26.550  1.00  0.00     0.261 C 
BRANCH   2   3
ATOM      3  O   UNL A   1      34.032  24.595  26.217  1.00  0.00    -0.463 OA
BRANCH   3   4
ATOM      4  C   UNL A   1      32.734  24.961  26.351  1.00  0.00     0.314 C 
ATOM      5  O   UNL A   1      31.922  24.366  27.052  1.00  0.00    -0.252 OA
BRANCH   4   6
ATOM      6  C   UNL A   1      32.399  26.242  25.572  1.00  0.00     0.088 C 
ATOM      7  C   UNL A   1      30.862  26.461  25.602  1.00  0.00     0.022 C 
ATOM      8  C   UNL A   1      32.848  26.118  24.096  1.00  0.00     0.140 C 
ATOM      9  C   UNL A   1      30.105  25.415  24.769  1.00  0.00     0.023 C 
ATOM     10  N   UNL A   1      32.097  25.080  23.386  1.00  0.00    -0.324 N 
ATOM     11  C   UNL A   1      30.661  25.339  23.350  1.00  0.00     0.121 C 
BRANCH   6  12
ATOM     12  C   UNL A   1      33.154  27.446  26.199  1.00  0.00     0.049 C 
BRANCH  12  13
ATOM     13  C   UNL A   1      32.413  28.207  27.308  1.00  0.00     0.161 C 
BRANCH  13  14
ATOM     14  O   UNL A   1      32.194  29.576  26.958  1.00  0.00    -0.385 OA
ATOM     15  C   UNL A   1      33.298  30.405  27.296  1.00  0.00     0.194 C 
ENDBRANCH  13  14
ENDBRANCH  12  13
ENDBRANCH   6  12
BRANCH  10  16
ATOM     16  C   UNL A   1      32.813  24.085  22.788  1.00  0.00     0.317 C 
ATOM     17  O   UNL A   1      33.651  24.316  21.910  1.00  0.00    -0.249 OA
ATOM     18  N   UNL A   1      32.705  22.792  23.125  1.00  0.00    -0.334 N 
ATOM     19  H   UNL A   1      33.227  22.211  22.526  1.00  0.00     0.165 HD
BRANCH  18  20
ATOM     20  C   UNL A   1      32.014  22.036  24.144  1.00  0.00     0.153 C 
BRANCH  20  21
ATOM     21  C   UNL A   1      32.333  20.560  24.087  1.00  0.00    -0.028 A 
ATOM     22  C   UNL A   1      32.703  19.843  25.234  1.00  0.00     0.009 A 
ATOM     23  C   UNL A   1      32.205  19.860  22.878  1.00  0.00     0.009 A 
ATOM     24  C   UNL A   1      32.964  18.474  25.165  1.00  0.00     0.047 A 
ATOM     25  C   UNL A   1      32.466  18.485  22.813  1.00  0.00     0.047 A 
ATOM     26  C   UNL A   1      32.842  17.786  23.959  1.00  0.00     0.118 A 
BRANCH  26  27
ATOM     27  O   UNL A   1      33.119  16.450  24.035  1.00  0.00    -0.497 OA
ATOM     28  C   UNL A   1      33.479  15.944  25.314  1.00  0.00     0.278 C 
ENDBRANCH  26  27
ENDBRANCH  20  21
ENDBRANCH  18  20
ENDBRANCH  10  16
ENDBRANCH   4   6
ENDBRANCH   3   4
ENDBRANCH   2   3
ENDBRANCH   1   2
BRANCH   1  29
ATOM     29  O   UNL A   1      35.872  21.458  26.026  1.00  0.00    -0.374 OA
BRANCH  29  30
ATOM     30  C   UNL A   1      36.310  20.543  25.019  1.00  0.00     0.202 C 
BRANCH  30  31
ATOM     31  C   UNL A   1      37.826  20.262  25.040  1.00  0.00     0.261 C 
BRANCH  31  32
ATOM     32  O   UNL A   1      38.602  21.416  25.402  1.00  0.00    -0.460 OA
BRANCH  32  33
ATOM     33  C   UNL A   1      39.628  21.169  26.245  1.00  0.00     0.338 C 
ATOM     34  O   UNL A   1      40.310  20.161  26.310  1.00  0.00    -0.246 OA
BRANCH  33  35
ATOM     35  C   UNL A   1      39.972  22.424  26.927  1.00  0.00     0.060 A 
ATOM     36  C   UNL A   1      39.225  23.564  26.608  1.00  0.00     0.016 A 
ATOM     37  C   UNL A   1      41.041  22.487  27.821  1.00  0.00     0.016 A 
ATOM     38  C   UNL A   1      39.590  24.797  27.139  1.00  0.00     0.010 A 
ATOM     39  C   UNL A   1      41.417  23.728  28.340  1.00  0.00     0.010 A 
ATOM     40  C   UNL A   1      40.721  24.889  27.961  1.00  0.00    -0.014 A 
BRANCH  40  41
ATOM     41  C   UNL A   1      41.299  26.223  28.233  1.00  0.00     0.031 A 
ATOM     42  C   UNL A   1      42.701  26.493  27.762  1.00  0.00     0.074 A 
ATOM     43  C   UNL A   1      40.577  27.183  28.835  1.00  0.00     0.049 A 
ATOM     44  N   UNL A   1      43.419  27.582  27.861  1.00  0.00    -0.248 NA
ATOM     45  C   UNL A   1      43.386  25.382  27.078  1.00  0.00     0.031 C 
ATOM     46  C   UNL A   1      39.197  27.038  29.295  1.00  0.00     0.029 A 
ATOM     47  N   UNL A   1      40.909  28.473  29.158  1.00  0.00    -0.354 N 
ATOM     48  C   UNL A   1      44.628  27.292  27.243  1.00  0.00     0.074 A 
ATOM     49  C   UNL A   1      44.568  25.914  26.809  1.00  0.00     0.031 C 
ATOM     50  C   UNL A   1      38.801  28.197  29.849  1.00  0.00     0.029 A 
ATOM     51  C   UNL A   1      39.905  29.154  29.799  1.00  0.00     0.049 A 
ATOM     52  H   UNL A   1      41.784  28.873  28.949  1.00  0.00     0.167 HD
ATOM     53  C   UNL A   1      45.689  28.108  27.041  1.00  0.00     0.037 A 
ATOM     54  C   UNL A   1      39.894  30.406  30.295  1.00  0.00     0.037 A 
ATOM     55  C   UNL A   1      45.751  29.470  27.495  1.00  0.00     0.049 A 
ATOM     56  C   UNL A   1      41.118  31.270  30.125  1.00  0.00     0.074 A 
ATOM     57  C   UNL A   1      46.786  30.379  27.372  1.00  0.00     0.029 A 
ATOM     58  N   UNL A   1      44.726  30.117  28.170  1.00  0.00    -0.354 N 
ATOM     59  N   UNL A   1      42.252  30.994  29.524  1.00  0.00    -0.248 NA
ATOM     60  C   UNL A   1      41.058  32.623  30.696  1.00  0.00     0.031 C 
ATOM     61  C   UNL A   1      46.401  31.566  28.004  1.00  0.00     0.029 A 
ATOM     62  C   UNL A   1      45.107  31.411  28.480  1.00  0.00     0.049 A 
ATOM     63  H   UNL A   1      43.855  29.716  28.394  1.00  0.00     0.167 HD
ATOM     64  C   UNL A   1      43.025  32.145  29.618  1.00  0.00     0.074 A 
ATOM     65  C   UNL A   1      42.225  33.128  30.319  1.00  0.00     0.031 C 
ATOM     66  C   UNL A   1      44.284  32.371  29.167  1.00  0.00     0.037 A 
BRANCH  53  67
ATOM     67  C   UNL A   1      46.866  27.538  26.308  1.00  0.00     0.064 A 
ATOM     68  C   UNL A   1      46.977  27.638  24.912  1.00  0.00     0.173 A 
ATOM     69  C   UNL A   1      47.903  26.901  27.005  1.00  0.00     0.173 A 
ATOM     70  F   UNL A   1      46.003  28.221  24.198  1.00  0.00    -0.203 F 
ATOM     71  C   UNL A   1      48.073  27.105  24.240  1.00  0.00     0.198 A 
ATOM     72  C   UNL A   1      49.010  26.391  26.332  1.00  0.00     0.198 A 
ATOM     73  F   UNL A   1      47.845  26.777  28.339  1.00  0.00    -0.203 F 
ATOM     74  F   UNL A   1      48.138  27.174  22.902  1.00  0.00    -0.200 F 
ATOM     75  C   UNL A   1      49.092  26.487  24.950  1.00  0.00     0.200 A 
ATOM     76  F   UNL A   1      49.998  25.802  27.021  1.00  0.00    -0.200 F 
ATOM     77  F   UNL A   1      50.150  25.978  24.303  1.00  0.00    -0.200 F 
ENDBRANCH  53  67
BRANCH  54  78
ATOM     78  C   UNL A   1      38.690  30.924  30.997  1.00  0.00     0.064 A 
ATOM     79  C   UNL A   1      38.578  30.857  32.393  1.00  0.00     0.173 A 
ATOM     80  C   UNL A   1      37.611  31.466  30.283  1.00  0.00     0.173 A 
ATOM     81  F   UNL A   1      39.572  30.325  33.119  1.00  0.00    -0.203 F 
ATOM     82  C   UNL A   1      37.424  31.290  33.045  1.00  0.00     0.198 A 
ATOM     83  C   UNL A   1      36.470  31.925  30.938  1.00  0.00     0.198 A 
ATOM     84  F   UNL A   1      37.666  31.554  28.945  1.00  0.00    -0.203 F 
ATOM     85  F   UNL A   1      37.324  31.166  34.375  1.00  0.00    -0.200 F 
ATOM     86  C   UNL A   1      36.374  31.827  32.318  1.00  0.00     0.200 A 
ATOM     87  F   UNL A   1      35.463  32.456  30.232  1.00  0.00    -0.200 F 
ATOM     88  F   UNL A   1      35.265  32.243  32.945  1.00  0.00    -0.200 F 
ENDBRANCH  54  78
BRANCH  66  89
ATOM     89  C   UNL A   1      44.851  33.743  29.385  1.00  0.00     0.064 A 
ATOM     90  C   UNL A   1      45.598  34.057  30.529  1.00  0.00     0.173 A 
ATOM     91  C   UNL A   1      44.670  34.745  28.419  1.00  0.00     0.173 A 
ATOM     92  F   UNL A   1      45.787  33.135  31.486  1.00  0.00    -0.203 F 
ATOM     93  C   UNL A   1      46.119  35.334  30.713  1.00  0.00     0.198 A 
ATOM     94  C   UNL A   1      45.217  36.013  28.594  1.00  0.00     0.198 A 
ATOM     95  F   UNL A   1      43.970  34.491  27.303  1.00  0.00    -0.203 F 
ATOM     96  F   UNL A   1      46.787  35.628  31.838  1.00  0.00    -0.200 F 
ATOM     97  C   UNL A   1      45.933  36.309  29.744  1.00  0.00     0.200 A 
ATOM     98  F   UNL A   1      45.048  36.950  27.650  1.00  0.00    -0.200 F 
ATOM     99  F   UNL A   1      46.437  37.538  29.922  1.00  0.00    -0.200 F 
ENDBRANCH  66  89
ENDBRANCH  40  41
ENDBRANCH  33  35
ENDBRANCH  32  33
ENDBRANCH  31  32
ENDBRANCH  30  31
ENDBRANCH  29  30
ENDBRANCH   1  29
TORSDOF 21
ENDMDL
MODEL 3
REMARK VINA RESULT:     -11.6      4.149     10.380
REMARK SMILES COCC[C@@]1(C(=O)OCCOCCOC(=O)c2ccc(-c3c4nc(c(-c5c(F)c(F)c(F)c(F)c5F)c5ccc([nH]5)c(-c5c(F)c(F)c(F)c(F)c5F)c5nc(c(-c6c(F)c(F)c(F)c(F)c6F)c6ccc3[nH]6)C=C5)C=C4)cc2)CCCN(C(=O)NCc2ccc(OC)cc2)C1
REMARK SMILES IDX 10 1 9 2 8 3 6 4 7 5 5 6 80 7 96 8 81 9 83 10 82 11 4 12
REMARK SMILES IDX 3 13 2 14 1 15 84 16 85 17 86 18 87 20 88 21 89 22 95 23
REMARK SMILES IDX 90 24 94 25 91 26 92 27 93 28 11 29 12 30 13 31 14 32 15 33
REMARK SMILES IDX 16 34 17 35 18 36 79 37 19 38 78 39 20 40 21 41 22 42 72 43
REMARK SMILES IDX 23 44 77 45 71 46 73 47 24 48 76 49 70 50 69 51 25 53 57 54
REMARK SMILES IDX 37 55 56 56 38 57 41 58 55 59 74 60 39 61 40 62 54 64 75 65
REMARK SMILES IDX 42 66 26 67 27 68 35 69 28 70 29 71 33 72 36 73 30 74 31 75
REMARK SMILES IDX 34 76 32 77 58 78 59 79 67 80 60 81 61 82 65 83 68 84 62 85
REMARK SMILES IDX 63 86 66 87 64 88 43 89 44 90 52 91 45 92 46 93 50 94 53 95
REMARK SMILES IDX 47 96 48 97 51 98 49 99
REMARK H PARENT 86 19 73 52 41 63
REMARK Flexibility Score: inf
ROOT
ATOM      1  C   UNL A   1      32.426  29.306  27.043  1.00  0.00     0.202 C 
ENDROOT
BRANCH   1   2
ATOM      2  C   UNL A   1      33.449  28.326  26.478  1.00  0.00     0.261 C 
BRANCH   2   3
ATOM      3  O   UNL A   1      32.759  27.390  25.627  1.00  0.00    -0.463 OA
BRANCH   3   4
ATOM      4  C   UNL A   1      32.763  27.673  24.300  1.00  0.00     0.314 C 
ATOM      5  O   UNL A   1      33.781  27.833  23.636  1.00  0.00    -0.252 OA
BRANCH   4   6
ATOM      6  C   UNL A   1      31.349  27.714  23.701  1.00  0.00     0.088 C 
ATOM      7  C   UNL A   1      30.373  26.989  24.666  1.00  0.00     0.022 C 
ATOM      8  C   UNL A   1      31.314  26.993  22.333  1.00  0.00     0.140 C 
ATOM      9  C   UNL A   1      30.617  25.472  24.714  1.00  0.00     0.023 C 
ATOM     10  N   UNL A   1      31.585  25.560  22.467  1.00  0.00    -0.324 N 
ATOM     11  C   UNL A   1      30.613  24.872  23.312  1.00  0.00     0.121 C 
BRANCH   6  12
ATOM     12  C   UNL A   1      30.923  29.190  23.472  1.00  0.00     0.049 C 
BRANCH  12  13
ATOM     13  C   UNL A   1      29.446  29.423  23.123  1.00  0.00     0.161 C 
BRANCH  13  14
ATOM     14  O   UNL A   1      29.244  29.528  21.711  1.00  0.00    -0.385 OA
ATOM     15  C   UNL A   1      28.178  30.408  21.381  1.00  0.00     0.194 C 
ENDBRANCH  13  14
ENDBRANCH  12  13
ENDBRANCH   6  12
BRANCH  10  16
ATOM     16  C   UNL A   1      32.620  25.046  21.741  1.00  0.00     0.317 C 
ATOM     17  O   UNL A   1      33.097  25.639  20.769  1.00  0.00    -0.249 OA
ATOM     18  N   UNL A   1      33.229  23.890  22.040  1.00  0.00    -0.334 N 
ATOM     19  H   UNL A   1      33.888  23.634  21.356  1.00  0.00     0.165 HD
BRANCH  18  20
ATOM     20  C   UNL A   1      33.163  22.925  23.114  1.00  0.00     0.153 C 
BRANCH  20  21
ATOM     21  C   UNL A   1      34.418  22.905  23.954  1.00  0.00    -0.028 A 
ATOM     22  C   UNL A   1      35.692  22.981  23.372  1.00  0.00     0.009 A 
ATOM     23  C   UNL A   1      34.327  22.868  25.352  1.00  0.00     0.009 A 
ATOM     24  C   UNL A   1      36.839  22.992  24.168  1.00  0.00     0.047 A 
ATOM     25  C   UNL A   1      35.480  22.881  26.148  1.00  0.00     0.047 A 
ATOM     26  C   UNL A   1      36.741  22.948  25.557  1.00  0.00     0.118 A 
BRANCH  26  27
ATOM     27  O   UNL A   1      37.940  22.973  26.213  1.00  0.00    -0.497 OA
ATOM     28  C   UNL A   1      38.852  21.923  25.918  1.00  0.00     0.278 C 
ENDBRANCH  26  27
ENDBRANCH  20  21
ENDBRANCH  18  20
ENDBRANCH  10  16
ENDBRANCH   4   6
ENDBRANCH   3   4
ENDBRANCH   2   3
ENDBRANCH   1   2
BRANCH   1  29
ATOM     29  O   UNL A   1      32.530  30.533  26.325  1.00  0.00    -0.374 OA
BRANCH  29  30
ATOM     30  C   UNL A   1      31.432  31.439  26.453  1.00  0.00     0.202 C 
BRANCH  30  31
ATOM     31  C   UNL A   1      31.814  32.809  27.050  1.00  0.00     0.261 C 
BRANCH  31  32
ATOM     32  O   UNL A   1      33.224  33.076  26.979  1.00  0.00    -0.460 OA
BRANCH  32  33
ATOM     33  C   UNL A   1      33.770  33.558  28.117  1.00  0.00     0.338 C 
ATOM     34  O   UNL A   1      33.259  34.316  28.922  1.00  0.00    -0.246 OA
BRANCH  33  35
ATOM     35  C   UNL A   1      35.014  32.820  28.375  1.00  0.00     0.060 A 
ATOM     36  C   UNL A   1      34.909  31.467  28.720  1.00  0.00     0.016 A 
ATOM     37  C   UNL A   1      36.252  33.460  28.331  1.00  0.00     0.016 A 
ATOM     38  C   UNL A   1      36.049  30.760  29.089  1.00  0.00     0.010 A 
ATOM     39  C   UNL A   1      37.393  32.755  28.718  1.00  0.00     0.010 A 
ATOM     40  C   UNL A   1      37.285  31.419  29.142  1.00  0.00    -0.014 A 
BRANCH  40  41
ATOM     41  C   UNL A   1      38.408  30.773  29.855  1.00  0.00     0.031 A 
ATOM     42  C   UNL A   1      38.628  31.134  31.298  1.00  0.00     0.074 A 
ATOM     43  C   UNL A   1      39.175  29.851  29.250  1.00  0.00     0.049 A 
ATOM     44  N   UNL A   1      39.527  30.694  32.140  1.00  0.00    -0.248 NA
ATOM     45  C   UNL A   1      37.703  32.127  31.871  1.00  0.00     0.031 C 
ATOM     46  C   UNL A   1      39.022  29.400  27.869  1.00  0.00     0.029 A 
ATOM     47  N   UNL A   1      40.237  29.128  29.728  1.00  0.00    -0.354 N 
ATOM     48  C   UNL A   1      39.265  31.342  33.340  1.00  0.00     0.074 A 
ATOM     49  C   UNL A   1      38.154  32.237  33.111  1.00  0.00     0.031 C 
ATOM     50  C   UNL A   1      39.964  28.476  27.607  1.00  0.00     0.029 A 
ATOM     51  C   UNL A   1      40.795  28.290  28.795  1.00  0.00     0.049 A 
ATOM     52  H   UNL A   1      40.568  29.202  30.652  1.00  0.00     0.167 HD
ATOM     53  C   UNL A   1      39.888  31.190  34.533  1.00  0.00     0.037 A 
ATOM     54  C   UNL A   1      41.863  27.476  28.898  1.00  0.00     0.037 A 
ATOM     55  C   UNL A   1      41.007  30.314  34.748  1.00  0.00     0.049 A 
ATOM     56  C   UNL A   1      42.587  27.384  30.217  1.00  0.00     0.074 A 
ATOM     57  C   UNL A   1      41.733  30.104  35.906  1.00  0.00     0.029 A 
ATOM     58  N   UNL A   1      41.565  29.504  33.771  1.00  0.00    -0.354 N 
ATOM     59  N   UNL A   1      42.324  27.987  31.352  1.00  0.00    -0.248 NA
ATOM     60  C   UNL A   1      43.754  26.491  30.271  1.00  0.00     0.031 C 
ATOM     61  C   UNL A   1      42.754  29.192  35.620  1.00  0.00     0.029 A 
ATOM     62  C   UNL A   1      42.634  28.799  34.296  1.00  0.00     0.049 A 
ATOM     63  H   UNL A   1      41.247  29.438  32.841  1.00  0.00     0.167 HD
ATOM     64  C   UNL A   1      43.269  27.525  32.260  1.00  0.00     0.074 A 
ATOM     65  C   UNL A   1      44.102  26.579  31.547  1.00  0.00     0.031 C 
ATOM     66  C   UNL A   1      43.436  27.853  33.565  1.00  0.00     0.037 A 
BRANCH  53  67
ATOM     67  C   UNL A   1      39.374  32.001  35.685  1.00  0.00     0.064 A 
ATOM     68  C   UNL A   1      39.820  33.312  35.913  1.00  0.00     0.173 A 
ATOM     69  C   UNL A   1      38.414  31.472  36.560  1.00  0.00     0.173 A 
ATOM     70  F   UNL A   1      40.751  33.857  35.115  1.00  0.00    -0.203 F 
ATOM     71  C   UNL A   1      39.338  34.057  36.986  1.00  0.00     0.198 A 
ATOM     72  C   UNL A   1      37.916  32.229  37.618  1.00  0.00     0.198 A 
ATOM     73  F   UNL A   1      37.956  30.223  36.388  1.00  0.00    -0.203 F 
ATOM     74  F   UNL A   1      39.810  35.292  37.210  1.00  0.00    -0.200 F 
ATOM     75  C   UNL A   1      38.383  33.517  37.834  1.00  0.00     0.200 A 
ATOM     76  F   UNL A   1      36.986  31.709  38.432  1.00  0.00    -0.200 F 
ATOM     77  F   UNL A   1      37.915  34.236  38.865  1.00  0.00    -0.200 F 
ENDBRANCH  53  67
BRANCH  54  78
ATOM     78  C   UNL A   1      42.316  26.682  27.725  1.00  0.00     0.064 A 
ATOM     79  C   UNL A   1      41.800  25.402  27.472  1.00  0.00     0.173 A 
ATOM     80  C   UNL A   1      43.298  27.172  26.852  1.00  0.00     0.173 A 
ATOM     81  F   UNL A   1      40.877  24.879  28.291  1.00  0.00    -0.203 F 
ATOM     82  C   UNL A   1      42.268  24.636  26.406  1.00  0.00     0.198 A 
ATOM     83  C   UNL A   1      43.743  26.417  25.770  1.00  0.00     0.198 A 
ATOM     84  F   UNL A   1      43.825  28.390  27.049  1.00  0.00    -0.203 F 
ATOM     85  F   UNL A   1      41.795  23.396  26.218  1.00  0.00    -0.200 F 
ATOM     86  C   UNL A   1      43.235  25.145  25.553  1.00  0.00     0.200 A 
ATOM     87  F   UNL A   1      44.669  26.917  24.941  1.00  0.00    -0.200 F 
ATOM     88  F   UNL A   1      43.684  24.407  24.528  1.00  0.00    -0.200 F 
ENDBRANCH  54  78
BRANCH  66  89
ATOM     89  C   UNL A   1      44.535  27.153  34.310  1.00  0.00     0.064 A 
ATOM     90  C   UNL A   1      45.823  27.700  34.407  1.00  0.00     0.173 A 
ATOM     91  C   UNL A   1      44.285  25.935  34.960  1.00  0.00     0.173 A 
ATOM     92  F   UNL A   1      46.113  28.856  33.790  1.00  0.00    -0.203 F 
ATOM     93  C   UNL A   1      46.829  27.038  35.104  1.00  0.00     0.198 A 
ATOM     94  C   UNL A   1      45.286  25.290  35.680  1.00  0.00     0.198 A 
ATOM     95  F   UNL A   1      43.067  25.376  34.904  1.00  0.00    -0.203 F 
ATOM     96  F   UNL A   1      48.066  27.553  35.141  1.00  0.00    -0.200 F 
ATOM     97  C   UNL A   1      46.559  25.838  35.744  1.00  0.00     0.200 A 
ATOM     98  F   UNL A   1      45.020  24.138  36.310  1.00  0.00    -0.200 F 
ATOM     99  F   UNL A   1      47.529  25.203  36.417  1.00  0.00    -0.200 F 
ENDBRANCH  66  89
ENDBRANCH  40  41
ENDBRANCH  33  35
ENDBRANCH  32  33
ENDBRANCH  31  32
ENDBRANCH  30  31
ENDBRANCH  29  30
ENDBRANCH   1  29
TORSDOF 21
ENDMDL
