MODEL 1
REMARK VINA RESULT:      -9.6      0.000      0.000
REMARK SMILES CC(C)CSc1cc2c(cc1Cl)C=C(C(=O)OCCOCCOC(=O)c1ccc(-c3c4nc(c(-c5c(F)c(F)c(F)c(F)c5F)c5ccc([nH]5)c(-c5c(F)c(F)c(F)c(F)c5F)c5nc(c(-c6c(F)c(F)c(F)c(F)c6F)c6ccc3[nH]6)C=C5)C=C4)cc1)[C@@H](C(F)(F)F)O2
REMARK SMILES IDX 19 1 18 2 17 3 15 4 16 5 14 6 6 7 7 8 11 9 8 10 10 11 12 12
REMARK SMILES IDX 9 13 94 14 13 15 89 16 5 17 4 18 2 19 1 20 3 21 90 22 91 23
REMARK SMILES IDX 92 24 93 25 20 26 21 27 22 28 23 29 24 30 25 31 26 32 27 33
REMARK SMILES IDX 88 34 28 35 87 36 29 37 30 38 31 39 81 40 32 41 86 42 80 43
REMARK SMILES IDX 82 44 33 45 85 46 79 47 78 48 34 50 66 51 46 52 65 53 47 54
REMARK SMILES IDX 50 55 64 56 83 57 48 58 49 59 63 61 84 62 51 63 35 64 36 65
REMARK SMILES IDX 44 66 37 67 38 68 42 69 45 70 39 71 40 72 43 73 41 74 67 75
REMARK SMILES IDX 68 76 76 77 69 78 70 79 74 80 77 81 71 82 72 83 75 84 73 85
REMARK SMILES IDX 52 86 53 87 61 88 54 89 55 90 59 91 62 92 56 93 57 94 60 95
REMARK SMILES IDX 58 96
REMARK H PARENT 82 49 50 60
REMARK Flexibility Score: inf
ROOT
ATOM      1  C   UNL A   1      44.052  18.423  25.642  1.00  0.00     0.202 C 
ENDROOT
BRANCH   1   2
ATOM      2  C   UNL A   1      44.546  19.303  24.489  1.00  0.00     0.261 C 
BRANCH   2   3
ATOM      3  O   UNL A   1      45.216  20.483  24.958  1.00  0.00    -0.460 OA
BRANCH   3   4
ATOM      4  C   UNL A   1      44.387  21.498  25.302  1.00  0.00     0.338 C 
ATOM      5  O   UNL A   1      43.228  21.651  24.953  1.00  0.00    -0.246 OA
BRANCH   4   6
ATOM      6  C   UNL A   1      45.044  22.349  26.309  1.00  0.00     0.087 C 
ATOM      7  C   UNL A   1      45.828  25.319  30.296  1.00  0.00     0.030 A 
ATOM      8  C   UNL A   1      46.476  25.115  29.059  1.00  0.00     0.063 A 
ATOM      9  C   UNL A   1      44.824  24.408  30.658  1.00  0.00     0.055 A 
ATOM     10  C   UNL A   1      46.057  24.128  28.166  1.00  0.00     0.129 A 
ATOM     11  C   UNL A   1      44.356  23.466  29.730  1.00  0.00     0.033 A 
ATOM     12  Cl  UNL A   1      44.121  24.304  32.232  1.00  0.00    -0.083 Cl
ATOM     13  C   UNL A   1      44.946  23.354  28.472  1.00  0.00     0.019 A 
ATOM     14  O   UNL A   1      46.761  24.015  27.001  1.00  0.00    -0.475 OA
ATOM     15  C   UNL A   1      44.376  22.485  27.462  1.00  0.00     0.027 C 
ATOM     16  C   UNL A   1      46.376  22.990  26.036  1.00  0.00     0.316 C 
BRANCH   7  17
ATOM     17  S   UNL A   1      46.434  26.740  31.206  1.00  0.00    -0.124 SA
BRANCH  17  18
ATOM     18  C   UNL A   1      45.329  28.151  30.810  1.00  0.00     0.078 C 
BRANCH  18  19
ATOM     19  C   UNL A   1      45.809  29.603  31.014  1.00  0.00    -0.007 C 
ATOM     20  C   UNL A   1      45.611  30.195  32.407  1.00  0.00     0.008 C 
ATOM     21  C   UNL A   1      47.307  29.661  30.669  1.00  0.00     0.008 C 
ENDBRANCH  18  19
ENDBRANCH  17  18
ENDBRANCH   7  17
BRANCH  16  22
ATOM     22  C   UNL A   1      46.474  23.627  24.640  1.00  0.00     0.430 C 
ATOM     23  F   UNL A   1      47.314  24.690  24.649  1.00  0.00    -0.167 F 
ATOM     24  F   UNL A   1      46.959  22.765  23.717  1.00  0.00    -0.167 F 
ATOM     25  F   UNL A   1      45.272  24.061  24.199  1.00  0.00    -0.167 F 
ENDBRANCH  16  22
ENDBRANCH   4   6
ENDBRANCH   3   4
ENDBRANCH   2   3
ENDBRANCH   1   2
BRANCH   1  26
ATOM     26  O   UNL A   1      42.652  18.185  25.741  1.00  0.00    -0.374 OA
BRANCH  26  27
ATOM     27  C   UNL A   1      41.881  19.013  26.611  1.00  0.00     0.202 C 
BRANCH  27  28
ATOM     28  C   UNL A   1      40.585  19.632  26.069  1.00  0.00     0.261 C 
BRANCH  28  29
ATOM     29  O   UNL A   1      40.033  20.626  26.951  1.00  0.00    -0.460 OA
BRANCH  29  30
ATOM     30  C   UNL A   1      39.322  21.603  26.338  1.00  0.00     0.338 C 
ATOM     31  O   UNL A   1      38.318  21.476  25.654  1.00  0.00    -0.246 OA
BRANCH  30  32
ATOM     32  C   UNL A   1      39.820  22.915  26.788  1.00  0.00     0.060 A 
ATOM     33  C   UNL A   1      40.691  23.023  27.872  1.00  0.00     0.016 A 
ATOM     34  C   UNL A   1      39.427  24.053  26.071  1.00  0.00     0.016 A 
ATOM     35  C   UNL A   1      41.193  24.278  28.222  1.00  0.00     0.010 A 
ATOM     36  C   UNL A   1      39.923  25.306  26.427  1.00  0.00     0.010 A 
ATOM     37  C   UNL A   1      40.826  25.425  27.492  1.00  0.00    -0.014 A 
BRANCH  37  38
ATOM     38  C   UNL A   1      41.490  26.725  27.750  1.00  0.00     0.031 A 
ATOM     39  C   UNL A   1      40.796  27.827  28.490  1.00  0.00     0.074 A 
ATOM     40  C   UNL A   1      42.734  26.912  27.268  1.00  0.00     0.049 A 
ATOM     41  N   UNL A   1      41.247  29.016  28.808  1.00  0.00    -0.248 NA
ATOM     42  C   UNL A   1      39.418  27.568  28.928  1.00  0.00     0.031 C 
ATOM     43  C   UNL A   1      43.493  25.920  26.508  1.00  0.00     0.029 A 
ATOM     44  N   UNL A   1      43.576  27.991  27.346  1.00  0.00    -0.354 N 
ATOM     45  C   UNL A   1      40.218  29.639  29.500  1.00  0.00     0.074 A 
ATOM     46  C   UNL A   1      39.102  28.716  29.513  1.00  0.00     0.031 C 
ATOM     47  C   UNL A   1      44.699  26.425  26.210  1.00  0.00     0.029 A 
ATOM     48  C   UNL A   1      44.784  27.788  26.726  1.00  0.00     0.049 A 
ATOM     49  H   UNL A   1      43.337  28.830  27.802  1.00  0.00     0.167 HD
ATOM     50  C   UNL A   1      40.219  30.862  30.084  1.00  0.00     0.037 A 
ATOM     51  C   UNL A   1      45.842  28.610  26.586  1.00  0.00     0.037 A 
ATOM     52  C   UNL A   1      41.329  31.782  30.047  1.00  0.00     0.049 A 
ATOM     53  C   UNL A   1      45.791  29.983  27.195  1.00  0.00     0.074 A 
ATOM     54  C   UNL A   1      41.428  33.035  30.628  1.00  0.00     0.029 A 
ATOM     55  N   UNL A   1      42.528  31.558  29.383  1.00  0.00    -0.354 N 
ATOM     56  N   UNL A   1      44.837  30.541  27.898  1.00  0.00    -0.248 NA
ATOM     57  C   UNL A   1      46.970  30.838  26.997  1.00  0.00     0.031 C 
ATOM     58  C   UNL A   1      42.660  33.591  30.268  1.00  0.00     0.029 A 
ATOM     59  C   UNL A   1      43.360  32.659  29.520  1.00  0.00     0.049 A 
ATOM     60  H   UNL A   1      42.753  30.737  28.889  1.00  0.00     0.167 HD
ATOM     61  C   UNL A   1      45.308  31.799  28.251  1.00  0.00     0.074 A 
ATOM     62  C   UNL A   1      46.642  31.914  27.699  1.00  0.00     0.031 C 
ATOM     63  C   UNL A   1      44.688  32.768  28.969  1.00  0.00     0.037 A 
BRANCH  50  64
ATOM     64  C   UNL A   1      38.985  31.285  30.829  1.00  0.00     0.064 A 
ATOM     65  C   UNL A   1      38.872  31.109  32.216  1.00  0.00     0.173 A 
ATOM     66  C   UNL A   1      37.944  31.957  30.167  1.00  0.00     0.173 A 
ATOM     67  F   UNL A   1      39.835  30.468  32.895  1.00  0.00    -0.203 F 
ATOM     68  C   UNL A   1      37.759  31.576  32.911  1.00  0.00     0.198 A 
ATOM     69  C   UNL A   1      36.847  32.449  30.870  1.00  0.00     0.198 A 
ATOM     70  F   UNL A   1      38.004  32.161  28.843  1.00  0.00    -0.203 F 
ATOM     71  F   UNL A   1      37.661  31.370  34.231  1.00  0.00    -0.200 F 
ATOM     72  C   UNL A   1      36.753  32.256  32.240  1.00  0.00     0.200 A 
ATOM     73  F   UNL A   1      35.885  33.122  30.223  1.00  0.00    -0.200 F 
ATOM     74  F   UNL A   1      35.694  32.725  32.914  1.00  0.00    -0.200 F 
ENDBRANCH  50  64
BRANCH  51  75
ATOM     75  C   UNL A   1      47.050  28.131  25.866  1.00  0.00     0.064 A 
ATOM     76  C   UNL A   1      47.065  28.041  24.467  1.00  0.00     0.173 A 
ATOM     77  C   UNL A   1      48.220  27.779  26.555  1.00  0.00     0.173 A 
ATOM     78  F   UNL A   1      45.965  28.348  23.765  1.00  0.00    -0.203 F 
ATOM     79  C   UNL A   1      48.200  27.608  23.786  1.00  0.00     0.198 A 
ATOM     80  C   UNL A   1      49.365  27.377  25.872  1.00  0.00     0.198 A 
ATOM     81  F   UNL A   1      48.259  27.852  27.894  1.00  0.00    -0.203 F 
ATOM     82  F   UNL A   1      48.175  27.496  22.451  1.00  0.00    -0.200 F 
ATOM     83  C   UNL A   1      49.352  27.285  24.488  1.00  0.00     0.200 A 
ATOM     84  F   UNL A   1      50.481  27.083  26.552  1.00  0.00    -0.200 F 
ATOM     85  F   UNL A   1      50.448  26.883  23.831  1.00  0.00    -0.200 F 
ENDBRANCH  51  75
BRANCH  63  86
ATOM     86  C   UNL A   1      45.454  34.035  29.229  1.00  0.00     0.064 A 
ATOM     87  C   UNL A   1      45.394  35.128  28.352  1.00  0.00     0.173 A 
ATOM     88  C   UNL A   1      46.221  34.175  30.398  1.00  0.00     0.173 A 
ATOM     89  F   UNL A   1      44.687  35.044  27.215  1.00  0.00    -0.203 F 
ATOM     90  C   UNL A   1      46.093  36.303  28.621  1.00  0.00     0.198 A 
ATOM     91  C   UNL A   1      46.889  35.363  30.681  1.00  0.00     0.198 A 
ATOM     92  F   UNL A   1      46.306  33.164  31.275  1.00  0.00    -0.203 F 
ATOM     93  F   UNL A   1      46.062  37.315  27.743  1.00  0.00    -0.200 F 
ATOM     94  C   UNL A   1      46.832  36.423  29.789  1.00  0.00     0.200 A 
ATOM     95  F   UNL A   1      47.587  35.483  31.819  1.00  0.00    -0.200 F 
ATOM     96  F   UNL A   1      47.493  37.558  30.052  1.00  0.00    -0.200 F 
ENDBRANCH  63  86
ENDBRANCH  37  38
ENDBRANCH  30  32
ENDBRANCH  29  30
ENDBRANCH  28  29
ENDBRANCH  27  28
ENDBRANCH  26  27
ENDBRANCH   1  26
TORSDOF 18
ENDMDL
MODEL 2
REMARK VINA RESULT:      -9.5      0.641      7.155
REMARK SMILES CC(C)CSc1cc2c(cc1Cl)C=C(C(=O)OCCOCCOC(=O)c1ccc(-c3c4nc(c(-c5c(F)c(F)c(F)c(F)c5F)c5ccc([nH]5)c(-c5c(F)c(F)c(F)c(F)c5F)c5nc(c(-c6c(F)c(F)c(F)c(F)c6F)c6ccc3[nH]6)C=C5)C=C4)cc1)[C@@H](C(F)(F)F)O2
REMARK SMILES IDX 19 1 18 2 17 3 15 4 16 5 14 6 6 7 7 8 11 9 8 10 10 11 12 12
REMARK SMILES IDX 9 13 94 14 13 15 89 16 5 17 4 18 2 19 1 20 3 21 90 22 91 23
REMARK SMILES IDX 92 24 93 25 20 26 21 27 22 28 23 29 24 30 25 31 26 32 27 33
REMARK SMILES IDX 88 34 28 35 87 36 29 37 30 38 31 39 81 40 32 41 86 42 80 43
REMARK SMILES IDX 82 44 33 45 85 46 79 47 78 48 34 50 66 51 46 52 65 53 47 54
REMARK SMILES IDX 50 55 64 56 83 57 48 58 49 59 63 61 84 62 51 63 35 64 36 65
REMARK SMILES IDX 44 66 37 67 38 68 42 69 45 70 39 71 40 72 43 73 41 74 67 75
REMARK SMILES IDX 68 76 76 77 69 78 70 79 74 80 77 81 71 82 72 83 75 84 73 85
REMARK SMILES IDX 52 86 53 87 61 88 54 89 55 90 59 91 62 92 56 93 57 94 60 95
REMARK SMILES IDX 58 96
REMARK H PARENT 82 49 50 60
REMARK Flexibility Score: inf
ROOT
ATOM      1  C   UNL A   1      44.001  18.438  25.492  1.00  0.00     0.202 C 
ENDROOT
BRANCH   1   2
ATOM      2  C   UNL A   1      44.339  19.590  24.540  1.00  0.00     0.261 C 
BRANCH   2   3
ATOM      3  O   UNL A   1      45.063  20.641  25.199  1.00  0.00    -0.460 OA
BRANCH   3   4
ATOM      4  C   UNL A   1      44.314  21.724  25.512  1.00  0.00     0.338 C 
ATOM      5  O   UNL A   1      43.169  21.954  25.160  1.00  0.00    -0.246 OA
BRANCH   4   6
ATOM      6  C   UNL A   1      45.037  22.554  26.492  1.00  0.00     0.087 C 
ATOM      7  C   UNL A   1      46.062  25.543  30.409  1.00  0.00     0.030 A 
ATOM      8  C   UNL A   1      46.676  25.280  29.166  1.00  0.00     0.063 A 
ATOM      9  C   UNL A   1      45.013  24.699  30.805  1.00  0.00     0.055 A 
ATOM     10  C   UNL A   1      46.184  24.303  28.299  1.00  0.00     0.129 A 
ATOM     11  C   UNL A   1      44.475  23.770  29.903  1.00  0.00     0.033 A 
ATOM     12  Cl  UNL A   1      44.333  24.665  32.392  1.00  0.00    -0.083 Cl
ATOM     13  C   UNL A   1      45.036  23.601  28.637  1.00  0.00     0.019 A 
ATOM     14  O   UNL A   1      46.859  24.129  27.125  1.00  0.00    -0.475 OA
ATOM     15  C   UNL A   1      44.398  22.749  27.654  1.00  0.00     0.027 C 
ATOM     16  C   UNL A   1      46.399  23.111  26.185  1.00  0.00     0.316 C 
BRANCH   7  17
ATOM     17  S   UNL A   1      46.765  26.943  31.282  1.00  0.00    -0.124 SA
BRANCH  17  18
ATOM     18  C   UNL A   1      45.546  28.311  31.190  1.00  0.00     0.078 C 
BRANCH  18  19
ATOM     19  C   UNL A   1      45.864  29.687  31.809  1.00  0.00    -0.007 C 
ATOM     20  C   UNL A   1      46.947  30.510  31.116  1.00  0.00     0.008 C 
ATOM     21  C   UNL A   1      44.565  30.511  31.829  1.00  0.00     0.008 C 
ENDBRANCH  18  19
ENDBRANCH  17  18
ENDBRANCH   7  17
BRANCH  16  22
ATOM     22  C   UNL A   1      46.509  23.716  24.777  1.00  0.00     0.430 C 
ATOM     23  F   UNL A   1      46.708  22.750  23.847  1.00  0.00    -0.167 F 
ATOM     24  F   UNL A   1      45.384  24.371  24.411  1.00  0.00    -0.167 F 
ATOM     25  F   UNL A   1      47.537  24.590  24.682  1.00  0.00    -0.167 F 
ENDBRANCH  16  22
ENDBRANCH   4   6
ENDBRANCH   3   4
ENDBRANCH   2   3
ENDBRANCH   1   2
BRANCH   1  26
ATOM     26  O   UNL A   1      42.626  18.175  25.751  1.00  0.00    -0.374 OA
BRANCH  26  27
ATOM     27  C   UNL A   1      41.920  19.049  26.631  1.00  0.00     0.202 C 
BRANCH  27  28
ATOM     28  C   UNL A   1      40.625  19.702  26.128  1.00  0.00     0.261 C 
BRANCH  28  29
ATOM     29  O   UNL A   1      40.142  20.730  27.010  1.00  0.00    -0.460 OA
BRANCH  29  30
ATOM     30  C   UNL A   1      39.383  21.683  26.416  1.00  0.00     0.338 C 
ATOM     31  O   UNL A   1      38.383  21.520  25.732  1.00  0.00    -0.246 OA
BRANCH  30  32
ATOM     32  C   UNL A   1      39.819  23.009  26.888  1.00  0.00     0.060 A 
ATOM     33  C   UNL A   1      40.656  23.141  27.997  1.00  0.00     0.016 A 
ATOM     34  C   UNL A   1      39.404  24.137  26.168  1.00  0.00     0.016 A 
ATOM     35  C   UNL A   1      41.100  24.411  28.369  1.00  0.00     0.010 A 
ATOM     36  C   UNL A   1      39.843  25.405  26.546  1.00  0.00     0.010 A 
ATOM     37  C   UNL A   1      40.711  25.549  27.636  1.00  0.00    -0.014 A 
BRANCH  37  38
ATOM     38  C   UNL A   1      41.319  26.871  27.921  1.00  0.00     0.031 A 
ATOM     39  C   UNL A   1      42.726  27.191  27.516  1.00  0.00     0.074 A 
ATOM     40  C   UNL A   1      40.585  27.779  28.592  1.00  0.00     0.049 A 
ATOM     41  N   UNL A   1      43.396  28.304  27.681  1.00  0.00    -0.248 NA
ATOM     42  C   UNL A   1      43.482  26.125  26.845  1.00  0.00     0.031 C 
ATOM     43  C   UNL A   1      39.217  27.565  29.062  1.00  0.00     0.029 A 
ATOM     44  N   UNL A   1      40.881  29.056  28.993  1.00  0.00    -0.354 N 
ATOM     45  C   UNL A   1      44.644  28.083  27.116  1.00  0.00     0.074 A 
ATOM     46  C   UNL A   1      44.656  26.712  26.648  1.00  0.00     0.031 C 
ATOM     47  C   UNL A   1      38.781  28.681  29.664  1.00  0.00     0.029 A 
ATOM     48  C   UNL A   1      39.851  29.674  29.656  1.00  0.00     0.049 A 
ATOM     49  H   UNL A   1      41.750  29.488  28.822  1.00  0.00     0.167 HD
ATOM     50  C   UNL A   1      45.674  28.954  26.986  1.00  0.00     0.037 A 
ATOM     51  C   UNL A   1      39.775  30.903  30.201  1.00  0.00     0.037 A 
ATOM     52  C   UNL A   1      45.660  30.312  27.474  1.00  0.00     0.049 A 
ATOM     53  C   UNL A   1      40.956  31.828  30.092  1.00  0.00     0.074 A 
ATOM     54  C   UNL A   1      46.650  31.274  27.371  1.00  0.00     0.029 A 
ATOM     55  N   UNL A   1      44.611  30.897  28.170  1.00  0.00    -0.354 N 
ATOM     56  N   UNL A   1      42.110  31.631  29.504  1.00  0.00    -0.248 NA
ATOM     57  C   UNL A   1      40.819  33.151  30.717  1.00  0.00     0.031 C 
ATOM     58  C   UNL A   1      46.225  32.419  28.052  1.00  0.00     0.029 A 
ATOM     59  C   UNL A   1      44.941  32.197  28.523  1.00  0.00     0.049 A 
ATOM     60  H   UNL A   1      43.758  30.453  28.381  1.00  0.00     0.167 HD
ATOM     61  C   UNL A   1      42.826  32.810  29.662  1.00  0.00     0.074 A 
ATOM     62  C   UNL A   1      41.968  33.724  30.386  1.00  0.00     0.031 C 
ATOM     63  C   UNL A   1      44.082  33.104  29.243  1.00  0.00     0.037 A 
BRANCH  50  64
ATOM     64  C   UNL A   1      46.911  28.479  26.278  1.00  0.00     0.064 A 
ATOM     65  C   UNL A   1      48.088  28.185  26.982  1.00  0.00     0.173 A 
ATOM     66  C   UNL A   1      46.894  28.227  24.897  1.00  0.00     0.173 A 
ATOM     67  F   UNL A   1      48.160  28.413  28.303  1.00  0.00    -0.203 F 
ATOM     68  C   UNL A   1      49.206  27.670  26.329  1.00  0.00     0.198 A 
ATOM     69  C   UNL A   1      48.003  27.683  24.253  1.00  0.00     0.198 A 
ATOM     70  F   UNL A   1      45.792  28.481  24.176  1.00  0.00    -0.203 F 
ATOM     71  F   UNL A   1      50.328  27.425  27.019  1.00  0.00    -0.200 F 
ATOM     72  C   UNL A   1      49.159  27.409  24.968  1.00  0.00     0.200 A 
ATOM     73  F   UNL A   1      47.949  27.414  22.941  1.00  0.00    -0.200 F 
ATOM     74  F   UNL A   1      50.227  26.891  24.346  1.00  0.00    -0.200 F 
ENDBRANCH  50  64
BRANCH  51  75
ATOM     75  C   UNL A   1      38.518  31.336  30.863  1.00  0.00     0.064 A 
ATOM     76  C   UNL A   1      38.371  31.245  32.254  1.00  0.00     0.173 A 
ATOM     77  C   UNL A   1      37.450  31.871  30.127  1.00  0.00     0.173 A 
ATOM     78  F   UNL A   1      39.356  30.723  32.999  1.00  0.00    -0.203 F 
ATOM     79  C   UNL A   1      37.201  31.663  32.883  1.00  0.00     0.198 A 
ATOM     80  C   UNL A   1      36.293  32.318  30.760  1.00  0.00     0.198 A 
ATOM     81  F   UNL A   1      37.543  31.983  28.794  1.00  0.00    -0.203 F 
ATOM     82  F   UNL A   1      37.072  31.531  34.210  1.00  0.00    -0.200 F 
ATOM     83  C   UNL A   1      36.166  32.207  32.136  1.00  0.00     0.200 A 
ATOM     84  F   UNL A   1      35.304  32.859  30.038  1.00  0.00    -0.200 F 
ATOM     85  F   UNL A   1      35.046  32.623  32.744  1.00  0.00    -0.200 F 
ENDBRANCH  51  75
BRANCH  63  86
ATOM     86  C   UNL A   1      44.601  34.486  29.528  1.00  0.00     0.064 A 
ATOM     87  C   UNL A   1      44.384  35.554  28.645  1.00  0.00     0.173 A 
ATOM     88  C   UNL A   1      45.284  34.756  30.725  1.00  0.00     0.173 A 
ATOM     89  F   UNL A   1      43.749  35.349  27.481  1.00  0.00    -0.203 F 
ATOM     90  C   UNL A   1      44.853  36.833  28.936  1.00  0.00     0.198 A 
ATOM     91  C   UNL A   1      45.720  36.042  31.030  1.00  0.00     0.198 A 
ATOM     92  F   UNL A   1      45.512  33.773  31.610  1.00  0.00    -0.203 F 
ATOM     93  F   UNL A   1      44.678  37.826  28.054  1.00  0.00    -0.200 F 
ATOM     94  C   UNL A   1      45.512  37.078  30.132  1.00  0.00     0.200 A 
ATOM     95  F   UNL A   1      46.341  36.280  32.194  1.00  0.00    -0.200 F 
ATOM     96  F   UNL A   1      45.952  38.311  30.416  1.00  0.00    -0.200 F 
ENDBRANCH  63  86
ENDBRANCH  37  38
ENDBRANCH  30  32
ENDBRANCH  29  30
ENDBRANCH  28  29
ENDBRANCH  27  28
ENDBRANCH  26  27
ENDBRANCH   1  26
TORSDOF 18
ENDMDL
MODEL 3
REMARK VINA RESULT:      -9.1      0.752      2.171
REMARK SMILES CC(C)CSc1cc2c(cc1Cl)C=C(C(=O)OCCOCCOC(=O)c1ccc(-c3c4nc(c(-c5c(F)c(F)c(F)c(F)c5F)c5ccc([nH]5)c(-c5c(F)c(F)c(F)c(F)c5F)c5nc(c(-c6c(F)c(F)c(F)c(F)c6F)c6ccc3[nH]6)C=C5)C=C4)cc1)[C@@H](C(F)(F)F)O2
REMARK SMILES IDX 19 1 18 2 17 3 15 4 16 5 14 6 6 7 7 8 11 9 8 10 10 11 12 12
REMARK SMILES IDX 9 13 94 14 13 15 89 16 5 17 4 18 2 19 1 20 3 21 90 22 91 23
REMARK SMILES IDX 92 24 93 25 20 26 21 27 22 28 23 29 24 30 25 31 26 32 27 33
REMARK SMILES IDX 88 34 28 35 87 36 29 37 30 38 31 39 81 40 32 41 86 42 80 43
REMARK SMILES IDX 82 44 33 45 85 46 79 47 78 48 34 50 66 51 46 52 65 53 47 54
REMARK SMILES IDX 50 55 64 56 83 57 48 58 49 59 63 61 84 62 51 63 35 64 36 65
REMARK SMILES IDX 44 66 37 67 38 68 42 69 45 70 39 71 40 72 43 73 41 74 67 75
REMARK SMILES IDX 68 76 76 77 69 78 70 79 74 80 77 81 71 82 72 83 75 84 73 85
REMARK SMILES IDX 52 86 53 87 61 88 54 89 55 90 59 91 62 92 56 93 57 94 60 95
REMARK SMILES IDX 58 96
REMARK H PARENT 82 49 50 60
REMARK Flexibility Score: inf
ROOT
ATOM      1  C   UNL A   1      43.770  18.668  25.702  1.00  0.00     0.202 C 
ENDROOT
BRANCH   1   2
ATOM      2  C   UNL A   1      44.220  19.514  24.505  1.00  0.00     0.261 C 
BRANCH   2   3
ATOM      3  O   UNL A   1      44.947  20.682  24.912  1.00  0.00    -0.460 OA
BRANCH   3   4
ATOM      4  C   UNL A   1      44.171  21.697  25.361  1.00  0.00     0.338 C 
ATOM      5  O   UNL A   1      42.991  21.884  25.114  1.00  0.00    -0.246 OA
BRANCH   4   6
ATOM      6  C   UNL A   1      44.925  22.495  26.343  1.00  0.00     0.087 C 
ATOM      7  C   UNL A   1      46.064  25.435  30.266  1.00  0.00     0.030 A 
ATOM      8  C   UNL A   1      46.669  25.149  29.023  1.00  0.00     0.063 A 
ATOM      9  C   UNL A   1      44.981  24.633  30.658  1.00  0.00     0.055 A 
ATOM     10  C   UNL A   1      46.139  24.194  28.154  1.00  0.00     0.129 A 
ATOM     11  C   UNL A   1      44.407  23.728  29.755  1.00  0.00     0.033 A 
ATOM     12  Cl  UNL A   1      44.298  24.625  32.244  1.00  0.00    -0.083 Cl
ATOM     13  C   UNL A   1      44.963  23.538  28.489  1.00  0.00     0.019 A 
ATOM     14  O   UNL A   1      46.809  23.994  26.981  1.00  0.00    -0.475 OA
ATOM     15  C   UNL A   1      44.293  22.714  27.504  1.00  0.00     0.027 C 
ATOM     16  C   UNL A   1      46.309  22.997  26.039  1.00  0.00     0.316 C 
BRANCH   7  17
ATOM     17  S   UNL A   1      46.822  26.804  31.142  1.00  0.00    -0.124 SA
BRANCH  17  18
ATOM     18  C   UNL A   1      48.550  26.318  31.520  1.00  0.00     0.078 C 
BRANCH  18  19
ATOM     19  C   UNL A   1      49.727  27.232  31.120  1.00  0.00    -0.007 C 
ATOM     20  C   UNL A   1      50.618  26.735  29.984  1.00  0.00     0.008 C 
ATOM     21  C   UNL A   1      49.151  28.602  30.722  1.00  0.00     0.008 C 
ENDBRANCH  18  19
ENDBRANCH  17  18
ENDBRANCH   7  17
BRANCH  16  22
ATOM     22  C   UNL A   1      46.446  23.599  24.631  1.00  0.00     0.430 C 
ATOM     23  F   UNL A   1      45.239  23.975  24.145  1.00  0.00    -0.167 F 
ATOM     24  F   UNL A   1      47.224  24.705  24.620  1.00  0.00    -0.167 F 
ATOM     25  F   UNL A   1      46.981  22.717  23.756  1.00  0.00    -0.167 F 
ENDBRANCH  16  22
ENDBRANCH   4   6
ENDBRANCH   3   4
ENDBRANCH   2   3
ENDBRANCH   1   2
BRANCH   1  26
ATOM     26  O   UNL A   1      42.410  18.250  25.742  1.00  0.00    -0.374 OA
BRANCH  26  27
ATOM     27  C   UNL A   1      41.513  18.932  26.618  1.00  0.00     0.202 C 
BRANCH  27  28
ATOM     28  C   UNL A   1      40.426  19.822  26.001  1.00  0.00     0.261 C 
BRANCH  28  29
ATOM     29  O   UNL A   1      39.953  20.833  26.908  1.00  0.00    -0.460 OA
BRANCH  29  30
ATOM     30  C   UNL A   1      39.241  21.831  26.332  1.00  0.00     0.338 C 
ATOM     31  O   UNL A   1      38.211  21.732  25.682  1.00  0.00    -0.246 OA
BRANCH  30  32
ATOM     32  C   UNL A   1      39.779  23.128  26.780  1.00  0.00     0.060 A 
ATOM     33  C   UNL A   1      40.614  23.216  27.894  1.00  0.00     0.016 A 
ATOM     34  C   UNL A   1      39.465  24.269  26.031  1.00  0.00     0.016 A 
ATOM     35  C   UNL A   1      41.157  24.454  28.243  1.00  0.00     0.010 A 
ATOM     36  C   UNL A   1      40.002  25.506  26.386  1.00  0.00     0.010 A 
ATOM     37  C   UNL A   1      40.870  25.603  27.482  1.00  0.00    -0.014 A 
BRANCH  37  38
ATOM     38  C   UNL A   1      41.581  26.876  27.744  1.00  0.00     0.031 A 
ATOM     39  C   UNL A   1      40.937  27.992  28.510  1.00  0.00     0.074 A 
ATOM     40  C   UNL A   1      42.823  27.028  27.244  1.00  0.00     0.049 A 
ATOM     41  N   UNL A   1      41.432  29.161  28.834  1.00  0.00    -0.248 NA
ATOM     42  C   UNL A   1      39.558  27.773  28.967  1.00  0.00     0.031 C 
ATOM     43  C   UNL A   1      43.535  26.021  26.458  1.00  0.00     0.029 A 
ATOM     44  N   UNL A   1      43.702  28.077  27.320  1.00  0.00    -0.354 N 
ATOM     45  C   UNL A   1      40.437  29.808  29.551  1.00  0.00     0.074 A 
ATOM     46  C   UNL A   1      39.290  28.923  29.572  1.00  0.00     0.031 C 
ATOM     47  C   UNL A   1      44.753  26.489  26.147  1.00  0.00     0.029 A 
ATOM     48  C   UNL A   1      44.891  27.843  26.678  1.00  0.00     0.049 A 
ATOM     49  H   UNL A   1      43.499  28.919  27.791  1.00  0.00     0.167 HD
ATOM     50  C   UNL A   1      40.488  31.023  30.150  1.00  0.00     0.037 A 
ATOM     51  C   UNL A   1      45.974  28.630  26.529  1.00  0.00     0.037 A 
ATOM     52  C   UNL A   1      41.628  31.907  30.105  1.00  0.00     0.049 A 
ATOM     53  C   UNL A   1      45.979  29.996  27.156  1.00  0.00     0.074 A 
ATOM     54  C   UNL A   1      41.779  33.148  30.700  1.00  0.00     0.029 A 
ATOM     55  N   UNL A   1      42.807  31.651  29.419  1.00  0.00    -0.354 N 
ATOM     56  N   UNL A   1      45.056  30.577  27.882  1.00  0.00    -0.248 NA
ATOM     57  C   UNL A   1      47.183  30.814  26.949  1.00  0.00     0.031 C 
ATOM     58  C   UNL A   1      43.022  33.667  30.326  1.00  0.00     0.029 A 
ATOM     59  C   UNL A   1      43.678  32.722  29.554  1.00  0.00     0.049 A 
ATOM     60  H   UNL A   1      42.997  30.830  28.910  1.00  0.00     0.167 HD
ATOM     61  C   UNL A   1      45.575  31.814  28.242  1.00  0.00     0.074 A 
ATOM     62  C   UNL A   1      46.902  31.891  27.669  1.00  0.00     0.031 C 
ATOM     63  C   UNL A   1      44.999  32.794  28.982  1.00  0.00     0.037 A 
BRANCH  50  64
ATOM     64  C   UNL A   1      39.281  31.478  30.921  1.00  0.00     0.064 A 
ATOM     65  C   UNL A   1      38.259  32.218  30.308  1.00  0.00     0.173 A 
ATOM     66  C   UNL A   1      39.099  31.094  32.259  1.00  0.00     0.173 A 
ATOM     67  F   UNL A   1      38.386  32.616  29.032  1.00  0.00    -0.203 F 
ATOM     68  C   UNL A   1      37.107  32.568  31.008  1.00  0.00     0.198 A 
ATOM     69  C   UNL A   1      37.933  31.420  32.947  1.00  0.00     0.198 A 
ATOM     70  F   UNL A   1      40.041  30.378  32.892  1.00  0.00    -0.203 F 
ATOM     71  F   UNL A   1      36.158  33.300  30.409  1.00  0.00    -0.200 F 
ATOM     72  C   UNL A   1      36.939  32.159  32.322  1.00  0.00     0.200 A 
ATOM     73  F   UNL A   1      37.765  31.007  34.211  1.00  0.00    -0.200 F 
ATOM     74  F   UNL A   1      35.820  32.476  32.987  1.00  0.00    -0.200 F 
ENDBRANCH  50  64
BRANCH  51  75
ATOM     75  C   UNL A   1      47.153  28.121  25.784  1.00  0.00     0.064 A 
ATOM     76  C   UNL A   1      48.287  27.656  26.464  1.00  0.00     0.173 A 
ATOM     77  C   UNL A   1      47.164  28.063  24.382  1.00  0.00     0.173 A 
ATOM     78  F   UNL A   1      48.332  27.708  27.804  1.00  0.00    -0.203 F 
ATOM     79  C   UNL A   1      49.390  27.163  25.772  1.00  0.00     0.198 A 
ATOM     80  C   UNL A   1      48.255  27.541  23.692  1.00  0.00     0.198 A 
ATOM     81  F   UNL A   1      46.102  28.492  23.684  1.00  0.00    -0.203 F 
ATOM     82  F   UNL A   1      50.476  26.759  26.446  1.00  0.00    -0.200 F 
ATOM     83  C   UNL A   1      49.370  27.098  24.387  1.00  0.00     0.200 A 
ATOM     84  F   UNL A   1      48.224  27.462  22.355  1.00  0.00    -0.200 F 
ATOM     85  F   UNL A   1      50.426  26.609  23.722  1.00  0.00    -0.200 F 
ENDBRANCH  51  75
BRANCH  63  86
ATOM     86  C   UNL A   1      45.812  34.032  29.245  1.00  0.00     0.064 A 
ATOM     87  C   UNL A   1      46.680  34.126  30.342  1.00  0.00     0.173 A 
ATOM     88  C   UNL A   1      45.758  35.119  28.357  1.00  0.00     0.173 A 
ATOM     89  F   UNL A   1      46.761  33.122  31.228  1.00  0.00    -0.203 F 
ATOM     90  C   UNL A   1      47.442  35.273  30.557  1.00  0.00     0.198 A 
ATOM     91  C   UNL A   1      46.547  36.248  28.555  1.00  0.00     0.198 A 
ATOM     92  F   UNL A   1      44.951  35.078  27.286  1.00  0.00    -0.203 F 
ATOM     93  F   UNL A   1      48.226  35.361  31.641  1.00  0.00    -0.200 F 
ATOM     94  C   UNL A   1      47.383  36.328  29.659  1.00  0.00     0.200 A 
ATOM     95  F   UNL A   1      46.502  37.259  27.676  1.00  0.00    -0.200 F 
ATOM     96  F   UNL A   1      48.126  37.424  29.861  1.00  0.00    -0.200 F 
ENDBRANCH  63  86
ENDBRANCH  37  38
ENDBRANCH  30  32
ENDBRANCH  29  30
ENDBRANCH  28  29
ENDBRANCH  27  28
ENDBRANCH  26  27
ENDBRANCH   1  26
TORSDOF 18
ENDMDL
