MODEL 1
REMARK VINA RESULT:     -11.5      0.000      0.000
REMARK SMILES O=C(OCCOCCOC(=O)c1cc(Br)ccc1NC(=O)c1ccc(Br)s1)c1ccc(-c2c3nc(c(-c4c(F)c(F)c(F)c(F)c4F)c4ccc([nH]4)c(-c4c(F)c(F)c(F)c(F)c4F)c4nc(c(-c5c(F)c(F)c(F)c(F)c5F)c5ccc2[nH]5)C=C4)C=C3)cc1
REMARK SMILES IDX 6 1 5 2 4 3 3 4 2 5 1 6 28 7 29 8 90 9 30 10 89 11 31 12
REMARK SMILES IDX 32 13 33 14 83 15 34 16 88 17 82 18 84 19 35 20 87 21 81 22
REMARK SMILES IDX 80 23 36 25 68 26 48 27 67 28 49 29 52 30 66 31 85 32 50 33
REMARK SMILES IDX 51 34 65 36 86 37 53 38 37 39 38 40 46 41 39 42 40 43 44 44
REMARK SMILES IDX 47 45 41 46 42 47 45 48 43 49 69 50 70 51 78 52 71 53 72 54
REMARK SMILES IDX 76 55 79 56 73 57 74 58 77 59 75 60 54 61 55 62 63 63 56 64
REMARK SMILES IDX 57 65 61 66 64 67 58 68 59 69 62 70 60 71 7 72 8 73 9 74
REMARK SMILES IDX 10 75 11 76 12 77 13 78 18 79 14 80 17 81 15 82 16 83 19 84
REMARK SMILES IDX 20 85 21 87 22 88 23 89 27 90 24 91 25 92 26 93
REMARK H PARENT 84 24 52 35 19 86
REMARK Flexibility Score: inf
ROOT
ATOM      1  O   UNL A   1      33.195  30.853  26.663  1.00  0.00    -0.374 OA
ENDROOT
BRANCH   1   2
ATOM      2  C   UNL A   1      31.839  31.248  26.474  1.00  0.00     0.202 C 
BRANCH   2   3
ATOM      3  C   UNL A   1      31.417  32.492  27.251  1.00  0.00     0.261 C 
BRANCH   3   4
ATOM      4  O   UNL A   1      32.448  33.486  27.181  1.00  0.00    -0.460 OA
BRANCH   4   5
ATOM      5  C   UNL A   1      33.063  34.095  28.218  1.00  0.00     0.338 C 
ATOM      6  O   UNL A   1      32.550  35.097  28.712  1.00  0.00    -0.246 OA
BRANCH   5   7
ATOM      7  C   UNL A   1      34.336  33.600  28.820  1.00  0.00     0.060 A 
ATOM      8  C   UNL A   1      35.577  34.229  28.688  1.00  0.00     0.016 A 
ATOM      9  C   UNL A   1      34.242  32.491  29.672  1.00  0.00     0.016 A 
ATOM     10  C   UNL A   1      36.702  33.766  29.350  1.00  0.00     0.010 A 
ATOM     11  C   UNL A   1      35.361  32.034  30.369  1.00  0.00     0.010 A 
ATOM     12  C   UNL A   1      36.593  32.678  30.204  1.00  0.00    -0.014 A 
BRANCH  12  13
ATOM     13  C   UNL A   1      37.808  32.177  30.857  1.00  0.00     0.031 A 
ATOM     14  C   UNL A   1      38.618  31.154  30.141  1.00  0.00     0.074 A 
ATOM     15  C   UNL A   1      38.186  32.694  32.037  1.00  0.00     0.049 A 
ATOM     16  N   UNL A   1      39.615  30.434  30.573  1.00  0.00    -0.248 NA
ATOM     17  C   UNL A   1      38.252  30.908  28.737  1.00  0.00     0.031 C 
ATOM     18  C   UNL A   1      37.512  33.796  32.727  1.00  0.00     0.029 A 
ATOM     19  N   UNL A   1      39.224  32.364  32.863  1.00  0.00    -0.354 N 
ATOM     20  C   UNL A   1      39.963  29.613  29.511  1.00  0.00     0.074 A 
ATOM     21  C   UNL A   1      39.084  29.934  28.409  1.00  0.00     0.031 C 
ATOM     22  C   UNL A   1      38.148  34.042  33.883  1.00  0.00     0.029 A 
ATOM     23  C   UNL A   1      39.219  33.064  34.044  1.00  0.00     0.049 A 
ATOM     24  H   UNL A   1      39.906  31.692  32.634  1.00  0.00     0.167 HD
ATOM     25  C   UNL A   1      40.919  28.658  29.490  1.00  0.00     0.037 A 
ATOM     26  C   UNL A   1      39.960  32.878  35.151  1.00  0.00     0.037 A 
ATOM     27  C   UNL A   1      41.765  28.379  30.619  1.00  0.00     0.049 A 
ATOM     28  C   UNL A   1      40.971  31.765  35.137  1.00  0.00     0.074 A 
ATOM     29  C   UNL A   1      42.735  27.408  30.761  1.00  0.00     0.029 A 
ATOM     30  N   UNL A   1      41.723  29.089  31.815  1.00  0.00    -0.354 N 
ATOM     31  N   UNL A   1      41.255  30.926  34.167  1.00  0.00    -0.248 NA
ATOM     32  C   UNL A   1      41.751  31.555  36.361  1.00  0.00     0.031 C 
ATOM     33  C   UNL A   1      43.250  27.503  32.061  1.00  0.00     0.029 A 
ATOM     34  C   UNL A   1      42.639  28.568  32.710  1.00  0.00     0.049 A 
ATOM     35  H   UNL A   1      41.128  29.853  31.998  1.00  0.00     0.167 HD
ATOM     36  C   UNL A   1      42.254  30.097  34.653  1.00  0.00     0.074 A 
ATOM     37  C   UNL A   1      42.532  30.543  36.007  1.00  0.00     0.031 C 
ATOM     38  C   UNL A   1      42.884  29.062  34.044  1.00  0.00     0.037 A 
BRANCH  25  39
ATOM     39  C   UNL A   1      40.999  27.809  28.256  1.00  0.00     0.064 A 
ATOM     40  C   UNL A   1      40.312  26.591  28.137  1.00  0.00     0.173 A 
ATOM     41  C   UNL A   1      41.849  28.185  27.204  1.00  0.00     0.173 A 
ATOM     42  F   UNL A   1      39.509  26.170  29.126  1.00  0.00    -0.203 F 
ATOM     43  C   UNL A   1      40.516  25.758  27.038  1.00  0.00     0.198 A 
ATOM     44  C   UNL A   1      42.026  27.365  26.093  1.00  0.00     0.198 A 
ATOM     45  F   UNL A   1      42.535  29.337  27.267  1.00  0.00    -0.203 F 
ATOM     46  F   UNL A   1      39.916  24.560  26.987  1.00  0.00    -0.200 F 
ATOM     47  C   UNL A   1      41.372  26.145  26.019  1.00  0.00     0.200 A 
ATOM     48  F   UNL A   1      42.853  27.742  25.108  1.00  0.00    -0.200 F 
ATOM     49  F   UNL A   1      41.585  25.333  24.974  1.00  0.00    -0.200 F 
ENDBRANCH  25  39
BRANCH  26  50
ATOM     50  C   UNL A   1      39.713  33.720  36.351  1.00  0.00     0.064 A 
ATOM     51  C   UNL A   1      40.278  34.994  36.480  1.00  0.00     0.173 A 
ATOM     52  C   UNL A   1      38.851  33.287  37.373  1.00  0.00     0.173 A 
ATOM     53  F   UNL A   1      41.123  35.449  35.542  1.00  0.00    -0.203 F 
ATOM     54  C   UNL A   1      39.991  35.803  37.579  1.00  0.00     0.198 A 
ATOM     55  C   UNL A   1      38.542  34.106  38.457  1.00  0.00     0.198 A 
ATOM     56  F   UNL A   1      38.279  32.075  37.301  1.00  0.00    -0.203 F 
ATOM     57  F   UNL A   1      40.562  37.010  37.687  1.00  0.00    -0.200 F 
ATOM     58  C   UNL A   1      39.114  35.363  38.560  1.00  0.00     0.200 A 
ATOM     59  F   UNL A   1      37.680  33.682  39.392  1.00  0.00    -0.200 F 
ATOM     60  F   UNL A   1      38.823  36.150  39.605  1.00  0.00    -0.200 F 
ENDBRANCH  26  50
BRANCH  38  61
ATOM     61  C   UNL A   1      43.962  28.371  34.820  1.00  0.00     0.064 A 
ATOM     62  C   UNL A   1      45.281  28.844  34.820  1.00  0.00     0.173 A 
ATOM     63  C   UNL A   1      43.643  27.288  35.652  1.00  0.00     0.173 A 
ATOM     64  F   UNL A   1      45.632  29.868  34.028  1.00  0.00    -0.203 F 
ATOM     65  C   UNL A   1      46.247  28.252  35.628  1.00  0.00     0.198 A 
ATOM     66  C   UNL A   1      44.604  26.717  36.476  1.00  0.00     0.198 A 
ATOM     67  F   UNL A   1      42.390  26.809  35.686  1.00  0.00    -0.203 F 
ATOM     68  F   UNL A   1      47.508  28.704  35.602  1.00  0.00    -0.200 F 
ATOM     69  C   UNL A   1      45.905  27.198  36.464  1.00  0.00     0.200 A 
ATOM     70  F   UNL A   1      44.269  25.710  37.295  1.00  0.00    -0.200 F 
ATOM     71  F   UNL A   1      46.830  26.647  37.260  1.00  0.00    -0.200 F 
ENDBRANCH  38  61
ENDBRANCH  12  13
ENDBRANCH   5   7
ENDBRANCH   4   5
ENDBRANCH   3   4
ENDBRANCH   2   3
ENDBRANCH   1   2
BRANCH   1  72
ATOM     72  C   UNL A   1      33.420  29.775  27.574  1.00  0.00     0.202 C 
BRANCH  72  73
ATOM     73  C   UNL A   1      34.145  28.654  26.822  1.00  0.00     0.261 C 
BRANCH  73  74
ATOM     74  O   UNL A   1      33.216  28.026  25.920  1.00  0.00    -0.460 OA
BRANCH  74  75
ATOM     75  C   UNL A   1      32.084  27.516  26.476  1.00  0.00     0.340 C 
ATOM     76  O   UNL A   1      31.804  27.429  27.654  1.00  0.00    -0.246 OA
BRANCH  75  77
ATOM     77  C   UNL A   1      31.113  27.306  25.372  1.00  0.00     0.084 A 
ATOM     78  C   UNL A   1      31.049  28.278  24.359  1.00  0.00     0.033 A 
ATOM     79  C   UNL A   1      30.191  26.235  25.418  1.00  0.00     0.056 A 
ATOM     80  C   UNL A   1      30.024  28.230  23.423  1.00  0.00     0.018 A 
ATOM     81  C   UNL A   1      29.129  26.265  24.507  1.00  0.00     0.028 A 
ATOM     82  Br  UNL A   1      29.920  29.546  22.076  1.00  0.00    -0.051 Br
ATOM     83  C   UNL A   1      29.050  27.245  23.509  1.00  0.00     0.018 A 
BRANCH  79  84
ATOM     84  N   UNL A   1      30.309  25.245  26.426  1.00  0.00    -0.320 N 
ATOM     85  C   UNL A   1      30.792  23.948  26.421  1.00  0.00     0.265 C 
ATOM     86  H   UNL A   1      29.982  25.538  27.306  1.00  0.00     0.170 HD
ATOM     87  O   UNL A   1      30.360  23.178  27.281  1.00  0.00    -0.268 OA
BRANCH  85  88
ATOM     88  C   UNL A   1      31.811  23.563  25.466  1.00  0.00     0.093 A 
ATOM     89  C   UNL A   1      31.663  22.920  24.249  1.00  0.00     0.027 A 
ATOM     90  S   UNL A   1      33.454  23.945  25.778  1.00  0.00    -0.123 S 
ATOM     91  C   UNL A   1      32.917  22.656  23.621  1.00  0.00     0.028 A 
ATOM     92  C   UNL A   1      33.956  23.152  24.367  1.00  0.00     0.071 A 
ATOM     93  Br  UNL A   1      35.755  22.973  23.877  1.00  0.00    -0.039 Br
ENDBRANCH  85  88
ENDBRANCH  79  84
ENDBRANCH  75  77
ENDBRANCH  74  75
ENDBRANCH  73  74
ENDBRANCH  72  73
ENDBRANCH   1  72
TORSDOF 16
ENDMDL
MODEL 2
REMARK VINA RESULT:     -11.4      4.659     10.047
REMARK SMILES O=C(OCCOCCOC(=O)c1cc(Br)ccc1NC(=O)c1ccc(Br)s1)c1ccc(-c2c3nc(c(-c4c(F)c(F)c(F)c(F)c4F)c4ccc([nH]4)c(-c4c(F)c(F)c(F)c(F)c4F)c4nc(c(-c5c(F)c(F)c(F)c(F)c5F)c5ccc2[nH]5)C=C4)C=C3)cc1
REMARK SMILES IDX 6 1 5 2 4 3 3 4 2 5 1 6 28 7 29 8 90 9 30 10 89 11 31 12
REMARK SMILES IDX 32 13 33 14 83 15 34 16 88 17 82 18 84 19 35 20 87 21 81 22
REMARK SMILES IDX 80 23 36 25 68 26 48 27 67 28 49 29 52 30 66 31 85 32 50 33
REMARK SMILES IDX 51 34 65 36 86 37 53 38 37 39 38 40 46 41 39 42 40 43 44 44
REMARK SMILES IDX 47 45 41 46 42 47 45 48 43 49 69 50 70 51 78 52 71 53 72 54
REMARK SMILES IDX 76 55 79 56 73 57 74 58 77 59 75 60 54 61 55 62 63 63 56 64
REMARK SMILES IDX 57 65 61 66 64 67 58 68 59 69 62 70 60 71 7 72 8 73 9 74
REMARK SMILES IDX 10 75 11 76 12 77 13 78 18 79 14 80 17 81 15 82 16 83 19 84
REMARK SMILES IDX 20 85 21 87 22 88 23 89 27 90 24 91 25 92 26 93
REMARK H PARENT 84 24 52 35 19 86
REMARK Flexibility Score: inf
ROOT
ATOM      1  O   UNL A   1      35.229  22.857  25.074  1.00  0.00    -0.374 OA
ENDROOT
BRANCH   1   2
ATOM      2  C   UNL A   1      35.240  21.489  24.674  1.00  0.00     0.202 C 
BRANCH   2   3
ATOM      3  C   UNL A   1      36.539  20.744  24.968  1.00  0.00     0.261 C 
BRANCH   3   4
ATOM      4  O   UNL A   1      37.284  21.437  25.978  1.00  0.00    -0.460 OA
BRANCH   4   5
ATOM      5  C   UNL A   1      38.627  21.469  26.121  1.00  0.00     0.338 C 
ATOM      6  O   UNL A   1      39.270  20.435  25.956  1.00  0.00    -0.246 OA
BRANCH   5   7
ATOM      7  C   UNL A   1      39.385  22.711  26.451  1.00  0.00     0.060 A 
ATOM      8  C   UNL A   1      39.034  23.996  26.024  1.00  0.00     0.016 A 
ATOM      9  C   UNL A   1      40.453  22.580  27.350  1.00  0.00     0.016 A 
ATOM     10  C   UNL A   1      39.730  25.117  26.444  1.00  0.00     0.010 A 
ATOM     11  C   UNL A   1      41.142  23.705  27.804  1.00  0.00     0.010 A 
ATOM     12  C   UNL A   1      40.774  24.976  27.347  1.00  0.00    -0.014 A 
BRANCH  12  13
ATOM     13  C   UNL A   1      41.526  26.173  27.740  1.00  0.00     0.031 A 
ATOM     14  C   UNL A   1      40.839  27.184  28.591  1.00  0.00     0.074 A 
ATOM     15  C   UNL A   1      42.815  26.293  27.383  1.00  0.00     0.049 A 
ATOM     16  N   UNL A   1      41.218  28.389  28.917  1.00  0.00    -0.248 NA
ATOM     17  C   UNL A   1      39.542  26.780  29.154  1.00  0.00     0.031 C 
ATOM     18  C   UNL A   1      43.587  25.274  26.667  1.00  0.00     0.029 A 
ATOM     19  N   UNL A   1      43.700  27.318  27.570  1.00  0.00    -0.354 N 
ATOM     20  C   UNL A   1      40.182  28.905  29.681  1.00  0.00     0.074 A 
ATOM     21  C   UNL A   1      39.168  27.880  29.786  1.00  0.00     0.031 C 
ATOM     22  C   UNL A   1      44.831  25.734  26.463  1.00  0.00     0.029 A 
ATOM     23  C   UNL A   1      44.912  27.102  26.962  1.00  0.00     0.049 A 
ATOM     24  H   UNL A   1      43.490  28.127  28.088  1.00  0.00     0.167 HD
ATOM     25  C   UNL A   1      40.094  30.144  30.215  1.00  0.00     0.037 A 
ATOM     26  C   UNL A   1      45.939  27.951  26.778  1.00  0.00     0.037 A 
ATOM     27  C   UNL A   1      41.134  31.126  30.076  1.00  0.00     0.049 A 
ATOM     28  C   UNL A   1      45.796  29.348  27.317  1.00  0.00     0.074 A 
ATOM     29  C   UNL A   1      41.160  32.435  30.514  1.00  0.00     0.029 A 
ATOM     30  N   UNL A   1      42.346  30.890  29.433  1.00  0.00    -0.354 N 
ATOM     31  N   UNL A   1      44.787  29.877  27.971  1.00  0.00    -0.248 NA
ATOM     32  C   UNL A   1      46.911  30.271  27.083  1.00  0.00     0.031 C 
ATOM     33  C   UNL A   1      42.371  33.003  30.097  1.00  0.00     0.029 A 
ATOM     34  C   UNL A   1      43.122  32.033  29.447  1.00  0.00     0.049 A 
ATOM     35  H   UNL A   1      42.612  30.032  29.028  1.00  0.00     0.167 HD
ATOM     36  C   UNL A   1      45.147  31.188  28.242  1.00  0.00     0.074 A 
ATOM     37  C   UNL A   1      46.475  31.370  27.685  1.00  0.00     0.031 C 
ATOM     38  C   UNL A   1      44.448  32.154  28.888  1.00  0.00     0.037 A 
BRANCH  25  39
ATOM     39  C   UNL A   1      38.798  30.500  30.881  1.00  0.00     0.064 A 
ATOM     40  C   UNL A   1      37.688  30.968  30.162  1.00  0.00     0.173 A 
ATOM     41  C   UNL A   1      38.698  30.453  32.281  1.00  0.00     0.173 A 
ATOM     42  F   UNL A   1      37.740  31.061  28.825  1.00  0.00    -0.203 F 
ATOM     43  C   UNL A   1      36.547  31.424  30.821  1.00  0.00     0.198 A 
ATOM     44  C   UNL A   1      37.545  30.880  32.934  1.00  0.00     0.198 A 
ATOM     45  F   UNL A   1      39.731  30.020  33.019  1.00  0.00    -0.203 F 
ATOM     46  F   UNL A   1      35.533  31.946  30.118  1.00  0.00    -0.200 F 
ATOM     47  C   UNL A   1      36.478  31.380  32.205  1.00  0.00     0.200 A 
ATOM     48  F   UNL A   1      37.480  30.835  34.272  1.00  0.00    -0.200 F 
ATOM     49  F   UNL A   1      35.390  31.840  32.839  1.00  0.00    -0.200 F 
ENDBRANCH  25  39
BRANCH  26  50
ATOM     50  C   UNL A   1      47.129  27.509  26.006  1.00  0.00     0.064 A 
ATOM     51  C   UNL A   1      47.194  27.653  24.615  1.00  0.00     0.173 A 
ATOM     52  C   UNL A   1      48.259  26.984  26.656  1.00  0.00     0.173 A 
ATOM     53  F   UNL A   1      46.136  28.132  23.942  1.00  0.00    -0.203 F 
ATOM     54  C   UNL A   1      48.339  27.294  23.905  1.00  0.00     0.198 A 
ATOM     55  C   UNL A   1      49.413  26.652  25.949  1.00  0.00     0.198 A 
ATOM     56  F   UNL A   1      48.254  26.826  27.988  1.00  0.00    -0.203 F 
ATOM     57  F   UNL A   1      48.365  27.423  22.571  1.00  0.00    -0.200 F 
ATOM     58  C   UNL A   1      49.452  26.805  24.574  1.00  0.00     0.200 A 
ATOM     59  F   UNL A   1      50.491  26.198  26.604  1.00  0.00    -0.200 F 
ATOM     60  F   UNL A   1      50.559  26.481  23.892  1.00  0.00    -0.200 F 
ENDBRANCH  26  50
BRANCH  38  61
ATOM     61  C   UNL A   1      45.123  33.479  29.063  1.00  0.00     0.064 A 
ATOM     62  C   UNL A   1      45.977  33.728  30.145  1.00  0.00     0.173 A 
ATOM     63  C   UNL A   1      44.991  34.469  28.077  1.00  0.00     0.173 A 
ATOM     64  F   UNL A   1      46.120  32.814  31.117  1.00  0.00    -0.203 F 
ATOM     65  C   UNL A   1      46.677  34.927  30.235  1.00  0.00     0.198 A 
ATOM     66  C   UNL A   1      45.712  35.653  28.158  1.00  0.00     0.198 A 
ATOM     67  F   UNL A   1      44.189  34.267  27.021  1.00  0.00    -0.203 F 
ATOM     68  F   UNL A   1      47.475  35.157  31.287  1.00  0.00    -0.200 F 
ATOM     69  C   UNL A   1      46.554  35.883  29.236  1.00  0.00     0.200 A 
ATOM     70  F   UNL A   1      45.604  36.569  27.185  1.00  0.00    -0.200 F 
ATOM     71  F   UNL A   1      47.248  37.025  29.313  1.00  0.00    -0.200 F 
ENDBRANCH  38  61
ENDBRANCH  12  13
ENDBRANCH   5   7
ENDBRANCH   4   5
ENDBRANCH   3   4
ENDBRANCH   2   3
ENDBRANCH   1   2
BRANCH   1  72
ATOM     72  C   UNL A   1      35.088  23.821  24.029  1.00  0.00     0.202 C 
BRANCH  72  73
ATOM     73  C   UNL A   1      33.637  23.789  23.538  1.00  0.00     0.261 C 
BRANCH  73  74
ATOM     74  O   UNL A   1      32.909  24.852  24.178  1.00  0.00    -0.460 OA
BRANCH  74  75
ATOM     75  C   UNL A   1      33.200  26.117  23.769  1.00  0.00     0.340 C 
ATOM     76  O   UNL A   1      33.500  26.492  22.654  1.00  0.00    -0.246 OA
BRANCH  75  77
ATOM     77  C   UNL A   1      32.835  27.029  24.883  1.00  0.00     0.084 A 
ATOM     78  C   UNL A   1      33.867  27.746  25.513  1.00  0.00     0.033 A 
ATOM     79  C   UNL A   1      31.511  27.066  25.379  1.00  0.00     0.056 A 
ATOM     80  C   UNL A   1      33.605  28.448  26.681  1.00  0.00     0.018 A 
ATOM     81  C   UNL A   1      31.302  27.719  26.599  1.00  0.00     0.028 A 
ATOM     82  Br  UNL A   1      34.993  29.391  27.543  1.00  0.00    -0.051 Br
ATOM     83  C   UNL A   1      32.335  28.416  27.240  1.00  0.00     0.018 A 
BRANCH  79  84
ATOM     84  N   UNL A   1      30.482  26.370  24.696  1.00  0.00    -0.320 N 
ATOM     85  C   UNL A   1      29.428  26.788  23.903  1.00  0.00     0.265 C 
ATOM     86  H   UNL A   1      30.526  25.393  24.808  1.00  0.00     0.170 HD
ATOM     87  O   UNL A   1      28.446  26.047  23.826  1.00  0.00    -0.268 OA
BRANCH  85  88
ATOM     88  C   UNL A   1      29.534  28.026  23.157  1.00  0.00     0.093 A 
ATOM     89  C   UNL A   1      30.599  28.505  22.415  1.00  0.00     0.027 A 
ATOM     90  S   UNL A   1      28.194  29.095  23.095  1.00  0.00    -0.123 S 
ATOM     91  C   UNL A   1      30.343  29.800  21.876  1.00  0.00     0.028 A 
ATOM     92  C   UNL A   1      29.078  30.226  22.193  1.00  0.00     0.071 A 
ATOM     93  Br  UNL A   1      28.391  31.892  21.682  1.00  0.00    -0.039 Br
ENDBRANCH  85  88
ENDBRANCH  79  84
ENDBRANCH  75  77
ENDBRANCH  74  75
ENDBRANCH  73  74
ENDBRANCH  72  73
ENDBRANCH   1  72
TORSDOF 16
ENDMDL
MODEL 3
REMARK VINA RESULT:     -11.4      2.306      3.761
REMARK SMILES O=C(OCCOCCOC(=O)c1cc(Br)ccc1NC(=O)c1ccc(Br)s1)c1ccc(-c2c3nc(c(-c4c(F)c(F)c(F)c(F)c4F)c4ccc([nH]4)c(-c4c(F)c(F)c(F)c(F)c4F)c4nc(c(-c5c(F)c(F)c(F)c(F)c5F)c5ccc2[nH]5)C=C4)C=C3)cc1
REMARK SMILES IDX 6 1 5 2 4 3 3 4 2 5 1 6 28 7 29 8 90 9 30 10 89 11 31 12
REMARK SMILES IDX 32 13 33 14 83 15 34 16 88 17 82 18 84 19 35 20 87 21 81 22
REMARK SMILES IDX 80 23 36 25 68 26 48 27 67 28 49 29 52 30 66 31 85 32 50 33
REMARK SMILES IDX 51 34 65 36 86 37 53 38 37 39 38 40 46 41 39 42 40 43 44 44
REMARK SMILES IDX 47 45 41 46 42 47 45 48 43 49 69 50 70 51 78 52 71 53 72 54
REMARK SMILES IDX 76 55 79 56 73 57 74 58 77 59 75 60 54 61 55 62 63 63 56 64
REMARK SMILES IDX 57 65 61 66 64 67 58 68 59 69 62 70 60 71 7 72 8 73 9 74
REMARK SMILES IDX 10 75 11 76 12 77 13 78 18 79 14 80 17 81 15 82 16 83 19 84
REMARK SMILES IDX 20 85 21 87 22 88 23 89 27 90 24 91 25 92 26 93
REMARK H PARENT 84 24 52 35 19 86
REMARK Flexibility Score: inf
ROOT
ATOM      1  O   UNL A   1      32.569  28.556  23.906  1.00  0.00    -0.374 OA
ENDROOT
BRANCH   1   2
ATOM      2  C   UNL A   1      31.450  29.298  24.383  1.00  0.00     0.202 C 
BRANCH   2   3
ATOM      3  C   UNL A   1      31.621  29.891  25.779  1.00  0.00     0.261 C 
BRANCH   3   4
ATOM      4  O   UNL A   1      32.941  30.429  25.926  1.00  0.00    -0.460 OA
BRANCH   4   5
ATOM      5  C   UNL A   1      33.388  31.232  26.916  1.00  0.00     0.338 C 
ATOM      6  O   UNL A   1      32.708  32.199  27.253  1.00  0.00    -0.246 OA
BRANCH   5   7
ATOM      7  C   UNL A   1      34.666  30.995  27.648  1.00  0.00     0.060 A 
ATOM      8  C   UNL A   1      35.605  31.985  27.954  1.00  0.00     0.016 A 
ATOM      9  C   UNL A   1      34.870  29.706  28.163  1.00  0.00     0.016 A 
ATOM     10  C   UNL A   1      36.727  31.713  28.718  1.00  0.00     0.010 A 
ATOM     11  C   UNL A   1      35.981  29.427  28.959  1.00  0.00     0.010 A 
ATOM     12  C   UNL A   1      36.910  30.438  29.236  1.00  0.00    -0.014 A 
BRANCH  12  13
ATOM     13  C   UNL A   1      38.130  30.162  30.002  1.00  0.00     0.031 A 
ATOM     14  C   UNL A   1      39.168  29.295  29.379  1.00  0.00     0.074 A 
ATOM     15  C   UNL A   1      38.305  30.742  31.200  1.00  0.00     0.049 A 
ATOM     16  N   UNL A   1      40.234  28.765  29.910  1.00  0.00    -0.248 NA
ATOM     17  C   UNL A   1      38.978  28.983  27.953  1.00  0.00     0.031 C 
ATOM     18  C   UNL A   1      37.389  31.711  31.807  1.00  0.00     0.029 A 
ATOM     19  N   UNL A   1      39.307  30.603  32.120  1.00  0.00    -0.354 N 
ATOM     20  C   UNL A   1      40.814  28.014  28.899  1.00  0.00     0.074 A 
ATOM     21  C   UNL A   1      39.995  28.171  27.719  1.00  0.00     0.031 C 
ATOM     22  C   UNL A   1      37.866  32.069  33.009  1.00  0.00     0.029 A 
ATOM     23  C   UNL A   1      39.073  31.296  33.282  1.00  0.00     0.049 A 
ATOM     24  H   UNL A   1      40.114  30.063  31.964  1.00  0.00     0.167 HD
ATOM     25  C   UNL A   1      41.922  27.243  28.980  1.00  0.00     0.037 A 
ATOM     26  C   UNL A   1      39.733  31.248  34.453  1.00  0.00     0.037 A 
ATOM     27  C   UNL A   1      42.698  27.122  30.184  1.00  0.00     0.049 A 
ATOM     28  C   UNL A   1      40.922  30.332  34.549  1.00  0.00     0.074 A 
ATOM     29  C   UNL A   1      43.808  26.339  30.429  1.00  0.00     0.029 A 
ATOM     30  N   UNL A   1      42.426  27.818  31.358  1.00  0.00    -0.354 N 
ATOM     31  N   UNL A   1      41.434  29.552  33.624  1.00  0.00    -0.248 NA
ATOM     32  C   UNL A   1      41.613  30.267  35.840  1.00  0.00     0.031 C 
ATOM     33  C   UNL A   1      44.179  26.528  31.766  1.00  0.00     0.029 A 
ATOM     34  C   UNL A   1      43.335  27.470  32.339  1.00  0.00     0.049 A 
ATOM     35  H   UNL A   1      41.691  28.465  31.473  1.00  0.00     0.167 HD
ATOM     36  C   UNL A   1      42.516  28.915  34.211  1.00  0.00     0.074 A 
ATOM     37  C   UNL A   1      42.588  29.407  35.575  1.00  0.00     0.031 C 
ATOM     38  C   UNL A   1      43.370  28.005  33.679  1.00  0.00     0.037 A 
BRANCH  25  39
ATOM     39  C   UNL A   1      42.259  26.418  27.774  1.00  0.00     0.064 A 
ATOM     40  C   UNL A   1      41.705  25.147  27.555  1.00  0.00     0.173 A 
ATOM     41  C   UNL A   1      43.223  26.875  26.862  1.00  0.00     0.173 A 
ATOM     42  F   UNL A   1      40.801  24.648  28.412  1.00  0.00    -0.203 F 
ATOM     43  C   UNL A   1      42.143  24.345  26.502  1.00  0.00     0.198 A 
ATOM     44  C   UNL A   1      43.635  26.086  25.793  1.00  0.00     0.198 A 
ATOM     45  F   UNL A   1      43.789  28.081  27.025  1.00  0.00    -0.203 F 
ATOM     46  F   UNL A   1      41.662  23.102  26.364  1.00  0.00    -0.200 F 
ATOM     47  C   UNL A   1      43.107  24.815  25.623  1.00  0.00     0.200 A 
ATOM     48  F   UNL A   1      44.565  26.542  24.944  1.00  0.00    -0.200 F 
ATOM     49  F   UNL A   1      43.543  24.035  24.625  1.00  0.00    -0.200 F 
ENDBRANCH  25  39
BRANCH  26  50
ATOM     50  C   UNL A   1      39.236  32.037  35.610  1.00  0.00     0.064 A 
ATOM     51  C   UNL A   1      38.329  31.494  36.529  1.00  0.00     0.173 A 
ATOM     52  C   UNL A   1      39.707  33.338  35.856  1.00  0.00     0.173 A 
ATOM     53  F   UNL A   1      37.833  30.263  36.333  1.00  0.00    -0.203 F 
ATOM     54  C   UNL A   1      37.915  32.218  37.647  1.00  0.00     0.198 A 
ATOM     55  C   UNL A   1      39.315  34.049  36.988  1.00  0.00     0.198 A 
ATOM     56  F   UNL A   1      40.579  33.906  35.010  1.00  0.00    -0.203 F 
ATOM     57  F   UNL A   1      37.030  31.683  38.499  1.00  0.00    -0.200 F 
ATOM     58  C   UNL A   1      38.417  33.490  37.882  1.00  0.00     0.200 A 
ATOM     59  F   UNL A   1      39.818  35.270  37.217  1.00  0.00    -0.200 F 
ATOM     60  F   UNL A   1      38.035  34.176  38.968  1.00  0.00    -0.200 F 
ENDBRANCH  26  50
BRANCH  38  61
ATOM     61  C   UNL A   1      44.479  27.518  34.560  1.00  0.00     0.064 A 
ATOM     62  C   UNL A   1      44.348  26.353  35.325  1.00  0.00     0.173 A 
ATOM     63  C   UNL A   1      45.719  28.173  34.551  1.00  0.00     0.173 A 
ATOM     64  F   UNL A   1      43.174  25.704  35.373  1.00  0.00    -0.203 F 
ATOM     65  C   UNL A   1      45.424  25.859  36.056  1.00  0.00     0.198 A 
ATOM     66  C   UNL A   1      46.798  27.662  35.261  1.00  0.00     0.198 A 
ATOM     67  F   UNL A   1      45.889  29.289  33.825  1.00  0.00    -0.203 F 
ATOM     68  F   UNL A   1      45.276  24.753  36.799  1.00  0.00    -0.200 F 
ATOM     69  C   UNL A   1      46.651  26.506  36.013  1.00  0.00     0.200 A 
ATOM     70  F   UNL A   1      47.987  28.280  35.206  1.00  0.00    -0.200 F 
ATOM     71  F   UNL A   1      47.692  26.015  36.697  1.00  0.00    -0.200 F 
ENDBRANCH  38  61
ENDBRANCH  12  13
ENDBRANCH   5   7
ENDBRANCH   4   5
ENDBRANCH   3   4
ENDBRANCH   2   3
ENDBRANCH   1   2
BRANCH   1  72
ATOM     72  C   UNL A   1      32.277  27.436  23.067  1.00  0.00     0.202 C 
BRANCH  72  73
ATOM     73  C   UNL A   1      33.494  26.506  23.067  1.00  0.00     0.261 C 
BRANCH  73  74
ATOM     74  O   UNL A   1      33.065  25.183  23.437  1.00  0.00    -0.460 OA
BRANCH  74  75
ATOM     75  C   UNL A   1      33.231  24.835  24.741  1.00  0.00     0.340 C 
ATOM     76  O   UNL A   1      32.503  25.086  25.680  1.00  0.00    -0.246 OA
BRANCH  75  77
ATOM     77  C   UNL A   1      34.346  23.855  24.792  1.00  0.00     0.084 A 
ATOM     78  C   UNL A   1      35.485  24.192  25.543  1.00  0.00     0.033 A 
ATOM     79  C   UNL A   1      34.313  22.686  23.997  1.00  0.00     0.056 A 
ATOM     80  C   UNL A   1      36.625  23.406  25.455  1.00  0.00     0.018 A 
ATOM     81  C   UNL A   1      35.505  21.963  23.873  1.00  0.00     0.028 A 
ATOM     82  Br  UNL A   1      38.164  23.868  26.443  1.00  0.00    -0.051 Br
ATOM     83  C   UNL A   1      36.649  22.309  24.604  1.00  0.00     0.018 A 
BRANCH  79  84
ATOM     84  N   UNL A   1      33.134  22.348  23.287  1.00  0.00    -0.320 N 
ATOM     85  C   UNL A   1      32.491  21.147  23.045  1.00  0.00     0.265 C 
ATOM     86  H   UNL A   1      32.681  23.124  22.884  1.00  0.00     0.170 HD
ATOM     87  O   UNL A   1      31.776  21.077  22.043  1.00  0.00    -0.268 OA
BRANCH  85  88
ATOM     88  C   UNL A   1      32.627  20.055  23.987  1.00  0.00     0.093 A 
ATOM     89  C   UNL A   1      32.708  20.103  25.368  1.00  0.00     0.027 A 
ATOM     90  S   UNL A   1      32.664  18.439  23.412  1.00  0.00    -0.123 S 
ATOM     91  C   UNL A   1      32.899  18.812  25.943  1.00  0.00     0.028 A 
ATOM     92  C   UNL A   1      32.908  17.837  24.978  1.00  0.00     0.071 A 
ATOM     93  Br  UNL A   1      33.162  16.019  25.349  1.00  0.00    -0.039 Br
ENDBRANCH  85  88
ENDBRANCH  79  84
ENDBRANCH  75  77
ENDBRANCH  74  75
ENDBRANCH  73  74
ENDBRANCH  72  73
ENDBRANCH   1  72
TORSDOF 16
ENDMDL
