MODEL 1
REMARK VINA RESULT:     -11.0      0.000      0.000
REMARK SMILES CSc1nc(C2CC2)nc(C)c1C(=O)OCCOCCOC(=O)c1ccc(-c2c3nc(c(-c4c(F)c(F)c(F)c(F)c4F)c4ccc([nH]4)c(-c4c(F)c(F)c(F)c(F)c4F)c4nc(c(-c5c(F)c(F)c(F)c(F)c5F)c5ccc2[nH]5)C=C4)C=C3)cc1
REMARK SMILES IDX 19 1 18 2 17 3 16 4 15 5 13 6 14 7 12 8 3 9 4 10 5 11 10 12
REMARK SMILES IDX 9 13 11 14 2 15 1 16 6 17 7 18 8 19 20 20 21 21 22 22 23 23
REMARK SMILES IDX 24 24 25 25 86 26 26 27 85 28 27 29 28 30 29 31 79 32 30 33
REMARK SMILES IDX 84 34 78 35 80 36 31 37 83 38 77 39 76 40 32 42 64 43 44 44
REMARK SMILES IDX 63 45 45 46 48 47 62 48 81 49 46 50 47 51 61 53 82 54 49 55
REMARK SMILES IDX 33 56 34 57 42 58 35 59 36 60 40 61 43 62 37 63 38 64 41 65
REMARK SMILES IDX 39 66 65 67 66 68 74 69 67 70 68 71 72 72 75 73 69 74 70 75
REMARK SMILES IDX 73 76 71 77 50 78 51 79 59 80 52 81 53 82 57 83 60 84 54 85
REMARK SMILES IDX 55 86 58 87 56 88
REMARK H PARENT 80 41 48 52
REMARK Flexibility Score: inf
ROOT
ATOM      1  C   UNL A   1      31.808  30.795  26.516  1.00  0.00     0.202 C 
ENDROOT
BRANCH   1   2
ATOM      2  O   UNL A   1      32.166  29.800  27.474  1.00  0.00    -0.374 OA
BRANCH   2   3
ATOM      3  C   UNL A   1      31.409  28.590  27.511  1.00  0.00     0.202 C 
BRANCH   3   4
ATOM      4  C   UNL A   1      32.006  27.384  26.782  1.00  0.00     0.261 C 
BRANCH   4   5
ATOM      5  O   UNL A   1      30.984  26.736  26.009  1.00  0.00    -0.460 OA
BRANCH   5   6
ATOM      6  C   UNL A   1      31.278  26.552  24.703  1.00  0.00     0.342 C 
ATOM      7  O   UNL A   1      31.985  25.679  24.232  1.00  0.00    -0.246 OA
BRANCH   6   8
ATOM      8  C   UNL A   1      30.540  27.530  23.894  1.00  0.00     0.113 A 
ATOM      9  C   UNL A   1      31.150  28.685  23.433  1.00  0.00     0.114 A 
ATOM     10  N   UNL A   1      30.455  29.688  22.855  1.00  0.00    -0.225 NA
ATOM     11  C   UNL A   1      29.127  29.548  22.722  1.00  0.00     0.133 A 
ATOM     12  C   UNL A   1      29.203  27.385  23.576  1.00  0.00     0.057 A 
ATOM     13  N   UNL A   1      28.497  28.392  23.005  1.00  0.00    -0.237 NA
ATOM     14  C   UNL A   1      28.401  26.154  23.880  1.00  0.00     0.068 C 
BRANCH   9  15
ATOM     15  S   UNL A   1      32.921  28.953  23.497  1.00  0.00    -0.109 SA
ATOM     16  C   UNL A   1      33.443  27.927  22.092  1.00  0.00     0.092 C 
ENDBRANCH   9  15
BRANCH  11  17
ATOM     17  C   UNL A   1      28.282  30.739  22.334  1.00  0.00     0.058 C 
ATOM     18  C   UNL A   1      27.661  31.626  23.392  1.00  0.00     0.012 C 
ATOM     19  C   UNL A   1      28.770  32.152  22.530  1.00  0.00     0.012 C 
ENDBRANCH  11  17
ENDBRANCH   6   8
ENDBRANCH   5   6
ENDBRANCH   4   5
ENDBRANCH   3   4
ENDBRANCH   2   3
ENDBRANCH   1   2
BRANCH   1  20
ATOM     20  C   UNL A   1      32.022  32.264  26.899  1.00  0.00     0.261 C 
BRANCH  20  21
ATOM     21  O   UNL A   1      32.782  32.439  28.104  1.00  0.00    -0.460 OA
BRANCH  21  22
ATOM     22  C   UNL A   1      33.788  33.341  27.989  1.00  0.00     0.338 C 
ATOM     23  O   UNL A   1      33.689  34.551  27.864  1.00  0.00    -0.246 OA
BRANCH  22  24
ATOM     24  C   UNL A   1      35.095  32.691  28.184  1.00  0.00     0.060 A 
ATOM     25  C   UNL A   1      35.094  31.302  28.362  1.00  0.00     0.016 A 
ATOM     26  C   UNL A   1      36.271  33.428  28.333  1.00  0.00     0.016 A 
ATOM     27  C   UNL A   1      36.254  30.653  28.773  1.00  0.00     0.010 A 
ATOM     28  C   UNL A   1      37.437  32.775  28.749  1.00  0.00     0.010 A 
ATOM     29  C   UNL A   1      37.416  31.395  29.026  1.00  0.00    -0.014 A 
BRANCH  29  30
ATOM     30  C   UNL A   1      38.524  30.746  29.769  1.00  0.00     0.031 A 
ATOM     31  C   UNL A   1      38.708  31.075  31.228  1.00  0.00     0.074 A 
ATOM     32  C   UNL A   1      39.299  29.817  29.183  1.00  0.00     0.049 A 
ATOM     33  N   UNL A   1      39.579  30.604  32.085  1.00  0.00    -0.248 NA
ATOM     34  C   UNL A   1      37.787  32.071  31.797  1.00  0.00     0.031 C 
ATOM     35  C   UNL A   1      39.188  29.383  27.793  1.00  0.00     0.029 A 
ATOM     36  N   UNL A   1      40.328  29.066  29.692  1.00  0.00    -0.354 N 
ATOM     37  C   UNL A   1      39.311  31.247  33.288  1.00  0.00     0.074 A 
ATOM     38  C   UNL A   1      38.227  32.172  33.042  1.00  0.00     0.031 C 
ATOM     39  C   UNL A   1      40.113  28.438  27.557  1.00  0.00     0.029 A 
ATOM     40  C   UNL A   1      40.896  28.219  28.773  1.00  0.00     0.049 A 
ATOM     41  H   UNL A   1      40.629  29.128  30.627  1.00  0.00     0.167 HD
ATOM     42  C   UNL A   1      39.905  31.072  34.493  1.00  0.00     0.037 A 
ATOM     43  C   UNL A   1      41.936  27.373  28.900  1.00  0.00     0.037 A 
ATOM     44  C   UNL A   1      40.980  30.146  34.737  1.00  0.00     0.049 A 
ATOM     45  C   UNL A   1      42.614  27.235  30.239  1.00  0.00     0.074 A 
ATOM     46  C   UNL A   1      41.647  29.888  35.922  1.00  0.00     0.029 A 
ATOM     47  N   UNL A   1      41.547  29.324  33.773  1.00  0.00    -0.354 N 
ATOM     48  N   UNL A   1      42.342  27.832  31.375  1.00  0.00    -0.248 NA
ATOM     49  C   UNL A   1      43.738  26.290  30.315  1.00  0.00     0.031 C 
ATOM     50  C   UNL A   1      42.652  28.950  35.663  1.00  0.00     0.029 A 
ATOM     51  C   UNL A   1      42.568  28.573  34.334  1.00  0.00     0.049 A 
ATOM     52  H   UNL A   1      41.266  29.282  32.830  1.00  0.00     0.167 HD
ATOM     53  C   UNL A   1      43.228  27.305  32.307  1.00  0.00     0.074 A 
ATOM     54  C   UNL A   1      44.040  26.334  31.605  1.00  0.00     0.031 C 
ATOM     55  C   UNL A   1      43.355  27.595  33.626  1.00  0.00     0.037 A 
BRANCH  42  56
ATOM     56  C   UNL A   1      39.420  31.919  35.635  1.00  0.00     0.064 A 
ATOM     57  C   UNL A   1      38.434  31.467  36.526  1.00  0.00     0.173 A 
ATOM     58  C   UNL A   1      39.969  33.191  35.858  1.00  0.00     0.173 A 
ATOM     59  F   UNL A   1      37.864  30.265  36.350  1.00  0.00    -0.203 F 
ATOM     60  C   UNL A   1      37.997  32.268  37.578  1.00  0.00     0.198 A 
ATOM     61  C   UNL A   1      39.553  33.976  36.929  1.00  0.00     0.198 A 
ATOM     62  F   UNL A   1      40.918  33.671  35.039  1.00  0.00    -0.203 F 
ATOM     63  F   UNL A   1      37.017  31.837  38.384  1.00  0.00    -0.200 F 
ATOM     64  C   UNL A   1      38.561  33.517  37.783  1.00  0.00     0.200 A 
ATOM     65  F   UNL A   1      40.110  35.177  37.135  1.00  0.00    -0.200 F 
ATOM     66  F   UNL A   1      38.145  34.284  38.801  1.00  0.00    -0.200 F 
ENDBRANCH  42  56
BRANCH  43  67
ATOM     67  C   UNL A   1      42.398  26.580  27.730  1.00  0.00     0.064 A 
ATOM     68  C   UNL A   1      41.856  25.319  27.448  1.00  0.00     0.173 A 
ATOM     69  C   UNL A   1      43.411  27.058  26.886  1.00  0.00     0.173 A 
ATOM     70  F   UNL A   1      40.902  24.808  28.239  1.00  0.00    -0.203 F 
ATOM     71  C   UNL A   1      42.328  24.555  26.382  1.00  0.00     0.198 A 
ATOM     72  C   UNL A   1      43.860  26.307  25.802  1.00  0.00     0.198 A 
ATOM     73  F   UNL A   1      43.963  28.259  27.111  1.00  0.00    -0.203 F 
ATOM     74  F   UNL A   1      41.832  23.328  26.169  1.00  0.00    -0.200 F 
ATOM     75  C   UNL A   1      43.326  25.051  25.557  1.00  0.00     0.200 A 
ATOM     76  F   UNL A   1      44.815  26.798  24.999  1.00  0.00    -0.200 F 
ATOM     77  F   UNL A   1      43.780  24.317  24.532  1.00  0.00    -0.200 F 
ENDBRANCH  43  67
BRANCH  55  78
ATOM     78  C   UNL A   1      44.364  26.806  34.413  1.00  0.00     0.064 A 
ATOM     79  C   UNL A   1      45.682  27.251  34.593  1.00  0.00     0.173 A 
ATOM     80  C   UNL A   1      43.995  25.591  35.013  1.00  0.00     0.173 A 
ATOM     81  F   UNL A   1      46.090  28.399  34.033  1.00  0.00    -0.203 F 
ATOM     82  C   UNL A   1      46.603  26.490  35.310  1.00  0.00     0.198 A 
ATOM     83  C   UNL A   1      44.908  24.851  35.759  1.00  0.00     0.198 A 
ATOM     84  F   UNL A   1      42.744  25.124  34.882  1.00  0.00    -0.203 F 
ATOM     85  F   UNL A   1      47.874  26.903  35.415  1.00  0.00    -0.200 F 
ATOM     86  C   UNL A   1      46.214  25.294  35.897  1.00  0.00     0.200 A 
ATOM     87  F   UNL A   1      44.524  23.706  36.339  1.00  0.00    -0.200 F 
ATOM     88  F   UNL A   1      47.101  24.565  36.586  1.00  0.00    -0.200 F 
ENDBRANCH  55  78
ENDBRANCH  29  30
ENDBRANCH  22  24
ENDBRANCH  21  22
ENDBRANCH  20  21
ENDBRANCH   1  20
TORSDOF 16
ENDMDL
MODEL 2
REMARK VINA RESULT:     -10.9      2.626      3.833
REMARK SMILES CSc1nc(C2CC2)nc(C)c1C(=O)OCCOCCOC(=O)c1ccc(-c2c3nc(c(-c4c(F)c(F)c(F)c(F)c4F)c4ccc([nH]4)c(-c4c(F)c(F)c(F)c(F)c4F)c4nc(c(-c5c(F)c(F)c(F)c(F)c5F)c5ccc2[nH]5)C=C4)C=C3)cc1
REMARK SMILES IDX 19 1 18 2 17 3 16 4 15 5 13 6 14 7 12 8 3 9 4 10 5 11 10 12
REMARK SMILES IDX 9 13 11 14 2 15 1 16 6 17 7 18 8 19 20 20 21 21 22 22 23 23
REMARK SMILES IDX 24 24 25 25 86 26 26 27 85 28 27 29 28 30 29 31 79 32 30 33
REMARK SMILES IDX 84 34 78 35 80 36 31 37 83 38 77 39 76 40 32 42 64 43 44 44
REMARK SMILES IDX 63 45 45 46 48 47 62 48 81 49 46 50 47 51 61 53 82 54 49 55
REMARK SMILES IDX 33 56 34 57 42 58 35 59 36 60 40 61 43 62 37 63 38 64 41 65
REMARK SMILES IDX 39 66 65 67 66 68 74 69 67 70 68 71 72 72 75 73 69 74 70 75
REMARK SMILES IDX 73 76 71 77 50 78 51 79 59 80 52 81 53 82 57 83 60 84 54 85
REMARK SMILES IDX 55 86 58 87 56 88
REMARK H PARENT 80 41 48 52
REMARK Flexibility Score: inf
ROOT
ATOM      1  C   UNL A   1      31.836  29.707  25.282  1.00  0.00     0.202 C 
ENDROOT
BRANCH   1   2
ATOM      2  O   UNL A   1      33.027  28.926  25.202  1.00  0.00    -0.374 OA
BRANCH   2   3
ATOM      3  C   UNL A   1      32.905  27.520  24.981  1.00  0.00     0.202 C 
BRANCH   3   4
ATOM      4  C   UNL A   1      32.333  26.691  26.132  1.00  0.00     0.261 C 
BRANCH   4   5
ATOM      5  O   UNL A   1      32.945  25.392  26.140  1.00  0.00    -0.460 OA
BRANCH   5   6
ATOM      6  C   UNL A   1      32.107  24.362  26.392  1.00  0.00     0.342 C 
ATOM      7  O   UNL A   1      31.025  24.423  26.947  1.00  0.00    -0.246 OA
BRANCH   6   8
ATOM      8  C   UNL A   1      32.658  23.130  25.814  1.00  0.00     0.113 A 
ATOM      9  C   UNL A   1      32.340  22.739  24.523  1.00  0.00     0.114 A 
ATOM     10  N   UNL A   1      32.673  21.526  24.033  1.00  0.00    -0.225 NA
ATOM     11  C   UNL A   1      33.340  20.678  24.831  1.00  0.00     0.133 A 
ATOM     12  C   UNL A   1      33.485  22.274  26.517  1.00  0.00     0.057 A 
ATOM     13  N   UNL A   1      33.813  21.050  26.035  1.00  0.00    -0.237 NA
ATOM     14  C   UNL A   1      34.035  22.578  27.879  1.00  0.00     0.068 C 
BRANCH   9  15
ATOM     15  S   UNL A   1      31.512  23.810  23.349  1.00  0.00    -0.109 SA
ATOM     16  C   UNL A   1      32.942  24.383  22.386  1.00  0.00     0.092 C 
ENDBRANCH   9  15
BRANCH  11  17
ATOM     17  C   UNL A   1      33.493  19.231  24.426  1.00  0.00     0.058 C 
ATOM     18  C   UNL A   1      32.526  18.179  24.927  1.00  0.00     0.012 C 
ATOM     19  C   UNL A   1      32.526  18.568  23.477  1.00  0.00     0.012 C 
ENDBRANCH  11  17
ENDBRANCH   6   8
ENDBRANCH   5   6
ENDBRANCH   4   5
ENDBRANCH   3   4
ENDBRANCH   2   3
ENDBRANCH   1   2
BRANCH   1  20
ATOM     20  C   UNL A   1      31.777  30.813  26.342  1.00  0.00     0.261 C 
BRANCH  20  21
ATOM     21  O   UNL A   1      32.740  30.651  27.396  1.00  0.00    -0.460 OA
BRANCH  21  22
ATOM     22  C   UNL A   1      33.550  31.725  27.564  1.00  0.00     0.338 C 
ATOM     23  O   UNL A   1      33.221  32.898  27.636  1.00  0.00    -0.246 OA
BRANCH  22  24
ATOM     24  C   UNL A   1      34.938  31.297  27.807  1.00  0.00     0.060 A 
ATOM     25  C   UNL A   1      35.160  29.925  27.980  1.00  0.00     0.016 A 
ATOM     26  C   UNL A   1      35.970  32.216  28.005  1.00  0.00     0.016 A 
ATOM     27  C   UNL A   1      36.395  29.472  28.434  1.00  0.00     0.010 A 
ATOM     28  C   UNL A   1      37.211  31.760  28.464  1.00  0.00     0.010 A 
ATOM     29  C   UNL A   1      37.407  30.392  28.734  1.00  0.00    -0.014 A 
BRANCH  29  30
ATOM     30  C   UNL A   1      38.578  29.927  29.518  1.00  0.00     0.031 A 
ATOM     31  C   UNL A   1      38.751  30.428  30.929  1.00  0.00     0.074 A 
ATOM     32  C   UNL A   1      39.425  29.012  29.019  1.00  0.00     0.049 A 
ATOM     33  N   UNL A   1      39.671  30.131  31.812  1.00  0.00    -0.248 NA
ATOM     34  C   UNL A   1      37.751  31.396  31.408  1.00  0.00     0.031 C 
ATOM     35  C   UNL A   1      39.336  28.421  27.685  1.00  0.00     0.029 A 
ATOM     36  N   UNL A   1      40.523  28.413  29.582  1.00  0.00    -0.354 N 
ATOM     37  C   UNL A   1      39.362  30.875  32.945  1.00  0.00     0.074 A 
ATOM     38  C   UNL A   1      38.197  31.670  32.625  1.00  0.00     0.031 C 
ATOM     39  C   UNL A   1      40.339  27.540  27.532  1.00  0.00     0.029 A 
ATOM     40  C   UNL A   1      41.153  27.524  28.746  1.00  0.00     0.049 A 
ATOM     41  H   UNL A   1      40.830  28.602  30.498  1.00  0.00     0.167 HD
ATOM     42  C   UNL A   1      39.984  30.885  34.148  1.00  0.00     0.037 A 
ATOM     43  C   UNL A   1      42.266  26.791  28.941  1.00  0.00     0.037 A 
ATOM     44  C   UNL A   1      41.141  30.088  34.466  1.00  0.00     0.049 A 
ATOM     45  C   UNL A   1      42.971  26.859  30.271  1.00  0.00     0.074 A 
ATOM     46  C   UNL A   1      41.843  30.020  35.657  1.00  0.00     0.029 A 
ATOM     47  N   UNL A   1      41.766  29.219  33.583  1.00  0.00    -0.354 N 
ATOM     48  N   UNL A   1      42.660  27.550  31.342  1.00  0.00    -0.248 NA
ATOM     49  C   UNL A   1      44.175  26.029  30.423  1.00  0.00     0.031 C 
ATOM     50  C   UNL A   1      42.924  29.151  35.478  1.00  0.00     0.029 A 
ATOM     51  C   UNL A   1      42.857  28.625  34.198  1.00  0.00     0.049 A 
ATOM     52  H   UNL A   1      41.478  29.051  32.657  1.00  0.00     0.167 HD
ATOM     53  C   UNL A   1      43.602  27.207  32.305  1.00  0.00     0.074 A 
ATOM     54  C   UNL A   1      44.488  26.240  31.694  1.00  0.00     0.031 C 
ATOM     55  C   UNL A   1      43.719  27.649  33.582  1.00  0.00     0.037 A 
BRANCH  42  56
ATOM     56  C   UNL A   1      39.440  31.805  35.203  1.00  0.00     0.064 A 
ATOM     57  C   UNL A   1      38.561  31.353  36.200  1.00  0.00     0.173 A 
ATOM     58  C   UNL A   1      39.825  33.155  35.234  1.00  0.00     0.173 A 
ATOM     59  F   UNL A   1      38.150  30.076  36.208  1.00  0.00    -0.203 F 
ATOM     60  C   UNL A   1      38.067  32.222  37.169  1.00  0.00     0.198 A 
ATOM     61  C   UNL A   1      39.354  34.014  36.223  1.00  0.00     0.198 A 
ATOM     62  F   UNL A   1      40.665  33.640  34.307  1.00  0.00    -0.203 F 
ATOM     63  F   UNL A   1      37.188  31.780  38.078  1.00  0.00    -0.200 F 
ATOM     64  C   UNL A   1      38.469  33.549  37.184  1.00  0.00     0.200 A 
ATOM     65  F   UNL A   1      39.754  35.292  36.245  1.00  0.00    -0.200 F 
ATOM     66  F   UNL A   1      37.998  34.383  38.122  1.00  0.00    -0.200 F 
ENDBRANCH  42  56
BRANCH  43  67
ATOM     67  C   UNL A   1      42.782  25.918  27.852  1.00  0.00     0.064 A 
ATOM     68  C   UNL A   1      42.399  24.574  27.755  1.00  0.00     0.173 A 
ATOM     69  C   UNL A   1      43.691  26.408  26.903  1.00  0.00     0.173 A 
ATOM     70  F   UNL A   1      41.550  24.054  28.654  1.00  0.00    -0.203 F 
ATOM     71  C   UNL A   1      42.925  23.745  26.766  1.00  0.00     0.198 A 
ATOM     72  C   UNL A   1      44.192  25.585  25.895  1.00  0.00     0.198 A 
ATOM     73  F   UNL A   1      44.090  27.687  26.949  1.00  0.00    -0.203 F 
ATOM     74  F   UNL A   1      42.585  22.449  26.732  1.00  0.00    -0.200 F 
ATOM     75  C   UNL A   1      43.817  24.252  25.834  1.00  0.00     0.200 A 
ATOM     76  F   UNL A   1      45.044  26.085  24.988  1.00  0.00    -0.200 F 
ATOM     77  F   UNL A   1      44.323  23.455  24.883  1.00  0.00    -0.200 F 
ENDBRANCH  43  67
BRANCH  55  78
ATOM     78  C   UNL A   1      44.805  27.041  34.427  1.00  0.00     0.064 A 
ATOM     79  C   UNL A   1      44.598  25.878  35.183  1.00  0.00     0.173 A 
ATOM     80  C   UNL A   1      46.081  27.626  34.460  1.00  0.00     0.173 A 
ATOM     81  F   UNL A   1      43.395  25.286  35.195  1.00  0.00    -0.203 F 
ATOM     82  C   UNL A   1      45.615  25.347  35.973  1.00  0.00     0.198 A 
ATOM     83  C   UNL A   1      47.106  27.071  35.222  1.00  0.00     0.198 A 
ATOM     84  F   UNL A   1      46.338  28.733  33.747  1.00  0.00    -0.203 F 
ATOM     85  F   UNL A   1      45.376  24.272  36.737  1.00  0.00    -0.200 F 
ATOM     86  C   UNL A   1      46.869  25.940  35.987  1.00  0.00     0.200 A 
ATOM     87  F   UNL A   1      48.321  27.636  35.220  1.00  0.00    -0.200 F 
ATOM     88  F   UNL A   1      47.846  25.427  36.747  1.00  0.00    -0.200 F 
ENDBRANCH  55  78
ENDBRANCH  29  30
ENDBRANCH  22  24
ENDBRANCH  21  22
ENDBRANCH  20  21
ENDBRANCH   1  20
TORSDOF 16
ENDMDL
MODEL 3
REMARK VINA RESULT:     -10.9      5.489     10.867
REMARK SMILES CSc1nc(C2CC2)nc(C)c1C(=O)OCCOCCOC(=O)c1ccc(-c2c3nc(c(-c4c(F)c(F)c(F)c(F)c4F)c4ccc([nH]4)c(-c4c(F)c(F)c(F)c(F)c4F)c4nc(c(-c5c(F)c(F)c(F)c(F)c5F)c5ccc2[nH]5)C=C4)C=C3)cc1
REMARK SMILES IDX 19 1 18 2 17 3 16 4 15 5 13 6 14 7 12 8 3 9 4 10 5 11 10 12
REMARK SMILES IDX 9 13 11 14 2 15 1 16 6 17 7 18 8 19 20 20 21 21 22 22 23 23
REMARK SMILES IDX 24 24 25 25 86 26 26 27 85 28 27 29 28 30 29 31 79 32 30 33
REMARK SMILES IDX 84 34 78 35 80 36 31 37 83 38 77 39 76 40 32 42 64 43 44 44
REMARK SMILES IDX 63 45 45 46 48 47 62 48 81 49 46 50 47 51 61 53 82 54 49 55
REMARK SMILES IDX 33 56 34 57 42 58 35 59 36 60 40 61 43 62 37 63 38 64 41 65
REMARK SMILES IDX 39 66 65 67 66 68 74 69 67 70 68 71 72 72 75 73 69 74 70 75
REMARK SMILES IDX 73 76 71 77 50 78 51 79 59 80 52 81 53 82 57 83 60 84 54 85
REMARK SMILES IDX 55 86 58 87 56 88
REMARK H PARENT 80 41 48 52
REMARK Flexibility Score: inf
ROOT
ATOM      1  C   UNL A   1      37.287  20.905  24.750  1.00  0.00     0.202 C 
ENDROOT
BRANCH   1   2
ATOM      2  O   UNL A   1      37.404  22.284  24.405  1.00  0.00    -0.374 OA
BRANCH   2   3
ATOM      3  C   UNL A   1      36.680  22.765  23.272  1.00  0.00     0.202 C 
BRANCH   3   4
ATOM      4  C   UNL A   1      35.474  23.662  23.557  1.00  0.00     0.261 C 
BRANCH   4   5
ATOM      5  O   UNL A   1      34.313  23.131  22.899  1.00  0.00    -0.460 OA
BRANCH   5   6
ATOM      6  C   UNL A   1      33.229  22.968  23.688  1.00  0.00     0.342 C 
ATOM      7  O   UNL A   1      32.453  23.835  24.048  1.00  0.00    -0.246 OA
BRANCH   6   8
ATOM      8  C   UNL A   1      33.058  21.542  23.996  1.00  0.00     0.113 A 
ATOM      9  C   UNL A   1      33.539  21.000  25.176  1.00  0.00     0.114 A 
ATOM     10  N   UNL A   1      33.570  19.670  25.402  1.00  0.00    -0.225 NA
ATOM     11  C   UNL A   1      33.109  18.851  24.443  1.00  0.00     0.133 A 
ATOM     12  C   UNL A   1      32.452  20.654  23.127  1.00  0.00     0.057 A 
ATOM     13  N   UNL A   1      32.489  19.316  23.342  1.00  0.00    -0.237 NA
ATOM     14  C   UNL A   1      31.767  21.064  21.858  1.00  0.00     0.068 C 
BRANCH   9  15
ATOM     15  S   UNL A   1      34.115  21.998  26.550  1.00  0.00    -0.109 SA
ATOM     16  C   UNL A   1      32.522  22.532  27.238  1.00  0.00     0.092 C 
ENDBRANCH   9  15
BRANCH  11  17
ATOM     17  C   UNL A   1      33.370  17.367  24.536  1.00  0.00     0.058 C 
ATOM     18  C   UNL A   1      34.012  16.618  23.388  1.00  0.00     0.012 C 
ATOM     19  C   UNL A   1      34.767  16.815  24.669  1.00  0.00     0.012 C 
ENDBRANCH  11  17
ENDBRANCH   6   8
ENDBRANCH   5   6
ENDBRANCH   4   5
ENDBRANCH   3   4
ENDBRANCH   2   3
ENDBRANCH   1   2
BRANCH   1  20
ATOM     20  C   UNL A   1      38.510  20.219  25.373  1.00  0.00     0.261 C 
BRANCH  20  21
ATOM     21  O   UNL A   1      39.656  21.077  25.483  1.00  0.00    -0.460 OA
BRANCH  21  22
ATOM     22  C   UNL A   1      40.355  20.909  26.632  1.00  0.00     0.338 C 
ATOM     23  O   UNL A   1      40.868  19.881  27.045  1.00  0.00    -0.246 OA
BRANCH  22  24
ATOM     24  C   UNL A   1      40.570  22.201  27.304  1.00  0.00     0.060 A 
ATOM     25  C   UNL A   1      39.825  23.292  26.840  1.00  0.00     0.016 A 
ATOM     26  C   UNL A   1      41.571  22.378  28.261  1.00  0.00     0.016 A 
ATOM     27  C   UNL A   1      40.134  24.579  27.269  1.00  0.00     0.010 A 
ATOM     28  C   UNL A   1      41.883  23.673  28.690  1.00  0.00     0.010 A 
ATOM     29  C   UNL A   1      41.203  24.781  28.151  1.00  0.00    -0.014 A 
BRANCH  29  30
ATOM     30  C   UNL A   1      41.722  26.160  28.333  1.00  0.00     0.031 A 
ATOM     31  C   UNL A   1      43.065  26.512  27.749  1.00  0.00     0.074 A 
ATOM     32  C   UNL A   1      40.976  27.105  28.930  1.00  0.00     0.049 A 
ATOM     33  N   UNL A   1      43.700  27.657  27.749  1.00  0.00    -0.248 NA
ATOM     34  C   UNL A   1      43.792  25.424  27.075  1.00  0.00     0.031 C 
ATOM     35  C   UNL A   1      39.645  26.896  29.494  1.00  0.00     0.029 A 
ATOM     36  N   UNL A   1      41.234  28.434  29.152  1.00  0.00    -0.354 N 
ATOM     37  C   UNL A   1      44.897  27.426  27.080  1.00  0.00     0.074 A 
ATOM     38  C   UNL A   1      44.921  26.024  26.727  1.00  0.00     0.031 C 
ATOM     39  C   UNL A   1      39.199  28.060  29.998  1.00  0.00     0.029 A 
ATOM     40  C   UNL A   1      40.223  29.086  29.813  1.00  0.00     0.049 A 
ATOM     41  H   UNL A   1      42.064  28.878  28.864  1.00  0.00     0.167 HD
ATOM     42  C   UNL A   1      45.880  28.306  26.776  1.00  0.00     0.037 A 
ATOM     43  C   UNL A   1      40.143  30.365  30.229  1.00  0.00     0.037 A 
ATOM     44  C   UNL A   1      45.851  29.703  27.123  1.00  0.00     0.049 A 
ATOM     45  C   UNL A   1      41.274  31.312  29.923  1.00  0.00     0.074 A 
ATOM     46  C   UNL A   1      46.795  30.680  26.857  1.00  0.00     0.029 A 
ATOM     47  N   UNL A   1      44.821  30.321  27.818  1.00  0.00    -0.354 N 
ATOM     48  N   UNL A   1      42.392  31.090  29.274  1.00  0.00    -0.248 NA
ATOM     49  C   UNL A   1      41.123  32.696  30.397  1.00  0.00     0.031 C 
ATOM     50  C   UNL A   1      46.360  31.877  27.436  1.00  0.00     0.029 A 
ATOM     51  C   UNL A   1      45.115  31.663  28.004  1.00  0.00     0.049 A 
ATOM     52  H   UNL A   1      44.003  29.872  28.133  1.00  0.00     0.167 HD
ATOM     53  C   UNL A   1      43.055  32.311  29.224  1.00  0.00     0.074 A 
ATOM     54  C   UNL A   1      42.209  33.271  29.901  1.00  0.00     0.031 C 
ATOM     55  C   UNL A   1      44.253  32.611  28.664  1.00  0.00     0.037 A 
BRANCH  42  56
ATOM     56  C   UNL A   1      47.084  27.777  26.049  1.00  0.00     0.064 A 
ATOM     57  C   UNL A   1      48.204  27.280  26.734  1.00  0.00     0.173 A 
ATOM     58  C   UNL A   1      47.107  27.744  24.646  1.00  0.00     0.173 A 
ATOM     59  F   UNL A   1      48.240  27.303  28.075  1.00  0.00    -0.203 F 
ATOM     60  C   UNL A   1      49.311  26.796  26.042  1.00  0.00     0.198 A 
ATOM     61  C   UNL A   1      48.202  27.229  23.958  1.00  0.00     0.198 A 
ATOM     62  F   UNL A   1      46.063  28.203  23.941  1.00  0.00    -0.203 F 
ATOM     63  F   UNL A   1      50.390  26.375  26.717  1.00  0.00    -0.200 F 
ATOM     64  C   UNL A   1      49.307  26.763  24.656  1.00  0.00     0.200 A 
ATOM     65  F   UNL A   1      48.191  27.186  22.619  1.00  0.00    -0.200 F 
ATOM     66  F   UNL A   1      50.370  26.290  23.991  1.00  0.00    -0.200 F 
ENDBRANCH  42  56
BRANCH  43  67
ATOM     67  C   UNL A   1      38.942  30.832  30.973  1.00  0.00     0.064 A 
ATOM     68  C   UNL A   1      38.868  30.732  32.368  1.00  0.00     0.173 A 
ATOM     69  C   UNL A   1      37.834  31.362  30.297  1.00  0.00     0.173 A 
ATOM     70  F   UNL A   1      39.892  30.209  33.058  1.00  0.00    -0.203 F 
ATOM     71  C   UNL A   1      37.720  31.120  33.058  1.00  0.00     0.198 A 
ATOM     72  C   UNL A   1      36.700  31.780  30.990  1.00  0.00     0.198 A 
ATOM     73  F   UNL A   1      37.854  31.481  28.961  1.00  0.00    -0.203 F 
ATOM     74  F   UNL A   1      37.654  30.961  34.387  1.00  0.00    -0.200 F 
ATOM     75  C   UNL A   1      36.639  31.648  32.369  1.00  0.00     0.200 A 
ATOM     76  F   UNL A   1      35.663  32.303  30.320  1.00  0.00    -0.200 F 
ATOM     77  F   UNL A   1      35.536  32.022  33.031  1.00  0.00    -0.200 F 
ENDBRANCH  43  67
BRANCH  55  78
ATOM     78  C   UNL A   1      44.691  34.049  28.699  1.00  0.00     0.064 A 
ATOM     79  C   UNL A   1      45.499  34.557  29.727  1.00  0.00     0.173 A 
ATOM     80  C   UNL A   1      44.310  34.926  27.671  1.00  0.00     0.173 A 
ATOM     81  F   UNL A   1      45.882  33.765  30.739  1.00  0.00    -0.203 F 
ATOM     82  C   UNL A   1      45.873  35.899  29.746  1.00  0.00     0.198 A 
ATOM     83  C   UNL A   1      44.717  36.258  27.674  1.00  0.00     0.198 A 
ATOM     84  F   UNL A   1      43.547  34.490  26.656  1.00  0.00    -0.203 F 
ATOM     85  F   UNL A   1      46.591  36.378  30.772  1.00  0.00    -0.200 F 
ATOM     86  C   UNL A   1      45.487  36.746  28.718  1.00  0.00     0.200 A 
ATOM     87  F   UNL A   1      44.357  37.069  26.670  1.00  0.00    -0.200 F 
ATOM     88  F   UNL A   1      45.849  38.036  28.738  1.00  0.00    -0.200 F 
ENDBRANCH  55  78
ENDBRANCH  29  30
ENDBRANCH  22  24
ENDBRANCH  21  22
ENDBRANCH  20  21
ENDBRANCH   1  20
TORSDOF 16
ENDMDL
