MODEL 1
REMARK VINA RESULT:      -9.5      0.000      0.000
REMARK SMILES COC[C@@H](C)[C@@](O)(C(=O)OCCOCCOC(=O)c1ccc(-c2c3nc(c(-c4c(F)c(F)c(F)c(F)c4F)c4ccc([nH]4)c(-c4c(F)c(F)c(F)c(F)c4F)c4nc(c(-c5c(F)c(F)c(F)c(F)c5F)c5ccc2[nH]5)C=C4)C=C3)cc1)C(C)C
REMARK SMILES IDX 12 1 11 2 10 3 8 4 9 5 6 6 4 7 5 8 3 9 2 10 1 11 7 12 82 14
REMARK SMILES IDX 83 15 84 16 13 17 14 18 15 19 16 20 17 21 18 22 19 23 20 24
REMARK SMILES IDX 81 25 21 26 80 27 22 28 23 29 24 30 74 31 25 32 79 33 73 34
REMARK SMILES IDX 75 35 26 36 78 37 72 38 71 39 27 41 59 42 39 43 58 44 40 45
REMARK SMILES IDX 43 46 57 47 76 48 41 49 42 50 56 52 77 53 44 54 28 55 29 56
REMARK SMILES IDX 37 57 30 58 31 59 35 60 38 61 32 62 33 63 36 64 34 65 60 66
REMARK SMILES IDX 61 67 69 68 62 69 63 70 67 71 70 72 64 73 65 74 68 75 66 76
REMARK SMILES IDX 45 77 46 78 54 79 47 80 48 81 52 82 55 83 49 84 50 85 53 86
REMARK SMILES IDX 51 87
REMARK H PARENT 7 13 75 40 43 51
REMARK Flexibility Score: inf
ROOT
ATOM      1  C   UNL A   1      32.200  26.815  26.439  1.00  0.00     0.202 C 
ENDROOT
BRANCH   1   2
ATOM      2  C   UNL A   1      32.102  25.604  25.507  1.00  0.00     0.261 C 
BRANCH   2   3
ATOM      3  O   UNL A   1      33.347  24.878  25.409  1.00  0.00    -0.461 OA
BRANCH   3   4
ATOM      4  C   UNL A   1      33.281  23.562  25.752  1.00  0.00     0.338 C 
ATOM      5  O   UNL A   1      32.500  23.136  26.601  1.00  0.00    -0.249 OA
BRANCH   4   6
ATOM      6  C   UNL A   1      34.302  22.641  24.996  1.00  0.00     0.168 C 
BRANCH   6   7
ATOM      7  C   UNL A   1      35.701  23.290  24.669  1.00  0.00     0.055 C 
ATOM      8  C   UNL A   1      36.317  22.947  23.314  1.00  0.00     0.014 C 
BRANCH   7   9
ATOM      9  C   UNL A   1      36.746  23.087  25.789  1.00  0.00     0.166 C 
BRANCH   9  10
ATOM     10  O   UNL A   1      37.361  21.796  25.772  1.00  0.00    -0.384 OA
ATOM     11  C   UNL A   1      38.781  21.821  25.900  1.00  0.00     0.194 C 
ENDBRANCH   9  10
ENDBRANCH   7   9
ENDBRANCH   6   7
BRANCH   6  12
ATOM     12  O   UNL A   1      34.557  21.635  26.017  1.00  0.00    -0.378 OA
ATOM     13  H   UNL A   1      35.514  21.494  26.099  1.00  0.00     0.212 HD
ENDBRANCH   6  12
BRANCH   6  14
ATOM     14  C   UNL A   1      33.475  21.954  23.835  1.00  0.00     0.026 C 
ATOM     15  C   UNL A   1      32.584  20.796  24.295  1.00  0.00     0.011 C 
ATOM     16  C   UNL A   1      32.678  22.849  22.876  1.00  0.00     0.011 C 
ENDBRANCH   6  14
ENDBRANCH   4   6
ENDBRANCH   3   4
ENDBRANCH   2   3
ENDBRANCH   1   2
BRANCH   1  17
ATOM     17  O   UNL A   1      31.406  27.954  26.105  1.00  0.00    -0.374 OA
BRANCH  17  18
ATOM     18  C   UNL A   1      32.028  28.974  25.329  1.00  0.00     0.202 C 
BRANCH  18  19
ATOM     19  C   UNL A   1      31.830  30.414  25.832  1.00  0.00     0.261 C 
BRANCH  19  20
ATOM     20  O   UNL A   1      32.381  30.608  27.149  1.00  0.00    -0.460 OA
BRANCH  20  21
ATOM     21  C   UNL A   1      33.153  31.709  27.284  1.00  0.00     0.338 C 
ATOM     22  O   UNL A   1      32.798  32.878  27.202  1.00  0.00    -0.246 OA
BRANCH  21  23
ATOM     23  C   UNL A   1      34.503  31.339  27.751  1.00  0.00     0.060 A 
ATOM     24  C   UNL A   1      34.720  29.988  28.048  1.00  0.00     0.016 A 
ATOM     25  C   UNL A   1      35.510  32.283  27.973  1.00  0.00     0.016 A 
ATOM     26  C   UNL A   1      35.914  29.584  28.638  1.00  0.00     0.010 A 
ATOM     27  C   UNL A   1      36.710  31.875  28.573  1.00  0.00     0.010 A 
ATOM     28  C   UNL A   1      36.897  30.532  28.952  1.00  0.00    -0.014 A 
BRANCH  28  29
ATOM     29  C   UNL A   1      38.017  30.125  29.841  1.00  0.00     0.031 A 
ATOM     30  C   UNL A   1      39.061  29.179  29.307  1.00  0.00     0.074 A 
ATOM     31  C   UNL A   1      38.162  30.658  31.067  1.00  0.00     0.049 A 
ATOM     32  N   UNL A   1      40.151  28.731  29.879  1.00  0.00    -0.248 NA
ATOM     33  C   UNL A   1      38.851  28.677  27.940  1.00  0.00     0.031 C 
ATOM     34  C   UNL A   1      37.250  31.617  31.683  1.00  0.00     0.029 A 
ATOM     35  N   UNL A   1      39.142  30.468  32.011  1.00  0.00    -0.354 N 
ATOM     36  C   UNL A   1      40.755  27.902  28.943  1.00  0.00     0.074 A 
ATOM     37  C   UNL A   1      39.895  27.876  27.780  1.00  0.00     0.031 C 
ATOM     38  C   UNL A   1      37.712  31.933  32.906  1.00  0.00     0.029 A 
ATOM     39  C   UNL A   1      38.938  31.180  33.167  1.00  0.00     0.049 A 
ATOM     40  H   UNL A   1      39.918  29.878  31.872  1.00  0.00     0.167 HD
ATOM     41  C   UNL A   1      41.930  27.234  29.037  1.00  0.00     0.037 A 
ATOM     42  C   UNL A   1      39.653  31.210  34.309  1.00  0.00     0.037 A 
ATOM     43  C   UNL A   1      42.792  27.258  30.190  1.00  0.00     0.049 A 
ATOM     44  C   UNL A   1      40.919  30.399  34.416  1.00  0.00     0.074 A 
ATOM     45  C   UNL A   1      44.005  26.619  30.374  1.00  0.00     0.029 A 
ATOM     46  N   UNL A   1      42.524  27.953  31.359  1.00  0.00    -0.354 N 
ATOM     47  N   UNL A   1      41.494  29.637  33.517  1.00  0.00    -0.248 NA
ATOM     48  C   UNL A   1      41.639  30.458  35.697  1.00  0.00     0.031 C 
ATOM     49  C   UNL A   1      44.449  26.888  31.672  1.00  0.00     0.029 A 
ATOM     50  C   UNL A   1      43.538  27.737  32.279  1.00  0.00     0.049 A 
ATOM     51  H   UNL A   1      41.731  28.516  31.513  1.00  0.00     0.167 HD
ATOM     52  C   UNL A   1      42.651  29.148  34.112  1.00  0.00     0.074 A 
ATOM     53  C   UNL A   1      42.706  29.712  35.444  1.00  0.00     0.031 C 
ATOM     54  C   UNL A   1      43.585  28.309  33.600  1.00  0.00     0.037 A 
BRANCH  41  55
ATOM     55  C   UNL A   1      42.346  26.401  27.860  1.00  0.00     0.064 A 
ATOM     56  C   UNL A   1      41.880  25.090  27.683  1.00  0.00     0.173 A 
ATOM     57  C   UNL A   1      43.195  26.934  26.878  1.00  0.00     0.173 A 
ATOM     58  F   UNL A   1      41.078  24.530  28.601  1.00  0.00    -0.203 F 
ATOM     59  C   UNL A   1      42.268  24.335  26.579  1.00  0.00     0.198 A 
ATOM     60  C   UNL A   1      43.558  26.187  25.761  1.00  0.00     0.198 A 
ATOM     61  F   UNL A   1      43.665  28.186  26.997  1.00  0.00    -0.203 F 
ATOM     62  F   UNL A   1      41.845  23.070  26.453  1.00  0.00    -0.200 F 
ATOM     63  C   UNL A   1      43.100  24.886  25.616  1.00  0.00     0.200 A 
ATOM     64  F   UNL A   1      44.352  26.725  24.826  1.00  0.00    -0.200 F 
ATOM     65  F   UNL A   1      43.466  24.161  24.550  1.00  0.00    -0.200 F 
ENDBRANCH  41  55
BRANCH  42  66
ATOM     66  C   UNL A   1      39.181  32.029  35.457  1.00  0.00     0.064 A 
ATOM     67  C   UNL A   1      39.566  33.368  35.605  1.00  0.00     0.173 A 
ATOM     68  C   UNL A   1      38.353  31.476  36.445  1.00  0.00     0.173 A 
ATOM     69  F   UNL A   1      40.381  33.934  34.701  1.00  0.00    -0.203 F 
ATOM     70  C   UNL A   1      39.154  34.119  36.705  1.00  0.00     0.198 A 
ATOM     71  C   UNL A   1      37.919  32.235  37.530  1.00  0.00     0.198 A 
ATOM     72  F   UNL A   1      37.961  30.197  36.354  1.00  0.00    -0.203 F 
ATOM     73  F   UNL A   1      39.577  35.382  36.847  1.00  0.00    -0.200 F 
ATOM     74  C   UNL A   1      38.327  33.553  37.663  1.00  0.00     0.200 A 
ATOM     75  F   UNL A   1      37.111  31.687  38.448  1.00  0.00    -0.200 F 
ATOM     76  F   UNL A   1      37.931  34.275  38.719  1.00  0.00    -0.200 F 
ENDBRANCH  42  66
BRANCH  54  77
ATOM     77  C   UNL A   1      44.763  27.970  34.467  1.00  0.00     0.064 A 
ATOM     78  C   UNL A   1      45.917  28.766  34.487  1.00  0.00     0.173 A 
ATOM     79  C   UNL A   1      44.718  26.857  35.322  1.00  0.00     0.173 A 
ATOM     80  F   UNL A   1      46.015  29.833  33.680  1.00  0.00    -0.203 F 
ATOM     81  C   UNL A   1      46.992  28.448  35.313  1.00  0.00     0.198 A 
ATOM     82  C   UNL A   1      45.783  26.559  36.167  1.00  0.00     0.198 A 
ATOM     83  F   UNL A   1      43.634  26.067  35.348  1.00  0.00    -0.203 F 
ATOM     84  F   UNL A   1      48.102  29.198  35.283  1.00  0.00    -0.200 F 
ATOM     85  C   UNL A   1      46.921  27.349  36.157  1.00  0.00     0.200 A 
ATOM     86  F   UNL A   1      45.707  25.506  36.993  1.00  0.00    -0.200 F 
ATOM     87  F   UNL A   1      47.954  27.050  36.958  1.00  0.00    -0.200 F 
ENDBRANCH  54  77
ENDBRANCH  28  29
ENDBRANCH  21  23
ENDBRANCH  20  21
ENDBRANCH  19  20
ENDBRANCH  18  19
ENDBRANCH  17  18
ENDBRANCH   1  17
TORSDOF 19
ENDMDL
MODEL 2
REMARK VINA RESULT:      -9.5      4.166      7.120
REMARK SMILES COC[C@@H](C)[C@@](O)(C(=O)OCCOCCOC(=O)c1ccc(-c2c3nc(c(-c4c(F)c(F)c(F)c(F)c4F)c4ccc([nH]4)c(-c4c(F)c(F)c(F)c(F)c4F)c4nc(c(-c5c(F)c(F)c(F)c(F)c5F)c5ccc2[nH]5)C=C4)C=C3)cc1)C(C)C
REMARK SMILES IDX 12 1 11 2 10 3 8 4 9 5 6 6 4 7 5 8 3 9 2 10 1 11 7 12 82 14
REMARK SMILES IDX 83 15 84 16 13 17 14 18 15 19 16 20 17 21 18 22 19 23 20 24
REMARK SMILES IDX 81 25 21 26 80 27 22 28 23 29 24 30 74 31 25 32 79 33 73 34
REMARK SMILES IDX 75 35 26 36 78 37 72 38 71 39 27 41 59 42 39 43 58 44 40 45
REMARK SMILES IDX 43 46 57 47 76 48 41 49 42 50 56 52 77 53 44 54 28 55 29 56
REMARK SMILES IDX 37 57 30 58 31 59 35 60 38 61 32 62 33 63 36 64 34 65 60 66
REMARK SMILES IDX 61 67 69 68 62 69 63 70 67 71 70 72 64 73 65 74 68 75 66 76
REMARK SMILES IDX 45 77 46 78 54 79 47 80 48 81 52 82 55 83 49 84 50 85 53 86
REMARK SMILES IDX 51 87
REMARK H PARENT 7 13 75 40 43 51
REMARK Flexibility Score: inf
ROOT
ATOM      1  C   UNL A   1      35.424  22.571  25.613  1.00  0.00     0.202 C 
ENDROOT
BRANCH   1   2
ATOM      2  C   UNL A   1      35.347  24.081  25.370  1.00  0.00     0.261 C 
BRANCH   2   3
ATOM      3  O   UNL A   1      34.088  24.648  25.794  1.00  0.00    -0.461 OA
BRANCH   3   4
ATOM      4  C   UNL A   1      33.692  25.759  25.114  1.00  0.00     0.338 C 
ATOM      5  O   UNL A   1      34.173  26.871  25.323  1.00  0.00    -0.249 OA
BRANCH   4   6
ATOM      6  C   UNL A   1      32.554  25.507  24.063  1.00  0.00     0.168 C 
BRANCH   6   7
ATOM      7  C   UNL A   1      31.359  24.600  24.549  1.00  0.00     0.055 C 
ATOM      8  C   UNL A   1      30.294  24.255  23.510  1.00  0.00     0.014 C 
BRANCH   7   9
ATOM      9  C   UNL A   1      30.689  25.113  25.842  1.00  0.00     0.166 C 
BRANCH   9  10
ATOM     10  O   UNL A   1      30.988  24.324  26.996  1.00  0.00    -0.384 OA
ATOM     11  C   UNL A   1      31.231  22.946  26.718  1.00  0.00     0.194 C 
ENDBRANCH   9  10
ENDBRANCH   7   9
ENDBRANCH   6   7
BRANCH   6  12
ATOM     12  O   UNL A   1      32.009  26.851  23.937  1.00  0.00    -0.378 OA
ATOM     13  H   UNL A   1      31.601  26.953  23.062  1.00  0.00     0.212 HD
ENDBRANCH   6  12
BRANCH   6  14
ATOM     14  C   UNL A   1      33.296  25.155  22.710  1.00  0.00     0.026 C 
ATOM     15  C   UNL A   1      33.402  23.655  22.420  1.00  0.00     0.011 C 
ATOM     16  C   UNL A   1      32.868  25.885  21.430  1.00  0.00     0.011 C 
ENDBRANCH   6  14
ENDBRANCH   4   6
ENDBRANCH   3   4
ENDBRANCH   2   3
ENDBRANCH   1   2
BRANCH   1  17
ATOM     17  O   UNL A   1      35.973  21.773  24.563  1.00  0.00    -0.374 OA
BRANCH  17  18
ATOM     18  C   UNL A   1      36.286  20.419  24.873  1.00  0.00     0.202 C 
BRANCH  18  19
ATOM     19  C   UNL A   1      37.779  20.103  25.068  1.00  0.00     0.261 C 
BRANCH  19  20
ATOM     20  O   UNL A   1      38.547  21.284  25.371  1.00  0.00    -0.460 OA
BRANCH  20  21
ATOM     21  C   UNL A   1      39.619  21.075  26.165  1.00  0.00     0.338 C 
ATOM     22  O   UNL A   1      40.318  20.071  26.218  1.00  0.00    -0.246 OA
BRANCH  21  23
ATOM     23  C   UNL A   1      39.993  22.319  26.866  1.00  0.00     0.060 A 
ATOM     24  C   UNL A   1      39.296  23.479  26.506  1.00  0.00     0.016 A 
ATOM     25  C   UNL A   1      41.041  22.380  27.789  1.00  0.00     0.016 A 
ATOM     26  C   UNL A   1      39.693  24.716  27.008  1.00  0.00     0.010 A 
ATOM     27  C   UNL A   1      41.442  23.628  28.287  1.00  0.00     0.010 A 
ATOM     28  C   UNL A   1      40.801  24.806  27.861  1.00  0.00    -0.014 A 
BRANCH  28  29
ATOM     29  C   UNL A   1      41.378  26.147  28.136  1.00  0.00     0.031 A 
ATOM     30  C   UNL A   1      42.764  26.459  27.636  1.00  0.00     0.074 A 
ATOM     31  C   UNL A   1      40.652  27.108  28.735  1.00  0.00     0.049 A 
ATOM     32  N   UNL A   1      43.447  27.574  27.711  1.00  0.00    -0.248 NA
ATOM     33  C   UNL A   1      43.474  25.366  26.953  1.00  0.00     0.031 C 
ATOM     34  C   UNL A   1      39.285  26.952  29.223  1.00  0.00     0.029 A 
ATOM     35  N   UNL A   1      40.967  28.414  29.025  1.00  0.00    -0.354 N 
ATOM     36  C   UNL A   1      44.658  27.318  27.082  1.00  0.00     0.074 A 
ATOM     37  C   UNL A   1      44.636  25.933  26.665  1.00  0.00     0.031 C 
ATOM     38  C   UNL A   1      38.877  28.117  29.755  1.00  0.00     0.029 A 
ATOM     39  C   UNL A   1      39.962  29.093  29.667  1.00  0.00     0.049 A 
ATOM     40  H   UNL A   1      41.832  28.823  28.794  1.00  0.00     0.167 HD
ATOM     41  C   UNL A   1      45.691  28.165  26.857  1.00  0.00     0.037 A 
ATOM     42  C   UNL A   1      39.928  30.355  30.140  1.00  0.00     0.037 A 
ATOM     43  C   UNL A   1      45.718  29.545  27.267  1.00  0.00     0.049 A 
ATOM     44  C   UNL A   1      41.120  31.256  29.942  1.00  0.00     0.074 A 
ATOM     45  C   UNL A   1      46.718  30.482  27.077  1.00  0.00     0.029 A 
ATOM     46  N   UNL A   1      44.699  30.181  27.959  1.00  0.00    -0.354 N 
ATOM     47  N   UNL A   1      42.251  31.012  29.326  1.00  0.00    -0.248 NA
ATOM     48  C   UNL A   1      41.026  32.613  30.502  1.00  0.00     0.031 C 
ATOM     49  C   UNL A   1      46.325  31.673  27.695  1.00  0.00     0.029 A 
ATOM     50  C   UNL A   1      45.058  31.494  28.225  1.00  0.00     0.049 A 
ATOM     51  H   UNL A   1      43.847  29.763  28.221  1.00  0.00     0.167 HD
ATOM     52  C   UNL A   1      42.990  32.186  29.402  1.00  0.00     0.074 A 
ATOM     53  C   UNL A   1      42.174  33.149  30.110  1.00  0.00     0.031 C 
ATOM     54  C   UNL A   1      44.233  32.444  28.926  1.00  0.00     0.037 A 
BRANCH  41  55
ATOM     55  C   UNL A   1      46.893  27.614  26.146  1.00  0.00     0.064 A 
ATOM     56  C   UNL A   1      47.017  27.680  24.750  1.00  0.00     0.173 A 
ATOM     57  C   UNL A   1      47.949  27.046  26.874  1.00  0.00     0.173 A 
ATOM     58  F   UNL A   1      46.029  28.201  24.009  1.00  0.00    -0.203 F 
ATOM     59  C   UNL A   1      48.145  27.173  24.109  1.00  0.00     0.198 A 
ATOM     60  C   UNL A   1      49.086  26.565  26.231  1.00  0.00     0.198 A 
ATOM     61  F   UNL A   1      47.881  26.963  28.212  1.00  0.00    -0.203 F 
ATOM     62  F   UNL A   1      48.223  27.207  22.771  1.00  0.00    -0.200 F 
ATOM     63  C   UNL A   1      49.180  26.624  24.849  1.00  0.00     0.200 A 
ATOM     64  F   UNL A   1      50.091  26.046  26.950  1.00  0.00    -0.200 F 
ATOM     65  F   UNL A   1      50.268  26.144  24.231  1.00  0.00    -0.200 F 
ENDBRANCH  41  55
BRANCH  42  66
ATOM     66  C   UNL A   1      38.723  30.842  30.863  1.00  0.00     0.064 A 
ATOM     67  C   UNL A   1      37.645  31.418  30.179  1.00  0.00     0.173 A 
ATOM     68  C   UNL A   1      38.641  30.762  32.261  1.00  0.00     0.173 A 
ATOM     69  F   UNL A   1      37.689  31.544  28.844  1.00  0.00    -0.203 F 
ATOM     70  C   UNL A   1      36.537  31.912  30.866  1.00  0.00     0.198 A 
ATOM     71  C   UNL A   1      37.521  31.230  32.945  1.00  0.00     0.198 A 
ATOM     72  F   UNL A   1      39.649  30.225  32.964  1.00  0.00    -0.203 F 
ATOM     73  F   UNL A   1      35.542  32.502  30.191  1.00  0.00    -0.200 F 
ATOM     74  C   UNL A   1      36.474  31.812  32.247  1.00  0.00     0.200 A 
ATOM     75  F   UNL A   1      37.459  31.123  34.280  1.00  0.00    -0.200 F 
ATOM     76  F   UNL A   1      35.408  32.285  32.907  1.00  0.00    -0.200 F 
ENDBRANCH  42  66
BRANCH  54  77
ATOM     77  C   UNL A   1      44.780  33.828  29.126  1.00  0.00     0.064 A 
ATOM     78  C   UNL A   1      44.534  34.858  28.207  1.00  0.00     0.173 A 
ATOM     79  C   UNL A   1      45.522  34.139  30.276  1.00  0.00     0.173 A 
ATOM     80  F   UNL A   1      43.841  34.610  27.085  1.00  0.00    -0.203 F 
ATOM     81  C   UNL A   1      45.031  36.141  28.418  1.00  0.00     0.198 A 
ATOM     82  C   UNL A   1      45.993  35.430  30.499  1.00  0.00     0.198 A 
ATOM     83  F   UNL A   1      45.779  33.193  31.192  1.00  0.00    -0.203 F 
ATOM     84  F   UNL A   1      44.822  37.098  27.504  1.00  0.00    -0.200 F 
ATOM     85  C   UNL A   1      45.754  36.428  29.567  1.00  0.00     0.200 A 
ATOM     86  F   UNL A   1      46.678  35.709  31.617  1.00  0.00    -0.200 F 
ATOM     87  F   UNL A   1      46.224  37.666  29.774  1.00  0.00    -0.200 F 
ENDBRANCH  54  77
ENDBRANCH  28  29
ENDBRANCH  21  23
ENDBRANCH  20  21
ENDBRANCH  19  20
ENDBRANCH  18  19
ENDBRANCH  17  18
ENDBRANCH   1  17
TORSDOF 19
ENDMDL
MODEL 3
REMARK VINA RESULT:      -9.4      1.985      8.205
REMARK SMILES COC[C@@H](C)[C@@](O)(C(=O)OCCOCCOC(=O)c1ccc(-c2c3nc(c(-c4c(F)c(F)c(F)c(F)c4F)c4ccc([nH]4)c(-c4c(F)c(F)c(F)c(F)c4F)c4nc(c(-c5c(F)c(F)c(F)c(F)c5F)c5ccc2[nH]5)C=C4)C=C3)cc1)C(C)C
REMARK SMILES IDX 12 1 11 2 10 3 8 4 9 5 6 6 4 7 5 8 3 9 2 10 1 11 7 12 82 14
REMARK SMILES IDX 83 15 84 16 13 17 14 18 15 19 16 20 17 21 18 22 19 23 20 24
REMARK SMILES IDX 81 25 21 26 80 27 22 28 23 29 24 30 74 31 25 32 79 33 73 34
REMARK SMILES IDX 75 35 26 36 78 37 72 38 71 39 27 41 59 42 39 43 58 44 40 45
REMARK SMILES IDX 43 46 57 47 76 48 41 49 42 50 56 52 77 53 44 54 28 55 29 56
REMARK SMILES IDX 37 57 30 58 31 59 35 60 38 61 32 62 33 63 36 64 34 65 60 66
REMARK SMILES IDX 61 67 69 68 62 69 63 70 67 71 70 72 64 73 65 74 68 75 66 76
REMARK SMILES IDX 45 77 46 78 54 79 47 80 48 81 52 82 55 83 49 84 50 85 53 86
REMARK SMILES IDX 51 87
REMARK H PARENT 7 13 75 40 43 51
REMARK Flexibility Score: inf
ROOT
ATOM      1  C   UNL A   1      33.557  29.606  26.867  1.00  0.00     0.202 C 
ENDROOT
BRANCH   1   2
ATOM      2  C   UNL A   1      33.050  28.350  26.153  1.00  0.00     0.261 C 
BRANCH   2   3
ATOM      3  O   UNL A   1      32.609  28.619  24.804  1.00  0.00    -0.461 OA
BRANCH   3   4
ATOM      4  C   UNL A   1      32.598  27.542  23.971  1.00  0.00     0.338 C 
ATOM      5  O   UNL A   1      33.483  26.688  23.979  1.00  0.00    -0.249 OA
BRANCH   4   6
ATOM      6  C   UNL A   1      31.379  27.497  22.983  1.00  0.00     0.168 C 
BRANCH   6   7
ATOM      7  C   UNL A   1      30.030  28.102  23.529  1.00  0.00     0.055 C 
ATOM      8  C   UNL A   1      28.790  27.216  23.427  1.00  0.00     0.014 C 
BRANCH   7   9
ATOM      9  C   UNL A   1      29.720  29.508  22.969  1.00  0.00     0.166 C 
BRANCH   9  10
ATOM     10  O   UNL A   1      29.299  29.501  21.603  1.00  0.00    -0.384 OA
ATOM     11  C   UNL A   1      28.177  30.338  21.329  1.00  0.00     0.194 C 
ENDBRANCH   9  10
ENDBRANCH   7   9
ENDBRANCH   6   7
BRANCH   6  12
ATOM     12  O   UNL A   1      31.841  28.416  21.952  1.00  0.00    -0.378 OA
ATOM     13  H   UNL A   1      31.275  28.333  21.168  1.00  0.00     0.212 HD
ENDBRANCH   6  12
BRANCH   6  14
ATOM     14  C   UNL A   1      31.385  26.038  22.369  1.00  0.00     0.026 C 
ATOM     15  C   UNL A   1      32.412  25.827  21.252  1.00  0.00     0.011 C 
ATOM     16  C   UNL A   1      31.434  24.841  23.328  1.00  0.00     0.011 C 
ENDBRANCH   6  14
ENDBRANCH   4   6
ENDBRANCH   3   4
ENDBRANCH   2   3
ENDBRANCH   1   2
BRANCH   1  17
ATOM     17  O   UNL A   1      33.095  30.864  26.372  1.00  0.00    -0.374 OA
BRANCH  17  18
ATOM     18  C   UNL A   1      31.849  31.340  26.873  1.00  0.00     0.202 C 
BRANCH  18  19
ATOM     19  C   UNL A   1      31.793  32.840  27.212  1.00  0.00     0.261 C 
BRANCH  19  20
ATOM     20  O   UNL A   1      33.094  33.455  27.168  1.00  0.00    -0.460 OA
BRANCH  20  21
ATOM     21  C   UNL A   1      33.617  33.763  28.375  1.00  0.00     0.338 C 
ATOM     22  O   UNL A   1      33.097  34.433  29.258  1.00  0.00    -0.246 OA
BRANCH  21  23
ATOM     23  C   UNL A   1      34.868  33.014  28.603  1.00  0.00     0.060 A 
ATOM     24  C   UNL A   1      34.746  31.746  29.184  1.00  0.00     0.016 A 
ATOM     25  C   UNL A   1      36.130  33.552  28.337  1.00  0.00     0.016 A 
ATOM     26  C   UNL A   1      35.883  31.042  29.572  1.00  0.00     0.010 A 
ATOM     27  C   UNL A   1      37.274  32.844  28.734  1.00  0.00     0.010 A 
ATOM     28  C   UNL A   1      37.153  31.608  29.397  1.00  0.00    -0.014 A 
BRANCH  28  29
ATOM     29  C   UNL A   1      38.311  30.979  30.083  1.00  0.00     0.031 A 
ATOM     30  C   UNL A   1      38.569  31.312  31.529  1.00  0.00     0.074 A 
ATOM     31  C   UNL A   1      39.068  30.054  29.465  1.00  0.00     0.049 A 
ATOM     32  N   UNL A   1      39.482  30.844  32.343  1.00  0.00    -0.248 NA
ATOM     33  C   UNL A   1      37.668  32.301  32.143  1.00  0.00     0.031 C 
ATOM     34  C   UNL A   1      38.896  29.608  28.085  1.00  0.00     0.029 A 
ATOM     35  N   UNL A   1      40.131  29.317  29.929  1.00  0.00    -0.354 N 
ATOM     36  C   UNL A   1      39.263  31.477  33.559  1.00  0.00     0.074 A 
ATOM     37  C   UNL A   1      38.157  32.390  33.371  1.00  0.00     0.031 C 
ATOM     38  C   UNL A   1      39.823  28.673  27.812  1.00  0.00     0.029 A 
ATOM     39  C   UNL A   1      40.668  28.474  28.988  1.00  0.00     0.049 A 
ATOM     40  H   UNL A   1      40.474  29.387  30.849  1.00  0.00     0.167 HD
ATOM     41  C   UNL A   1      39.915  31.302  34.735  1.00  0.00     0.037 A 
ATOM     42  C   UNL A   1      41.728  27.645  29.066  1.00  0.00     0.037 A 
ATOM     43  C   UNL A   1      41.015  30.394  34.929  1.00  0.00     0.049 A 
ATOM     44  C   UNL A   1      42.484  27.523  30.365  1.00  0.00     0.074 A 
ATOM     45  C   UNL A   1      41.733  30.143  36.085  1.00  0.00     0.029 A 
ATOM     46  N   UNL A   1      41.561  29.593  33.938  1.00  0.00    -0.354 N 
ATOM     47  N   UNL A   1      42.255  28.107  31.516  1.00  0.00    -0.248 NA
ATOM     48  C   UNL A   1      43.644  26.620  30.375  1.00  0.00     0.031 C 
ATOM     49  C   UNL A   1      42.744  29.226  35.782  1.00  0.00     0.029 A 
ATOM     50  C   UNL A   1      42.624  28.866  34.450  1.00  0.00     0.049 A 
ATOM     51  H   UNL A   1      41.240  29.548  33.007  1.00  0.00     0.167 HD
ATOM     52  C   UNL A   1      43.221  27.626  32.390  1.00  0.00     0.074 A 
ATOM     53  C   UNL A   1      44.031  26.689  31.641  1.00  0.00     0.031 C 
ATOM     54  C   UNL A   1      43.418  27.931  33.696  1.00  0.00     0.037 A 
BRANCH  41  55
ATOM     55  C   UNL A   1      39.464  32.128  35.904  1.00  0.00     0.064 A 
ATOM     56  C   UNL A   1      38.480  31.670  36.793  1.00  0.00     0.173 A 
ATOM     57  C   UNL A   1      40.048  33.378  36.157  1.00  0.00     0.173 A 
ATOM     58  F   UNL A   1      37.882  30.488  36.587  1.00  0.00    -0.203 F 
ATOM     59  C   UNL A   1      38.082  32.445  37.879  1.00  0.00     0.198 A 
ATOM     60  C   UNL A   1      39.666  34.138  37.259  1.00  0.00     0.198 A 
ATOM     61  F   UNL A   1      40.996  33.859  35.338  1.00  0.00    -0.203 F 
ATOM     62  F   UNL A   1      37.109  32.007  38.692  1.00  0.00    -0.200 F 
ATOM     63  C   UNL A   1      38.679  33.674  38.115  1.00  0.00     0.200 A 
ATOM     64  F   UNL A   1      40.253  35.320  37.491  1.00  0.00    -0.200 F 
ATOM     65  F   UNL A   1      38.300  34.415  39.165  1.00  0.00    -0.200 F 
ENDBRANCH  41  55
BRANCH  42  66
ATOM     66  C   UNL A   1      42.152  26.872  27.869  1.00  0.00     0.064 A 
ATOM     67  C   UNL A   1      41.669  25.578  27.628  1.00  0.00     0.173 A 
ATOM     68  C   UNL A   1      43.072  27.405  26.954  1.00  0.00     0.173 A 
ATOM     69  F   UNL A   1      40.810  25.013  28.490  1.00  0.00    -0.203 F 
ATOM     70  C   UNL A   1      42.103  24.841  26.527  1.00  0.00     0.198 A 
ATOM     71  C   UNL A   1      43.483  26.679  25.839  1.00  0.00     0.198 A 
ATOM     72  F   UNL A   1      43.569  28.636  27.142  1.00  0.00    -0.203 F 
ATOM     73  F   UNL A   1      41.663  23.589  26.347  1.00  0.00    -0.200 F 
ATOM     74  C   UNL A   1      43.004  25.394  25.631  1.00  0.00     0.200 A 
ATOM     75  F   UNL A   1      44.348  27.221  24.970  1.00  0.00    -0.200 F 
ATOM     76  F   UNL A   1      43.420  24.687  24.572  1.00  0.00    -0.200 F 
ENDBRANCH  42  66
BRANCH  54  77
ATOM     77  C   UNL A   1      44.534  27.227  34.412  1.00  0.00     0.064 A 
ATOM     78  C   UNL A   1      45.818  27.785  34.506  1.00  0.00     0.173 A 
ATOM     79  C   UNL A   1      44.305  25.998  35.051  1.00  0.00     0.173 A 
ATOM     80  F   UNL A   1      46.093  28.951  33.902  1.00  0.00    -0.203 F 
ATOM     81  C   UNL A   1      46.836  27.128  35.192  1.00  0.00     0.198 A 
ATOM     82  C   UNL A   1      45.317  25.359  35.761  1.00  0.00     0.198 A 
ATOM     83  F   UNL A   1      43.093  25.425  34.999  1.00  0.00    -0.203 F 
ATOM     84  F   UNL A   1      48.066  27.658  35.231  1.00  0.00    -0.200 F 
ATOM     85  C   UNL A   1      46.583  25.920  35.825  1.00  0.00     0.200 A 
ATOM     86  F   UNL A   1      45.067  24.199  36.384  1.00  0.00    -0.200 F 
ATOM     87  F   UNL A   1      47.562  25.294  36.493  1.00  0.00    -0.200 F 
ENDBRANCH  54  77
ENDBRANCH  28  29
ENDBRANCH  21  23
ENDBRANCH  20  21
ENDBRANCH  19  20
ENDBRANCH  18  19
ENDBRANCH  17  18
ENDBRANCH   1  17
TORSDOF 19
ENDMDL
