MODEL 1
REMARK VINA RESULT:     -12.8      0.000      0.000
REMARK SMILES C[C@H](C(=O)OCCOCCOC(=O)c1ccc(-c2c3nc(c(-c4c(F)c(F)c(F)c(F)c4F)c4ccc([nH]4)c(-c4c(F)c(F)c(F)c(F)c4F)c4nc(c(-c5c(F)c(F)c(F)c(F)c5F)c5ccc2[nH]5)C=C4)C=C3)cc1)N1C(=O)C[C@@H](N2C(=O)/C(=C/c3ccccc3)SC2=S)C1=O
REMARK SMILES IDX 7 1 6 2 5 3 3 4 4 5 2 6 1 7 77 8 78 9 96 10 79 11 80 12
REMARK SMILES IDX 81 13 97 14 82 15 83 16 94 17 84 18 85 19 93 20 95 21 86 22
REMARK SMILES IDX 87 23 88 24 92 25 89 26 91 27 90 28 8 29 9 30 10 31 11 32
REMARK SMILES IDX 12 33 13 34 14 35 15 36 76 37 16 38 75 39 17 40 18 41 19 42
REMARK SMILES IDX 69 43 20 44 74 45 68 46 70 47 21 48 73 49 67 50 66 51 22 53
REMARK SMILES IDX 54 54 34 55 53 56 35 57 38 58 52 59 71 60 36 61 37 62 51 64
REMARK SMILES IDX 72 65 39 66 23 67 24 68 32 69 25 70 26 71 30 72 33 73 27 74
REMARK SMILES IDX 28 75 31 76 29 77 55 78 56 79 64 80 57 81 58 82 62 83 65 84
REMARK SMILES IDX 59 85 60 86 63 87 61 88 40 89 41 90 49 91 42 92 43 93 47 94
REMARK SMILES IDX 50 95 44 96 45 97 48 98 46 99
REMARK H PARENT 70 52 38 63
REMARK Flexibility Score: inf
ROOT
ATOM      1  C   UNL A   1      32.744  29.653  25.453  1.00  0.00     0.202 C 
ENDROOT
BRANCH   1   2
ATOM      2  C   UNL A   1      31.592  29.345  24.498  1.00  0.00     0.261 C 
BRANCH   2   3
ATOM      3  O   UNL A   1      32.054  28.623  23.344  1.00  0.00    -0.462 OA
BRANCH   3   4
ATOM      4  C   UNL A   1      31.086  27.937  22.677  1.00  0.00     0.329 C 
ATOM      5  O   UNL A   1      30.201  28.472  22.018  1.00  0.00    -0.250 OA
BRANCH   4   6
ATOM      6  C   UNL A   1      31.206  26.411  22.818  1.00  0.00     0.200 C 
ATOM      7  C   UNL A   1      31.869  25.880  21.543  1.00  0.00     0.044 C 
BRANCH   6   8
ATOM      8  N   UNL A   1      31.811  25.915  24.065  1.00  0.00    -0.267 N 
ATOM      9  C   UNL A   1      31.028  25.577  25.138  1.00  0.00     0.232 C 
ATOM     10  C   UNL A   1      33.125  25.591  24.275  1.00  0.00     0.253 C 
ATOM     11  O   UNL A   1      29.823  25.751  25.240  1.00  0.00    -0.274 OA
ATOM     12  C   UNL A   1      31.882  25.009  26.233  1.00  0.00     0.136 C 
ATOM     13  C   UNL A   1      33.235  24.808  25.572  1.00  0.00     0.191 C 
ATOM     14  O   UNL A   1      34.077  25.790  23.534  1.00  0.00    -0.272 OA
BRANCH  13  15
ATOM     15  N   UNL A   1      33.603  23.402  25.300  1.00  0.00    -0.280 N 
ATOM     16  C   UNL A   1      32.611  22.483  25.002  1.00  0.00     0.266 C 
ATOM     17  C   UNL A   1      34.893  22.908  25.303  1.00  0.00     0.149 C 
ATOM     18  O   UNL A   1      31.421  22.741  24.879  1.00  0.00    -0.268 OA
ATOM     19  C   UNL A   1      33.172  21.117  24.858  1.00  0.00     0.081 C 
ATOM     20  S   UNL A   1      34.877  21.171  24.997  1.00  0.00    -0.054 SA
ATOM     21  S   UNL A   1      36.312  23.733  25.597  1.00  0.00    -0.052 S 
ATOM     22  C   UNL A   1      32.371  20.059  24.670  1.00  0.00     0.029 C 
BRANCH  22  23
ATOM     23  C   UNL A   1      32.763  18.649  24.585  1.00  0.00    -0.024 A 
ATOM     24  C   UNL A   1      32.615  17.825  25.707  1.00  0.00     0.008 A 
ATOM     25  C   UNL A   1      33.368  18.130  23.434  1.00  0.00     0.008 A 
ATOM     26  C   UNL A   1      33.051  16.499  25.672  1.00  0.00     0.001 A 
ATOM     27  C   UNL A   1      33.805  16.804  23.401  1.00  0.00     0.001 A 
ATOM     28  C   UNL A   1      33.646  15.989  24.519  1.00  0.00     0.000 A 
ENDBRANCH  22  23
ENDBRANCH  13  15
ENDBRANCH   6   8
ENDBRANCH   4   6
ENDBRANCH   3   4
ENDBRANCH   2   3
ENDBRANCH   1   2
BRANCH   1  29
ATOM     29  O   UNL A   1      32.417  30.462  26.582  1.00  0.00    -0.374 OA
BRANCH  29  30
ATOM     30  C   UNL A   1      31.432  31.481  26.410  1.00  0.00     0.202 C 
BRANCH  30  31
ATOM     31  C   UNL A   1      31.771  32.859  26.996  1.00  0.00     0.261 C 
BRANCH  31  32
ATOM     32  O   UNL A   1      33.170  33.195  26.873  1.00  0.00    -0.460 OA
BRANCH  32  33
ATOM     33  C   UNL A   1      33.747  33.616  28.026  1.00  0.00     0.338 C 
ATOM     34  O   UNL A   1      33.284  34.416  28.832  1.00  0.00    -0.246 OA
BRANCH  33  35
ATOM     35  C   UNL A   1      34.988  32.876  28.315  1.00  0.00     0.060 A 
ATOM     36  C   UNL A   1      34.865  31.540  28.720  1.00  0.00     0.016 A 
ATOM     37  C   UNL A   1      36.233  33.507  28.336  1.00  0.00     0.016 A 
ATOM     38  C   UNL A   1      35.976  30.845  29.195  1.00  0.00     0.010 A 
ATOM     39  C   UNL A   1      37.348  32.809  28.823  1.00  0.00     0.010 A 
ATOM     40  C   UNL A   1      37.217  31.488  29.292  1.00  0.00    -0.014 A 
BRANCH  40  41
ATOM     41  C   UNL A   1      38.326  30.822  30.021  1.00  0.00     0.031 A 
ATOM     42  C   UNL A   1      38.544  31.140  31.477  1.00  0.00     0.074 A 
ATOM     43  C   UNL A   1      39.102  29.906  29.415  1.00  0.00     0.049 A 
ATOM     44  N   UNL A   1      39.443  30.671  32.306  1.00  0.00    -0.248 NA
ATOM     45  C   UNL A   1      37.624  32.116  32.079  1.00  0.00     0.031 C 
ATOM     46  C   UNL A   1      38.969  29.479  28.024  1.00  0.00     0.029 A 
ATOM     47  N   UNL A   1      40.156  29.170  29.895  1.00  0.00    -0.354 N 
ATOM     48  C   UNL A   1      39.199  31.295  33.522  1.00  0.00     0.074 A 
ATOM     49  C   UNL A   1      38.086  32.197  33.318  1.00  0.00     0.031 C 
ATOM     50  C   UNL A   1      39.910  28.556  27.761  1.00  0.00     0.029 A 
ATOM     51  C   UNL A   1      40.726  28.347  28.957  1.00  0.00     0.049 A 
ATOM     52  H   UNL A   1      40.472  29.226  30.826  1.00  0.00     0.167 HD
ATOM     53  C   UNL A   1      39.837  31.125  34.706  1.00  0.00     0.037 A 
ATOM     54  C   UNL A   1      41.795  27.532  29.048  1.00  0.00     0.037 A 
ATOM     55  C   UNL A   1      40.939  30.224  34.915  1.00  0.00     0.049 A 
ATOM     56  C   UNL A   1      42.532  27.412  30.358  1.00  0.00     0.074 A 
ATOM     57  C   UNL A   1      41.631  29.962  36.086  1.00  0.00     0.029 A 
ATOM     58  N   UNL A   1      41.517  29.440  33.928  1.00  0.00    -0.354 N 
ATOM     59  N   UNL A   1      42.273  27.983  31.508  1.00  0.00    -0.248 NA
ATOM     60  C   UNL A   1      43.709  26.532  30.378  1.00  0.00     0.031 C 
ATOM     61  C   UNL A   1      42.658  29.058  35.796  1.00  0.00     0.029 A 
ATOM     62  C   UNL A   1      42.574  28.718  34.456  1.00  0.00     0.049 A 
ATOM     63  H   UNL A   1      41.219  29.403  32.990  1.00  0.00     0.167 HD
ATOM     64  C   UNL A   1      43.235  27.511  32.393  1.00  0.00     0.074 A 
ATOM     65  C   UNL A   1      44.076  26.599  31.649  1.00  0.00     0.031 C 
ATOM     66  C   UNL A   1      43.402  27.807  33.707  1.00  0.00     0.037 A 
BRANCH  53  67
ATOM     67  C   UNL A   1      39.373  31.952  35.867  1.00  0.00     0.064 A 
ATOM     68  C   UNL A   1      38.382  31.495  36.749  1.00  0.00     0.173 A 
ATOM     69  C   UNL A   1      39.953  33.203  36.123  1.00  0.00     0.173 A 
ATOM     70  F   UNL A   1      37.788  30.311  36.541  1.00  0.00    -0.203 F 
ATOM     71  C   UNL A   1      37.975  32.271  37.831  1.00  0.00     0.198 A 
ATOM     72  C   UNL A   1      39.562  33.965  37.221  1.00  0.00     0.198 A 
ATOM     73  F   UNL A   1      40.908  33.684  35.312  1.00  0.00    -0.203 F 
ATOM     74  F   UNL A   1      36.997  31.833  38.638  1.00  0.00    -0.200 F 
ATOM     75  C   UNL A   1      38.568  33.501  38.069  1.00  0.00     0.200 A 
ATOM     76  F   UNL A   1      40.143  35.149  37.455  1.00  0.00    -0.200 F 
ATOM     77  F   UNL A   1      38.178  34.244  39.114  1.00  0.00    -0.200 F 
ENDBRANCH  53  67
BRANCH  54  78
ATOM     78  C   UNL A   1      42.242  26.762  27.858  1.00  0.00     0.064 A 
ATOM     79  C   UNL A   1      43.165  27.302  26.952  1.00  0.00     0.173 A 
ATOM     80  C   UNL A   1      41.738  25.480  27.593  1.00  0.00     0.173 A 
ATOM     81  F   UNL A   1      43.652  28.535  27.148  1.00  0.00    -0.203 F 
ATOM     82  C   UNL A   1      43.557  26.593  25.819  1.00  0.00     0.198 A 
ATOM     83  C   UNL A   1      42.151  24.762  26.473  1.00  0.00     0.198 A 
ATOM     84  F   UNL A   1      40.846  24.924  28.426  1.00  0.00    -0.203 F 
ATOM     85  F   UNL A   1      44.406  27.150  24.944  1.00  0.00    -0.200 F 
ATOM     86  C   UNL A   1      43.054  25.322  25.582  1.00  0.00     0.200 A 
ATOM     87  F   UNL A   1      41.668  23.532  26.252  1.00  0.00    -0.200 F 
ATOM     88  F   UNL A   1      43.432  24.641  24.492  1.00  0.00    -0.200 F 
ENDBRANCH  54  78
BRANCH  66  89
ATOM     89  C   UNL A   1      44.518  27.115  34.435  1.00  0.00     0.064 A 
ATOM     90  C   UNL A   1      45.789  27.695  34.556  1.00  0.00     0.173 A 
ATOM     91  C   UNL A   1      44.299  25.875  35.055  1.00  0.00     0.173 A 
ATOM     92  F   UNL A   1      46.052  28.873  33.970  1.00  0.00    -0.203 F 
ATOM     93  C   UNL A   1      46.806  27.049  35.254  1.00  0.00     0.198 A 
ATOM     94  C   UNL A   1      45.311  25.245  35.775  1.00  0.00     0.198 A 
ATOM     95  F   UNL A   1      43.100  25.280  34.974  1.00  0.00    -0.203 F 
ATOM     96  F   UNL A   1      48.025  27.603  35.323  1.00  0.00    -0.200 F 
ATOM     97  C   UNL A   1      46.565  25.829  35.868  1.00  0.00     0.200 A 
ATOM     98  F   UNL A   1      45.072  24.072  36.378  1.00  0.00    -0.200 F 
ATOM     99  F   UNL A   1      47.544  25.213  36.545  1.00  0.00    -0.200 F 
ENDBRANCH  66  89
ENDBRANCH  40  41
ENDBRANCH  33  35
ENDBRANCH  32  33
ENDBRANCH  31  32
ENDBRANCH  30  31
ENDBRANCH  29  30
ENDBRANCH   1  29
TORSDOF 17
ENDMDL
MODEL 2
REMARK VINA RESULT:     -12.3      4.425     10.580
REMARK SMILES C[C@H](C(=O)OCCOCCOC(=O)c1ccc(-c2c3nc(c(-c4c(F)c(F)c(F)c(F)c4F)c4ccc([nH]4)c(-c4c(F)c(F)c(F)c(F)c4F)c4nc(c(-c5c(F)c(F)c(F)c(F)c5F)c5ccc2[nH]5)C=C4)C=C3)cc1)N1C(=O)C[C@@H](N2C(=O)/C(=C/c3ccccc3)SC2=S)C1=O
REMARK SMILES IDX 7 1 6 2 5 3 3 4 4 5 2 6 1 7 77 8 78 9 96 10 79 11 80 12
REMARK SMILES IDX 81 13 97 14 82 15 83 16 94 17 84 18 85 19 93 20 95 21 86 22
REMARK SMILES IDX 87 23 88 24 92 25 89 26 91 27 90 28 8 29 9 30 10 31 11 32
REMARK SMILES IDX 12 33 13 34 14 35 15 36 76 37 16 38 75 39 17 40 18 41 19 42
REMARK SMILES IDX 69 43 20 44 74 45 68 46 70 47 21 48 73 49 67 50 66 51 22 53
REMARK SMILES IDX 54 54 34 55 53 56 35 57 38 58 52 59 71 60 36 61 37 62 51 64
REMARK SMILES IDX 72 65 39 66 23 67 24 68 32 69 25 70 26 71 30 72 33 73 27 74
REMARK SMILES IDX 28 75 31 76 29 77 55 78 56 79 64 80 57 81 58 82 62 83 65 84
REMARK SMILES IDX 59 85 60 86 63 87 61 88 40 89 41 90 49 91 42 92 43 93 47 94
REMARK SMILES IDX 50 95 44 96 45 97 48 98 46 99
REMARK H PARENT 70 52 38 63
REMARK Flexibility Score: inf
ROOT
ATOM      1  C   UNL A   1      36.175  21.652  24.750  1.00  0.00     0.202 C 
ENDROOT
BRANCH   1   2
ATOM      2  C   UNL A   1      35.010  20.785  25.226  1.00  0.00     0.261 C 
BRANCH   2   3
ATOM      3  O   UNL A   1      33.947  20.768  24.259  1.00  0.00    -0.462 OA
BRANCH   3   4
ATOM      4  C   UNL A   1      32.695  20.800  24.789  1.00  0.00     0.329 C 
ATOM      5  O   UNL A   1      32.204  19.882  25.439  1.00  0.00    -0.250 OA
BRANCH   4   6
ATOM      6  C   UNL A   1      31.939  22.108  24.504  1.00  0.00     0.200 C 
ATOM      7  C   UNL A   1      30.981  22.351  25.675  1.00  0.00     0.044 C 
BRANCH   6   8
ATOM      8  N   UNL A   1      32.764  23.274  24.146  1.00  0.00    -0.267 N 
ATOM      9  C   UNL A   1      33.115  23.510  22.843  1.00  0.00     0.232 C 
ATOM     10  C   UNL A   1      33.143  24.303  24.967  1.00  0.00     0.253 C 
ATOM     11  O   UNL A   1      32.913  22.770  21.892  1.00  0.00    -0.274 OA
ATOM     12  C   UNL A   1      33.862  24.808  22.743  1.00  0.00     0.136 C 
ATOM     13  C   UNL A   1      33.679  25.439  24.112  1.00  0.00     0.191 C 
ATOM     14  O   UNL A   1      33.010  24.387  26.179  1.00  0.00    -0.272 OA
BRANCH  13  15
ATOM     15  N   UNL A   1      32.762  26.599  24.156  1.00  0.00    -0.280 N 
ATOM     16  C   UNL A   1      31.680  26.645  23.294  1.00  0.00     0.266 C 
ATOM     17  C   UNL A   1      32.885  27.671  25.018  1.00  0.00     0.149 C 
ATOM     18  O   UNL A   1      31.360  25.761  22.511  1.00  0.00    -0.268 OA
ATOM     19  C   UNL A   1      30.943  27.926  23.426  1.00  0.00     0.081 C 
ATOM     20  S   UNL A   1      31.624  28.860  24.689  1.00  0.00    -0.054 SA
ATOM     21  S   UNL A   1      34.046  27.925  26.188  1.00  0.00    -0.052 S 
ATOM     22  C   UNL A   1      29.921  28.221  22.613  1.00  0.00     0.029 C 
BRANCH  22  23
ATOM     23  C   UNL A   1      29.147  29.466  22.568  1.00  0.00    -0.024 A 
ATOM     24  C   UNL A   1      29.472  30.443  21.620  1.00  0.00     0.008 A 
ATOM     25  C   UNL A   1      28.152  29.738  23.514  1.00  0.00     0.008 A 
ATOM     26  C   UNL A   1      28.799  31.667  21.608  1.00  0.00     0.001 A 
ATOM     27  C   UNL A   1      27.481  30.962  23.501  1.00  0.00     0.001 A 
ATOM     28  C   UNL A   1      27.804  31.926  22.549  1.00  0.00     0.000 A 
ENDBRANCH  22  23
ENDBRANCH  13  15
ENDBRANCH   6   8
ENDBRANCH   4   6
ENDBRANCH   3   4
ENDBRANCH   2   3
ENDBRANCH   1   2
BRANCH   1  29
ATOM     29  O   UNL A   1      37.479  21.185  25.094  1.00  0.00    -0.374 OA
BRANCH  29  30
ATOM     30  C   UNL A   1      37.758  19.795  24.921  1.00  0.00     0.202 C 
BRANCH  30  31
ATOM     31  C   UNL A   1      39.135  19.314  25.399  1.00  0.00     0.261 C 
BRANCH  31  32
ATOM     32  O   UNL A   1      39.547  19.928  26.639  1.00  0.00    -0.460 OA
BRANCH  32  33
ATOM     33  C   UNL A   1      40.843  20.329  26.660  1.00  0.00     0.338 C 
ATOM     34  O   UNL A   1      41.809  19.724  26.207  1.00  0.00    -0.246 OA
BRANCH  33  35
ATOM     35  C   UNL A   1      40.980  21.702  27.178  1.00  0.00     0.060 A 
ATOM     36  C   UNL A   1      40.380  22.733  26.441  1.00  0.00     0.016 A 
ATOM     37  C   UNL A   1      41.795  21.999  28.270  1.00  0.00     0.016 A 
ATOM     38  C   UNL A   1      40.635  24.066  26.763  1.00  0.00     0.010 A 
ATOM     39  C   UNL A   1      42.057  23.340  28.588  1.00  0.00     0.010 A 
ATOM     40  C   UNL A   1      41.510  24.379  27.811  1.00  0.00    -0.014 A 
BRANCH  40  41
ATOM     41  C   UNL A   1      41.961  25.783  27.987  1.00  0.00     0.031 A 
ATOM     42  C   UNL A   1      43.290  26.205  27.419  1.00  0.00     0.074 A 
ATOM     43  C   UNL A   1      41.178  26.690  28.598  1.00  0.00     0.049 A 
ATOM     44  N   UNL A   1      43.874  27.377  27.448  1.00  0.00    -0.248 NA
ATOM     45  C   UNL A   1      44.064  25.166  26.723  1.00  0.00     0.031 C 
ATOM     46  C   UNL A   1      39.855  26.421  29.154  1.00  0.00     0.029 A 
ATOM     47  N   UNL A   1      41.387  28.023  28.851  1.00  0.00    -0.354 N 
ATOM     48  C   UNL A   1      45.081  27.215  26.780  1.00  0.00     0.074 A 
ATOM     49  C   UNL A   1      45.160  25.827  26.381  1.00  0.00     0.031 C 
ATOM     50  C   UNL A   1      39.368  27.555  29.688  1.00  0.00     0.029 A 
ATOM     51  C   UNL A   1      40.357  28.622  29.534  1.00  0.00     0.049 A 
ATOM     52  H   UNL A   1      42.198  28.505  28.569  1.00  0.00     0.167 HD
ATOM     53  C   UNL A   1      46.033  28.143  26.514  1.00  0.00     0.037 A 
ATOM     54  C   UNL A   1      40.235  29.881  29.996  1.00  0.00     0.037 A 
ATOM     55  C   UNL A   1      45.955  29.526  26.903  1.00  0.00     0.049 A 
ATOM     56  C   UNL A   1      41.340  30.876  29.747  1.00  0.00     0.074 A 
ATOM     57  C   UNL A   1      46.857  30.546  26.653  1.00  0.00     0.029 A 
ATOM     58  N   UNL A   1      44.915  30.084  27.632  1.00  0.00    -0.354 N 
ATOM     59  N   UNL A   1      42.461  30.722  29.088  1.00  0.00    -0.248 NA
ATOM     60  C   UNL A   1      41.157  32.224  30.308  1.00  0.00     0.031 C 
ATOM     61  C   UNL A   1      46.387  31.709  27.272  1.00  0.00     0.029 A 
ATOM     62  C   UNL A   1      45.168  31.426  27.866  1.00  0.00     0.049 A 
ATOM     63  H   UNL A   1      44.116  29.597  27.938  1.00  0.00     0.167 HD
ATOM     64  C   UNL A   1      43.103  31.953  29.131  1.00  0.00     0.074 A 
ATOM     65  C   UNL A   1      42.241  32.849  29.872  1.00  0.00     0.031 C 
ATOM     66  C   UNL A   1      44.299  32.310  28.600  1.00  0.00     0.037 A 
BRANCH  53  67
ATOM     67  C   UNL A   1      47.260  27.684  25.784  1.00  0.00     0.064 A 
ATOM     68  C   UNL A   1      48.377  27.178  26.465  1.00  0.00     0.173 A 
ATOM     69  C   UNL A   1      47.304  27.716  24.382  1.00  0.00     0.173 A 
ATOM     70  F   UNL A   1      48.389  27.139  27.806  1.00  0.00    -0.203 F 
ATOM     71  C   UNL A   1      49.502  26.743  25.770  1.00  0.00     0.198 A 
ATOM     72  C   UNL A   1      48.420  27.255  23.689  1.00  0.00     0.198 A 
ATOM     73  F   UNL A   1      46.259  28.186  23.683  1.00  0.00    -0.203 F 
ATOM     74  F   UNL A   1      50.575  26.302  26.442  1.00  0.00    -0.200 F 
ATOM     75  C   UNL A   1      49.520  26.776  24.383  1.00  0.00     0.200 A 
ATOM     76  F   UNL A   1      48.432  27.279  22.349  1.00  0.00    -0.200 F 
ATOM     77  F   UNL A   1      50.602  26.351  23.715  1.00  0.00    -0.200 F 
ENDBRANCH  53  67
BRANCH  54  78
ATOM     78  C   UNL A   1      39.018  30.279  30.749  1.00  0.00     0.064 A 
ATOM     79  C   UNL A   1      37.895  30.796  30.088  1.00  0.00     0.173 A 
ATOM     80  C   UNL A   1      38.962  30.169  32.147  1.00  0.00     0.173 A 
ATOM     81  F   UNL A   1      37.913  30.948  28.757  1.00  0.00    -0.203 F 
ATOM     82  C   UNL A   1      36.767  31.201  30.799  1.00  0.00     0.198 A 
ATOM     83  C   UNL A   1      37.823  30.550  32.852  1.00  0.00     0.198 A 
ATOM     84  F   UNL A   1      40.014  29.688  32.824  1.00  0.00    -0.203 F 
ATOM     85  F   UNL A   1      35.724  31.734  30.148  1.00  0.00    -0.200 F 
ATOM     86  C   UNL A   1      36.729  31.072  32.179  1.00  0.00     0.200 A 
ATOM     87  F   UNL A   1      37.788  30.417  34.186  1.00  0.00    -0.200 F 
ATOM     88  F   UNL A   1      35.644  31.461  32.861  1.00  0.00    -0.200 F 
ENDBRANCH  54  78
BRANCH  66  89
ATOM     89  C   UNL A   1      44.735  33.737  28.772  1.00  0.00     0.064 A 
ATOM     90  C   UNL A   1      44.365  34.735  27.859  1.00  0.00     0.173 A 
ATOM     91  C   UNL A   1      45.497  34.115  29.888  1.00  0.00     0.173 A 
ATOM     92  F   UNL A   1      43.648  34.420  26.770  1.00  0.00    -0.203 F 
ATOM     93  C   UNL A   1      44.760  36.057  28.047  1.00  0.00     0.198 A 
ATOM     94  C   UNL A   1      45.867  35.443  30.086  1.00  0.00     0.198 A 
ATOM     95  F   UNL A   1      45.872  33.200  30.794  1.00  0.00    -0.203 F 
ATOM     96  F   UNL A   1      44.430  36.988  27.141  1.00  0.00    -0.200 F 
ATOM     97  C   UNL A   1      45.504  36.411  29.162  1.00  0.00     0.200 A 
ATOM     98  F   UNL A   1      46.575  35.785  31.172  1.00  0.00    -0.200 F 
ATOM     99  F   UNL A   1      45.877  37.685  29.344  1.00  0.00    -0.200 F 
ENDBRANCH  66  89
ENDBRANCH  40  41
ENDBRANCH  33  35
ENDBRANCH  32  33
ENDBRANCH  31  32
ENDBRANCH  30  31
ENDBRANCH  29  30
ENDBRANCH   1  29
TORSDOF 17
ENDMDL
MODEL 3
REMARK VINA RESULT:     -12.1      4.334     10.315
REMARK SMILES C[C@H](C(=O)OCCOCCOC(=O)c1ccc(-c2c3nc(c(-c4c(F)c(F)c(F)c(F)c4F)c4ccc([nH]4)c(-c4c(F)c(F)c(F)c(F)c4F)c4nc(c(-c5c(F)c(F)c(F)c(F)c5F)c5ccc2[nH]5)C=C4)C=C3)cc1)N1C(=O)C[C@@H](N2C(=O)/C(=C/c3ccccc3)SC2=S)C1=O
REMARK SMILES IDX 7 1 6 2 5 3 3 4 4 5 2 6 1 7 77 8 78 9 96 10 79 11 80 12
REMARK SMILES IDX 81 13 97 14 82 15 83 16 94 17 84 18 85 19 93 20 95 21 86 22
REMARK SMILES IDX 87 23 88 24 92 25 89 26 91 27 90 28 8 29 9 30 10 31 11 32
REMARK SMILES IDX 12 33 13 34 14 35 15 36 76 37 16 38 75 39 17 40 18 41 19 42
REMARK SMILES IDX 69 43 20 44 74 45 68 46 70 47 21 48 73 49 67 50 66 51 22 53
REMARK SMILES IDX 54 54 34 55 53 56 35 57 38 58 52 59 71 60 36 61 37 62 51 64
REMARK SMILES IDX 72 65 39 66 23 67 24 68 32 69 25 70 26 71 30 72 33 73 27 74
REMARK SMILES IDX 28 75 31 76 29 77 55 78 56 79 64 80 57 81 58 82 62 83 65 84
REMARK SMILES IDX 59 85 60 86 63 87 61 88 40 89 41 90 49 91 42 92 43 93 47 94
REMARK SMILES IDX 50 95 44 96 45 97 48 98 46 99
REMARK H PARENT 70 52 38 63
REMARK Flexibility Score: inf
ROOT
ATOM      1  C   UNL A   1      35.362  20.065  24.690  1.00  0.00     0.202 C 
ENDROOT
BRANCH   1   2
ATOM      2  C   UNL A   1      34.007  19.409  24.951  1.00  0.00     0.261 C 
BRANCH   2   3
ATOM      3  O   UNL A   1      33.288  20.098  25.987  1.00  0.00    -0.462 OA
BRANCH   3   4
ATOM      4  C   UNL A   1      32.300  20.922  25.544  1.00  0.00     0.329 C 
ATOM      5  O   UNL A   1      31.623  20.701  24.545  1.00  0.00    -0.250 OA
BRANCH   4   6
ATOM      6  C   UNL A   1      32.099  22.169  26.421  1.00  0.00     0.200 C 
ATOM      7  C   UNL A   1      33.423  22.445  27.141  1.00  0.00     0.044 C 
BRANCH   6   8
ATOM      8  N   UNL A   1      31.514  23.346  25.758  1.00  0.00    -0.267 N 
ATOM      9  C   UNL A   1      30.453  24.009  26.315  1.00  0.00     0.232 C 
ATOM     10  C   UNL A   1      31.999  24.001  24.656  1.00  0.00     0.253 C 
ATOM     11  O   UNL A   1      29.815  23.661  27.298  1.00  0.00    -0.274 OA
ATOM     12  C   UNL A   1      30.122  25.222  25.496  1.00  0.00     0.136 C 
ATOM     13  C   UNL A   1      31.290  25.339  24.532  1.00  0.00     0.191 C 
ATOM     14  O   UNL A   1      32.911  23.659  23.918  1.00  0.00    -0.272 OA
BRANCH  13  15
ATOM     15  N   UNL A   1      32.226  26.451  24.805  1.00  0.00    -0.280 N 
ATOM     16  C   UNL A   1      32.378  26.912  26.101  1.00  0.00     0.266 C 
ATOM     17  C   UNL A   1      33.000  27.084  23.852  1.00  0.00     0.149 C 
ATOM     18  O   UNL A   1      31.838  26.434  27.090  1.00  0.00    -0.268 OA
ATOM     19  C   UNL A   1      33.283  28.086  26.150  1.00  0.00     0.081 C 
ATOM     20  S   UNL A   1      33.920  28.394  24.592  1.00  0.00    -0.054 SA
ATOM     21  S   UNL A   1      33.082  26.770  22.216  1.00  0.00    -0.052 S 
ATOM     22  C   UNL A   1      33.487  28.752  27.295  1.00  0.00     0.029 C 
BRANCH  22  23
ATOM     23  C   UNL A   1      34.286  29.966  27.490  1.00  0.00    -0.024 A 
ATOM     24  C   UNL A   1      35.671  29.857  27.662  1.00  0.00     0.008 A 
ATOM     25  C   UNL A   1      33.682  31.224  27.600  1.00  0.00     0.008 A 
ATOM     26  C   UNL A   1      36.441  30.993  27.925  1.00  0.00     0.001 A 
ATOM     27  C   UNL A   1      34.453  32.358  27.863  1.00  0.00     0.001 A 
ATOM     28  C   UNL A   1      35.832  32.242  28.025  1.00  0.00     0.000 A 
ENDBRANCH  22  23
ENDBRANCH  13  15
ENDBRANCH   6   8
ENDBRANCH   4   6
ENDBRANCH   3   4
ENDBRANCH   2   3
ENDBRANCH   1   2
BRANCH   1  29
ATOM     29  O   UNL A   1      35.331  21.463  24.405  1.00  0.00    -0.374 OA
BRANCH  29  30
ATOM     30  C   UNL A   1      36.578  22.139  24.239  1.00  0.00     0.202 C 
BRANCH  30  31
ATOM     31  C   UNL A   1      37.818  21.423  24.792  1.00  0.00     0.261 C 
BRANCH  31  32
ATOM     32  O   UNL A   1      38.145  21.824  26.140  1.00  0.00    -0.460 OA
BRANCH  32  33
ATOM     33  C   UNL A   1      39.474  21.832  26.413  1.00  0.00     0.338 C 
ATOM     34  O   UNL A   1      40.299  20.986  26.085  1.00  0.00    -0.246 OA
BRANCH  33  35
ATOM     35  C   UNL A   1      39.890  23.094  27.052  1.00  0.00     0.060 A 
ATOM     36  C   UNL A   1      39.368  24.285  26.531  1.00  0.00     0.016 A 
ATOM     37  C   UNL A   1      40.879  23.129  28.037  1.00  0.00     0.016 A 
ATOM     38  C   UNL A   1      39.868  25.516  26.956  1.00  0.00     0.010 A 
ATOM     39  C   UNL A   1      41.386  24.367  28.457  1.00  0.00     0.010 A 
ATOM     40  C   UNL A   1      40.911  25.565  27.890  1.00  0.00    -0.014 A 
BRANCH  40  41
ATOM     41  C   UNL A   1      41.595  26.857  28.149  1.00  0.00     0.031 A 
ATOM     42  C   UNL A   1      42.989  27.070  27.622  1.00  0.00     0.074 A 
ATOM     43  C   UNL A   1      40.969  27.853  28.801  1.00  0.00     0.049 A 
ATOM     44  N   UNL A   1      43.767  28.119  27.723  1.00  0.00    -0.248 NA
ATOM     45  C   UNL A   1      43.586  25.950  26.878  1.00  0.00     0.031 C 
ATOM     46  C   UNL A   1      39.607  27.790  29.325  1.00  0.00     0.029 A 
ATOM     47  N   UNL A   1      41.400  29.113  29.131  1.00  0.00    -0.354 N 
ATOM     48  C   UNL A   1      44.941  27.785  27.062  1.00  0.00     0.074 A 
ATOM     49  C   UNL A   1      44.787  26.428  26.586  1.00  0.00     0.031 C 
ATOM     50  C   UNL A   1      39.313  28.961  29.916  1.00  0.00     0.029 A 
ATOM     51  C   UNL A   1      40.475  29.845  29.834  1.00  0.00     0.049 A 
ATOM     52  H   UNL A   1      42.288  29.461  28.886  1.00  0.00     0.167 HD
ATOM     53  C   UNL A   1      46.045  28.545  26.860  1.00  0.00     0.037 A 
ATOM     54  C   UNL A   1      40.564  31.081  30.364  1.00  0.00     0.037 A 
ATOM     55  C   UNL A   1      46.200  29.898  27.325  1.00  0.00     0.049 A 
ATOM     56  C   UNL A   1      41.829  31.880  30.185  1.00  0.00     0.074 A 
ATOM     57  C   UNL A   1      47.271  30.757  27.143  1.00  0.00     0.029 A 
ATOM     58  N   UNL A   1      45.258  30.589  28.071  1.00  0.00    -0.354 N 
ATOM     59  N   UNL A   1      42.921  31.567  29.531  1.00  0.00    -0.248 NA
ATOM     60  C   UNL A   1      41.871  33.206  30.818  1.00  0.00     0.031 C 
ATOM     61  C   UNL A   1      46.997  31.949  27.821  1.00  0.00     0.029 A 
ATOM     62  C   UNL A   1      45.735  31.851  28.383  1.00  0.00     0.049 A 
ATOM     63  H   UNL A   1      44.380  30.234  28.340  1.00  0.00     0.167 HD
ATOM     64  C   UNL A   1      43.766  32.664  29.651  1.00  0.00     0.074 A 
ATOM     65  C   UNL A   1      43.056  33.655  30.431  1.00  0.00     0.031 C 
ATOM     66  C   UNL A   1      45.017  32.834  29.155  1.00  0.00     0.037 A 
BRANCH  53  67
ATOM     67  C   UNL A   1      47.190  27.919  26.120  1.00  0.00     0.064 A 
ATOM     68  C   UNL A   1      47.209  27.844  24.719  1.00  0.00     0.173 A 
ATOM     69  C   UNL A   1      48.299  27.422  26.820  1.00  0.00     0.173 A 
ATOM     70  F   UNL A   1      46.167  28.294  24.005  1.00  0.00    -0.203 F 
ATOM     71  C   UNL A   1      48.287  27.272  24.048  1.00  0.00     0.198 A 
ATOM     72  C   UNL A   1      49.387  26.874  26.144  1.00  0.00     0.198 A 
ATOM     73  F   UNL A   1      48.331  27.474  28.160  1.00  0.00    -0.203 F 
ATOM     74  F   UNL A   1      48.267  27.173  22.711  1.00  0.00    -0.200 F 
ATOM     75  C   UNL A   1      49.377  26.794  24.761  1.00  0.00     0.200 A 
ATOM     76  F   UNL A   1      50.443  26.422  26.834  1.00  0.00    -0.200 F 
ATOM     77  F   UNL A   1      50.416  26.249  24.113  1.00  0.00    -0.200 F 
ENDBRANCH  53  67
BRANCH  54  78
ATOM     78  C   UNL A   1      39.418  31.644  31.124  1.00  0.00     0.064 A 
ATOM     79  C   UNL A   1      39.150  31.236  32.437  1.00  0.00     0.173 A 
ATOM     80  C   UNL A   1      38.554  32.584  30.542  1.00  0.00     0.173 A 
ATOM     81  F   UNL A   1      39.930  30.317  33.024  1.00  0.00    -0.203 F 
ATOM     82  C   UNL A   1      38.055  31.738  33.136  1.00  0.00     0.198 A 
ATOM     83  C   UNL A   1      37.475  33.105  31.252  1.00  0.00     0.198 A 
ATOM     84  F   UNL A   1      38.763  33.000  29.284  1.00  0.00    -0.203 F 
ATOM     85  F   UNL A   1      37.795  31.298  34.376  1.00  0.00    -0.200 F 
ATOM     86  C   UNL A   1      37.221  32.676  32.546  1.00  0.00     0.200 A 
ATOM     87  F   UNL A   1      36.676  34.016  30.680  1.00  0.00    -0.200 F 
ATOM     88  F   UNL A   1      36.169  33.159  33.220  1.00  0.00    -0.200 F 
ENDBRANCH  54  78
BRANCH  66  89
ATOM     89  C   UNL A   1      45.690  34.151  29.413  1.00  0.00     0.064 A 
ATOM     90  C   UNL A   1      45.527  35.242  28.547  1.00  0.00     0.173 A 
ATOM     91  C   UNL A   1      46.473  34.335  30.563  1.00  0.00     0.173 A 
ATOM     92  F   UNL A   1      44.800  35.113  27.427  1.00  0.00    -0.203 F 
ATOM     93  C   UNL A   1      46.141  36.463  28.813  1.00  0.00     0.198 A 
ATOM     94  C   UNL A   1      47.063  35.565  30.839  1.00  0.00     0.198 A 
ATOM     95  F   UNL A   1      46.655  33.324  31.426  1.00  0.00    -0.203 F 
ATOM     96  F   UNL A   1      46.006  37.481  27.951  1.00  0.00    -0.200 F 
ATOM     97  C   UNL A   1      46.902  36.626  29.961  1.00  0.00     0.200 A 
ATOM     98  F   UNL A   1      47.787  35.724  31.956  1.00  0.00    -0.200 F 
ATOM     99  F   UNL A   1      47.486  37.804  30.219  1.00  0.00    -0.200 F 
ENDBRANCH  66  89
ENDBRANCH  40  41
ENDBRANCH  33  35
ENDBRANCH  32  33
ENDBRANCH  31  32
ENDBRANCH  30  31
ENDBRANCH  29  30
ENDBRANCH   1  29
TORSDOF 17
ENDMDL
