MODEL 1
REMARK VINA RESULT:     -11.7      0.000      0.000
REMARK SMILES CC(=O)c1ccc(N2/C(=[NH+]/C(=O)CCC(=O)OCCOCCOC(=O)c3ccc(-c4c5nc(c(-c6c(F)c(F)c(F)c(F)c6F)c6ccc([nH]6)c(-c6c(F)c(F)c(F)c(F)c6F)c6nc(c(-c7c(F)c(F)c(F)c(F)c7F)c7ccc4[nH]7)C=C6)C=C5)cc3)S[C@H]3CS(=O)(=O)C[C@@H]32)cc1
REMARK SMILES IDX 19 1 18 2 17 3 15 4 16 5 14 6 13 7 11 8 8 9 9 10 96 11 10 12
REMARK SMILES IDX 89 13 90 14 95 15 91 17 92 18 12 19 93 20 94 21 7 22 4 23
REMARK SMILES IDX 5 24 98 25 6 26 97 27 2 28 1 29 3 30 20 31 21 32 22 33 23 34
REMARK SMILES IDX 24 35 25 36 26 37 27 38 88 39 28 40 87 41 29 42 30 43 31 44
REMARK SMILES IDX 81 45 32 46 86 47 80 48 82 49 33 50 85 51 79 52 78 53 34 55
REMARK SMILES IDX 66 56 46 57 65 58 47 59 50 60 64 61 83 62 48 63 49 64 63 66
REMARK SMILES IDX 84 67 51 68 35 69 36 70 44 71 37 72 38 73 42 74 45 75 39 76
REMARK SMILES IDX 40 77 43 78 41 79 67 80 68 81 76 82 69 83 70 84 74 85 77 86
REMARK SMILES IDX 71 87 72 88 75 89 73 90 52 91 53 92 61 93 54 94 55 95 59 96
REMARK SMILES IDX 62 97 56 98 57 99 60 100 58 101
REMARK H PARENT 10 16 82 54 50 65
REMARK Flexibility Score: inf
ROOT
ATOM      1  C   UNL A   1      35.381  24.104  24.828  1.00  0.00     0.202 C 
ENDROOT
BRANCH   1   2
ATOM      2  C   UNL A   1      34.611  23.392  25.960  1.00  0.00     0.261 C 
BRANCH   2   3
ATOM      3  O   UNL A   1      33.187  23.431  25.751  1.00  0.00    -0.463 OA
BRANCH   3   4
ATOM      4  C   UNL A   1      32.485  22.276  25.769  1.00  0.00     0.306 C 
ATOM      5  O   UNL A   1      32.965  21.162  25.907  1.00  0.00    -0.252 OA
BRANCH   4   6
ATOM      6  C   UNL A   1      31.001  22.544  25.628  1.00  0.00     0.135 C 
BRANCH   6   7
ATOM      7  C   UNL A   1      30.383  23.272  26.813  1.00  0.00     0.139 C 
BRANCH   7   8
ATOM      8  C   UNL A   1      29.923  24.704  26.604  1.00  0.00     0.308 C 
ATOM      9  N   UNL A   1      31.493  27.606  25.139  1.00  0.00    -0.217 N 
ATOM     10  C   UNL A   1      30.955  26.333  25.396  1.00  0.00     0.319 C 
ATOM     11  C   UNL A   1      30.355  28.315  24.541  1.00  0.00     0.212 C 
ATOM     12  N   UNL A   1      30.872  25.692  26.508  1.00  0.00    -0.204 N 
ATOM     13  S   UNL A   1      30.007  25.807  23.944  1.00  0.00    -0.029 SA
ATOM     14  C   UNL A   1      29.975  27.481  23.317  1.00  0.00     0.120 C 
ATOM     15  C   UNL A   1      30.462  29.699  24.024  1.00  0.00     0.188 C 
ATOM     16  H   UNL A   1      31.468  25.901  27.263  1.00  0.00     0.316 HD
ATOM     17  C   UNL A   1      28.683  28.099  22.845  1.00  0.00     0.156 C 
ATOM     18  S   UNL A   1      29.195  29.806  22.777  1.00  0.00     0.155 S 
ATOM     19  O   UNL A   1      28.719  24.962  26.647  1.00  0.00    -0.247 OA
ATOM     20  O   UNL A   1      29.881  30.004  21.526  1.00  0.00    -0.229 OA
ATOM     21  O   UNL A   1      28.103  30.637  23.248  1.00  0.00    -0.229 OA
BRANCH   9  22
ATOM     22  C   UNL A   1      32.494  28.277  25.870  1.00  0.00     0.128 A 
ATOM     23  C   UNL A   1      34.595  29.718  27.251  1.00  0.00     0.018 A 
ATOM     24  C   UNL A   1      34.859  28.552  26.549  1.00  0.00     0.016 A 
ATOM     25  C   UNL A   1      33.263  30.108  27.370  1.00  0.00     0.016 A 
ATOM     26  C   UNL A   1      33.817  27.852  25.905  1.00  0.00     0.052 A 
ATOM     27  C   UNL A   1      32.234  29.398  26.673  1.00  0.00     0.052 A 
BRANCH  23  28
ATOM     28  C   UNL A   1      35.773  30.525  27.692  1.00  0.00     0.159 C 
ATOM     29  C   UNL A   1      37.159  29.946  27.650  1.00  0.00     0.093 C 
ATOM     30  O   UNL A   1      35.580  31.691  28.035  1.00  0.00    -0.295 OA
ENDBRANCH  23  28
ENDBRANCH   9  22
ENDBRANCH   7   8
ENDBRANCH   6   7
ENDBRANCH   4   6
ENDBRANCH   3   4
ENDBRANCH   2   3
ENDBRANCH   1   2
BRANCH   1  31
ATOM     31  O   UNL A   1      36.089  23.208  23.966  1.00  0.00    -0.374 OA
BRANCH  31  32
ATOM     32  C   UNL A   1      36.023  21.840  24.355  1.00  0.00     0.202 C 
BRANCH  32  33
ATOM     33  C   UNL A   1      37.330  21.284  24.934  1.00  0.00     0.261 C 
BRANCH  33  34
ATOM     34  O   UNL A   1      37.929  22.175  25.908  1.00  0.00    -0.460 OA
BRANCH  34  35
ATOM     35  C   UNL A   1      39.178  21.837  26.317  1.00  0.00     0.338 C 
ATOM     36  O   UNL A   1      39.729  20.760  26.161  1.00  0.00    -0.246 OA
BRANCH  35  37
ATOM     37  C   UNL A   1      39.915  22.997  26.888  1.00  0.00     0.060 A 
ATOM     38  C   UNL A   1      39.589  24.268  26.398  1.00  0.00     0.016 A 
ATOM     39  C   UNL A   1      40.988  22.876  27.774  1.00  0.00     0.016 A 
ATOM     40  C   UNL A   1      40.266  25.426  26.842  1.00  0.00     0.010 A 
ATOM     41  C   UNL A   1      41.666  24.041  28.219  1.00  0.00     0.010 A 
ATOM     42  C   UNL A   1      41.277  25.345  27.806  1.00  0.00    -0.014 A 
BRANCH  42  43
ATOM     43  C   UNL A   1      42.101  26.547  28.201  1.00  0.00     0.031 A 
ATOM     44  C   UNL A   1      41.317  27.666  28.802  1.00  0.00     0.074 A 
ATOM     45  C   UNL A   1      43.451  26.722  28.168  1.00  0.00     0.049 A 
ATOM     46  N   UNL A   1      41.656  28.907  29.004  1.00  0.00    -0.248 NA
ATOM     47  C   UNL A   1      39.993  27.295  29.328  1.00  0.00     0.031 C 
ATOM     48  C   UNL A   1      44.499  25.709  28.066  1.00  0.00     0.029 A 
ATOM     49  N   UNL A   1      44.178  27.901  28.057  1.00  0.00    -0.354 N 
ATOM     50  C   UNL A   1      40.623  29.442  29.748  1.00  0.00     0.074 A 
ATOM     51  C   UNL A   1      39.599  28.430  29.871  1.00  0.00     0.031 C 
ATOM     52  C   UNL A   1      45.644  26.278  27.629  1.00  0.00     0.029 A 
ATOM     53  C   UNL A   1      45.443  27.713  27.510  1.00  0.00     0.049 A 
ATOM     54  H   UNL A   1      43.833  28.780  28.336  1.00  0.00     0.167 HD
ATOM     55  C   UNL A   1      40.569  30.656  30.337  1.00  0.00     0.037 A 
ATOM     56  C   UNL A   1      46.289  28.607  26.940  1.00  0.00     0.037 A 
ATOM     57  C   UNL A   1      41.576  31.661  30.177  1.00  0.00     0.049 A 
ATOM     58  C   UNL A   1      46.027  30.061  27.202  1.00  0.00     0.074 A 
ATOM     59  C   UNL A   1      41.594  32.951  30.670  1.00  0.00     0.029 A 
ATOM     60  N   UNL A   1      42.741  31.491  29.440  1.00  0.00    -0.354 N 
ATOM     61  N   UNL A   1      45.027  30.603  27.847  1.00  0.00    -0.248 NA
ATOM     62  C   UNL A   1      47.072  31.012  26.792  1.00  0.00     0.031 C 
ATOM     63  C   UNL A   1      42.737  33.584  30.174  1.00  0.00     0.029 A 
ATOM     64  C   UNL A   1      43.467  32.668  29.434  1.00  0.00     0.049 A 
ATOM     65  H   UNL A   1      43.010  30.658  28.990  1.00  0.00     0.167 HD
ATOM     66  C   UNL A   1      45.377  31.927  28.034  1.00  0.00     0.074 A 
ATOM     67  C   UNL A   1      46.643  32.131  27.360  1.00  0.00     0.031 C 
ATOM     68  C   UNL A   1      44.734  32.858  28.774  1.00  0.00     0.037 A 
BRANCH  55  69
ATOM     69  C   UNL A   1      39.338  30.928  31.138  1.00  0.00     0.064 A 
ATOM     70  C   UNL A   1      38.309  31.749  30.647  1.00  0.00     0.173 A 
ATOM     71  C   UNL A   1      39.255  30.478  32.461  1.00  0.00     0.173 A 
ATOM     72  F   UNL A   1      38.373  32.243  29.400  1.00  0.00    -0.203 F 
ATOM     73  C   UNL A   1      37.270  32.159  31.476  1.00  0.00     0.198 A 
ATOM     74  C   UNL A   1      38.196  30.861  33.275  1.00  0.00     0.198 A 
ATOM     75  F   UNL A   1      40.224  29.708  32.976  1.00  0.00    -0.203 F 
ATOM     76  F   UNL A   1      36.357  33.030  31.024  1.00  0.00    -0.200 F 
ATOM     77  C   UNL A   1      37.216  31.715  32.789  1.00  0.00     0.200 A 
ATOM     78  F   UNL A   1      38.144  30.435  34.544  1.00  0.00    -0.200 F 
ATOM     79  F   UNL A   1      36.232  32.134  33.597  1.00  0.00    -0.200 F 
ENDBRANCH  55  69
BRANCH  56  80
ATOM     80  C   UNL A   1      47.483  28.245  26.114  1.00  0.00     0.064 A 
ATOM     81  C   UNL A   1      47.387  27.855  24.774  1.00  0.00     0.173 A 
ATOM     82  C   UNL A   1      48.743  28.095  26.725  1.00  0.00     0.173 A 
ATOM     83  F   UNL A   1      46.188  27.820  24.175  1.00  0.00    -0.203 F 
ATOM     84  C   UNL A   1      48.508  27.403  24.066  1.00  0.00     0.198 A 
ATOM     85  C   UNL A   1      49.877  27.714  26.002  1.00  0.00     0.198 A 
ATOM     86  F   UNL A   1      48.854  28.225  28.056  1.00  0.00    -0.203 F 
ATOM     87  F   UNL A   1      48.368  26.959  22.808  1.00  0.00    -0.200 F 
ATOM     88  C   UNL A   1      49.757  27.366  24.669  1.00  0.00     0.200 A 
ATOM     89  F   UNL A   1      51.071  27.634  26.607  1.00  0.00    -0.200 F 
ATOM     90  F   UNL A   1      50.828  26.944  23.981  1.00  0.00    -0.200 F 
ENDBRANCH  56  80
BRANCH  68  91
ATOM     91  C   UNL A   1      45.428  34.163  28.997  1.00  0.00     0.064 A 
ATOM     92  C   UNL A   1      45.232  35.266  28.160  1.00  0.00     0.173 A 
ATOM     93  C   UNL A   1      46.233  34.325  30.136  1.00  0.00     0.173 A 
ATOM     94  F   UNL A   1      44.497  35.148  27.044  1.00  0.00    -0.203 F 
ATOM     95  C   UNL A   1      45.810  36.495  28.462  1.00  0.00     0.198 A 
ATOM     96  C   UNL A   1      46.779  35.562  30.454  1.00  0.00     0.198 A 
ATOM     97  F   UNL A   1      46.457  33.290  30.961  1.00  0.00    -0.203 F 
ATOM     98  F   UNL A   1      45.634  37.535  27.637  1.00  0.00    -0.200 F 
ATOM     99  C   UNL A   1      46.567  36.646  29.616  1.00  0.00     0.200 A 
ATOM    100  F   UNL A   1      47.494  35.708  31.578  1.00  0.00    -0.200 F 
ATOM    101  F   UNL A   1      47.090  37.840  29.923  1.00  0.00    -0.200 F 
ENDBRANCH  68  91
ENDBRANCH  42  43
ENDBRANCH  35  37
ENDBRANCH  34  35
ENDBRANCH  33  34
ENDBRANCH  32  33
ENDBRANCH  31  32
ENDBRANCH   1  31
TORSDOF 18
ENDMDL
MODEL 2
REMARK VINA RESULT:     -11.3      4.612     10.436
REMARK SMILES CC(=O)c1ccc(N2/C(=[NH+]/C(=O)CCC(=O)OCCOCCOC(=O)c3ccc(-c4c5nc(c(-c6c(F)c(F)c(F)c(F)c6F)c6ccc([nH]6)c(-c6c(F)c(F)c(F)c(F)c6F)c6nc(c(-c7c(F)c(F)c(F)c(F)c7F)c7ccc4[nH]7)C=C6)C=C5)cc3)S[C@H]3CS(=O)(=O)C[C@@H]32)cc1
REMARK SMILES IDX 19 1 18 2 17 3 15 4 16 5 14 6 13 7 11 8 8 9 9 10 96 11 10 12
REMARK SMILES IDX 89 13 90 14 95 15 91 17 92 18 12 19 93 20 94 21 7 22 4 23
REMARK SMILES IDX 5 24 98 25 6 26 97 27 2 28 1 29 3 30 20 31 21 32 22 33 23 34
REMARK SMILES IDX 24 35 25 36 26 37 27 38 88 39 28 40 87 41 29 42 30 43 31 44
REMARK SMILES IDX 81 45 32 46 86 47 80 48 82 49 33 50 85 51 79 52 78 53 34 55
REMARK SMILES IDX 66 56 46 57 65 58 47 59 50 60 64 61 83 62 48 63 49 64 63 66
REMARK SMILES IDX 84 67 51 68 35 69 36 70 44 71 37 72 38 73 42 74 45 75 39 76
REMARK SMILES IDX 40 77 43 78 41 79 67 80 68 81 76 82 69 83 70 84 74 85 77 86
REMARK SMILES IDX 71 87 72 88 75 89 73 90 52 91 53 92 61 93 54 94 55 95 59 96
REMARK SMILES IDX 62 97 56 98 57 99 60 100 58 101
REMARK H PARENT 10 16 82 54 50 65
REMARK Flexibility Score: inf
ROOT
ATOM      1  C   UNL A   1      33.071  28.807  26.878  1.00  0.00     0.202 C 
ENDROOT
BRANCH   1   2
ATOM      2  C   UNL A   1      32.635  27.481  26.218  1.00  0.00     0.261 C 
BRANCH   2   3
ATOM      3  O   UNL A   1      33.566  27.049  25.209  1.00  0.00    -0.463 OA
BRANCH   3   4
ATOM      4  C   UNL A   1      33.216  27.135  23.907  1.00  0.00     0.306 C 
ATOM      5  O   UNL A   1      32.747  28.125  23.368  1.00  0.00    -0.252 OA
BRANCH   4   6
ATOM      6  C   UNL A   1      33.513  25.839  23.181  1.00  0.00     0.135 C 
BRANCH   6   7
ATOM      7  C   UNL A   1      32.829  24.618  23.778  1.00  0.00     0.139 C 
BRANCH   7   8
ATOM      8  C   UNL A   1      33.305  23.249  23.328  1.00  0.00     0.308 C 
ATOM      9  N   UNL A   1      35.055  20.573  25.006  1.00  0.00    -0.217 N 
ATOM     10  C   UNL A   1      34.147  21.574  24.620  1.00  0.00     0.319 C 
ATOM     11  C   UNL A   1      34.498  19.377  24.363  1.00  0.00     0.212 C 
ATOM     12  N   UNL A   1      34.365  22.671  23.984  1.00  0.00    -0.204 N 
ATOM     13  S   UNL A   1      32.465  20.933  24.822  1.00  0.00    -0.029 SA
ATOM     14  C   UNL A   1      33.079  19.257  24.921  1.00  0.00     0.120 C 
ATOM     15  C   UNL A   1      35.082  18.029  24.550  1.00  0.00     0.188 C 
ATOM     16  H   UNL A   1      35.258  23.083  23.970  1.00  0.00     0.316 HD
ATOM     17  C   UNL A   1      32.456  18.161  24.095  1.00  0.00     0.156 C 
ATOM     18  S   UNL A   1      33.718  16.914  24.283  1.00  0.00     0.155 S 
ATOM     19  O   UNL A   1      32.816  22.743  22.316  1.00  0.00    -0.247 OA
ATOM     20  O   UNL A   1      33.490  16.253  25.543  1.00  0.00    -0.229 OA
ATOM     21  O   UNL A   1      33.880  16.224  23.018  1.00  0.00    -0.229 OA
BRANCH   9  22
ATOM     22  C   UNL A   1      36.434  20.717  25.256  1.00  0.00     0.128 A 
ATOM     23  C   UNL A   1      39.245  20.989  25.908  1.00  0.00     0.018 A 
ATOM     24  C   UNL A   1      38.355  22.037  26.091  1.00  0.00     0.016 A 
ATOM     25  C   UNL A   1      38.763  19.840  25.286  1.00  0.00     0.016 A 
ATOM     26  C   UNL A   1      36.996  21.891  25.743  1.00  0.00     0.052 A 
ATOM     27  C   UNL A   1      37.371  19.709  24.979  1.00  0.00     0.052 A 
BRANCH  23  28
ATOM     28  C   UNL A   1      40.599  21.135  26.522  1.00  0.00     0.159 C 
ATOM     29  C   UNL A   1      41.674  21.926  25.831  1.00  0.00     0.093 C 
ATOM     30  O   UNL A   1      40.788  20.638  27.632  1.00  0.00    -0.295 OA
ENDBRANCH  23  28
ENDBRANCH   9  22
ENDBRANCH   7   8
ENDBRANCH   6   7
ENDBRANCH   4   6
ENDBRANCH   3   4
ENDBRANCH   2   3
ENDBRANCH   1   2
BRANCH   1  31
ATOM     31  O   UNL A   1      32.770  29.964  26.091  1.00  0.00    -0.374 OA
BRANCH  31  32
ATOM     32  C   UNL A   1      32.104  31.003  26.801  1.00  0.00     0.202 C 
BRANCH  32  33
ATOM     33  C   UNL A   1      33.033  32.104  27.328  1.00  0.00     0.261 C 
BRANCH  33  34
ATOM     34  O   UNL A   1      32.352  33.373  27.489  1.00  0.00    -0.460 OA
BRANCH  34  35
ATOM     35  C   UNL A   1      32.959  34.260  28.320  1.00  0.00     0.338 C 
ATOM     36  O   UNL A   1      32.493  35.310  28.730  1.00  0.00    -0.246 OA
BRANCH  35  37
ATOM     37  C   UNL A   1      34.264  33.753  28.825  1.00  0.00     0.060 A 
ATOM     38  C   UNL A   1      34.233  32.899  29.935  1.00  0.00     0.016 A 
ATOM     39  C   UNL A   1      35.503  34.181  28.343  1.00  0.00     0.016 A 
ATOM     40  C   UNL A   1      35.422  32.403  30.517  1.00  0.00     0.010 A 
ATOM     41  C   UNL A   1      36.695  33.682  28.930  1.00  0.00     0.010 A 
ATOM     42  C   UNL A   1      36.675  32.735  29.992  1.00  0.00    -0.014 A 
BRANCH  42  43
ATOM     43  C   UNL A   1      37.959  32.326  30.671  1.00  0.00     0.031 A 
ATOM     44  C   UNL A   1      38.601  31.104  30.101  1.00  0.00     0.074 A 
ATOM     45  C   UNL A   1      38.655  32.951  31.661  1.00  0.00     0.049 A 
ATOM     46  N   UNL A   1      39.540  30.348  30.593  1.00  0.00    -0.248 NA
ATOM     47  C   UNL A   1      38.173  30.748  28.739  1.00  0.00     0.031 C 
ATOM     48  C   UNL A   1      38.551  34.337  32.112  1.00  0.00     0.029 A 
ATOM     49  N   UNL A   1      39.517  32.405  32.604  1.00  0.00    -0.354 N 
ATOM     50  C   UNL A   1      39.869  29.478  29.573  1.00  0.00     0.074 A 
ATOM     51  C   UNL A   1      38.962  29.725  28.476  1.00  0.00     0.031 C 
ATOM     52  C   UNL A   1      39.061  34.452  33.358  1.00  0.00     0.029 A 
ATOM     53  C   UNL A   1      39.617  33.170  33.762  1.00  0.00     0.049 A 
ATOM     54  H   UNL A   1      40.008  31.562  32.467  1.00  0.00     0.167 HD
ATOM     55  C   UNL A   1      40.890  28.596  29.535  1.00  0.00     0.037 A 
ATOM     56  C   UNL A   1      40.057  32.829  34.998  1.00  0.00     0.037 A 
ATOM     57  C   UNL A   1      41.759  28.339  30.643  1.00  0.00     0.049 A 
ATOM     58  C   UNL A   1      40.869  31.572  35.113  1.00  0.00     0.074 A 
ATOM     59  C   UNL A   1      42.783  27.417  30.742  1.00  0.00     0.029 A 
ATOM     60  N   UNL A   1      41.683  28.995  31.865  1.00  0.00    -0.354 N 
ATOM     61  N   UNL A   1      41.145  30.696  34.183  1.00  0.00    -0.248 NA
ATOM     62  C   UNL A   1      41.547  31.330  36.396  1.00  0.00     0.031 C 
ATOM     63  C   UNL A   1      43.282  27.469  32.046  1.00  0.00     0.029 A 
ATOM     64  C   UNL A   1      42.620  28.470  32.737  1.00  0.00     0.049 A 
ATOM     65  H   UNL A   1      41.057  29.724  32.079  1.00  0.00     0.167 HD
ATOM     66  C   UNL A   1      42.121  29.877  34.720  1.00  0.00     0.074 A 
ATOM     67  C   UNL A   1      42.329  30.305  36.088  1.00  0.00     0.031 C 
ATOM     68  C   UNL A   1      42.832  28.913  34.092  1.00  0.00     0.037 A 
BRANCH  55  69
ATOM     69  C   UNL A   1      41.033  27.833  28.259  1.00  0.00     0.064 A 
ATOM     70  C   UNL A   1      40.373  26.609  28.057  1.00  0.00     0.173 A 
ATOM     71  C   UNL A   1      41.949  28.261  27.291  1.00  0.00     0.173 A 
ATOM     72  F   UNL A   1      39.523  26.137  28.982  1.00  0.00    -0.203 F 
ATOM     73  C   UNL A   1      40.673  25.813  26.956  1.00  0.00     0.198 A 
ATOM     74  C   UNL A   1      42.219  27.480  26.174  1.00  0.00     0.198 A 
ATOM     75  F   UNL A   1      42.616  29.414  27.453  1.00  0.00    -0.203 F 
ATOM     76  F   UNL A   1      40.116  24.601  26.835  1.00  0.00    -0.200 F 
ATOM     77  C   UNL A   1      41.596  26.250  26.017  1.00  0.00     0.200 A 
ATOM     78  F   UNL A   1      43.113  27.898  25.269  1.00  0.00    -0.200 F 
ATOM     79  F   UNL A   1      41.909  25.469  24.973  1.00  0.00    -0.200 F 
ENDBRANCH  55  69
BRANCH  56  80
ATOM     80  C   UNL A   1      39.832  33.637  36.237  1.00  0.00     0.064 A 
ATOM     81  C   UNL A   1      40.706  34.649  36.649  1.00  0.00     0.173 A 
ATOM     82  C   UNL A   1      38.822  33.268  37.145  1.00  0.00     0.173 A 
ATOM     83  F   UNL A   1      41.783  34.943  35.908  1.00  0.00    -0.203 F 
ATOM     84  C   UNL A   1      40.534  35.301  37.878  1.00  0.00     0.198 A 
ATOM     85  C   UNL A   1      38.605  33.965  38.337  1.00  0.00     0.198 A 
ATOM     86  F   UNL A   1      38.101  32.158  36.920  1.00  0.00    -0.203 F 
ATOM     87  F   UNL A   1      41.435  36.209  38.282  1.00  0.00    -0.200 F 
ATOM     88  C   UNL A   1      39.466  34.984  38.703  1.00  0.00     0.200 A 
ATOM     89  F   UNL A   1      37.598  33.616  39.152  1.00  0.00    -0.200 F 
ATOM     90  F   UNL A   1      39.300  35.620  39.872  1.00  0.00    -0.200 F 
ENDBRANCH  56  80
BRANCH  68  91
ATOM     91  C   UNL A   1      43.984  28.313  34.831  1.00  0.00     0.064 A 
ATOM     92  C   UNL A   1      45.276  28.846  34.761  1.00  0.00     0.173 A 
ATOM     93  C   UNL A   1      43.754  27.236  35.703  1.00  0.00     0.173 A 
ATOM     94  F   UNL A   1      45.547  29.854  33.918  1.00  0.00    -0.203 F 
ATOM     95  C   UNL A   1      46.299  28.326  35.547  1.00  0.00     0.198 A 
ATOM     96  C   UNL A   1      44.769  26.744  36.512  1.00  0.00     0.198 A 
ATOM     97  F   UNL A   1      42.533  26.687  35.794  1.00  0.00    -0.203 F 
ATOM     98  F   UNL A   1      47.536  28.830  35.449  1.00  0.00    -0.200 F 
ATOM     99  C   UNL A   1      46.041  27.290  36.434  1.00  0.00     0.200 A 
ATOM    100  F   UNL A   1      44.512  25.756  37.380  1.00  0.00    -0.200 F 
ATOM    101  F   UNL A   1      47.020  26.819  37.217  1.00  0.00    -0.200 F 
ENDBRANCH  68  91
ENDBRANCH  42  43
ENDBRANCH  35  37
ENDBRANCH  34  35
ENDBRANCH  33  34
ENDBRANCH  32  33
ENDBRANCH  31  32
ENDBRANCH   1  31
TORSDOF 18
ENDMDL
MODEL 3
REMARK VINA RESULT:     -11.0      5.184      9.574
REMARK SMILES CC(=O)c1ccc(N2/C(=[NH+]/C(=O)CCC(=O)OCCOCCOC(=O)c3ccc(-c4c5nc(c(-c6c(F)c(F)c(F)c(F)c6F)c6ccc([nH]6)c(-c6c(F)c(F)c(F)c(F)c6F)c6nc(c(-c7c(F)c(F)c(F)c(F)c7F)c7ccc4[nH]7)C=C6)C=C5)cc3)S[C@H]3CS(=O)(=O)C[C@@H]32)cc1
REMARK SMILES IDX 19 1 18 2 17 3 15 4 16 5 14 6 13 7 11 8 8 9 9 10 96 11 10 12
REMARK SMILES IDX 89 13 90 14 95 15 91 17 92 18 12 19 93 20 94 21 7 22 4 23
REMARK SMILES IDX 5 24 98 25 6 26 97 27 2 28 1 29 3 30 20 31 21 32 22 33 23 34
REMARK SMILES IDX 24 35 25 36 26 37 27 38 88 39 28 40 87 41 29 42 30 43 31 44
REMARK SMILES IDX 81 45 32 46 86 47 80 48 82 49 33 50 85 51 79 52 78 53 34 55
REMARK SMILES IDX 66 56 46 57 65 58 47 59 50 60 64 61 83 62 48 63 49 64 63 66
REMARK SMILES IDX 84 67 51 68 35 69 36 70 44 71 37 72 38 73 42 74 45 75 39 76
REMARK SMILES IDX 40 77 43 78 41 79 67 80 68 81 76 82 69 83 70 84 74 85 77 86
REMARK SMILES IDX 71 87 72 88 75 89 73 90 52 91 53 92 61 93 54 94 55 95 59 96
REMARK SMILES IDX 62 97 56 98 57 99 60 100 58 101
REMARK H PARENT 10 16 82 54 50 65
REMARK Flexibility Score: inf
ROOT
ATOM      1  C   UNL A   1      34.459  35.088  27.957  1.00  0.00     0.202 C 
ENDROOT
BRANCH   1   2
ATOM      2  C   UNL A   1      34.135  33.608  27.660  1.00  0.00     0.261 C 
BRANCH   2   3
ATOM      3  O   UNL A   1      35.324  32.797  27.604  1.00  0.00    -0.463 OA
BRANCH   3   4
ATOM      4  C   UNL A   1      35.550  31.890  28.581  1.00  0.00     0.306 C 
ATOM      5  O   UNL A   1      35.103  31.951  29.715  1.00  0.00    -0.252 OA
BRANCH   4   6
ATOM      6  C   UNL A   1      36.414  30.755  28.073  1.00  0.00     0.135 C 
BRANCH   6   7
ATOM      7  C   UNL A   1      35.831  30.011  26.880  1.00  0.00     0.139 C 
BRANCH   7   8
ATOM      8  C   UNL A   1      34.494  29.316  27.065  1.00  0.00     0.308 C 
ATOM      9  N   UNL A   1      32.131  27.863  24.753  1.00  0.00    -0.217 N 
ATOM     10  C   UNL A   1      33.274  28.206  25.496  1.00  0.00     0.319 C 
ATOM     11  C   UNL A   1      31.576  26.746  25.527  1.00  0.00     0.212 C 
ATOM     12  N   UNL A   1      33.593  29.333  26.028  1.00  0.00    -0.204 N 
ATOM     13  S   UNL A   1      34.141  26.682  25.951  1.00  0.00    -0.029 SA
ATOM     14  C   UNL A   1      32.694  25.705  25.567  1.00  0.00     0.120 C 
ATOM     15  C   UNL A   1      30.383  25.988  25.084  1.00  0.00     0.188 C 
ATOM     16  H   UNL A   1      33.208  30.178  25.703  1.00  0.00     0.316 HD
ATOM     17  C   UNL A   1      32.188  24.668  26.537  1.00  0.00     0.156 C 
ATOM     18  S   UNL A   1      30.576  24.382  25.830  1.00  0.00     0.155 S 
ATOM     19  O   UNL A   1      34.199  28.860  28.172  1.00  0.00    -0.247 OA
ATOM     20  O   UNL A   1      30.738  23.452  24.742  1.00  0.00    -0.229 OA
ATOM     21  O   UNL A   1      29.620  24.217  26.908  1.00  0.00    -0.229 OA
BRANCH   9  22
ATOM     22  C   UNL A   1      31.318  28.722  23.986  1.00  0.00     0.128 A 
ATOM     23  C   UNL A   1      29.548  30.384  22.404  1.00  0.00     0.018 A 
ATOM     24  C   UNL A   1      30.338  29.407  21.818  1.00  0.00     0.016 A 
ATOM     25  C   UNL A   1      29.724  30.620  23.765  1.00  0.00     0.016 A 
ATOM     26  C   UNL A   1      31.212  28.626  22.603  1.00  0.00     0.052 A 
ATOM     27  C   UNL A   1      30.591  29.786  24.541  1.00  0.00     0.052 A 
BRANCH  23  28
ATOM     28  C   UNL A   1      28.481  30.993  21.554  1.00  0.00     0.159 C 
ATOM     29  C   UNL A   1      28.219  32.473  21.595  1.00  0.00     0.093 C 
ATOM     30  O   UNL A   1      27.865  30.259  20.782  1.00  0.00    -0.295 OA
ENDBRANCH  23  28
ENDBRANCH   9  22
ENDBRANCH   7   8
ENDBRANCH   6   7
ENDBRANCH   4   6
ENDBRANCH   3   4
ENDBRANCH   2   3
ENDBRANCH   1   2
BRANCH   1  31
ATOM     31  O   UNL A   1      34.319  35.437  29.338  1.00  0.00    -0.374 OA
BRANCH  31  32
ATOM     32  C   UNL A   1      32.978  35.679  29.752  1.00  0.00     0.202 C 
BRANCH  32  33
ATOM     33  C   UNL A   1      32.713  37.113  30.228  1.00  0.00     0.261 C 
BRANCH  33  34
ATOM     34  O   UNL A   1      33.012  37.293  31.635  1.00  0.00    -0.460 OA
BRANCH  34  35
ATOM     35  C   UNL A   1      32.697  36.244  32.437  1.00  0.00     0.338 C 
ATOM     36  O   UNL A   1      31.592  35.966  32.873  1.00  0.00    -0.246 OA
BRANCH  35  37
ATOM     37  C   UNL A   1      33.853  35.331  32.646  1.00  0.00     0.060 A 
ATOM     38  C   UNL A   1      33.568  34.006  33.000  1.00  0.00     0.016 A 
ATOM     39  C   UNL A   1      35.185  35.749  32.638  1.00  0.00     0.016 A 
ATOM     40  C   UNL A   1      34.597  33.074  33.265  1.00  0.00     0.010 A 
ATOM     41  C   UNL A   1      36.218  34.812  32.906  1.00  0.00     0.010 A 
ATOM     42  C   UNL A   1      35.944  33.441  33.166  1.00  0.00    -0.014 A 
BRANCH  42  43
ATOM     43  C   UNL A   1      37.057  32.505  33.570  1.00  0.00     0.031 A 
ATOM     44  C   UNL A   1      37.831  32.943  34.770  1.00  0.00     0.074 A 
ATOM     45  C   UNL A   1      37.400  31.292  33.056  1.00  0.00     0.049 A 
ATOM     46  N   UNL A   1      38.981  32.527  35.218  1.00  0.00    -0.248 NA
ATOM     47  C   UNL A   1      37.154  33.928  35.628  1.00  0.00     0.031 C 
ATOM     48  C   UNL A   1      36.605  30.403  32.211  1.00  0.00     0.029 A 
ATOM     49  N   UNL A   1      38.636  30.658  33.060  1.00  0.00    -0.354 N 
ATOM     50  C   UNL A   1      39.128  33.140  36.446  1.00  0.00     0.074 A 
ATOM     51  C   UNL A   1      38.008  34.036  36.627  1.00  0.00     0.031 C 
ATOM     52  C   UNL A   1      37.419  29.538  31.565  1.00  0.00     0.029 A 
ATOM     53  C   UNL A   1      38.785  29.744  32.021  1.00  0.00     0.049 A 
ATOM     54  H   UNL A   1      39.336  30.837  33.728  1.00  0.00     0.167 HD
ATOM     55  C   UNL A   1      40.084  32.919  37.372  1.00  0.00     0.037 A 
ATOM     56  C   UNL A   1      39.908  29.200  31.490  1.00  0.00     0.037 A 
ATOM     57  C   UNL A   1      41.207  32.055  37.164  1.00  0.00     0.049 A 
ATOM     58  C   UNL A   1      41.166  29.301  32.302  1.00  0.00     0.074 A 
ATOM     59  C   UNL A   1      42.274  31.808  38.005  1.00  0.00     0.029 A 
ATOM     60  N   UNL A   1      41.418  31.312  36.009  1.00  0.00    -0.354 N 
ATOM     61  N   UNL A   1      41.355  29.926  33.434  1.00  0.00    -0.248 NA
ATOM     62  C   UNL A   1      42.319  28.508  31.846  1.00  0.00     0.031 C 
ATOM     63  C   UNL A   1      43.165  30.968  37.331  1.00  0.00     0.029 A 
ATOM     64  C   UNL A   1      42.620  30.634  36.102  1.00  0.00     0.049 A 
ATOM     65  H   UNL A   1      40.804  31.273  35.241  1.00  0.00     0.167 HD
ATOM     66  C   UNL A   1      42.590  29.505  33.892  1.00  0.00     0.074 A 
ATOM     67  C   UNL A   1      43.146  28.637  32.875  1.00  0.00     0.031 C 
ATOM     68  C   UNL A   1      43.160  29.760  35.091  1.00  0.00     0.037 A 
BRANCH  55  69
ATOM     69  C   UNL A   1      39.942  33.693  38.641  1.00  0.00     0.064 A 
ATOM     70  C   UNL A   1      39.059  33.285  39.655  1.00  0.00     0.173 A 
ATOM     71  C   UNL A   1      40.589  34.927  38.781  1.00  0.00     0.173 A 
ATOM     72  F   UNL A   1      38.381  32.133  39.539  1.00  0.00    -0.203 F 
ATOM     73  C   UNL A   1      38.785  34.117  40.736  1.00  0.00     0.198 A 
ATOM     74  C   UNL A   1      40.340  35.738  39.881  1.00  0.00     0.198 A 
ATOM     75  F   UNL A   1      41.426  35.364  37.828  1.00  0.00    -0.203 F 
ATOM     76  F   UNL A   1      37.859  33.761  41.637  1.00  0.00    -0.200 F 
ATOM     77  C   UNL A   1      39.425  35.343  40.846  1.00  0.00     0.200 A 
ATOM     78  F   UNL A   1      40.955  36.924  39.986  1.00  0.00    -0.200 F 
ATOM     79  F   UNL A   1      39.138  36.158  41.871  1.00  0.00    -0.200 F 
ENDBRANCH  55  69
BRANCH  56  80
ATOM     80  C   UNL A   1      39.969  28.472  30.184  1.00  0.00     0.064 A 
ATOM     81  C   UNL A   1      40.315  29.100  28.983  1.00  0.00     0.173 A 
ATOM     82  C   UNL A   1      39.483  27.154  30.090  1.00  0.00     0.173 A 
ATOM     83  F   UNL A   1      40.633  30.402  28.979  1.00  0.00    -0.203 F 
ATOM     84  C   UNL A   1      40.242  28.420  27.760  1.00  0.00     0.198 A 
ATOM     85  C   UNL A   1      39.478  26.450  28.882  1.00  0.00     0.198 A 
ATOM     86  F   UNL A   1      38.917  26.577  31.161  1.00  0.00    -0.203 F 
ATOM     87  F   UNL A   1      40.500  29.072  26.617  1.00  0.00    -0.200 F 
ATOM     88  C   UNL A   1      39.858  27.088  27.715  1.00  0.00     0.200 A 
ATOM     89  F   UNL A   1      39.058  25.177  28.841  1.00  0.00    -0.200 F 
ATOM     90  F   UNL A   1      39.802  26.439  26.542  1.00  0.00    -0.200 F 
ENDBRANCH  56  80
BRANCH  68  91
ATOM     91  C   UNL A   1      44.408  29.012  35.435  1.00  0.00     0.064 A 
ATOM     92  C   UNL A   1      44.382  27.764  36.065  1.00  0.00     0.173 A 
ATOM     93  C   UNL A   1      45.649  29.529  35.030  1.00  0.00     0.173 A 
ATOM     94  F   UNL A   1      43.221  27.248  36.496  1.00  0.00    -0.203 F 
ATOM     95  C   UNL A   1      45.558  27.050  36.270  1.00  0.00     0.198 A 
ATOM     96  C   UNL A   1      46.817  28.797  35.204  1.00  0.00     0.198 A 
ATOM     97  F   UNL A   1      45.722  30.728  34.431  1.00  0.00    -0.203 F 
ATOM     98  F   UNL A   1      45.519  25.868  36.899  1.00  0.00    -0.200 F 
ATOM     99  C   UNL A   1      46.770  27.559  35.824  1.00  0.00     0.200 A 
ATOM    100  F   UNL A   1      47.983  29.284  34.755  1.00  0.00    -0.200 F 
ATOM    101  F   UNL A   1      47.895  26.851  35.989  1.00  0.00    -0.200 F 
ENDBRANCH  68  91
ENDBRANCH  42  43
ENDBRANCH  35  37
ENDBRANCH  34  35
ENDBRANCH  33  34
ENDBRANCH  32  33
ENDBRANCH  31  32
ENDBRANCH   1  31
TORSDOF 18
ENDMDL
