MODEL 1
REMARK VINA RESULT:     -12.5      0.000      0.000
REMARK SMILES O=C(OCCOCCOC(=O)[C@H](c1cnn(Cc2ccccc2)c1)[NH+]1CCOCC1)c1ccc(-c2c3nc(c(-c4c(F)c(F)c(F)c(F)c4F)c4ccc([nH]4)c(-c4c(F)c(F)c(F)c(F)c4F)c4nc(c(-c5c(F)c(F)c(F)c(F)c5F)c5ccc2[nH]5)C=C4)C=C3)cc1
REMARK SMILES IDX 7 1 6 2 5 3 4 4 3 5 2 6 1 7 31 8 32 9 93 10 33 11 92 12
REMARK SMILES IDX 34 13 35 14 36 15 86 16 37 17 91 18 85 19 87 20 38 21 90 22
REMARK SMILES IDX 84 23 83 24 39 26 71 27 51 28 70 29 52 30 55 31 69 32 88 33
REMARK SMILES IDX 53 34 54 35 68 37 89 38 56 39 40 40 41 41 49 42 42 43 43 44
REMARK SMILES IDX 47 45 50 46 44 47 45 48 48 49 46 50 72 51 73 52 81 53 74 54
REMARK SMILES IDX 75 55 79 56 82 57 76 58 77 59 80 60 78 61 57 62 58 63 66 64
REMARK SMILES IDX 59 65 60 66 64 67 67 68 61 69 62 70 65 71 63 72 8 73 9 74
REMARK SMILES IDX 10 75 11 76 12 77 25 78 26 79 30 80 27 82 29 83 28 84 13 85
REMARK SMILES IDX 14 86 24 87 15 88 16 89 17 90 18 91 19 92 23 93 20 94 22 95
REMARK SMILES IDX 21 96
REMARK H PARENT 87 25 55 36 25 81
REMARK Flexibility Score: inf
ROOT
ATOM      1  C   UNL A   1      32.895  30.240  27.241  1.00  0.00     0.202 C 
ENDROOT
BRANCH   1   2
ATOM      2  O   UNL A   1      34.273  30.541  27.035  1.00  0.00    -0.374 OA
BRANCH   2   3
ATOM      3  C   UNL A   1      34.902  31.620  27.723  1.00  0.00     0.202 C 
BRANCH   3   4
ATOM      4  C   UNL A   1      36.194  31.400  28.536  1.00  0.00     0.261 C 
BRANCH   4   5
ATOM      5  O   UNL A   1      37.058  30.429  27.944  1.00  0.00    -0.460 OA
BRANCH   5   6
ATOM      6  C   UNL A   1      37.833  29.553  28.620  1.00  0.00     0.338 C 
ATOM      7  O   UNL A   1      37.665  29.394  29.828  1.00  0.00    -0.246 OA
BRANCH   6   8
ATOM      8  C   UNL A   1      38.846  28.730  27.913  1.00  0.00     0.060 A 
ATOM      9  C   UNL A   1      38.983  27.344  28.032  1.00  0.00     0.016 A 
ATOM     10  C   UNL A   1      39.821  29.450  27.233  1.00  0.00     0.016 A 
ATOM     11  C   UNL A   1      40.230  26.795  28.017  1.00  0.00     0.010 A 
ATOM     12  C   UNL A   1      41.032  28.850  27.004  1.00  0.00     0.010 A 
ATOM     13  C   UNL A   1      41.260  27.596  27.575  1.00  0.00    -0.014 A 
BRANCH  13  14
ATOM     14  C   UNL A   1      42.592  27.040  27.622  1.00  0.00     0.031 A 
ATOM     15  C   UNL A   1      43.335  27.387  28.870  1.00  0.00     0.074 A 
ATOM     16  C   UNL A   1      42.913  26.178  26.640  1.00  0.00     0.049 A 
ATOM     17  N   UNL A   1      44.579  27.709  29.020  1.00  0.00    -0.248 NA
ATOM     18  C   UNL A   1      42.532  27.549  30.106  1.00  0.00     0.031 C 
ATOM     19  C   UNL A   1      42.081  25.757  25.500  1.00  0.00     0.029 A 
ATOM     20  N   UNL A   1      43.956  25.320  26.583  1.00  0.00    -0.354 N 
ATOM     21  C   UNL A   1      44.747  27.905  30.391  1.00  0.00     0.074 A 
ATOM     22  C   UNL A   1      43.439  27.981  30.975  1.00  0.00     0.031 C 
ATOM     23  C   UNL A   1      42.501  24.552  25.066  1.00  0.00     0.029 A 
ATOM     24  C   UNL A   1      43.693  24.198  25.805  1.00  0.00     0.049 A 
ATOM     25  H   UNL A   1      44.813  25.475  27.043  1.00  0.00     0.167 HD
ATOM     26  C   UNL A   1      45.943  27.694  30.998  1.00  0.00     0.037 A 
ATOM     27  C   UNL A   1      44.327  23.011  25.959  1.00  0.00     0.037 A 
ATOM     28  C   UNL A   1      47.037  27.874  30.086  1.00  0.00     0.049 A 
ATOM     29  C   UNL A   1      45.583  23.299  26.710  1.00  0.00     0.074 A 
ATOM     30  C   UNL A   1      47.506  28.953  29.363  1.00  0.00     0.029 A 
ATOM     31  N   UNL A   1      47.600  26.764  29.507  1.00  0.00    -0.354 N 
ATOM     32  N   UNL A   1      46.548  24.046  26.233  1.00  0.00    -0.248 NA
ATOM     33  C   UNL A   1      45.538  23.194  28.164  1.00  0.00     0.031 C 
ATOM     34  C   UNL A   1      47.908  28.408  28.108  1.00  0.00     0.029 A 
ATOM     35  C   UNL A   1      47.718  27.027  28.164  1.00  0.00     0.049 A 
ATOM     36  H   UNL A   1      47.867  25.935  29.966  1.00  0.00     0.167 HD
ATOM     37  C   UNL A   1      46.984  24.805  27.314  1.00  0.00     0.074 A 
ATOM     38  C   UNL A   1      46.358  24.199  28.486  1.00  0.00     0.031 C 
ATOM     39  C   UNL A   1      47.573  26.025  27.136  1.00  0.00     0.037 A 
BRANCH  26  40
ATOM     40  C   UNL A   1      46.056  26.950  32.301  1.00  0.00     0.064 A 
ATOM     41  C   UNL A   1      45.639  25.610  32.371  1.00  0.00     0.173 A 
ATOM     42  C   UNL A   1      46.280  27.586  33.546  1.00  0.00     0.173 A 
ATOM     43  F   UNL A   1      45.376  24.920  31.251  1.00  0.00    -0.203 F 
ATOM     44  C   UNL A   1      45.400  24.978  33.595  1.00  0.00     0.198 A 
ATOM     45  C   UNL A   1      46.095  26.937  34.763  1.00  0.00     0.198 A 
ATOM     46  F   UNL A   1      46.577  28.887  33.643  1.00  0.00    -0.203 F 
ATOM     47  F   UNL A   1      44.888  23.741  33.615  1.00  0.00    -0.200 F 
ATOM     48  C   UNL A   1      45.623  25.644  34.788  1.00  0.00     0.200 A 
ATOM     49  F   UNL A   1      46.299  27.609  35.904  1.00  0.00    -0.200 F 
ATOM     50  F   UNL A   1      45.334  25.063  35.959  1.00  0.00    -0.200 F 
ENDBRANCH  26  40
BRANCH  27  51
ATOM     51  C   UNL A   1      43.674  21.682  25.901  1.00  0.00     0.064 A 
ATOM     52  C   UNL A   1      44.216  20.644  25.133  1.00  0.00     0.173 A 
ATOM     53  C   UNL A   1      42.611  21.334  26.765  1.00  0.00     0.173 A 
ATOM     54  F   UNL A   1      45.264  20.881  24.332  1.00  0.00    -0.203 F 
ATOM     55  C   UNL A   1      43.718  19.338  25.214  1.00  0.00     0.198 A 
ATOM     56  C   UNL A   1      42.107  20.036  26.833  1.00  0.00     0.198 A 
ATOM     57  F   UNL A   1      42.093  22.227  27.620  1.00  0.00    -0.203 F 
ATOM     58  F   UNL A   1      44.287  18.361  24.494  1.00  0.00    -0.200 F 
ATOM     59  C   UNL A   1      42.665  19.036  26.063  1.00  0.00     0.200 A 
ATOM     60  F   UNL A   1      41.110  19.754  27.686  1.00  0.00    -0.200 F 
ATOM     61  F   UNL A   1      42.215  17.778  26.167  1.00  0.00    -0.200 F 
ENDBRANCH  27  51
BRANCH  39  62
ATOM     62  C   UNL A   1      47.866  26.464  25.726  1.00  0.00     0.064 A 
ATOM     63  C   UNL A   1      46.981  27.247  24.964  1.00  0.00     0.173 A 
ATOM     64  C   UNL A   1      49.143  26.250  25.199  1.00  0.00     0.173 A 
ATOM     65  F   UNL A   1      45.789  27.602  25.453  1.00  0.00    -0.203 F 
ATOM     66  C   UNL A   1      47.338  27.751  23.715  1.00  0.00     0.198 A 
ATOM     67  C   UNL A   1      49.513  26.785  23.966  1.00  0.00     0.198 A 
ATOM     68  F   UNL A   1      50.058  25.575  25.912  1.00  0.00    -0.203 F 
ATOM     69  F   UNL A   1      46.467  28.493  23.014  1.00  0.00    -0.200 F 
ATOM     70  C   UNL A   1      48.609  27.525  23.220  1.00  0.00     0.200 A 
ATOM     71  F   UNL A   1      50.764  26.614  23.517  1.00  0.00    -0.200 F 
ATOM     72  F   UNL A   1      48.975  28.050  22.042  1.00  0.00    -0.200 F 
ENDBRANCH  39  62
ENDBRANCH  13  14
ENDBRANCH   6   8
ENDBRANCH   5   6
ENDBRANCH   4   5
ENDBRANCH   3   4
ENDBRANCH   2   3
ENDBRANCH   1   2
BRANCH   1  73
ATOM     73  C   UNL A   1      32.103  29.388  26.244  1.00  0.00     0.261 C 
BRANCH  73  74
ATOM     74  O   UNL A   1      32.023  27.990  26.566  1.00  0.00    -0.459 OA
BRANCH  74  75
ATOM     75  C   UNL A   1      32.879  27.215  25.831  1.00  0.00     0.370 C 
ATOM     76  O   UNL A   1      34.100  27.267  25.970  1.00  0.00    -0.245 OA
BRANCH  75  77
ATOM     77  C   UNL A   1      32.163  26.311  24.784  1.00  0.00     0.329 C 
BRANCH  77  78
ATOM     78  N   UNL A   1      31.632  25.152  25.552  1.00  0.00    -0.315 N 
ATOM     79  C   UNL A   1      32.636  24.516  26.407  1.00  0.00     0.292 C 
ATOM     80  C   UNL A   1      30.801  24.115  24.939  1.00  0.00     0.292 C 
ATOM     81  H   UNL A   1      30.934  25.688  26.069  1.00  0.00     0.349 HD
ATOM     82  C   UNL A   1      33.455  23.484  25.619  1.00  0.00     0.221 C 
ATOM     83  C   UNL A   1      31.629  23.078  24.164  1.00  0.00     0.221 C 
ATOM     84  O   UNL A   1      32.613  22.483  25.025  1.00  0.00    -0.370 OA
ENDBRANCH  77  78
BRANCH  77  85
ATOM     85  C   UNL A   1      31.148  26.966  23.864  1.00  0.00     0.059 A 
ATOM     86  C   UNL A   1      31.342  27.532  22.580  1.00  0.00     0.145 A 
ATOM     87  C   UNL A   1      29.800  27.230  24.099  1.00  0.00     0.119 A 
ATOM     88  N   UNL A   1      30.256  28.094  22.065  1.00  0.00    -0.181 NA
ATOM     89  N   UNL A   1      29.335  27.967  23.036  1.00  0.00    -0.268 N 
BRANCH  89  90
ATOM     90  C   UNL A   1      28.013  28.564  22.844  1.00  0.00     0.179 C 
BRANCH  90  91
ATOM     91  C   UNL A   1      28.097  30.046  22.528  1.00  0.00    -0.027 A 
ATOM     92  C   UNL A   1      28.314  30.988  23.542  1.00  0.00     0.005 A 
ATOM     93  C   UNL A   1      27.989  30.503  21.201  1.00  0.00     0.005 A 
ATOM     94  C   UNL A   1      28.452  32.344  23.231  1.00  0.00     0.000 A 
ATOM     95  C   UNL A   1      28.145  31.854  20.890  1.00  0.00     0.000 A 
ATOM     96  C   UNL A   1      28.380  32.775  21.906  1.00  0.00     0.000 A 
ENDBRANCH  90  91
ENDBRANCH  89  90
ENDBRANCH  77  85
ENDBRANCH  75  77
ENDBRANCH  74  75
ENDBRANCH  73  74
ENDBRANCH   1  73
TORSDOF 18
ENDMDL
MODEL 2
REMARK VINA RESULT:     -12.3      1.822      4.468
REMARK SMILES O=C(OCCOCCOC(=O)[C@H](c1cnn(Cc2ccccc2)c1)[NH+]1CCOCC1)c1ccc(-c2c3nc(c(-c4c(F)c(F)c(F)c(F)c4F)c4ccc([nH]4)c(-c4c(F)c(F)c(F)c(F)c4F)c4nc(c(-c5c(F)c(F)c(F)c(F)c5F)c5ccc2[nH]5)C=C4)C=C3)cc1
REMARK SMILES IDX 7 1 6 2 5 3 4 4 3 5 2 6 1 7 31 8 32 9 93 10 33 11 92 12
REMARK SMILES IDX 34 13 35 14 36 15 86 16 37 17 91 18 85 19 87 20 38 21 90 22
REMARK SMILES IDX 84 23 83 24 39 26 71 27 51 28 70 29 52 30 55 31 69 32 88 33
REMARK SMILES IDX 53 34 54 35 68 37 89 38 56 39 40 40 41 41 49 42 42 43 43 44
REMARK SMILES IDX 47 45 50 46 44 47 45 48 48 49 46 50 72 51 73 52 81 53 74 54
REMARK SMILES IDX 75 55 79 56 82 57 76 58 77 59 80 60 78 61 57 62 58 63 66 64
REMARK SMILES IDX 59 65 60 66 64 67 67 68 61 69 62 70 65 71 63 72 8 73 9 74
REMARK SMILES IDX 10 75 11 76 12 77 25 78 26 79 30 80 27 82 29 83 28 84 13 85
REMARK SMILES IDX 14 86 24 87 15 88 16 89 17 90 18 91 19 92 23 93 20 94 22 95
REMARK SMILES IDX 21 96
REMARK H PARENT 87 25 55 36 25 81
REMARK Flexibility Score: inf
ROOT
ATOM      1  C   UNL A   1      31.982  29.258  27.271  1.00  0.00     0.202 C 
ENDROOT
BRANCH   1   2
ATOM      2  O   UNL A   1      33.352  29.483  27.594  1.00  0.00    -0.374 OA
BRANCH   2   3
ATOM      3  C   UNL A   1      33.997  30.708  27.252  1.00  0.00     0.202 C 
BRANCH   3   4
ATOM      4  C   UNL A   1      35.419  31.025  27.757  1.00  0.00     0.261 C 
BRANCH   4   5
ATOM      5  O   UNL A   1      36.253  29.866  27.819  1.00  0.00    -0.460 OA
BRANCH   5   6
ATOM      6  C   UNL A   1      37.493  29.820  28.352  1.00  0.00     0.338 C 
ATOM      7  O   UNL A   1      37.768  30.524  29.323  1.00  0.00    -0.246 OA
BRANCH   6   8
ATOM      8  C   UNL A   1      38.516  28.885  27.820  1.00  0.00     0.060 A 
ATOM      9  C   UNL A   1      38.635  27.537  28.171  1.00  0.00     0.016 A 
ATOM     10  C   UNL A   1      39.516  29.475  27.058  1.00  0.00     0.016 A 
ATOM     11  C   UNL A   1      39.876  26.985  28.282  1.00  0.00     0.010 A 
ATOM     12  C   UNL A   1      40.727  28.839  26.966  1.00  0.00     0.010 A 
ATOM     13  C   UNL A   1      40.926  27.696  27.743  1.00  0.00    -0.014 A 
BRANCH  13  14
ATOM     14  C   UNL A   1      42.250  27.147  27.919  1.00  0.00     0.031 A 
ATOM     15  C   UNL A   1      42.855  27.473  29.244  1.00  0.00     0.074 A 
ATOM     16  C   UNL A   1      42.680  26.308  26.959  1.00  0.00     0.049 A 
ATOM     17  N   UNL A   1      44.074  27.799  29.532  1.00  0.00    -0.248 NA
ATOM     18  C   UNL A   1      41.925  27.603  30.392  1.00  0.00     0.031 C 
ATOM     19  C   UNL A   1      41.976  25.905  25.729  1.00  0.00     0.029 A 
ATOM     20  N   UNL A   1      43.731  25.458  26.995  1.00  0.00    -0.354 N 
ATOM     21  C   UNL A   1      44.094  27.968  30.916  1.00  0.00     0.074 A 
ATOM     22  C   UNL A   1      42.732  28.022  31.361  1.00  0.00     0.031 C 
ATOM     23  C   UNL A   1      42.450  24.713  25.318  1.00  0.00     0.029 A 
ATOM     24  C   UNL A   1      43.561  24.351  26.171  1.00  0.00     0.049 A 
ATOM     25  H   UNL A   1      44.533  25.608  27.546  1.00  0.00     0.167 HD
ATOM     26  C   UNL A   1      45.222  27.752  31.641  1.00  0.00     0.037 A 
ATOM     27  C   UNL A   1      44.185  23.165  26.367  1.00  0.00     0.037 A 
ATOM     28  C   UNL A   1      46.404  27.957  30.854  1.00  0.00     0.049 A 
ATOM     29  C   UNL A   1      45.353  23.445  27.252  1.00  0.00     0.074 A 
ATOM     30  C   UNL A   1      46.937  29.054  30.206  1.00  0.00     0.029 A 
ATOM     31  N   UNL A   1      47.034  26.863  30.316  1.00  0.00    -0.354 N 
ATOM     32  N   UNL A   1      46.355  24.208  26.895  1.00  0.00    -0.248 NA
ATOM     33  C   UNL A   1      45.155  23.310  28.690  1.00  0.00     0.031 C 
ATOM     34  C   UNL A   1      47.473  28.538  28.990  1.00  0.00     0.029 A 
ATOM     35  C   UNL A   1      47.291  27.156  28.998  1.00  0.00     0.049 A 
ATOM     36  H   UNL A   1      47.259  26.026  30.783  1.00  0.00     0.167 HD
ATOM     37  C   UNL A   1      46.669  24.947  28.030  1.00  0.00     0.074 A 
ATOM     38  C   UNL A   1      45.928  24.312  29.118  1.00  0.00     0.031 C 
ATOM     39  C   UNL A   1      47.263  26.174  27.941  1.00  0.00     0.037 A 
BRANCH  26  40
ATOM     40  C   UNL A   1      45.203  26.981  32.935  1.00  0.00     0.064 A 
ATOM     41  C   UNL A   1      45.806  27.532  34.078  1.00  0.00     0.173 A 
ATOM     42  C   UNL A   1      44.878  25.606  33.018  1.00  0.00     0.173 A 
ATOM     43  F   UNL A   1      46.175  28.822  34.097  1.00  0.00    -0.203 F 
ATOM     44  C   UNL A   1      46.120  26.749  35.192  1.00  0.00     0.198 A 
ATOM     45  C   UNL A   1      45.142  24.841  34.150  1.00  0.00     0.198 A 
ATOM     46  F   UNL A   1      44.399  24.917  31.975  1.00  0.00    -0.203 F 
ATOM     47  F   UNL A   1      46.803  27.287  36.211  1.00  0.00    -0.200 F 
ATOM     48  C   UNL A   1      45.793  25.404  35.225  1.00  0.00     0.200 A 
ATOM     49  F   UNL A   1      44.833  23.537  34.149  1.00  0.00    -0.200 F 
ATOM     50  F   UNL A   1      46.149  24.639  36.263  1.00  0.00    -0.200 F 
ENDBRANCH  26  40
BRANCH  27  51
ATOM     51  C   UNL A   1      43.553  21.833  26.214  1.00  0.00     0.064 A 
ATOM     52  C   UNL A   1      44.061  20.893  25.310  1.00  0.00     0.173 A 
ATOM     53  C   UNL A   1      42.556  21.373  27.103  1.00  0.00     0.173 A 
ATOM     54  F   UNL A   1      45.050  21.236  24.472  1.00  0.00    -0.203 F 
ATOM     55  C   UNL A   1      43.592  19.574  25.286  1.00  0.00     0.198 A 
ATOM     56  C   UNL A   1      42.080  20.063  27.069  1.00  0.00     0.198 A 
ATOM     57  F   UNL A   1      42.080  22.162  28.078  1.00  0.00    -0.203 F 
ATOM     58  F   UNL A   1      44.130  18.690  24.434  1.00  0.00    -0.200 F 
ATOM     59  C   UNL A   1      42.603  19.161  26.165  1.00  0.00     0.200 A 
ATOM     60  F   UNL A   1      41.147  19.672  27.950  1.00  0.00    -0.200 F 
ATOM     61  F   UNL A   1      42.183  17.888  26.167  1.00  0.00    -0.200 F 
ENDBRANCH  27  51
BRANCH  39  62
ATOM     62  C   UNL A   1      47.699  26.644  26.578  1.00  0.00     0.064 A 
ATOM     63  C   UNL A   1      48.928  26.286  25.997  1.00  0.00     0.173 A 
ATOM     64  C   UNL A   1      46.780  27.315  25.764  1.00  0.00     0.173 A 
ATOM     65  F   UNL A   1      49.808  25.535  26.667  1.00  0.00    -0.203 F 
ATOM     66  C   UNL A   1      49.243  26.623  24.682  1.00  0.00     0.198 A 
ATOM     67  C   UNL A   1      47.080  27.620  24.437  1.00  0.00     0.198 A 
ATOM     68  F   UNL A   1      45.561  27.616  26.237  1.00  0.00    -0.203 F 
ATOM     69  F   UNL A   1      50.427  26.267  24.161  1.00  0.00    -0.200 F 
ATOM     70  C   UNL A   1      48.314  27.285  23.901  1.00  0.00     0.200 A 
ATOM     71  F   UNL A   1      46.157  28.207  23.666  1.00  0.00    -0.200 F 
ATOM     72  F   UNL A   1      48.592  27.567  22.620  1.00  0.00    -0.200 F 
ENDBRANCH  39  62
ENDBRANCH  13  14
ENDBRANCH   6   8
ENDBRANCH   5   6
ENDBRANCH   4   5
ENDBRANCH   3   4
ENDBRANCH   2   3
ENDBRANCH   1   2
BRANCH   1  73
ATOM     73  C   UNL A   1      31.380  27.849  27.268  1.00  0.00     0.261 C 
BRANCH  73  74
ATOM     74  O   UNL A   1      32.091  26.885  26.475  1.00  0.00    -0.459 OA
BRANCH  74  75
ATOM     75  C   UNL A   1      31.286  25.905  25.962  1.00  0.00     0.370 C 
ATOM     76  O   UNL A   1      30.162  25.676  26.406  1.00  0.00    -0.245 OA
BRANCH  75  77
ATOM     77  C   UNL A   1      31.945  25.092  24.809  1.00  0.00     0.329 C 
BRANCH  77  78
ATOM     78  N   UNL A   1      32.608  26.098  23.936  1.00  0.00    -0.315 N 
ATOM     79  C   UNL A   1      31.711  27.172  23.507  1.00  0.00     0.292 C 
ATOM     80  C   UNL A   1      33.473  25.723  22.817  1.00  0.00     0.292 C 
ATOM     81  H   UNL A   1      33.296  26.392  24.630  1.00  0.00     0.349 HD
ATOM     82  C   UNL A   1      30.923  26.763  22.256  1.00  0.00     0.221 C 
ATOM     83  C   UNL A   1      32.676  25.328  21.564  1.00  0.00     0.221 C 
ATOM     84  O   UNL A   1      31.796  26.395  21.177  1.00  0.00    -0.370 OA
ENDBRANCH  77  78
BRANCH  77  85
ATOM     85  C   UNL A   1      32.831  23.918  25.191  1.00  0.00     0.059 A 
ATOM     86  C   UNL A   1      32.848  23.166  26.391  1.00  0.00     0.145 A 
ATOM     87  C   UNL A   1      33.886  23.354  24.477  1.00  0.00     0.119 A 
ATOM     88  N   UNL A   1      33.799  22.244  26.440  1.00  0.00    -0.181 NA
ATOM     89  N   UNL A   1      34.477  22.417  25.291  1.00  0.00    -0.268 N 
BRANCH  89  90
ATOM     90  C   UNL A   1      35.672  21.610  25.041  1.00  0.00     0.179 C 
BRANCH  90  91
ATOM     91  C   UNL A   1      36.920  22.248  25.622  1.00  0.00    -0.027 A 
ATOM     92  C   UNL A   1      38.130  21.544  25.676  1.00  0.00     0.005 A 
ATOM     93  C   UNL A   1      36.896  23.574  26.093  1.00  0.00     0.005 A 
ATOM     94  C   UNL A   1      39.288  22.163  26.156  1.00  0.00     0.000 A 
ATOM     95  C   UNL A   1      38.056  24.196  26.554  1.00  0.00     0.000 A 
ATOM     96  C   UNL A   1      39.254  23.491  26.582  1.00  0.00     0.000 A 
ENDBRANCH  90  91
ENDBRANCH  89  90
ENDBRANCH  77  85
ENDBRANCH  75  77
ENDBRANCH  74  75
ENDBRANCH  73  74
ENDBRANCH   1  73
TORSDOF 18
ENDMDL
MODEL 3
REMARK VINA RESULT:     -12.2      6.503     11.269
REMARK SMILES O=C(OCCOCCOC(=O)[C@H](c1cnn(Cc2ccccc2)c1)[NH+]1CCOCC1)c1ccc(-c2c3nc(c(-c4c(F)c(F)c(F)c(F)c4F)c4ccc([nH]4)c(-c4c(F)c(F)c(F)c(F)c4F)c4nc(c(-c5c(F)c(F)c(F)c(F)c5F)c5ccc2[nH]5)C=C4)C=C3)cc1
REMARK SMILES IDX 7 1 6 2 5 3 4 4 3 5 2 6 1 7 31 8 32 9 93 10 33 11 92 12
REMARK SMILES IDX 34 13 35 14 36 15 86 16 37 17 91 18 85 19 87 20 38 21 90 22
REMARK SMILES IDX 84 23 83 24 39 26 71 27 51 28 70 29 52 30 55 31 69 32 88 33
REMARK SMILES IDX 53 34 54 35 68 37 89 38 56 39 40 40 41 41 49 42 42 43 43 44
REMARK SMILES IDX 47 45 50 46 44 47 45 48 48 49 46 50 72 51 73 52 81 53 74 54
REMARK SMILES IDX 75 55 79 56 82 57 76 58 77 59 80 60 78 61 57 62 58 63 66 64
REMARK SMILES IDX 59 65 60 66 64 67 67 68 61 69 62 70 65 71 63 72 8 73 9 74
REMARK SMILES IDX 10 75 11 76 12 77 25 78 26 79 30 80 27 82 29 83 28 84 13 85
REMARK SMILES IDX 14 86 24 87 15 88 16 89 17 90 18 91 19 92 23 93 20 94 22 95
REMARK SMILES IDX 21 96
REMARK H PARENT 87 25 55 36 25 81
REMARK Flexibility Score: inf
ROOT
ATOM      1  C   UNL A   1      35.866  22.646  26.075  1.00  0.00     0.202 C 
ENDROOT
BRANCH   1   2
ATOM      2  O   UNL A   1      37.257  22.605  25.768  1.00  0.00    -0.374 OA
BRANCH   2   3
ATOM      3  C   UNL A   1      38.122  23.682  26.124  1.00  0.00     0.202 C 
BRANCH   3   4
ATOM      4  C   UNL A   1      39.434  23.427  26.892  1.00  0.00     0.261 C 
BRANCH   4   5
ATOM      5  O   UNL A   1      39.671  24.398  27.914  1.00  0.00    -0.460 OA
BRANCH   5   6
ATOM      6  C   UNL A   1      39.924  25.708  27.707  1.00  0.00     0.338 C 
ATOM      7  O   UNL A   1      40.689  26.049  26.806  1.00  0.00    -0.246 OA
BRANCH   6   8
ATOM      8  C   UNL A   1      39.241  26.752  28.513  1.00  0.00     0.060 A 
ATOM      9  C   UNL A   1      38.658  27.913  27.999  1.00  0.00     0.016 A 
ATOM     10  C   UNL A   1      39.369  26.611  29.890  1.00  0.00     0.016 A 
ATOM     11  C   UNL A   1      38.742  29.071  28.713  1.00  0.00     0.010 A 
ATOM     12  C   UNL A   1      39.245  27.730  30.673  1.00  0.00     0.010 A 
ATOM     13  C   UNL A   1      39.119  28.965  30.034  1.00  0.00    -0.014 A 
BRANCH  13  14
ATOM     14  C   UNL A   1      39.274  30.195  30.774  1.00  0.00     0.031 A 
ATOM     15  C   UNL A   1      40.634  30.797  30.645  1.00  0.00     0.074 A 
ATOM     16  C   UNL A   1      38.158  30.701  31.330  1.00  0.00     0.049 A 
ATOM     17  N   UNL A   1      41.366  31.371  31.545  1.00  0.00    -0.248 NA
ATOM     18  C   UNL A   1      41.342  30.587  29.358  1.00  0.00     0.031 C 
ATOM     19  C   UNL A   1      36.799  30.134  31.305  1.00  0.00     0.029 A 
ATOM     20  N   UNL A   1      37.957  31.941  31.831  1.00  0.00    -0.354 N 
ATOM     21  C   UNL A   1      42.525  31.770  30.879  1.00  0.00     0.074 A 
ATOM     22  C   UNL A   1      42.539  31.106  29.608  1.00  0.00     0.031 C 
ATOM     23  C   UNL A   1      35.902  31.124  31.481  1.00  0.00     0.029 A 
ATOM     24  C   UNL A   1      36.628  32.344  31.759  1.00  0.00     0.049 A 
ATOM     25  H   UNL A   1      38.675  32.499  32.208  1.00  0.00     0.167 HD
ATOM     26  C   UNL A   1      43.244  32.847  31.289  1.00  0.00     0.037 A 
ATOM     27  C   UNL A   1      36.237  33.640  31.728  1.00  0.00     0.037 A 
ATOM     28  C   UNL A   1      43.077  33.091  32.693  1.00  0.00     0.049 A 
ATOM     29  C   UNL A   1      37.382  34.438  32.254  1.00  0.00     0.074 A 
ATOM     30  C   UNL A   1      43.375  32.363  33.828  1.00  0.00     0.029 A 
ATOM     31  N   UNL A   1      42.182  34.053  33.091  1.00  0.00    -0.354 N 
ATOM     32  N   UNL A   1      37.825  34.332  33.482  1.00  0.00    -0.248 NA
ATOM     33  C   UNL A   1      38.344  34.953  31.286  1.00  0.00     0.031 C 
ATOM     34  C   UNL A   1      42.284  32.600  34.714  1.00  0.00     0.029 A 
ATOM     35  C   UNL A   1      41.421  33.504  34.093  1.00  0.00     0.049 A 
ATOM     36  H   UNL A   1      42.100  34.965  32.727  1.00  0.00     0.167 HD
ATOM     37  C   UNL A   1      39.210  34.394  33.371  1.00  0.00     0.074 A 
ATOM     38  C   UNL A   1      39.467  34.828  32.000  1.00  0.00     0.031 C 
ATOM     39  C   UNL A   1      40.026  33.812  34.300  1.00  0.00     0.037 A 
BRANCH  26  40
ATOM     40  C   UNL A   1      43.765  33.874  30.318  1.00  0.00     0.064 A 
ATOM     41  C   UNL A   1      42.858  34.622  29.549  1.00  0.00     0.173 A 
ATOM     42  C   UNL A   1      45.117  33.941  29.905  1.00  0.00     0.173 A 
ATOM     43  F   UNL A   1      41.548  34.610  29.840  1.00  0.00    -0.203 F 
ATOM     44  C   UNL A   1      43.266  35.328  28.414  1.00  0.00     0.198 A 
ATOM     45  C   UNL A   1      45.529  34.690  28.807  1.00  0.00     0.198 A 
ATOM     46  F   UNL A   1      46.078  33.201  30.471  1.00  0.00    -0.203 F 
ATOM     47  F   UNL A   1      42.352  35.928  27.641  1.00  0.00    -0.200 F 
ATOM     48  C   UNL A   1      44.599  35.356  28.041  1.00  0.00     0.200 A 
ATOM     49  F   UNL A   1      46.822  34.685  28.456  1.00  0.00    -0.200 F 
ATOM     50  F   UNL A   1      44.982  35.978  26.919  1.00  0.00    -0.200 F 
ENDBRANCH  26  40
BRANCH  27  51
ATOM     51  C   UNL A   1      35.164  34.187  30.865  1.00  0.00     0.064 A 
ATOM     52  C   UNL A   1      34.075  34.875  31.413  1.00  0.00     0.173 A 
ATOM     53  C   UNL A   1      35.285  34.227  29.457  1.00  0.00     0.173 A 
ATOM     54  F   UNL A   1      33.921  34.934  32.744  1.00  0.00    -0.203 F 
ATOM     55  C   UNL A   1      33.155  35.553  30.604  1.00  0.00     0.198 A 
ATOM     56  C   UNL A   1      34.361  34.890  28.652  1.00  0.00     0.198 A 
ATOM     57  F   UNL A   1      36.348  33.692  28.839  1.00  0.00    -0.203 F 
ATOM     58  F   UNL A   1      32.148  36.236  31.166  1.00  0.00    -0.200 F 
ATOM     59  C   UNL A   1      33.299  35.561  29.226  1.00  0.00     0.200 A 
ATOM     60  F   UNL A   1      34.535  34.915  27.322  1.00  0.00    -0.200 F 
ATOM     61  F   UNL A   1      32.440  36.242  28.456  1.00  0.00    -0.200 F 
ENDBRANCH  27  51
BRANCH  39  62
ATOM     62  C   UNL A   1      39.383  33.220  35.526  1.00  0.00     0.064 A 
ATOM     63  C   UNL A   1      39.007  33.986  36.644  1.00  0.00     0.173 A 
ATOM     64  C   UNL A   1      38.965  31.886  35.497  1.00  0.00     0.173 A 
ATOM     65  F   UNL A   1      39.259  35.298  36.689  1.00  0.00    -0.203 F 
ATOM     66  C   UNL A   1      38.291  33.433  37.703  1.00  0.00     0.198 A 
ATOM     67  C   UNL A   1      38.217  31.342  36.540  1.00  0.00     0.198 A 
ATOM     68  F   UNL A   1      39.226  31.125  34.423  1.00  0.00    -0.203 F 
ATOM     69  F   UNL A   1      37.952  34.193  38.756  1.00  0.00    -0.200 F 
ATOM     70  C   UNL A   1      37.890  32.111  37.647  1.00  0.00     0.200 A 
ATOM     71  F   UNL A   1      37.779  30.079  36.455  1.00  0.00    -0.200 F 
ATOM     72  F   UNL A   1      37.157  31.588  38.640  1.00  0.00    -0.200 F 
ENDBRANCH  39  62
ENDBRANCH  13  14
ENDBRANCH   6   8
ENDBRANCH   5   6
ENDBRANCH   4   5
ENDBRANCH   3   4
ENDBRANCH   2   3
ENDBRANCH   1   2
BRANCH   1  73
ATOM     73  C   UNL A   1      34.957  21.436  25.835  1.00  0.00     0.261 C 
BRANCH  73  74
ATOM     74  O   UNL A   1      33.750  21.717  25.107  1.00  0.00    -0.459 OA
BRANCH  74  75
ATOM     75  C   UNL A   1      33.001  22.717  25.664  1.00  0.00     0.370 C 
ATOM     76  O   UNL A   1      32.400  22.577  26.728  1.00  0.00    -0.245 OA
BRANCH  75  77
ATOM     77  C   UNL A   1      32.949  24.015  24.803  1.00  0.00     0.329 C 
BRANCH  77  78
ATOM     78  N   UNL A   1      32.208  23.647  23.567  1.00  0.00    -0.315 N 
ATOM     79  C   UNL A   1      33.011  23.776  22.350  1.00  0.00     0.292 C 
ATOM     80  C   UNL A   1      30.849  24.118  23.294  1.00  0.00     0.292 C 
ATOM     81  H   UNL A   1      32.032  22.680  23.841  1.00  0.00     0.349 HD
ATOM     82  C   UNL A   1      32.975  25.215  21.818  1.00  0.00     0.221 C 
ATOM     83  C   UNL A   1      30.823  25.554  22.748  1.00  0.00     0.221 C 
ATOM     84  O   UNL A   1      31.631  25.652  21.564  1.00  0.00    -0.370 OA
ENDBRANCH  77  78
BRANCH  77  85
ATOM     85  C   UNL A   1      32.454  25.285  25.473  1.00  0.00     0.059 A 
ATOM     86  C   UNL A   1      31.488  25.435  26.499  1.00  0.00     0.145 A 
ATOM     87  C   UNL A   1      32.780  26.608  25.182  1.00  0.00     0.119 A 
ATOM     88  N   UNL A   1      31.226  26.696  26.816  1.00  0.00    -0.181 NA
ATOM     89  N   UNL A   1      31.970  27.408  25.952  1.00  0.00    -0.268 N 
BRANCH  89  90
ATOM     90  C   UNL A   1      31.861  28.868  25.956  1.00  0.00     0.179 C 
BRANCH  90  91
ATOM     91  C   UNL A   1      33.056  29.525  26.622  1.00  0.00    -0.027 A 
ATOM     92  C   UNL A   1      32.936  30.771  27.250  1.00  0.00     0.005 A 
ATOM     93  C   UNL A   1      34.308  28.881  26.647  1.00  0.00     0.005 A 
ATOM     94  C   UNL A   1      34.028  31.338  27.913  1.00  0.00     0.000 A 
ATOM     95  C   UNL A   1      35.392  29.440  27.325  1.00  0.00     0.000 A 
ATOM     96  C   UNL A   1      35.250  30.668  27.961  1.00  0.00     0.000 A 
ENDBRANCH  90  91
ENDBRANCH  89  90
ENDBRANCH  77  85
ENDBRANCH  75  77
ENDBRANCH  74  75
ENDBRANCH  73  74
ENDBRANCH   1  73
TORSDOF 18
ENDMDL
