MODEL 1
REMARK VINA RESULT:     -12.5      0.000      0.000
REMARK SMILES C[C@H](c1ccccc1)N1C(=O)c2ccc(C(=O)OCCOCCOC(=O)c3ccc(-c4c5nc(c(-c6c(F)c(F)c(F)c(F)c6F)c6ccc([nH]6)c(-c6c(F)c(F)c(F)c(F)c6F)c6nc(c(-c7c(F)c(F)c(F)c(F)c7F)c7ccc4[nH]7)C=C6)C=C5)cc3)cc2C1=O
REMARK SMILES IDX 21 1 20 2 19 3 18 4 16 5 17 6 15 7 9 8 10 9 92 10 11 11
REMARK SMILES IDX 12 12 91 13 93 14 13 15 90 16 14 17 2 18 1 19 3 20 4 21 8 22
REMARK SMILES IDX 5 23 7 24 6 25 22 26 23 27 24 28 25 29 26 30 27 31 28 32
REMARK SMILES IDX 89 33 29 34 88 35 30 36 31 37 32 38 82 39 33 40 87 41 81 42
REMARK SMILES IDX 83 43 34 44 86 45 80 46 79 47 35 49 67 50 47 51 66 52 48 53
REMARK SMILES IDX 51 54 65 55 84 56 49 57 50 58 64 60 85 61 52 62 36 63 37 64
REMARK SMILES IDX 45 65 38 66 39 67 43 68 46 69 40 70 41 71 44 72 42 73 68 74
REMARK SMILES IDX 69 75 77 76 70 77 71 78 75 79 78 80 72 81 73 82 76 83 74 84
REMARK SMILES IDX 53 85 54 86 62 87 55 88 56 89 60 90 63 91 57 92 58 93 61 94
REMARK SMILES IDX 59 95
REMARK H PARENT 83 48 51 59
REMARK Flexibility Score: inf
ROOT
ATOM      1  O   UNL A   1      40.403  20.898  27.259  1.00  0.00    -0.374 OA
ENDROOT
BRANCH   1   2
ATOM      2  C   UNL A   1      39.817  21.246  26.002  1.00  0.00     0.202 C 
BRANCH   2   3
ATOM      3  C   UNL A   1      38.560  22.112  26.123  1.00  0.00     0.261 C 
BRANCH   3   4
ATOM      4  O   UNL A   1      37.750  21.952  24.947  1.00  0.00    -0.460 OA
BRANCH   4   5
ATOM      5  C   UNL A   1      36.712  21.098  25.074  1.00  0.00     0.338 C 
ATOM      6  O   UNL A   1      36.718  19.883  25.018  1.00  0.00    -0.246 OA
BRANCH   5   7
ATOM      7  C   UNL A   1      35.535  21.883  25.471  1.00  0.00     0.060 A 
ATOM      8  N   UNL A   1      31.963  24.715  25.208  1.00  0.00    -0.267 N 
ATOM      9  C   UNL A   1      32.081  24.024  26.381  1.00  0.00     0.262 C 
ATOM     10  C   UNL A   1      33.088  24.571  24.435  1.00  0.00     0.262 C 
ATOM     11  O   UNL A   1      31.401  24.042  27.390  1.00  0.00    -0.269 OA
ATOM     12  C   UNL A   1      33.275  23.201  26.261  1.00  0.00     0.053 A 
ATOM     13  C   UNL A   1      33.928  23.571  25.099  1.00  0.00     0.054 A 
ATOM     14  O   UNL A   1      33.385  25.111  23.390  1.00  0.00    -0.269 OA
ATOM     15  C   UNL A   1      33.698  22.150  27.051  1.00  0.00     0.015 A 
ATOM     16  C   UNL A   1      35.093  22.952  24.684  1.00  0.00     0.030 A 
ATOM     17  C   UNL A   1      34.833  21.465  26.627  1.00  0.00     0.016 A 
BRANCH   8  18
ATOM     18  C   UNL A   1      30.777  25.455  24.775  1.00  0.00     0.121 C 
ATOM     19  C   UNL A   1      30.254  24.996  23.414  1.00  0.00     0.037 C 
BRANCH  18  20
ATOM     20  C   UNL A   1      31.020  26.963  24.853  1.00  0.00    -0.025 A 
ATOM     21  C   UNL A   1      31.667  27.557  25.951  1.00  0.00     0.006 A 
ATOM     22  C   UNL A   1      30.539  27.808  23.839  1.00  0.00     0.006 A 
ATOM     23  C   UNL A   1      31.788  28.944  26.058  1.00  0.00     0.000 A 
ATOM     24  C   UNL A   1      30.687  29.195  23.933  1.00  0.00     0.000 A 
ATOM     25  C   UNL A   1      31.298  29.763  25.048  1.00  0.00     0.000 A 
ENDBRANCH  18  20
ENDBRANCH   8  18
ENDBRANCH   5   7
ENDBRANCH   4   5
ENDBRANCH   3   4
ENDBRANCH   2   3
ENDBRANCH   1   2
BRANCH   1  26
ATOM     26  C   UNL A   1      41.713  20.328  27.200  1.00  0.00     0.202 C 
BRANCH  26  27
ATOM     27  C   UNL A   1      42.612  20.902  26.101  1.00  0.00     0.261 C 
BRANCH  27  28
ATOM     28  O   UNL A   1      43.220  22.127  26.544  1.00  0.00    -0.460 OA
BRANCH  28  29
ATOM     29  C   UNL A   1      43.030  23.195  25.736  1.00  0.00     0.338 C 
ATOM     30  O   UNL A   1      43.105  23.229  24.521  1.00  0.00    -0.246 OA
BRANCH  29  31
ATOM     31  C   UNL A   1      42.525  24.326  26.540  1.00  0.00     0.060 A 
ATOM     32  C   UNL A   1      43.164  25.565  26.390  1.00  0.00     0.016 A 
ATOM     33  C   UNL A   1      41.469  24.176  27.442  1.00  0.00     0.016 A 
ATOM     34  C   UNL A   1      42.779  26.650  27.176  1.00  0.00     0.010 A 
ATOM     35  C   UNL A   1      41.090  25.262  28.235  1.00  0.00     0.010 A 
ATOM     36  C   UNL A   1      41.765  26.491  28.127  1.00  0.00    -0.014 A 
BRANCH  36  37
ATOM     37  C   UNL A   1      41.500  27.552  29.125  1.00  0.00     0.031 A 
ATOM     38  C   UNL A   1      42.339  27.594  30.368  1.00  0.00     0.074 A 
ATOM     39  C   UNL A   1      40.505  28.436  28.946  1.00  0.00     0.049 A 
ATOM     40  N   UNL A   1      42.202  28.330  31.441  1.00  0.00    -0.248 NA
ATOM     41  C   UNL A   1      43.484  26.671  30.410  1.00  0.00     0.031 C 
ATOM     42  C   UNL A   1      39.650  28.515  27.765  1.00  0.00     0.029 A 
ATOM     43  N   UNL A   1      40.032  29.419  29.778  1.00  0.00    -0.354 N 
ATOM     44  C   UNL A   1      43.227  27.942  32.293  1.00  0.00     0.074 A 
ATOM     45  C   UNL A   1      43.969  26.897  31.621  1.00  0.00     0.031 C 
ATOM     46  C   UNL A   1      38.727  29.473  27.963  1.00  0.00     0.029 A 
ATOM     47  C   UNL A   1      38.909  30.044  29.297  1.00  0.00     0.049 A 
ATOM     48  H   UNL A   1      40.456  29.654  30.636  1.00  0.00     0.167 HD
ATOM     49  C   UNL A   1      43.517  28.414  33.529  1.00  0.00     0.037 A 
ATOM     50  C   UNL A   1      38.099  30.946  29.885  1.00  0.00     0.037 A 
ATOM     51  C   UNL A   1      42.778  29.455  34.190  1.00  0.00     0.049 A 
ATOM     52  C   UNL A   1      38.410  31.424  31.279  1.00  0.00     0.074 A 
ATOM     53  C   UNL A   1      43.012  30.028  35.427  1.00  0.00     0.029 A 
ATOM     54  N   UNL A   1      41.649  30.070  33.669  1.00  0.00    -0.354 N 
ATOM     55  N   UNL A   1      39.391  31.071  32.074  1.00  0.00    -0.248 NA
ATOM     56  C   UNL A   1      37.500  32.424  31.856  1.00  0.00     0.031 C 
ATOM     57  C   UNL A   1      41.996  30.960  35.673  1.00  0.00     0.029 A 
ATOM     58  C   UNL A   1      41.160  31.001  34.570  1.00  0.00     0.049 A 
ATOM     59  H   UNL A   1      41.255  29.875  32.788  1.00  0.00     0.167 HD
ATOM     60  C   UNL A   1      39.234  31.820  33.232  1.00  0.00     0.074 A 
ATOM     61  C   UNL A   1      38.063  32.649  33.036  1.00  0.00     0.031 C 
ATOM     62  C   UNL A   1      39.995  31.823  34.354  1.00  0.00     0.037 A 
BRANCH  49  63
ATOM     63  C   UNL A   1      44.663  27.772  34.254  1.00  0.00     0.064 A 
ATOM     64  C   UNL A   1      45.972  28.264  34.153  1.00  0.00     0.173 A 
ATOM     65  C   UNL A   1      44.444  26.645  35.061  1.00  0.00     0.173 A 
ATOM     66  F   UNL A   1      46.236  29.329  33.381  1.00  0.00    -0.203 F 
ATOM     67  C   UNL A   1      47.026  27.629  34.806  1.00  0.00     0.198 A 
ATOM     68  C   UNL A   1      45.496  26.030  35.733  1.00  0.00     0.198 A 
ATOM     69  F   UNL A   1      43.209  26.136  35.191  1.00  0.00    -0.203 F 
ATOM     70  F   UNL A   1      48.278  28.082  34.650  1.00  0.00    -0.200 F 
ATOM     71  C   UNL A   1      46.787  26.516  35.598  1.00  0.00     0.200 A 
ATOM     72  F   UNL A   1      45.261  24.959  36.504  1.00  0.00    -0.200 F 
ATOM     73  F   UNL A   1      47.803  25.904  36.221  1.00  0.00    -0.200 F 
ENDBRANCH  49  63
BRANCH  50  74
ATOM     74  C   UNL A   1      36.900  31.429  29.157  1.00  0.00     0.064 A 
ATOM     75  C   UNL A   1      35.797  30.591  28.945  1.00  0.00     0.173 A 
ATOM     76  C   UNL A   1      36.822  32.747  28.684  1.00  0.00     0.173 A 
ATOM     77  F   UNL A   1      35.836  29.316  29.359  1.00  0.00    -0.203 F 
ATOM     78  C   UNL A   1      34.660  31.054  28.286  1.00  0.00     0.198 A 
ATOM     79  C   UNL A   1      35.676  33.215  28.045  1.00  0.00     0.198 A 
ATOM     80  F   UNL A   1      37.853  33.586  28.863  1.00  0.00    -0.203 F 
ATOM     81  F   UNL A   1      33.628  30.227  28.074  1.00  0.00    -0.200 F 
ATOM     82  C   UNL A   1      34.596  32.368  27.845  1.00  0.00     0.200 A 
ATOM     83  F   UNL A   1      35.615  34.488  27.632  1.00  0.00    -0.200 F 
ATOM     84  F   UNL A   1      33.498  32.816  27.224  1.00  0.00    -0.200 F 
ENDBRANCH  50  74
BRANCH  62  85
ATOM     85  C   UNL A   1      39.614  32.776  35.448  1.00  0.00     0.064 A 
ATOM     86  C   UNL A   1      38.757  32.396  36.490  1.00  0.00     0.173 A 
ATOM     87  C   UNL A   1      40.169  34.064  35.488  1.00  0.00     0.173 A 
ATOM     88  F   UNL A   1      38.191  31.180  36.487  1.00  0.00    -0.203 F 
ATOM     89  C   UNL A   1      38.459  33.276  37.528  1.00  0.00     0.198 A 
ATOM     90  C   UNL A   1      39.890  34.932  36.539  1.00  0.00     0.198 A 
ATOM     91  F   UNL A   1      41.001  34.473  34.518  1.00  0.00    -0.203 F 
ATOM     92  F   UNL A   1      37.615  32.904  38.498  1.00  0.00    -0.200 F 
ATOM     93  C   UNL A   1      39.033  34.539  37.557  1.00  0.00     0.200 A 
ATOM     94  F   UNL A   1      40.454  36.148  36.572  1.00  0.00    -0.200 F 
ATOM     95  F   UNL A   1      38.756  35.379  38.563  1.00  0.00    -0.200 F 
ENDBRANCH  62  85
ENDBRANCH  36  37
ENDBRANCH  29  31
ENDBRANCH  28  29
ENDBRANCH  27  28
ENDBRANCH  26  27
ENDBRANCH   1  26
TORSDOF 16
ENDMDL
MODEL 2
REMARK VINA RESULT:     -12.4      3.329      9.045
REMARK SMILES C[C@H](c1ccccc1)N1C(=O)c2ccc(C(=O)OCCOCCOC(=O)c3ccc(-c4c5nc(c(-c6c(F)c(F)c(F)c(F)c6F)c6ccc([nH]6)c(-c6c(F)c(F)c(F)c(F)c6F)c6nc(c(-c7c(F)c(F)c(F)c(F)c7F)c7ccc4[nH]7)C=C6)C=C5)cc3)cc2C1=O
REMARK SMILES IDX 21 1 20 2 19 3 18 4 16 5 17 6 15 7 9 8 10 9 92 10 11 11
REMARK SMILES IDX 12 12 91 13 93 14 13 15 90 16 14 17 2 18 1 19 3 20 4 21 8 22
REMARK SMILES IDX 5 23 7 24 6 25 22 26 23 27 24 28 25 29 26 30 27 31 28 32
REMARK SMILES IDX 89 33 29 34 88 35 30 36 31 37 32 38 82 39 33 40 87 41 81 42
REMARK SMILES IDX 83 43 34 44 86 45 80 46 79 47 35 49 67 50 47 51 66 52 48 53
REMARK SMILES IDX 51 54 65 55 84 56 49 57 50 58 64 60 85 61 52 62 36 63 37 64
REMARK SMILES IDX 45 65 38 66 39 67 43 68 46 69 40 70 41 71 44 72 42 73 68 74
REMARK SMILES IDX 69 75 77 76 70 77 71 78 75 79 78 80 72 81 73 82 76 83 74 84
REMARK SMILES IDX 53 85 54 86 62 87 55 88 56 89 60 90 63 91 57 92 58 93 61 94
REMARK SMILES IDX 59 95
REMARK H PARENT 83 48 51 59
REMARK Flexibility Score: inf
ROOT
ATOM      1  O   UNL A   1      34.267  33.630  28.959  1.00  0.00    -0.374 OA
ENDROOT
BRANCH   1   2
ATOM      2  C   UNL A   1      34.747  32.683  28.001  1.00  0.00     0.202 C 
BRANCH   2   3
ATOM      3  C   UNL A   1      34.420  31.229  28.350  1.00  0.00     0.261 C 
BRANCH   3   4
ATOM      4  O   UNL A   1      34.379  30.443  27.147  1.00  0.00    -0.460 OA
BRANCH   4   5
ATOM      5  C   UNL A   1      33.165  29.950  26.822  1.00  0.00     0.338 C 
ATOM      6  O   UNL A   1      32.069  30.337  27.180  1.00  0.00    -0.246 OA
BRANCH   5   7
ATOM      7  C   UNL A   1      33.363  28.924  25.790  1.00  0.00     0.060 A 
ATOM      8  N   UNL A   1      33.667  24.826  23.799  1.00  0.00    -0.267 N 
ATOM      9  C   UNL A   1      33.710  25.896  22.951  1.00  0.00     0.262 C 
ATOM     10  C   UNL A   1      33.767  25.228  25.108  1.00  0.00     0.262 C 
ATOM     11  O   UNL A   1      33.832  25.953  21.742  1.00  0.00    -0.269 OA
ATOM     12  C   UNL A   1      33.611  27.088  23.780  1.00  0.00     0.053 A 
ATOM     13  C   UNL A   1      33.704  26.692  25.102  1.00  0.00     0.054 A 
ATOM     14  O   UNL A   1      33.867  24.564  26.117  1.00  0.00    -0.269 OA
ATOM     15  C   UNL A   1      33.361  28.395  23.410  1.00  0.00     0.015 A 
ATOM     16  C   UNL A   1      33.618  27.594  26.146  1.00  0.00     0.030 A 
ATOM     17  C   UNL A   1      33.207  29.319  24.440  1.00  0.00     0.016 A 
BRANCH   8  18
ATOM     18  C   UNL A   1      33.466  23.433  23.397  1.00  0.00     0.121 C 
ATOM     19  C   UNL A   1      32.113  22.876  23.841  1.00  0.00     0.037 C 
BRANCH  18  20
ATOM     20  C   UNL A   1      34.649  22.567  23.831  1.00  0.00    -0.025 A 
ATOM     21  C   UNL A   1      34.480  21.416  24.621  1.00  0.00     0.006 A 
ATOM     22  C   UNL A   1      35.959  22.943  23.493  1.00  0.00     0.006 A 
ATOM     23  C   UNL A   1      35.576  20.695  25.097  1.00  0.00     0.000 A 
ATOM     24  C   UNL A   1      37.056  22.204  23.945  1.00  0.00     0.000 A 
ATOM     25  C   UNL A   1      36.866  21.089  24.758  1.00  0.00     0.000 A 
ENDBRANCH  18  20
ENDBRANCH   8  18
ENDBRANCH   5   7
ENDBRANCH   4   5
ENDBRANCH   3   4
ENDBRANCH   2   3
ENDBRANCH   1   2
BRANCH   1  26
ATOM     26  C   UNL A   1      34.151  34.979  28.500  1.00  0.00     0.202 C 
BRANCH  26  27
ATOM     27  C   UNL A   1      33.039  35.790  29.173  1.00  0.00     0.261 C 
BRANCH  27  28
ATOM     28  O   UNL A   1      32.540  35.090  30.326  1.00  0.00    -0.460 OA
BRANCH  28  29
ATOM     29  C   UNL A   1      32.810  35.669  31.518  1.00  0.00     0.338 C 
ATOM     30  O   UNL A   1      32.179  36.548  32.076  1.00  0.00    -0.246 OA
BRANCH  29  31
ATOM     31  C   UNL A   1      33.920  34.942  32.168  1.00  0.00     0.060 A 
ATOM     32  C   UNL A   1      35.199  35.508  32.091  1.00  0.00     0.016 A 
ATOM     33  C   UNL A   1      33.721  33.721  32.817  1.00  0.00     0.016 A 
ATOM     34  C   UNL A   1      36.297  34.832  32.622  1.00  0.00     0.010 A 
ATOM     35  C   UNL A   1      34.822  33.040  33.341  1.00  0.00     0.010 A 
ATOM     36  C   UNL A   1      36.116  33.578  33.216  1.00  0.00    -0.014 A 
BRANCH  36  37
ATOM     37  C   UNL A   1      37.284  32.743  33.575  1.00  0.00     0.031 A 
ATOM     38  C   UNL A   1      38.005  33.031  34.860  1.00  0.00     0.074 A 
ATOM     39  C   UNL A   1      37.719  31.773  32.755  1.00  0.00     0.049 A 
ATOM     40  N   UNL A   1      39.129  32.539  35.313  1.00  0.00    -0.248 NA
ATOM     41  C   UNL A   1      37.376  34.020  35.749  1.00  0.00     0.031 C 
ATOM     42  C   UNL A   1      37.080  31.380  31.502  1.00  0.00     0.029 A 
ATOM     43  N   UNL A   1      38.823  30.964  32.846  1.00  0.00    -0.354 N 
ATOM     44  C   UNL A   1      39.354  33.174  36.526  1.00  0.00     0.074 A 
ATOM     45  C   UNL A   1      38.259  34.097  36.733  1.00  0.00     0.031 C 
ATOM     46  C   UNL A   1      37.825  30.425  30.918  1.00  0.00     0.029 A 
ATOM     47  C   UNL A   1      39.008  30.172  31.741  1.00  0.00     0.049 A 
ATOM     48  H   UNL A   1      39.424  30.952  33.626  1.00  0.00     0.167 HD
ATOM     49  C   UNL A   1      40.384  33.004  37.387  1.00  0.00     0.037 A 
ATOM     50  C   UNL A   1      40.037  29.364  31.414  1.00  0.00     0.037 A 
ATOM     51  C   UNL A   1      41.468  32.082  37.177  1.00  0.00     0.049 A 
ATOM     52  C   UNL A   1      41.198  29.224  32.361  1.00  0.00     0.074 A 
ATOM     53  C   UNL A   1      42.543  31.808  38.004  1.00  0.00     0.029 A 
ATOM     54  N   UNL A   1      41.618  31.290  36.048  1.00  0.00    -0.354 N 
ATOM     55  N   UNL A   1      41.397  29.809  33.517  1.00  0.00    -0.248 NA
ATOM     56  C   UNL A   1      42.277  28.311  31.957  1.00  0.00     0.031 C 
ATOM     57  C   UNL A   1      43.368  30.883  37.354  1.00  0.00     0.029 A 
ATOM     58  C   UNL A   1      42.782  30.545  36.145  1.00  0.00     0.049 A 
ATOM     59  H   UNL A   1      40.990  31.261  35.290  1.00  0.00     0.167 HD
ATOM     60  C   UNL A   1      42.607  29.321  33.992  1.00  0.00     0.074 A 
ATOM     61  C   UNL A   1      43.097  28.388  32.998  1.00  0.00     0.031 C 
ATOM     62  C   UNL A   1      43.250  29.615  35.148  1.00  0.00     0.037 A 
BRANCH  49  63
ATOM     63  C   UNL A   1      40.402  33.867  38.614  1.00  0.00     0.064 A 
ATOM     64  C   UNL A   1      41.127  35.066  38.666  1.00  0.00     0.173 A 
ATOM     65  C   UNL A   1      39.682  33.483  39.756  1.00  0.00     0.173 A 
ATOM     66  F   UNL A   1      41.844  35.467  37.606  1.00  0.00    -0.203 F 
ATOM     67  C   UNL A   1      41.158  35.832  39.828  1.00  0.00     0.198 A 
ATOM     68  C   UNL A   1      39.695  34.265  40.907  1.00  0.00     0.198 A 
ATOM     69  F   UNL A   1      38.972  32.344  39.757  1.00  0.00    -0.203 F 
ATOM     70  F   UNL A   1      41.904  36.945  39.874  1.00  0.00    -0.200 F 
ATOM     71  C   UNL A   1      40.440  35.433  40.946  1.00  0.00     0.200 A 
ATOM     72  F   UNL A   1      38.993  33.882  41.983  1.00  0.00    -0.200 F 
ATOM     73  F   UNL A   1      40.476  36.169  42.065  1.00  0.00    -0.200 F 
ENDBRANCH  49  63
BRANCH  50  74
ATOM     74  C   UNL A   1      40.015  28.651  30.113  1.00  0.00     0.064 A 
ATOM     75  C   UNL A   1      40.596  29.216  28.969  1.00  0.00     0.173 A 
ATOM     76  C   UNL A   1      39.440  27.378  29.994  1.00  0.00     0.173 A 
ATOM     77  F   UNL A   1      41.137  30.442  29.030  1.00  0.00    -0.203 F 
ATOM     78  C   UNL A   1      40.600  28.533  27.755  1.00  0.00     0.198 A 
ATOM     79  C   UNL A   1      39.464  26.687  28.785  1.00  0.00     0.198 A 
ATOM     80  F   UNL A   1      38.871  26.796  31.061  1.00  0.00    -0.203 F 
ATOM     81  F   UNL A   1      41.140  29.105  26.670  1.00  0.00    -0.200 F 
ATOM     82  C   UNL A   1      40.043  27.265  27.666  1.00  0.00     0.200 A 
ATOM     83  F   UNL A   1      38.936  25.459  28.707  1.00  0.00    -0.200 F 
ATOM     84  F   UNL A   1      40.060  26.604  26.501  1.00  0.00    -0.200 F 
ENDBRANCH  50  74
BRANCH  62  85
ATOM     85  C   UNL A   1      44.538  28.898  35.427  1.00  0.00     0.064 A 
ATOM     86  C   UNL A   1      44.563  27.659  36.084  1.00  0.00     0.173 A 
ATOM     87  C   UNL A   1      45.755  29.425  34.970  1.00  0.00     0.173 A 
ATOM     88  F   UNL A   1      43.426  27.121  36.552  1.00  0.00    -0.203 F 
ATOM     89  C   UNL A   1      45.762  26.980  36.284  1.00  0.00     0.198 A 
ATOM     90  C   UNL A   1      46.948  28.732  35.149  1.00  0.00     0.198 A 
ATOM     91  F   UNL A   1      45.783  30.604  34.329  1.00  0.00    -0.203 F 
ATOM     92  F   UNL A   1      45.767  25.812  36.940  1.00  0.00    -0.200 F 
ATOM     93  C   UNL A   1      46.952  27.512  35.808  1.00  0.00     0.200 A 
ATOM     94  F   UNL A   1      48.096  29.242  34.679  1.00  0.00    -0.200 F 
ATOM     95  F   UNL A   1      48.102  26.851  35.990  1.00  0.00    -0.200 F 
ENDBRANCH  62  85
ENDBRANCH  36  37
ENDBRANCH  29  31
ENDBRANCH  28  29
ENDBRANCH  27  28
ENDBRANCH  26  27
ENDBRANCH   1  26
TORSDOF 16
ENDMDL
MODEL 3
REMARK VINA RESULT:     -12.1      2.995      8.478
REMARK SMILES C[C@H](c1ccccc1)N1C(=O)c2ccc(C(=O)OCCOCCOC(=O)c3ccc(-c4c5nc(c(-c6c(F)c(F)c(F)c(F)c6F)c6ccc([nH]6)c(-c6c(F)c(F)c(F)c(F)c6F)c6nc(c(-c7c(F)c(F)c(F)c(F)c7F)c7ccc4[nH]7)C=C6)C=C5)cc3)cc2C1=O
REMARK SMILES IDX 21 1 20 2 19 3 18 4 16 5 17 6 15 7 9 8 10 9 92 10 11 11
REMARK SMILES IDX 12 12 91 13 93 14 13 15 90 16 14 17 2 18 1 19 3 20 4 21 8 22
REMARK SMILES IDX 5 23 7 24 6 25 22 26 23 27 24 28 25 29 26 30 27 31 28 32
REMARK SMILES IDX 89 33 29 34 88 35 30 36 31 37 32 38 82 39 33 40 87 41 81 42
REMARK SMILES IDX 83 43 34 44 86 45 80 46 79 47 35 49 67 50 47 51 66 52 48 53
REMARK SMILES IDX 51 54 65 55 84 56 49 57 50 58 64 60 85 61 52 62 36 63 37 64
REMARK SMILES IDX 45 65 38 66 39 67 43 68 46 69 40 70 41 71 44 72 42 73 68 74
REMARK SMILES IDX 69 75 77 76 70 77 71 78 75 79 78 80 72 81 73 82 76 83 74 84
REMARK SMILES IDX 53 85 54 86 62 87 55 88 56 89 60 90 63 91 57 92 58 93 61 94
REMARK SMILES IDX 59 95
REMARK H PARENT 83 48 51 59
REMARK Flexibility Score: inf
ROOT
ATOM      1  O   UNL A   1      30.381  30.074  24.231  1.00  0.00    -0.374 OA
ENDROOT
BRANCH   1   2
ATOM      2  C   UNL A   1      30.623  29.625  22.896  1.00  0.00     0.202 C 
BRANCH   2   3
ATOM      3  C   UNL A   1      29.639  28.557  22.413  1.00  0.00     0.261 C 
BRANCH   3   4
ATOM      4  O   UNL A   1      30.110  27.256  22.804  1.00  0.00    -0.460 OA
BRANCH   4   5
ATOM      5  C   UNL A   1      29.324  26.598  23.683  1.00  0.00     0.338 C 
ATOM      6  O   UNL A   1      28.137  26.751  23.899  1.00  0.00    -0.246 OA
BRANCH   5   7
ATOM      7  C   UNL A   1      30.117  25.504  24.257  1.00  0.00     0.060 A 
ATOM      8  N   UNL A   1      32.991  21.968  24.557  1.00  0.00    -0.267 N 
ATOM      9  C   UNL A   1      32.568  22.485  25.750  1.00  0.00     0.262 C 
ATOM     10  C   UNL A   1      32.273  22.491  23.510  1.00  0.00     0.262 C 
ATOM     11  O   UNL A   1      32.813  22.156  26.895  1.00  0.00    -0.269 OA
ATOM     12  C   UNL A   1      31.664  23.580  25.431  1.00  0.00     0.053 A 
ATOM     13  C   UNL A   1      31.433  23.554  24.068  1.00  0.00     0.054 A 
ATOM     14  O   UNL A   1      32.295  22.199  22.333  1.00  0.00    -0.269 OA
ATOM     15  C   UNL A   1      31.166  24.572  26.252  1.00  0.00     0.015 A 
ATOM     16  C   UNL A   1      30.629  24.488  23.442  1.00  0.00     0.030 A 
ATOM     17  C   UNL A   1      30.404  25.565  25.642  1.00  0.00     0.016 A 
BRANCH   8  18
ATOM     18  C   UNL A   1      34.107  21.037  24.385  1.00  0.00     0.121 C 
ATOM     19  C   UNL A   1      33.880  19.700  25.089  1.00  0.00     0.037 C 
BRANCH  18  20
ATOM     20  C   UNL A   1      35.432  21.702  24.759  1.00  0.00    -0.025 A 
ATOM     21  C   UNL A   1      36.573  20.953  25.096  1.00  0.00     0.006 A 
ATOM     22  C   UNL A   1      35.521  23.102  24.836  1.00  0.00     0.006 A 
ATOM     23  C   UNL A   1      37.744  21.572  25.537  1.00  0.00     0.000 A 
ATOM     24  C   UNL A   1      36.703  23.723  25.250  1.00  0.00     0.000 A 
ATOM     25  C   UNL A   1      37.809  22.959  25.614  1.00  0.00     0.000 A 
ENDBRANCH  18  20
ENDBRANCH   8  18
ENDBRANCH   5   7
ENDBRANCH   4   5
ENDBRANCH   3   4
ENDBRANCH   2   3
ENDBRANCH   1   2
BRANCH   1  26
ATOM     26  C   UNL A   1      31.388  29.748  25.192  1.00  0.00     0.202 C 
BRANCH  26  27
ATOM     27  C   UNL A   1      31.671  30.847  26.221  1.00  0.00     0.261 C 
BRANCH  27  28
ATOM     28  O   UNL A   1      32.958  30.640  26.830  1.00  0.00    -0.460 OA
BRANCH  28  29
ATOM     29  C   UNL A   1      33.539  31.746  27.347  1.00  0.00     0.338 C 
ATOM     30  O   UNL A   1      33.031  32.840  27.520  1.00  0.00    -0.246 OA
BRANCH  29  31
ATOM     31  C   UNL A   1      34.877  31.393  27.863  1.00  0.00     0.060 A 
ATOM     32  C   UNL A   1      35.104  30.057  28.218  1.00  0.00     0.016 A 
ATOM     33  C   UNL A   1      35.882  32.351  28.023  1.00  0.00     0.016 A 
ATOM     34  C   UNL A   1      36.323  29.679  28.778  1.00  0.00     0.010 A 
ATOM     35  C   UNL A   1      37.099  31.973  28.593  1.00  0.00     0.010 A 
ATOM     36  C   UNL A   1      37.311  30.644  29.002  1.00  0.00    -0.014 A 
BRANCH  36  37
ATOM     37  C   UNL A   1      38.513  30.316  29.802  1.00  0.00     0.031 A 
ATOM     38  C   UNL A   1      39.499  29.331  29.245  1.00  0.00     0.074 A 
ATOM     39  C   UNL A   1      38.702  30.854  31.017  1.00  0.00     0.049 A 
ATOM     40  N   UNL A   1      40.539  28.781  29.816  1.00  0.00    -0.248 NA
ATOM     41  C   UNL A   1      39.273  28.900  27.857  1.00  0.00     0.031 C 
ATOM     42  C   UNL A   1      37.833  31.846  31.644  1.00  0.00     0.029 A 
ATOM     43  N   UNL A   1      39.677  30.613  31.952  1.00  0.00    -0.354 N 
ATOM     44  C   UNL A   1      41.076  27.922  28.867  1.00  0.00     0.074 A 
ATOM     45  C   UNL A   1      40.241  28.013  27.689  1.00  0.00     0.031 C 
ATOM     46  C   UNL A   1      38.295  32.104  32.881  1.00  0.00     0.029 A 
ATOM     47  C   UNL A   1      39.466  31.268  33.139  1.00  0.00     0.049 A 
ATOM     48  H   UNL A   1      40.453  30.028  31.788  1.00  0.00     0.167 HD
ATOM     49  C   UNL A   1      42.167  27.127  28.973  1.00  0.00     0.037 A 
ATOM     50  C   UNL A   1      40.122  31.171  34.312  1.00  0.00     0.037 A 
ATOM     51  C   UNL A   1      42.995  27.043  30.146  1.00  0.00     0.049 A 
ATOM     52  C   UNL A   1      41.303  30.245  34.426  1.00  0.00     0.074 A 
ATOM     53  C   UNL A   1      44.141  26.294  30.343  1.00  0.00     0.029 A 
ATOM     54  N   UNL A   1      42.753  27.727  31.328  1.00  0.00    -0.354 N 
ATOM     55  N   UNL A   1      41.822  29.451  33.521  1.00  0.00    -0.248 NA
ATOM     56  C   UNL A   1      41.989  30.201  35.726  1.00  0.00     0.031 C 
ATOM     57  C   UNL A   1      44.568  26.492  31.661  1.00  0.00     0.029 A 
ATOM     58  C   UNL A   1      43.716  27.399  32.268  1.00  0.00     0.049 A 
ATOM     59  H   UNL A   1      42.009  28.354  31.477  1.00  0.00     0.167 HD
ATOM     60  C   UNL A   1      42.906  28.832  34.128  1.00  0.00     0.074 A 
ATOM     61  C   UNL A   1      42.973  29.345  35.481  1.00  0.00     0.031 C 
ATOM     62  C   UNL A   1      43.770  27.926  33.609  1.00  0.00     0.037 A 
BRANCH  49  63
ATOM     63  C   UNL A   1      42.495  26.255  27.797  1.00  0.00     0.064 A 
ATOM     64  C   UNL A   1      41.859  25.023  27.587  1.00  0.00     0.173 A 
ATOM     65  C   UNL A   1      43.465  26.662  26.867  1.00  0.00     0.173 A 
ATOM     66  F   UNL A   1      40.937  24.583  28.457  1.00  0.00    -0.203 F 
ATOM     67  C   UNL A   1      42.207  24.214  26.509  1.00  0.00     0.198 A 
ATOM     68  C   UNL A   1      43.791  25.862  25.776  1.00  0.00     0.198 A 
ATOM     69  F   UNL A   1      44.102  27.833  27.022  1.00  0.00    -0.203 F 
ATOM     70  F   UNL A   1      41.628  23.014  26.360  1.00  0.00    -0.200 F 
ATOM     71  C   UNL A   1      43.170  24.635  25.603  1.00  0.00     0.200 A 
ATOM     72  F   UNL A   1      44.715  26.274  24.897  1.00  0.00    -0.200 F 
ATOM     73  F   UNL A   1      43.506  23.852  24.569  1.00  0.00    -0.200 F 
ENDBRANCH  49  63
BRANCH  50  74
ATOM     74  C   UNL A   1      39.648  31.959  35.476  1.00  0.00     0.064 A 
ATOM     75  C   UNL A   1      40.134  33.250  35.721  1.00  0.00     0.173 A 
ATOM     76  C   UNL A   1      38.678  31.448  36.350  1.00  0.00     0.173 A 
ATOM     77  F   UNL A   1      41.080  33.770  34.925  1.00  0.00    -0.203 F 
ATOM     78  C   UNL A   1      39.667  34.001  36.798  1.00  0.00     0.198 A 
ATOM     79  C   UNL A   1      38.196  32.208  37.414  1.00  0.00     0.198 A 
ATOM     80  F   UNL A   1      38.182  30.216  36.158  1.00  0.00    -0.203 F 
ATOM     81  F   UNL A   1      40.166  35.224  37.025  1.00  0.00    -0.200 F 
ATOM     82  C   UNL A   1      38.692  33.483  37.638  1.00  0.00     0.200 A 
ATOM     83  F   UNL A   1      37.246  31.708  38.215  1.00  0.00    -0.200 F 
ATOM     84  F   UNL A   1      38.234  34.211  38.665  1.00  0.00    -0.200 F 
ENDBRANCH  50  74
BRANCH  62  85
ATOM     85  C   UNL A   1      44.889  27.452  34.489  1.00  0.00     0.064 A 
ATOM     86  C   UNL A   1      44.770  26.296  35.274  1.00  0.00     0.173 A 
ATOM     87  C   UNL A   1      46.119  28.127  34.494  1.00  0.00     0.173 A 
ATOM     88  F   UNL A   1      43.609  25.625  35.313  1.00  0.00    -0.203 F 
ATOM     89  C   UNL A   1      45.839  25.839  36.040  1.00  0.00     0.198 A 
ATOM     90  C   UNL A   1      47.193  27.654  35.242  1.00  0.00     0.198 A 
ATOM     91  F   UNL A   1      46.285  29.235  33.754  1.00  0.00    -0.203 F 
ATOM     92  F   UNL A   1      45.695  24.750  36.805  1.00  0.00    -0.200 F 
ATOM     93  C   UNL A   1      47.052  26.513  36.016  1.00  0.00     0.200 A 
ATOM     94  F   UNL A   1      48.368  28.300  35.209  1.00  0.00    -0.200 F 
ATOM     95  F   UNL A   1      48.083  26.064  36.744  1.00  0.00    -0.200 F 
ENDBRANCH  62  85
ENDBRANCH  36  37
ENDBRANCH  29  31
ENDBRANCH  28  29
ENDBRANCH  27  28
ENDBRANCH  26  27
ENDBRANCH   1  26
TORSDOF 16
ENDMDL
