MODEL 1
REMARK VINA RESULT:      -9.6      0.000      0.000
REMARK SMILES C[C@@H]1CCC[C@H](C)[N@H+]1Cc1cc2c(cc1Cl)C=C(C(=O)OCCOCCOC(=O)c1ccc(-c3c4nc(c(-c5c(F)c(F)c(F)c(F)c5F)c5ccc([nH]5)c(-c5c(F)c(F)c(F)c(F)c5F)c5nc(c(-c6c(F)c(F)c(F)c(F)c6F)c6ccc3[nH]6)C=C5)C=C4)cc1)[C@@H](C(F)(F)F)O2
REMARK SMILES IDX 24 1 23 2 22 3 21 4 19 5 20 6 18 7 10 8 11 9 15 10 12 11
REMARK SMILES IDX 14 12 16 13 13 14 98 15 17 16 93 17 9 18 8 19 7 20 6 21 5 22
REMARK SMILES IDX 4 23 2 24 3 26 1 27 94 28 95 29 96 30 97 31 25 32 26 33
REMARK SMILES IDX 27 34 28 35 29 36 30 37 31 38 92 39 32 40 91 41 33 42 34 43
REMARK SMILES IDX 35 44 85 45 36 46 90 47 84 48 86 49 37 50 89 51 83 52 82 53
REMARK SMILES IDX 38 55 70 56 50 57 69 58 51 59 54 60 68 61 87 62 52 63 53 64
REMARK SMILES IDX 67 66 88 67 55 68 39 69 40 70 48 71 41 72 42 73 46 74 49 75
REMARK SMILES IDX 43 76 44 77 47 78 45 79 71 80 72 81 80 82 73 83 74 84 78 85
REMARK SMILES IDX 81 86 75 87 76 88 79 89 77 90 56 91 57 92 65 93 58 94 59 95
REMARK SMILES IDX 63 96 66 97 60 98 61 99 64 100 62 101
REMARK H PARENT 8 25 86 54 54 65
REMARK Flexibility Score: inf
ROOT
ATOM      1  O   UNL A   1      35.211  34.200  30.689  1.00  0.00    -0.374 OA
ENDROOT
BRANCH   1   2
ATOM      2  C   UNL A   1      34.631  34.176  31.988  1.00  0.00     0.202 C 
BRANCH   2   3
ATOM      3  C   UNL A   1      35.018  35.277  32.979  1.00  0.00     0.261 C 
BRANCH   3   4
ATOM      4  O   UNL A   1      36.318  35.077  33.554  1.00  0.00    -0.460 OA
BRANCH   4   5
ATOM      5  C   UNL A   1      36.352  34.064  34.450  1.00  0.00     0.338 C 
ATOM      6  O   UNL A   1      35.494  33.803  35.280  1.00  0.00    -0.246 OA
BRANCH   5   7
ATOM      7  C   UNL A   1      37.537  33.213  34.247  1.00  0.00     0.087 C 
ATOM      8  C   UNL A   1      40.294  29.138  33.254  1.00  0.00     0.029 A 
ATOM      9  C   UNL A   1      40.589  30.397  33.830  1.00  0.00     0.058 A 
ATOM     10  C   UNL A   1      38.957  28.874  32.910  1.00  0.00     0.050 A 
ATOM     11  C   UNL A   1      39.605  31.385  33.941  1.00  0.00     0.128 A 
ATOM     12  C   UNL A   1      38.013  29.897  32.907  1.00  0.00     0.033 A 
ATOM     13  Cl  UNL A   1      38.362  27.300  32.520  1.00  0.00    -0.084 Cl
ATOM     14  C   UNL A   1      38.344  31.154  33.399  1.00  0.00     0.019 A 
ATOM     15  O   UNL A   1      39.927  32.569  34.553  1.00  0.00    -0.475 OA
ATOM     16  C   UNL A   1      37.334  32.186  33.418  1.00  0.00     0.027 C 
ATOM     17  C   UNL A   1      38.812  33.402  35.021  1.00  0.00     0.316 C 
BRANCH   8  18
ATOM     18  C   UNL A   1      41.409  28.139  32.998  1.00  0.00     0.301 C 
BRANCH  18  19
ATOM     19  N   UNL A   1      42.377  27.890  34.095  1.00  0.00    -0.327 N 
ATOM     20  C   UNL A   1      44.788  28.177  34.608  1.00  0.00     0.075 C 
ATOM     21  C   UNL A   1      43.742  27.560  33.663  1.00  0.00     0.181 C 
ATOM     22  C   UNL A   1      43.988  26.054  33.508  1.00  0.00     0.065 C 
ATOM     23  C   UNL A   1      43.536  25.245  34.717  1.00  0.00     0.012 C 
ATOM     24  C   UNL A   1      41.856  27.118  35.235  1.00  0.00     0.181 C 
ATOM     25  H   UNL A   1      42.499  28.816  34.509  1.00  0.00     0.348 HD
ATOM     26  C   UNL A   1      42.119  25.604  35.146  1.00  0.00     0.065 C 
ATOM     27  C   UNL A   1      42.328  27.673  36.586  1.00  0.00     0.075 C 
ENDBRANCH  18  19
ENDBRANCH   8  18
BRANCH  17  28
ATOM     28  C   UNL A   1      38.581  33.203  36.526  1.00  0.00     0.430 C 
ATOM     29  F   UNL A   1      38.010  34.293  37.090  1.00  0.00    -0.167 F 
ATOM     30  F   UNL A   1      37.742  32.162  36.759  1.00  0.00    -0.167 F 
ATOM     31  F   UNL A   1      39.729  32.950  37.193  1.00  0.00    -0.167 F 
ENDBRANCH  17  28
ENDBRANCH   5   7
ENDBRANCH   4   5
ENDBRANCH   3   4
ENDBRANCH   2   3
ENDBRANCH   1   2
BRANCH   1  32
ATOM     32  C   UNL A   1      34.362  34.076  29.549  1.00  0.00     0.202 C 
BRANCH  32  33
ATOM     33  C   UNL A   1      34.673  32.995  28.505  1.00  0.00     0.261 C 
BRANCH  33  34
ATOM     34  O   UNL A   1      34.463  31.659  28.994  1.00  0.00    -0.460 OA
BRANCH  34  35
ATOM     35  C   UNL A   1      34.687  30.677  28.087  1.00  0.00     0.338 C 
ATOM     36  O   UNL A   1      33.969  30.343  27.156  1.00  0.00    -0.246 OA
BRANCH  35  37
ATOM     37  C   UNL A   1      36.063  30.175  28.253  1.00  0.00     0.060 A 
ATOM     38  C   UNL A   1      37.002  30.307  27.230  1.00  0.00     0.016 A 
ATOM     39  C   UNL A   1      36.419  29.600  29.480  1.00  0.00     0.016 A 
ATOM     40  C   UNL A   1      38.311  29.874  27.448  1.00  0.00     0.010 A 
ATOM     41  C   UNL A   1      37.726  29.165  29.694  1.00  0.00     0.010 A 
ATOM     42  C   UNL A   1      38.686  29.315  28.684  1.00  0.00    -0.014 A 
BRANCH  42  43
ATOM     43  C   UNL A   1      40.110  29.004  28.957  1.00  0.00     0.031 A 
ATOM     44  C   UNL A   1      40.987  29.953  29.715  1.00  0.00     0.074 A 
ATOM     45  C   UNL A   1      40.611  27.844  28.496  1.00  0.00     0.049 A 
ATOM     46  N   UNL A   1      42.229  29.797  30.099  1.00  0.00    -0.248 NA
ATOM     47  C   UNL A   1      40.400  31.249  30.085  1.00  0.00     0.031 C 
ATOM     48  C   UNL A   1      39.860  26.864  27.710  1.00  0.00     0.029 A 
ATOM     49  N   UNL A   1      41.857  27.287  28.625  1.00  0.00    -0.354 N 
ATOM     50  C   UNL A   1      42.567  30.959  30.776  1.00  0.00     0.074 A 
ATOM     51  C   UNL A   1      41.418  31.838  30.700  1.00  0.00     0.031 C 
ATOM     52  C   UNL A   1      40.648  25.808  27.460  1.00  0.00     0.029 A 
ATOM     53  C   UNL A   1      41.967  26.050  28.040  1.00  0.00     0.049 A 
ATOM     54  H   UNL A   1      42.601  27.730  29.094  1.00  0.00     0.167 HD
ATOM     55  C   UNL A   1      43.724  31.252  31.418  1.00  0.00     0.037 A 
ATOM     56  C   UNL A   1      43.011  25.201  27.980  1.00  0.00     0.037 A 
ATOM     57  C   UNL A   1      44.869  30.377  31.471  1.00  0.00     0.049 A 
ATOM     58  C   UNL A   1      44.300  25.573  28.658  1.00  0.00     0.074 A 
ATOM     59  C   UNL A   1      46.072  30.571  32.129  1.00  0.00     0.029 A 
ATOM     60  N   UNL A   1      44.961  29.148  30.830  1.00  0.00    -0.354 N 
ATOM     61  N   UNL A   1      44.584  26.640  29.366  1.00  0.00    -0.248 NA
ATOM     62  C   UNL A   1      45.412  24.622  28.536  1.00  0.00     0.031 C 
ATOM     63  C   UNL A   1      46.912  29.494  31.836  1.00  0.00     0.029 A 
ATOM     64  C   UNL A   1      46.212  28.592  31.050  1.00  0.00     0.049 A 
ATOM     65  H   UNL A   1      44.244  28.733  30.299  1.00  0.00     0.167 HD
ATOM     66  C   UNL A   1      45.896  26.480  29.789  1.00  0.00     0.074 A 
ATOM     67  C   UNL A   1      46.347  25.203  29.277  1.00  0.00     0.031 C 
ATOM     68  C   UNL A   1      46.657  27.321  30.532  1.00  0.00     0.037 A 
BRANCH  55  69
ATOM     69  C   UNL A   1      43.816  32.571  32.131  1.00  0.00     0.064 A 
ATOM     70  C   UNL A   1      44.102  33.757  31.436  1.00  0.00     0.173 A 
ATOM     71  C   UNL A   1      43.537  32.667  33.503  1.00  0.00     0.173 A 
ATOM     72  F   UNL A   1      44.382  33.721  30.125  1.00  0.00    -0.203 F 
ATOM     73  C   UNL A   1      44.123  34.985  32.093  1.00  0.00     0.198 A 
ATOM     74  C   UNL A   1      43.528  33.901  34.149  1.00  0.00     0.198 A 
ATOM     75  F   UNL A   1      43.247  31.567  34.213  1.00  0.00    -0.203 F 
ATOM     76  F   UNL A   1      44.434  36.099  31.415  1.00  0.00    -0.200 F 
ATOM     77  C   UNL A   1      43.826  35.057  33.446  1.00  0.00     0.200 A 
ATOM     78  F   UNL A   1      43.223  33.971  35.452  1.00  0.00    -0.200 F 
ATOM     79  F   UNL A   1      43.828  36.243  34.071  1.00  0.00    -0.200 F 
ENDBRANCH  55  69
BRANCH  56  80
ATOM     80  C   UNL A   1      42.853  23.898  27.285  1.00  0.00     0.064 A 
ATOM     81  C   UNL A   1      43.232  23.749  25.945  1.00  0.00     0.173 A 
ATOM     82  C   UNL A   1      42.359  22.768  27.956  1.00  0.00     0.173 A 
ATOM     83  F   UNL A   1      43.693  24.804  25.258  1.00  0.00    -0.203 F 
ATOM     84  C   UNL A   1      43.119  22.519  25.299  1.00  0.00     0.198 A 
ATOM     85  C   UNL A   1      42.275  21.533  27.317  1.00  0.00     0.198 A 
ATOM     86  F   UNL A   1      41.988  22.859  29.241  1.00  0.00    -0.203 F 
ATOM     87  F   UNL A   1      43.461  22.411  24.007  1.00  0.00    -0.200 F 
ATOM     88  C   UNL A   1      42.650  21.411  25.988  1.00  0.00     0.200 A 
ATOM     89  F   UNL A   1      41.840  20.461  27.992  1.00  0.00    -0.200 F 
ATOM     90  F   UNL A   1      42.559  20.225  25.370  1.00  0.00    -0.200 F 
ENDBRANCH  56  80
BRANCH  68  91
ATOM     91  C   UNL A   1      48.060  26.890  30.855  1.00  0.00     0.064 A 
ATOM     92  C   UNL A   1      49.150  27.289  30.068  1.00  0.00     0.173 A 
ATOM     93  C   UNL A   1      48.327  26.130  32.005  1.00  0.00     0.173 A 
ATOM     94  F   UNL A   1      48.949  28.003  28.950  1.00  0.00    -0.203 F 
ATOM     95  C   UNL A   1      50.452  26.931  30.410  1.00  0.00     0.198 A 
ATOM     96  C   UNL A   1      49.632  25.804  32.363  1.00  0.00     0.198 A 
ATOM     97  F   UNL A   1      47.323  25.728  32.798  1.00  0.00    -0.203 F 
ATOM     98  F   UNL A   1      51.473  27.292  29.621  1.00  0.00    -0.200 F 
ATOM     99  C   UNL A   1      50.693  26.200  31.563  1.00  0.00     0.200 A 
ATOM    100  F   UNL A   1      49.864  25.112  33.488  1.00  0.00    -0.200 F 
ATOM    101  F   UNL A   1      51.948  25.874  31.902  1.00  0.00    -0.200 F 
ENDBRANCH  68  91
ENDBRANCH  42  43
ENDBRANCH  35  37
ENDBRANCH  34  35
ENDBRANCH  33  34
ENDBRANCH  32  33
ENDBRANCH   1  32
TORSDOF 17
ENDMDL
MODEL 2
REMARK VINA RESULT:      -9.4      5.202      9.010
REMARK SMILES C[C@@H]1CCC[C@H](C)[N@H+]1Cc1cc2c(cc1Cl)C=C(C(=O)OCCOCCOC(=O)c1ccc(-c3c4nc(c(-c5c(F)c(F)c(F)c(F)c5F)c5ccc([nH]5)c(-c5c(F)c(F)c(F)c(F)c5F)c5nc(c(-c6c(F)c(F)c(F)c(F)c6F)c6ccc3[nH]6)C=C5)C=C4)cc1)[C@@H](C(F)(F)F)O2
REMARK SMILES IDX 24 1 23 2 22 3 21 4 19 5 20 6 18 7 10 8 11 9 15 10 12 11
REMARK SMILES IDX 14 12 16 13 13 14 98 15 17 16 93 17 9 18 8 19 7 20 6 21 5 22
REMARK SMILES IDX 4 23 2 24 3 26 1 27 94 28 95 29 96 30 97 31 25 32 26 33
REMARK SMILES IDX 27 34 28 35 29 36 30 37 31 38 92 39 32 40 91 41 33 42 34 43
REMARK SMILES IDX 35 44 85 45 36 46 90 47 84 48 86 49 37 50 89 51 83 52 82 53
REMARK SMILES IDX 38 55 70 56 50 57 69 58 51 59 54 60 68 61 87 62 52 63 53 64
REMARK SMILES IDX 67 66 88 67 55 68 39 69 40 70 48 71 41 72 42 73 46 74 49 75
REMARK SMILES IDX 43 76 44 77 47 78 45 79 71 80 72 81 80 82 73 83 74 84 78 85
REMARK SMILES IDX 81 86 75 87 76 88 79 89 77 90 56 91 57 92 65 93 58 94 59 95
REMARK SMILES IDX 63 96 66 97 60 98 61 99 64 100 62 101
REMARK H PARENT 8 25 86 54 54 65
REMARK Flexibility Score: inf
ROOT
ATOM      1  O   UNL A   1      31.466  30.809  25.624  1.00  0.00    -0.374 OA
ENDROOT
BRANCH   1   2
ATOM      2  C   UNL A   1      32.305  29.724  25.247  1.00  0.00     0.202 C 
BRANCH   2   3
ATOM      3  C   UNL A   1      31.649  28.444  24.722  1.00  0.00     0.261 C 
BRANCH   3   4
ATOM      4  O   UNL A   1      32.373  27.259  25.082  1.00  0.00    -0.460 OA
BRANCH   4   5
ATOM      5  C   UNL A   1      31.757  26.532  26.044  1.00  0.00     0.338 C 
ATOM      6  O   UNL A   1      30.981  26.957  26.886  1.00  0.00    -0.246 OA
BRANCH   5   7
ATOM      7  C   UNL A   1      32.057  25.097  25.900  1.00  0.00     0.087 C 
ATOM      8  C   UNL A   1      34.690  20.888  25.163  1.00  0.00     0.029 A 
ATOM      9  C   UNL A   1      33.305  21.181  25.172  1.00  0.00     0.058 A 
ATOM     10  C   UNL A   1      35.585  21.957  25.334  1.00  0.00     0.050 A 
ATOM     11  C   UNL A   1      32.846  22.471  25.462  1.00  0.00     0.128 A 
ATOM     12  C   UNL A   1      35.126  23.206  25.743  1.00  0.00     0.033 A 
ATOM     13  Cl  UNL A   1      37.281  21.847  25.018  1.00  0.00    -0.084 Cl
ATOM     14  C   UNL A   1      33.761  23.453  25.828  1.00  0.00     0.019 A 
ATOM     15  O   UNL A   1      31.498  22.717  25.407  1.00  0.00    -0.475 OA
ATOM     16  C   UNL A   1      33.312  24.769  26.220  1.00  0.00     0.027 C 
ATOM     17  C   UNL A   1      31.081  24.121  25.304  1.00  0.00     0.316 C 
BRANCH   8  18
ATOM     18  C   UNL A   1      35.162  19.453  25.003  1.00  0.00     0.301 C 
BRANCH  18  19
ATOM     19  N   UNL A   1      34.239  18.493  24.348  1.00  0.00    -0.327 N 
ATOM     20  C   UNL A   1      31.868  18.314  23.637  1.00  0.00     0.075 C 
ATOM     21  C   UNL A   1      32.844  18.556  24.802  1.00  0.00     0.181 C 
ATOM     22  C   UNL A   1      32.534  17.601  25.963  1.00  0.00     0.065 C 
ATOM     23  C   UNL A   1      33.012  16.177  25.711  1.00  0.00     0.012 C 
ATOM     24  C   UNL A   1      34.785  17.144  24.124  1.00  0.00     0.181 C 
ATOM     25  H   UNL A   1      34.173  18.852  23.394  1.00  0.00     0.348 HD
ATOM     26  C   UNL A   1      34.461  16.137  25.242  1.00  0.00     0.065 C 
ATOM     27  C   UNL A   1      34.399  16.574  22.751  1.00  0.00     0.075 C 
ENDBRANCH  18  19
ENDBRANCH   8  18
BRANCH  17  28
ATOM     28  C   UNL A   1      30.752  24.484  23.849  1.00  0.00     0.430 C 
ATOM     29  F   UNL A   1      31.852  24.905  23.181  1.00  0.00    -0.167 F 
ATOM     30  F   UNL A   1      30.275  23.410  23.172  1.00  0.00    -0.167 F 
ATOM     31  F   UNL A   1      29.821  25.459  23.761  1.00  0.00    -0.167 F 
ENDBRANCH  17  28
ENDBRANCH   5   7
ENDBRANCH   4   5
ENDBRANCH   3   4
ENDBRANCH   2   3
ENDBRANCH   1   2
BRANCH   1  32
ATOM     32  C   UNL A   1      31.692  31.457  26.875  1.00  0.00     0.202 C 
BRANCH  32  33
ATOM     33  C   UNL A   1      31.791  32.989  26.911  1.00  0.00     0.261 C 
BRANCH  33  34
ATOM     34  O   UNL A   1      33.142  33.466  27.029  1.00  0.00    -0.460 OA
BRANCH  34  35
ATOM     35  C   UNL A   1      33.470  33.957  28.249  1.00  0.00     0.338 C 
ATOM     36  O   UNL A   1      32.815  34.714  28.949  1.00  0.00    -0.246 OA
BRANCH  35  37
ATOM     37  C   UNL A   1      34.681  33.270  28.733  1.00  0.00     0.060 A 
ATOM     38  C   UNL A   1      35.914  33.922  28.754  1.00  0.00     0.016 A 
ATOM     39  C   UNL A   1      34.557  31.960  29.214  1.00  0.00     0.016 A 
ATOM     40  C   UNL A   1      37.025  33.259  29.276  1.00  0.00     0.010 A 
ATOM     41  C   UNL A   1      35.669  31.298  29.732  1.00  0.00     0.010 A 
ATOM     42  C   UNL A   1      36.909  31.950  29.783  1.00  0.00    -0.014 A 
BRANCH  42  43
ATOM     43  C   UNL A   1      38.056  31.316  30.475  1.00  0.00     0.031 A 
ATOM     44  C   UNL A   1      38.392  31.647  31.897  1.00  0.00     0.074 A 
ATOM     45  C   UNL A   1      38.809  30.436  29.790  1.00  0.00     0.049 A 
ATOM     46  N   UNL A   1      39.314  31.126  32.667  1.00  0.00    -0.248 NA
ATOM     47  C   UNL A   1      37.595  32.701  32.541  1.00  0.00     0.031 C 
ATOM     48  C   UNL A   1      38.601  30.072  28.389  1.00  0.00     0.029 A 
ATOM     49  N   UNL A   1      39.889  29.684  30.177  1.00  0.00    -0.354 N 
ATOM     50  C   UNL A   1      39.197  31.769  33.890  1.00  0.00     0.074 A 
ATOM     51  C   UNL A   1      38.151  32.760  33.745  1.00  0.00     0.031 C 
ATOM     52  C   UNL A   1      39.498  29.136  28.043  1.00  0.00     0.029 A 
ATOM     53  C   UNL A   1      40.364  28.860  29.187  1.00  0.00     0.049 A 
ATOM     54  H   UNL A   1      40.285  29.729  31.076  1.00  0.00     0.167 HD
ATOM     55  C   UNL A   1      39.887  31.534  35.033  1.00  0.00     0.037 A 
ATOM     56  C   UNL A   1      41.379  27.975  29.198  1.00  0.00     0.037 A 
ATOM     57  C   UNL A   1      40.940  30.557  35.162  1.00  0.00     0.049 A 
ATOM     58  C   UNL A   1      42.161  27.771  30.466  1.00  0.00     0.074 A 
ATOM     59  C   UNL A   1      41.670  30.222  36.289  1.00  0.00     0.029 A 
ATOM     60  N   UNL A   1      41.424  29.769  34.126  1.00  0.00    -0.354 N 
ATOM     61  N   UNL A   1      41.989  28.325  31.641  1.00  0.00    -0.248 NA
ATOM     62  C   UNL A   1      43.274  26.813  30.411  1.00  0.00     0.031 C 
ATOM     63  C   UNL A   1      42.635  29.280  35.923  1.00  0.00     0.029 A 
ATOM     64  C   UNL A   1      42.465  28.975  34.582  1.00  0.00     0.049 A 
ATOM     65  H   UNL A   1      41.078  29.772  33.205  1.00  0.00     0.167 HD
ATOM     66  C   UNL A   1      42.955  27.772  32.470  1.00  0.00     0.074 A 
ATOM     67  C   UNL A   1      43.698  26.822  31.668  1.00  0.00     0.031 C 
ATOM     68  C   UNL A   1      43.204  28.033  33.776  1.00  0.00     0.037 A 
BRANCH  55  69
ATOM     69  C   UNL A   1      39.523  32.337  36.249  1.00  0.00     0.064 A 
ATOM     70  C   UNL A   1      40.186  33.536  36.557  1.00  0.00     0.173 A 
ATOM     71  C   UNL A   1      38.451  31.953  37.069  1.00  0.00     0.173 A 
ATOM     72  F   UNL A   1      41.221  33.946  35.808  1.00  0.00    -0.203 F 
ATOM     73  C   UNL A   1      39.801  34.309  37.650  1.00  0.00     0.198 A 
ATOM     74  C   UNL A   1      38.050  32.745  38.143  1.00  0.00     0.198 A 
ATOM     75  F   UNL A   1      37.776  30.823  36.815  1.00  0.00    -0.203 F 
ATOM     76  F   UNL A   1      40.473  35.431  37.943  1.00  0.00    -0.200 F 
ATOM     77  C   UNL A   1      38.728  33.918  38.436  1.00  0.00     0.200 A 
ATOM     78  F   UNL A   1      37.000  32.375  38.890  1.00  0.00    -0.200 F 
ATOM     79  F   UNL A   1      38.347  34.673  39.475  1.00  0.00    -0.200 F 
ENDBRANCH  55  69
BRANCH  56  80
ATOM     80  C   UNL A   1      41.675  27.187  27.974  1.00  0.00     0.064 A 
ATOM     81  C   UNL A   1      42.551  27.681  26.998  1.00  0.00     0.173 A 
ATOM     82  C   UNL A   1      41.121  25.914  27.773  1.00  0.00     0.173 A 
ATOM     83  F   UNL A   1      43.091  28.900  27.138  1.00  0.00    -0.203 F 
ATOM     84  C   UNL A   1      42.859  26.931  25.865  1.00  0.00     0.198 A 
ATOM     85  C   UNL A   1      41.454  25.153  26.654  1.00  0.00     0.198 A 
ATOM     86  F   UNL A   1      40.281  25.396  28.681  1.00  0.00    -0.203 F 
ATOM     87  F   UNL A   1      43.677  27.438  24.932  1.00  0.00    -0.200 F 
ATOM     88  C   UNL A   1      42.319  25.665  25.699  1.00  0.00     0.200 A 
ATOM     89  F   UNL A   1      40.944  23.923  26.508  1.00  0.00    -0.200 F 
ATOM     90  F   UNL A   1      42.631  24.938  24.617  1.00  0.00    -0.200 F 
ENDBRANCH  56  80
BRANCH  68  91
ATOM     91  C   UNL A   1      44.321  27.276  34.439  1.00  0.00     0.064 A 
ATOM     92  C   UNL A   1      45.629  27.779  34.475  1.00  0.00     0.173 A 
ATOM     93  C   UNL A   1      44.065  26.068  35.109  1.00  0.00     0.173 A 
ATOM     94  F   UNL A   1      45.931  28.920  33.838  1.00  0.00    -0.203 F 
ATOM     95  C   UNL A   1      46.643  27.095  35.142  1.00  0.00     0.198 A 
ATOM     96  C   UNL A   1      45.073  25.406  35.804  1.00  0.00     0.198 A 
ATOM     97  F   UNL A   1      42.829  25.546  35.113  1.00  0.00    -0.203 F 
ATOM     98  F   UNL A   1      47.893  27.576  35.129  1.00  0.00    -0.200 F 
ATOM     99  C   UNL A   1      46.361  25.916  35.816  1.00  0.00     0.200 A 
ATOM    100  F   UNL A   1      44.794  24.276  36.469  1.00  0.00    -0.200 F 
ATOM    101  F   UNL A   1      47.334  25.270  36.474  1.00  0.00    -0.200 F 
ENDBRANCH  68  91
ENDBRANCH  42  43
ENDBRANCH  35  37
ENDBRANCH  34  35
ENDBRANCH  33  34
ENDBRANCH  32  33
ENDBRANCH   1  32
TORSDOF 17
ENDMDL
MODEL 3
REMARK VINA RESULT:      -9.1      5.014     11.235
REMARK SMILES C[C@@H]1CCC[C@H](C)[N@H+]1Cc1cc2c(cc1Cl)C=C(C(=O)OCCOCCOC(=O)c1ccc(-c3c4nc(c(-c5c(F)c(F)c(F)c(F)c5F)c5ccc([nH]5)c(-c5c(F)c(F)c(F)c(F)c5F)c5nc(c(-c6c(F)c(F)c(F)c(F)c6F)c6ccc3[nH]6)C=C5)C=C4)cc1)[C@@H](C(F)(F)F)O2
REMARK SMILES IDX 24 1 23 2 22 3 21 4 19 5 20 6 18 7 10 8 11 9 15 10 12 11
REMARK SMILES IDX 14 12 16 13 13 14 98 15 17 16 93 17 9 18 8 19 7 20 6 21 5 22
REMARK SMILES IDX 4 23 2 24 3 26 1 27 94 28 95 29 96 30 97 31 25 32 26 33
REMARK SMILES IDX 27 34 28 35 29 36 30 37 31 38 92 39 32 40 91 41 33 42 34 43
REMARK SMILES IDX 35 44 85 45 36 46 90 47 84 48 86 49 37 50 89 51 83 52 82 53
REMARK SMILES IDX 38 55 70 56 50 57 69 58 51 59 54 60 68 61 87 62 52 63 53 64
REMARK SMILES IDX 67 66 88 67 55 68 39 69 40 70 48 71 41 72 42 73 46 74 49 75
REMARK SMILES IDX 43 76 44 77 47 78 45 79 71 80 72 81 80 82 73 83 74 84 78 85
REMARK SMILES IDX 81 86 75 87 76 88 79 89 77 90 56 91 57 92 65 93 58 94 59 95
REMARK SMILES IDX 63 96 66 97 60 98 61 99 64 100 62 101
REMARK H PARENT 8 25 86 54 54 65
REMARK Flexibility Score: inf
ROOT
ATOM      1  O   UNL A   1      32.688  31.172  27.351  1.00  0.00    -0.374 OA
ENDROOT
BRANCH   1   2
ATOM      2  C   UNL A   1      32.397  30.055  26.519  1.00  0.00     0.202 C 
BRANCH   2   3
ATOM      3  C   UNL A   1      33.428  28.926  26.428  1.00  0.00     0.261 C 
BRANCH   3   4
ATOM      4  O   UNL A   1      32.874  27.707  25.912  1.00  0.00    -0.460 OA
BRANCH   4   5
ATOM      5  C   UNL A   1      33.557  27.220  24.849  1.00  0.00     0.338 C 
ATOM      6  O   UNL A   1      34.171  27.877  24.023  1.00  0.00    -0.246 OA
BRANCH   5   7
ATOM      7  C   UNL A   1      33.566  25.748  24.851  1.00  0.00     0.087 C 
ATOM      8  C   UNL A   1      35.327  21.049  24.948  1.00  0.00     0.029 A 
ATOM      9  C   UNL A   1      34.068  21.610  24.626  1.00  0.00     0.058 A 
ATOM     10  C   UNL A   1      36.374  21.931  25.266  1.00  0.00     0.050 A 
ATOM     11  C   UNL A   1      33.846  22.987  24.737  1.00  0.00     0.128 A 
ATOM     12  C   UNL A   1      36.117  23.279  25.494  1.00  0.00     0.033 A 
ATOM     13  Cl  UNL A   1      38.033  21.456  25.351  1.00  0.00    -0.084 Cl
ATOM     14  C   UNL A   1      34.851  23.800  25.253  1.00  0.00     0.019 A 
ATOM     15  O   UNL A   1      32.626  23.489  24.364  1.00  0.00    -0.475 OA
ATOM     16  C   UNL A   1      34.623  25.210  25.465  1.00  0.00     0.027 C 
ATOM     17  C   UNL A   1      32.552  24.931  24.098  1.00  0.00     0.316 C 
BRANCH   8  18
ATOM     18  C   UNL A   1      35.503  19.540  24.973  1.00  0.00     0.301 C 
BRANCH  18  19
ATOM     19  N   UNL A   1      34.448  18.713  24.336  1.00  0.00    -0.327 N 
ATOM     20  C   UNL A   1      32.073  18.869  23.630  1.00  0.00     0.075 C 
ATOM     21  C   UNL A   1      33.078  18.988  24.790  1.00  0.00     0.181 C 
ATOM     22  C   UNL A   1      32.636  18.110  25.968  1.00  0.00     0.065 C 
ATOM     23  C   UNL A   1      32.900  16.626  25.744  1.00  0.00     0.012 C 
ATOM     24  C   UNL A   1      34.790  17.295  24.137  1.00  0.00     0.181 C 
ATOM     25  H   UNL A   1      34.431  19.060  23.376  1.00  0.00     0.348 HD
ATOM     26  C   UNL A   1      34.326  16.367  25.274  1.00  0.00     0.065 C 
ATOM     27  C   UNL A   1      34.321  16.763  22.776  1.00  0.00     0.075 C 
ENDBRANCH  18  19
ENDBRANCH   8  18
BRANCH  17  28
ATOM     28  C   UNL A   1      32.627  25.209  22.589  1.00  0.00     0.430 C 
ATOM     29  F   UNL A   1      31.951  26.334  22.257  1.00  0.00    -0.167 F 
ATOM     30  F   UNL A   1      33.910  25.395  22.189  1.00  0.00    -0.167 F 
ATOM     31  F   UNL A   1      32.121  24.194  21.855  1.00  0.00    -0.167 F 
ENDBRANCH  17  28
ENDBRANCH   5   7
ENDBRANCH   4   5
ENDBRANCH   3   4
ENDBRANCH   2   3
ENDBRANCH   1   2
BRANCH   1  32
ATOM     32  C   UNL A   1      31.940  32.375  27.182  1.00  0.00     0.202 C 
BRANCH  32  33
ATOM     33  C   UNL A   1      32.673  33.722  27.249  1.00  0.00     0.261 C 
BRANCH  33  34
ATOM     34  O   UNL A   1      32.256  34.539  28.356  1.00  0.00    -0.460 OA
BRANCH  34  35
ATOM     35  C   UNL A   1      33.225  35.331  28.878  1.00  0.00     0.338 C 
ATOM     36  O   UNL A   1      33.174  36.535  29.081  1.00  0.00    -0.246 OA
BRANCH  35  37
ATOM     37  C   UNL A   1      34.322  34.483  29.377  1.00  0.00     0.060 A 
ATOM     38  C   UNL A   1      35.622  34.640  28.899  1.00  0.00     0.016 A 
ATOM     39  C   UNL A   1      34.035  33.543  30.376  1.00  0.00     0.016 A 
ATOM     40  C   UNL A   1      36.645  33.859  29.441  1.00  0.00     0.010 A 
ATOM     41  C   UNL A   1      35.058  32.763  30.914  1.00  0.00     0.010 A 
ATOM     42  C   UNL A   1      36.374  32.927  30.461  1.00  0.00    -0.014 A 
BRANCH  42  43
ATOM     43  C   UNL A   1      37.488  32.219  31.135  1.00  0.00     0.031 A 
ATOM     44  C   UNL A   1      38.219  31.095  30.468  1.00  0.00     0.074 A 
ATOM     45  C   UNL A   1      37.827  32.600  32.381  1.00  0.00     0.049 A 
ATOM     46  N   UNL A   1      39.261  30.425  30.892  1.00  0.00    -0.248 NA
ATOM     47  C   UNL A   1      37.716  30.660  29.157  1.00  0.00     0.031 C 
ATOM     48  C   UNL A   1      37.156  33.652  33.144  1.00  0.00     0.029 A 
ATOM     49  N   UNL A   1      38.819  32.158  33.218  1.00  0.00    -0.354 N 
ATOM     50  C   UNL A   1      39.554  29.506  29.895  1.00  0.00     0.074 A 
ATOM     51  C   UNL A   1      38.545  29.665  28.868  1.00  0.00     0.031 C 
ATOM     52  C   UNL A   1      37.780  33.803  34.322  1.00  0.00     0.029 A 
ATOM     53  C   UNL A   1      38.872  32.837  34.410  1.00  0.00     0.049 A 
ATOM     54  H   UNL A   1      39.435  31.426  32.987  1.00  0.00     0.167 HD
ATOM     55  C   UNL A   1      40.585  28.628  29.837  1.00  0.00     0.037 A 
ATOM     56  C   UNL A   1      39.710  32.703  35.456  1.00  0.00     0.037 A 
ATOM     57  C   UNL A   1      41.573  28.465  30.875  1.00  0.00     0.049 A 
ATOM     58  C   UNL A   1      40.814  31.686  35.386  1.00  0.00     0.074 A 
ATOM     59  C   UNL A   1      42.676  27.627  30.890  1.00  0.00     0.029 A 
ATOM     60  N   UNL A   1      41.572  29.140  32.088  1.00  0.00    -0.354 N 
ATOM     61  N   UNL A   1      41.134  30.878  34.404  1.00  0.00    -0.248 NA
ATOM     62  C   UNL A   1      41.680  31.566  36.567  1.00  0.00     0.031 C 
ATOM     63  C   UNL A   1      43.304  27.749  32.132  1.00  0.00     0.029 A 
ATOM     64  C   UNL A   1      42.634  28.712  32.870  1.00  0.00     0.049 A 
ATOM     65  H   UNL A   1      40.914  29.823  32.353  1.00  0.00     0.167 HD
ATOM     66  C   UNL A   1      42.245  30.169  34.838  1.00  0.00     0.074 A 
ATOM     67  C   UNL A   1      42.559  30.657  36.165  1.00  0.00     0.031 C 
ATOM     68  C   UNL A   1      42.938  29.199  34.194  1.00  0.00     0.037 A 
BRANCH  55  69
ATOM     69  C   UNL A   1      40.713  27.776  28.607  1.00  0.00     0.064 A 
ATOM     70  C   UNL A   1      40.032  26.554  28.492  1.00  0.00     0.173 A 
ATOM     71  C   UNL A   1      41.454  28.219  27.501  1.00  0.00     0.173 A 
ATOM     72  F   UNL A   1      39.314  26.082  29.521  1.00  0.00    -0.203 F 
ATOM     73  C   UNL A   1      40.104  25.800  27.323  1.00  0.00     0.198 A 
ATOM     74  C   UNL A   1      41.498  27.477  26.322  1.00  0.00     0.198 A 
ATOM     75  F   UNL A   1      42.116  29.385  27.552  1.00  0.00    -0.203 F 
ATOM     76  F   UNL A   1      39.473  24.619  27.251  1.00  0.00    -0.200 F 
ATOM     77  C   UNL A   1      40.828  26.267  26.236  1.00  0.00     0.200 A 
ATOM     78  F   UNL A   1      42.184  27.939  25.267  1.00  0.00    -0.200 F 
ATOM     79  F   UNL A   1      40.880  25.549  25.106  1.00  0.00    -0.200 F 
ENDBRANCH  55  69
BRANCH  56  80
ATOM     80  C   UNL A   1      39.553  33.593  36.635  1.00  0.00     0.064 A 
ATOM     81  C   UNL A   1      40.156  34.858  36.664  1.00  0.00     0.173 A 
ATOM     82  C   UNL A   1      38.768  33.217  37.735  1.00  0.00     0.173 A 
ATOM     83  F   UNL A   1      40.931  35.254  35.644  1.00  0.00    -0.203 F 
ATOM     84  C   UNL A   1      39.984  35.711  37.753  1.00  0.00     0.198 A 
ATOM     85  C   UNL A   1      38.571  34.083  38.808  1.00  0.00     0.198 A 
ATOM     86  F   UNL A   1      38.165  32.019  37.751  1.00  0.00    -0.203 F 
ATOM     87  F   UNL A   1      40.596  36.903  37.769  1.00  0.00    -0.200 F 
ATOM     88  C   UNL A   1      39.184  35.327  38.818  1.00  0.00     0.200 A 
ATOM     89  F   UNL A   1      37.783  33.716  39.826  1.00  0.00    -0.200 F 
ATOM     90  F   UNL A   1      39.004  36.156  39.855  1.00  0.00    -0.200 F 
ENDBRANCH  56  80
BRANCH  68  91
ATOM     91  C   UNL A   1      44.120  28.598  34.902  1.00  0.00     0.064 A 
ATOM     92  C   UNL A   1      45.393  29.182  34.833  1.00  0.00     0.173 A 
ATOM     93  C   UNL A   1      43.962  27.467  35.719  1.00  0.00     0.173 A 
ATOM     94  F   UNL A   1      45.602  30.255  34.056  1.00  0.00    -0.203 F 
ATOM     95  C   UNL A   1      46.466  28.648  35.541  1.00  0.00     0.198 A 
ATOM     96  C   UNL A   1      45.030  26.956  36.453  1.00  0.00     0.198 A 
ATOM     97  F   UNL A   1      42.764  26.873  35.828  1.00  0.00    -0.203 F 
ATOM     98  F   UNL A   1      47.682  29.200  35.428  1.00  0.00    -0.200 F 
ATOM     99  C   UNL A   1      46.282  27.544  36.360  1.00  0.00     0.200 A 
ATOM    100  F   UNL A   1      44.844  25.900  37.256  1.00  0.00    -0.200 F 
ATOM    101  F   UNL A   1      47.312  27.043  37.056  1.00  0.00    -0.200 F 
ENDBRANCH  68  91
ENDBRANCH  42  43
ENDBRANCH  35  37
ENDBRANCH  34  35
ENDBRANCH  33  34
ENDBRANCH  32  33
ENDBRANCH   1  32
TORSDOF 17
ENDMDL
