MODEL 1
REMARK VINA RESULT:     -11.7      0.000      0.000
REMARK SMILES CCCc1cc2c(cc1Cl)C=C(C(=O)OCCOCCOC(=O)c1ccc(-c3c4nc(c(-c5c(F)c(F)c(F)c(F)c5F)c5ccc([nH]5)c(-c5c(F)c(F)c(F)c(F)c5F)c5nc(c(-c6c(F)c(F)c(F)c(F)c6F)c6ccc3[nH]6)C=C5)C=C4)cc1)[C@H](C(F)(F)F)O2
REMARK SMILES IDX 18 1 17 2 16 3 15 4 13 5 14 6 12 7 4 8 5 9 9 10 6 11 8 12
REMARK SMILES IDX 10 13 7 14 92 15 11 16 87 17 3 18 2 19 1 20 88 21 89 22
REMARK SMILES IDX 90 23 91 24 19 25 20 26 21 27 22 28 23 29 24 30 25 31 86 32
REMARK SMILES IDX 26 33 85 34 27 35 28 36 29 37 79 38 30 39 84 40 78 41 80 42
REMARK SMILES IDX 31 43 83 44 77 45 76 46 32 48 64 49 44 50 63 51 45 52 48 53
REMARK SMILES IDX 62 54 81 55 46 56 47 57 61 59 82 60 49 61 33 62 34 63 42 64
REMARK SMILES IDX 35 65 36 66 40 67 43 68 37 69 38 70 41 71 39 72 65 73 66 74
REMARK SMILES IDX 74 75 67 76 68 77 72 78 75 79 69 80 70 81 73 82 71 83 50 84
REMARK SMILES IDX 51 85 59 86 52 87 53 88 57 89 60 90 54 91 55 92 58 93 56 94
REMARK H PARENT 80 47 48 58
REMARK Flexibility Score: inf
ROOT
ATOM      1  O   UNL A   1      32.523  28.590  24.902  1.00  0.00    -0.374 OA
ENDROOT
BRANCH   1   2
ATOM      2  C   UNL A   1      32.269  27.238  24.519  1.00  0.00     0.202 C 
BRANCH   2   3
ATOM      3  C   UNL A   1      31.269  26.477  25.393  1.00  0.00     0.261 C 
BRANCH   3   4
ATOM      4  O   UNL A   1      31.300  25.074  25.078  1.00  0.00    -0.460 OA
BRANCH   4   5
ATOM      5  C   UNL A   1      31.641  24.279  26.111  1.00  0.00     0.338 C 
ATOM      6  O   UNL A   1      31.205  24.355  27.250  1.00  0.00    -0.246 OA
BRANCH   5   7
ATOM      7  C   UNL A   1      32.558  23.213  25.663  1.00  0.00     0.087 C 
ATOM      8  C   UNL A   1      34.054  18.637  24.250  1.00  0.00    -0.026 A 
ATOM      9  C   UNL A   1      34.612  19.660  25.042  1.00  0.00     0.052 A 
ATOM     10  C   UNL A   1      32.889  18.931  23.518  1.00  0.00     0.045 A 
ATOM     11  C   UNL A   1      33.956  20.877  25.215  1.00  0.00     0.128 A 
ATOM     12  C   UNL A   1      32.253  20.167  23.657  1.00  0.00     0.032 A 
ATOM     13  Cl  UNL A   1      32.153  17.787  22.450  1.00  0.00    -0.084 Cl
ATOM     14  C   UNL A   1      32.768  21.122  24.532  1.00  0.00     0.019 A 
ATOM     15  O   UNL A   1      34.482  21.727  26.152  1.00  0.00    -0.475 OA
ATOM     16  C   UNL A   1      32.002  22.311  24.843  1.00  0.00     0.027 C 
ATOM     17  C   UNL A   1      33.965  23.092  26.191  1.00  0.00     0.316 C 
BRANCH   8  18
ATOM     18  C   UNL A   1      34.684  17.259  24.209  1.00  0.00     0.037 C 
BRANCH  18  19
ATOM     19  C   UNL A   1      34.350  16.312  25.374  1.00  0.00     0.001 C 
ATOM     20  C   UNL A   1      32.854  16.160  25.627  1.00  0.00     0.004 C 
ENDBRANCH  18  19
ENDBRANCH   8  18
BRANCH  17  21
ATOM     21  C   UNL A   1      35.017  24.017  25.543  1.00  0.00     0.430 C 
ATOM     22  F   UNL A   1      36.250  23.763  26.053  1.00  0.00    -0.167 F 
ATOM     23  F   UNL A   1      35.098  23.846  24.202  1.00  0.00    -0.167 F 
ATOM     24  F   UNL A   1      34.788  25.330  25.751  1.00  0.00    -0.167 F 
ENDBRANCH  17  21
ENDBRANCH   5   7
ENDBRANCH   4   5
ENDBRANCH   3   4
ENDBRANCH   2   3
ENDBRANCH   1   2
BRANCH   1  25
ATOM     25  C   UNL A   1      31.406  29.356  25.361  1.00  0.00     0.202 C 
BRANCH  25  26
ATOM     26  C   UNL A   1      31.727  30.633  26.152  1.00  0.00     0.261 C 
BRANCH  26  27
ATOM     27  O   UNL A   1      33.147  30.820  26.306  1.00  0.00    -0.460 OA
BRANCH  27  28
ATOM     28  C   UNL A   1      33.519  31.755  27.211  1.00  0.00     0.338 C 
ATOM     29  O   UNL A   1      32.852  32.693  27.618  1.00  0.00    -0.246 OA
BRANCH  28  30
ATOM     30  C   UNL A   1      34.801  31.351  27.832  1.00  0.00     0.060 A 
ATOM     31  C   UNL A   1      35.832  32.261  28.074  1.00  0.00     0.016 A 
ATOM     32  C   UNL A   1      34.961  29.999  28.166  1.00  0.00     0.016 A 
ATOM     33  C   UNL A   1      37.008  31.819  28.689  1.00  0.00     0.010 A 
ATOM     34  C   UNL A   1      36.136  29.561  28.779  1.00  0.00     0.010 A 
ATOM     35  C   UNL A   1      37.161  30.471  29.067  1.00  0.00    -0.014 A 
BRANCH  35  36
ATOM     36  C   UNL A   1      38.325  30.043  29.885  1.00  0.00     0.031 A 
ATOM     37  C   UNL A   1      38.546  30.553  31.277  1.00  0.00     0.074 A 
ATOM     38  C   UNL A   1      39.219  29.203  29.330  1.00  0.00     0.049 A 
ATOM     39  N   UNL A   1      39.499  30.247  32.123  1.00  0.00    -0.248 NA
ATOM     40  C   UNL A   1      37.583  31.540  31.785  1.00  0.00     0.031 C 
ATOM     41  C   UNL A   1      39.137  28.675  27.968  1.00  0.00     0.029 A 
ATOM     42  N   UNL A   1      40.367  28.646  29.836  1.00  0.00    -0.354 N 
ATOM     43  C   UNL A   1      39.241  30.984  33.271  1.00  0.00     0.074 A 
ATOM     44  C   UNL A   1      38.073  31.795  32.993  1.00  0.00     0.031 C 
ATOM     45  C   UNL A   1      40.170  27.846  27.757  1.00  0.00     0.029 A 
ATOM     46  C   UNL A   1      41.006  27.810  28.953  1.00  0.00     0.049 A 
ATOM     47  H   UNL A   1      40.700  28.829  30.743  1.00  0.00     0.167 HD
ATOM     48  C   UNL A   1      39.907  30.966  34.451  1.00  0.00     0.037 A 
ATOM     49  C   UNL A   1      42.137  27.093  29.090  1.00  0.00     0.037 A 
ATOM     50  C   UNL A   1      41.079  30.169  34.717  1.00  0.00     0.049 A 
ATOM     51  C   UNL A   1      42.885  27.132  30.393  1.00  0.00     0.074 A 
ATOM     52  C   UNL A   1      41.795  30.059  35.897  1.00  0.00     0.029 A 
ATOM     53  N   UNL A   1      41.718  29.359  33.789  1.00  0.00    -0.354 N 
ATOM     54  N   UNL A   1      42.587  27.771  31.499  1.00  0.00    -0.248 NA
ATOM     55  C   UNL A   1      44.125  26.348  30.470  1.00  0.00     0.031 C 
ATOM     56  C   UNL A   1      42.899  29.230  35.668  1.00  0.00     0.029 A 
ATOM     57  C   UNL A   1      42.838  28.772  34.363  1.00  0.00     0.049 A 
ATOM     58  H   UNL A   1      41.421  29.220  32.861  1.00  0.00     0.167 HD
ATOM     59  C   UNL A   1      43.586  27.449  32.407  1.00  0.00     0.074 A 
ATOM     60  C   UNL A   1      44.490  26.542  31.731  1.00  0.00     0.031 C 
ATOM     61  C   UNL A   1      43.738  27.872  33.686  1.00  0.00     0.037 A 
BRANCH  48  62
ATOM     62  C   UNL A   1      39.382  31.827  35.567  1.00  0.00     0.064 A 
ATOM     63  C   UNL A   1      38.467  31.325  36.504  1.00  0.00     0.173 A 
ATOM     64  C   UNL A   1      39.866  33.130  35.757  1.00  0.00     0.173 A 
ATOM     65  F   UNL A   1      37.969  30.087  36.367  1.00  0.00    -0.203 F 
ATOM     66  C   UNL A   1      38.042  32.102  37.580  1.00  0.00     0.198 A 
ATOM     67  C   UNL A   1      39.463  33.893  36.850  1.00  0.00     0.198 A 
ATOM     68  F   UNL A   1      40.754  33.654  34.898  1.00  0.00    -0.203 F 
ATOM     69  F   UNL A   1      37.141  31.613  38.442  1.00  0.00    -0.200 F 
ATOM     70  C   UNL A   1      38.548  33.380  37.757  1.00  0.00     0.200 A 
ATOM     71  F   UNL A   1      39.967  35.122  37.031  1.00  0.00    -0.200 F 
ATOM     72  F   UNL A   1      38.152  34.119  38.803  1.00  0.00    -0.200 F 
ENDBRANCH  48  62
BRANCH  49  73
ATOM     73  C   UNL A   1      42.604  26.244  27.964  1.00  0.00     0.064 A 
ATOM     74  C   UNL A   1      43.529  26.733  27.032  1.00  0.00     0.173 A 
ATOM     75  C   UNL A   1      42.163  24.920  27.814  1.00  0.00     0.173 A 
ATOM     76  F   UNL A   1      43.966  27.998  27.123  1.00  0.00    -0.203 F 
ATOM     77  C   UNL A   1      43.989  25.935  25.987  1.00  0.00     0.198 A 
ATOM     78  C   UNL A   1      42.646  24.114  26.786  1.00  0.00     0.198 A 
ATOM     79  F   UNL A   1      41.281  24.404  28.682  1.00  0.00    -0.203 F 
ATOM     80  F   UNL A   1      44.847  26.439  25.090  1.00  0.00    -0.200 F 
ATOM     81  C   UNL A   1      43.554  24.623  25.871  1.00  0.00     0.200 A 
ATOM     82  F   UNL A   1      42.237  22.842  26.688  1.00  0.00    -0.200 F 
ATOM     83  F   UNL A   1      44.008  23.851  24.874  1.00  0.00    -0.200 F 
ENDBRANCH  49  73
BRANCH  61  84
ATOM     84  C   UNL A   1      44.921  27.354  34.456  1.00  0.00     0.064 A 
ATOM     85  C   UNL A   1      46.145  28.040  34.471  1.00  0.00     0.173 A 
ATOM     86  C   UNL A   1      44.809  26.197  35.243  1.00  0.00     0.173 A 
ATOM     87  F   UNL A   1      46.309  29.144  33.726  1.00  0.00    -0.203 F 
ATOM     88  C   UNL A   1      47.216  27.578  35.231  1.00  0.00     0.198 A 
ATOM     89  C   UNL A   1      45.873  25.757  36.027  1.00  0.00     0.198 A 
ATOM     90  F   UNL A   1      43.660  25.505  35.271  1.00  0.00    -0.203 F 
ATOM     91  F   UNL A   1      48.388  28.229  35.198  1.00  0.00    -0.200 F 
ATOM     92  C   UNL A   1      47.076  26.445  36.017  1.00  0.00     0.200 A 
ATOM     93  F   UNL A   1      45.729  24.670  36.799  1.00  0.00    -0.200 F 
ATOM     94  F   UNL A   1      48.103  26.012  36.761  1.00  0.00    -0.200 F 
ENDBRANCH  61  84
ENDBRANCH  35  36
ENDBRANCH  28  30
ENDBRANCH  27  28
ENDBRANCH  26  27
ENDBRANCH  25  26
ENDBRANCH   1  25
TORSDOF 17
ENDMDL
MODEL 2
REMARK VINA RESULT:     -11.6      1.402      2.509
REMARK SMILES CCCc1cc2c(cc1Cl)C=C(C(=O)OCCOCCOC(=O)c1ccc(-c3c4nc(c(-c5c(F)c(F)c(F)c(F)c5F)c5ccc([nH]5)c(-c5c(F)c(F)c(F)c(F)c5F)c5nc(c(-c6c(F)c(F)c(F)c(F)c6F)c6ccc3[nH]6)C=C5)C=C4)cc1)[C@H](C(F)(F)F)O2
REMARK SMILES IDX 18 1 17 2 16 3 15 4 13 5 14 6 12 7 4 8 5 9 9 10 6 11 8 12
REMARK SMILES IDX 10 13 7 14 92 15 11 16 87 17 3 18 2 19 1 20 88 21 89 22
REMARK SMILES IDX 90 23 91 24 19 25 20 26 21 27 22 28 23 29 24 30 25 31 86 32
REMARK SMILES IDX 26 33 85 34 27 35 28 36 29 37 79 38 30 39 84 40 78 41 80 42
REMARK SMILES IDX 31 43 83 44 77 45 76 46 32 48 64 49 44 50 63 51 45 52 48 53
REMARK SMILES IDX 62 54 81 55 46 56 47 57 61 59 82 60 49 61 33 62 34 63 42 64
REMARK SMILES IDX 35 65 36 66 40 67 43 68 37 69 38 70 41 71 39 72 65 73 66 74
REMARK SMILES IDX 74 75 67 76 68 77 72 78 75 79 69 80 70 81 73 82 71 83 50 84
REMARK SMILES IDX 51 85 59 86 52 87 53 88 57 89 60 90 54 91 55 92 58 93 56 94
REMARK H PARENT 80 47 48 58
REMARK Flexibility Score: inf
ROOT
ATOM      1  O   UNL A   1      32.135  28.967  25.247  1.00  0.00    -0.374 OA
ENDROOT
BRANCH   1   2
ATOM      2  C   UNL A   1      33.108  28.673  24.245  1.00  0.00     0.202 C 
BRANCH   2   3
ATOM      3  C   UNL A   1      32.570  28.521  22.820  1.00  0.00     0.261 C 
BRANCH   3   4
ATOM      4  O   UNL A   1      31.950  27.233  22.658  1.00  0.00    -0.460 OA
BRANCH   4   5
ATOM      5  C   UNL A   1      32.790  26.257  22.259  1.00  0.00     0.338 C 
ATOM      6  O   UNL A   1      33.649  26.358  21.396  1.00  0.00    -0.246 OA
BRANCH   5   7
ATOM      7  C   UNL A   1      32.607  25.048  23.085  1.00  0.00     0.087 C 
ATOM      8  C   UNL A   1      33.385  20.385  24.763  1.00  0.00    -0.026 A 
ATOM      9  C   UNL A   1      32.242  21.178  24.541  1.00  0.00     0.052 A 
ATOM     10  C   UNL A   1      34.645  21.003  24.674  1.00  0.00     0.045 A 
ATOM     11  C   UNL A   1      32.354  22.496  24.102  1.00  0.00     0.128 A 
ATOM     12  C   UNL A   1      34.758  22.337  24.276  1.00  0.00     0.032 A 
ATOM     13  Cl  UNL A   1      36.118  20.157  25.003  1.00  0.00    -0.084 Cl
ATOM     14  C   UNL A   1      33.615  23.069  23.956  1.00  0.00     0.019 A 
ATOM     15  O   UNL A   1      31.191  23.118  23.731  1.00  0.00    -0.475 OA
ATOM     16  C   UNL A   1      33.735  24.373  23.341  1.00  0.00     0.027 C 
ATOM     17  C   UNL A   1      31.241  24.558  23.494  1.00  0.00     0.316 C 
BRANCH   8  18
ATOM     18  C   UNL A   1      33.252  18.906  25.069  1.00  0.00     0.037 C 
BRANCH  18  19
ATOM     19  C   UNL A   1      33.430  17.938  23.887  1.00  0.00     0.001 C 
ATOM     20  C   UNL A   1      34.404  16.799  24.172  1.00  0.00     0.004 C 
ENDBRANCH  18  19
ENDBRANCH   8  18
BRANCH  17  21
ATOM     21  C   UNL A   1      30.600  25.262  24.709  1.00  0.00     0.430 C 
ATOM     22  F   UNL A   1      29.633  26.124  24.301  1.00  0.00    -0.167 F 
ATOM     23  F   UNL A   1      30.020  24.387  25.564  1.00  0.00    -0.167 F 
ATOM     24  F   UNL A   1      31.472  25.991  25.436  1.00  0.00    -0.167 F 
ENDBRANCH  17  21
ENDBRANCH   5   7
ENDBRANCH   4   5
ENDBRANCH   3   4
ENDBRANCH   2   3
ENDBRANCH   1   2
BRANCH   1  25
ATOM     25  C   UNL A   1      31.463  30.226  25.151  1.00  0.00     0.202 C 
BRANCH  25  26
ATOM     26  C   UNL A   1      31.528  31.137  26.386  1.00  0.00     0.261 C 
BRANCH  26  27
ATOM     27  O   UNL A   1      32.709  30.884  27.170  1.00  0.00    -0.460 OA
BRANCH  27  28
ATOM     28  C   UNL A   1      33.474  31.969  27.440  1.00  0.00     0.338 C 
ATOM     29  O   UNL A   1      33.129  33.139  27.412  1.00  0.00    -0.246 OA
BRANCH  28  30
ATOM     30  C   UNL A   1      34.765  31.524  28.013  1.00  0.00     0.060 A 
ATOM     31  C   UNL A   1      35.845  32.393  28.180  1.00  0.00     0.016 A 
ATOM     32  C   UNL A   1      34.883  30.177  28.380  1.00  0.00     0.016 A 
ATOM     33  C   UNL A   1      37.030  31.916  28.751  1.00  0.00     0.010 A 
ATOM     34  C   UNL A   1      36.064  29.703  28.951  1.00  0.00     0.010 A 
ATOM     35  C   UNL A   1      37.141  30.574  29.163  1.00  0.00    -0.014 A 
BRANCH  35  36
ATOM     36  C   UNL A   1      38.323  30.117  29.938  1.00  0.00     0.031 A 
ATOM     37  C   UNL A   1      38.609  30.624  31.319  1.00  0.00     0.074 A 
ATOM     38  C   UNL A   1      39.174  29.253  29.353  1.00  0.00     0.049 A 
ATOM     39  N   UNL A   1      39.584  30.294  32.131  1.00  0.00    -0.248 NA
ATOM     40  C   UNL A   1      37.691  31.636  31.860  1.00  0.00     0.031 C 
ATOM     41  C   UNL A   1      39.028  28.726  27.996  1.00  0.00     0.029 A 
ATOM     42  N   UNL A   1      40.325  28.668  29.817  1.00  0.00    -0.354 N 
ATOM     43  C   UNL A   1      39.388  31.039  33.285  1.00  0.00     0.074 A 
ATOM     44  C   UNL A   1      38.232  31.880  33.049  1.00  0.00     0.031 C 
ATOM     45  C   UNL A   1      40.031  27.870  27.749  1.00  0.00     0.029 A 
ATOM     46  C   UNL A   1      40.909  27.814  28.914  1.00  0.00     0.049 A 
ATOM     47  H   UNL A   1      40.697  28.844  30.711  1.00  0.00     0.167 HD
ATOM     48  C   UNL A   1      40.097  31.006  34.441  1.00  0.00     0.037 A 
ATOM     49  C   UNL A   1      42.026  27.068  29.010  1.00  0.00     0.037 A 
ATOM     50  C   UNL A   1      41.257  30.179  34.665  1.00  0.00     0.049 A 
ATOM     51  C   UNL A   1      42.823  27.090  30.285  1.00  0.00     0.074 A 
ATOM     52  C   UNL A   1      42.013  30.052  35.818  1.00  0.00     0.029 A 
ATOM     53  N   UNL A   1      41.839  29.351  33.716  1.00  0.00    -0.354 N 
ATOM     54  N   UNL A   1      42.582  27.737  31.399  1.00  0.00    -0.248 NA
ATOM     55  C   UNL A   1      44.044  26.274  30.318  1.00  0.00     0.031 C 
ATOM     56  C   UNL A   1      43.085  29.195  35.550  1.00  0.00     0.029 A 
ATOM     57  C   UNL A   1      42.964  28.736  34.249  1.00  0.00     0.049 A 
ATOM     58  H   UNL A   1      41.505  29.218  32.800  1.00  0.00     0.167 HD
ATOM     59  C   UNL A   1      43.605  27.391  32.271  1.00  0.00     0.074 A 
ATOM     60  C   UNL A   1      44.460  26.460  31.563  1.00  0.00     0.031 C 
ATOM     61  C   UNL A   1      43.815  27.812  33.542  1.00  0.00     0.037 A 
BRANCH  48  62
ATOM     62  C   UNL A   1      39.636  31.881  35.573  1.00  0.00     0.064 A 
ATOM     63  C   UNL A   1      40.120  33.189  35.726  1.00  0.00     0.173 A 
ATOM     64  C   UNL A   1      38.636  31.446  36.456  1.00  0.00     0.173 A 
ATOM     65  F   UNL A   1      41.079  33.655  34.911  1.00  0.00    -0.203 F 
ATOM     66  C   UNL A   1      39.633  34.022  36.731  1.00  0.00     0.198 A 
ATOM     67  C   UNL A   1      38.131  32.290  37.441  1.00  0.00     0.198 A 
ATOM     68  F   UNL A   1      38.129  30.208  36.346  1.00  0.00    -0.203 F 
ATOM     69  F   UNL A   1      40.135  35.255  36.878  1.00  0.00    -0.200 F 
ATOM     70  C   UNL A   1      38.632  33.576  37.580  1.00  0.00     0.200 A 
ATOM     71  F   UNL A   1      37.150  31.864  38.249  1.00  0.00    -0.200 F 
ATOM     72  F   UNL A   1      38.152  34.385  38.535  1.00  0.00    -0.200 F 
ENDBRANCH  48  62
BRANCH  49  73
ATOM     73  C   UNL A   1      42.429  26.206  27.870  1.00  0.00     0.064 A 
ATOM     74  C   UNL A   1      41.846  24.945  27.683  1.00  0.00     0.173 A 
ATOM     75  C   UNL A   1      43.379  26.632  26.929  1.00  0.00     0.173 A 
ATOM     76  F   UNL A   1      40.947  24.486  28.567  1.00  0.00    -0.203 F 
ATOM     77  C   UNL A   1      42.202  24.140  26.603  1.00  0.00     0.198 A 
ATOM     78  C   UNL A   1      43.712  25.839  25.834  1.00  0.00     0.198 A 
ATOM     79  F   UNL A   1      43.963  27.833  27.061  1.00  0.00    -0.203 F 
ATOM     80  F   UNL A   1      41.654  22.925  26.468  1.00  0.00    -0.200 F 
ATOM     81  C   UNL A   1      43.128  24.592  25.675  1.00  0.00     0.200 A 
ATOM     82  F   UNL A   1      44.593  26.287  24.930  1.00  0.00    -0.200 F 
ATOM     83  F   UNL A   1      43.459  23.823  24.628  1.00  0.00    -0.200 F 
ENDBRANCH  49  73
BRANCH  61  84
ATOM     84  C   UNL A   1      45.012  27.265  34.269  1.00  0.00     0.064 A 
ATOM     85  C   UNL A   1      46.250  27.924  34.245  1.00  0.00     0.173 A 
ATOM     86  C   UNL A   1      44.902  26.107  35.055  1.00  0.00     0.173 A 
ATOM     87  F   UNL A   1      46.414  29.027  33.500  1.00  0.00    -0.203 F 
ATOM     88  C   UNL A   1      47.337  27.435  34.966  1.00  0.00     0.198 A 
ATOM     89  C   UNL A   1      45.981  25.640  35.800  1.00  0.00     0.198 A 
ATOM     90  F   UNL A   1      43.739  25.441  35.119  1.00  0.00    -0.203 F 
ATOM     91  F   UNL A   1      48.521  28.060  34.896  1.00  0.00    -0.200 F 
ATOM     92  C   UNL A   1      47.199  26.301  35.752  1.00  0.00     0.200 A 
ATOM     93  F   UNL A   1      45.840  24.553  36.572  1.00  0.00    -0.200 F 
ATOM     94  F   UNL A   1      48.240  25.843  36.459  1.00  0.00    -0.200 F 
ENDBRANCH  61  84
ENDBRANCH  35  36
ENDBRANCH  28  30
ENDBRANCH  27  28
ENDBRANCH  26  27
ENDBRANCH  25  26
ENDBRANCH   1  25
TORSDOF 17
ENDMDL
MODEL 3
REMARK VINA RESULT:     -11.6      4.477      9.899
REMARK SMILES CCCc1cc2c(cc1Cl)C=C(C(=O)OCCOCCOC(=O)c1ccc(-c3c4nc(c(-c5c(F)c(F)c(F)c(F)c5F)c5ccc([nH]5)c(-c5c(F)c(F)c(F)c(F)c5F)c5nc(c(-c6c(F)c(F)c(F)c(F)c6F)c6ccc3[nH]6)C=C5)C=C4)cc1)[C@H](C(F)(F)F)O2
REMARK SMILES IDX 18 1 17 2 16 3 15 4 13 5 14 6 12 7 4 8 5 9 9 10 6 11 8 12
REMARK SMILES IDX 10 13 7 14 92 15 11 16 87 17 3 18 2 19 1 20 88 21 89 22
REMARK SMILES IDX 90 23 91 24 19 25 20 26 21 27 22 28 23 29 24 30 25 31 86 32
REMARK SMILES IDX 26 33 85 34 27 35 28 36 29 37 79 38 30 39 84 40 78 41 80 42
REMARK SMILES IDX 31 43 83 44 77 45 76 46 32 48 64 49 44 50 63 51 45 52 48 53
REMARK SMILES IDX 62 54 81 55 46 56 47 57 61 59 82 60 49 61 33 62 34 63 42 64
REMARK SMILES IDX 35 65 36 66 40 67 43 68 37 69 38 70 41 71 39 72 65 73 66 74
REMARK SMILES IDX 74 75 67 76 68 77 72 78 75 79 69 80 70 81 73 82 71 83 50 84
REMARK SMILES IDX 51 85 59 86 52 87 53 88 57 89 60 90 54 91 55 92 58 93 56 94
REMARK H PARENT 80 47 48 58
REMARK Flexibility Score: inf
ROOT
ATOM      1  O   UNL A   1      35.281  21.638  25.259  1.00  0.00    -0.374 OA
ENDROOT
BRANCH   1   2
ATOM      2  C   UNL A   1      34.838  21.925  26.586  1.00  0.00     0.202 C 
BRANCH   2   3
ATOM      3  C   UNL A   1      33.327  21.849  26.813  1.00  0.00     0.261 C 
BRANCH   3   4
ATOM      4  O   UNL A   1      32.833  23.109  27.302  1.00  0.00    -0.460 OA
BRANCH   4   5
ATOM      5  C   UNL A   1      31.559  23.379  26.955  1.00  0.00     0.338 C 
ATOM      6  O   UNL A   1      30.558  22.934  27.496  1.00  0.00    -0.246 OA
BRANCH   5   7
ATOM      7  C   UNL A   1      31.520  24.385  25.876  1.00  0.00     0.087 C 
ATOM      8  C   UNL A   1      30.517  28.738  23.592  1.00  0.00    -0.026 A 
ATOM      9  C   UNL A   1      30.494  27.386  23.198  1.00  0.00     0.052 A 
ATOM     10  C   UNL A   1      31.088  29.052  24.839  1.00  0.00     0.045 A 
ATOM     11  C   UNL A   1      30.886  26.374  24.071  1.00  0.00     0.128 A 
ATOM     12  C   UNL A   1      31.522  28.041  25.699  1.00  0.00     0.032 A 
ATOM     13  Cl  UNL A   1      31.248  30.680  25.401  1.00  0.00    -0.084 Cl
ATOM     14  C   UNL A   1      31.386  26.703  25.328  1.00  0.00     0.019 A 
ATOM     15  O   UNL A   1      30.645  25.088  23.665  1.00  0.00    -0.475 OA
ATOM     16  C   UNL A   1      31.631  25.653  26.293  1.00  0.00     0.027 C 
ATOM     17  C   UNL A   1      31.250  24.009  24.441  1.00  0.00     0.316 C 
BRANCH   8  18
ATOM     18  C   UNL A   1      29.926  29.814  22.703  1.00  0.00     0.037 C 
BRANCH  18  19
ATOM     19  C   UNL A   1      28.599  30.438  23.164  1.00  0.00     0.001 C 
ATOM     20  C   UNL A   1      27.398  29.512  22.999  1.00  0.00     0.004 C 
ENDBRANCH  18  19
ENDBRANCH   8  18
BRANCH  17  21
ATOM     21  C   UNL A   1      32.454  23.467  23.641  1.00  0.00     0.430 C 
ATOM     22  F   UNL A   1      32.493  22.110  23.705  1.00  0.00    -0.167 F 
ATOM     23  F   UNL A   1      32.395  23.802  22.331  1.00  0.00    -0.167 F 
ATOM     24  F   UNL A   1      33.648  23.899  24.097  1.00  0.00    -0.167 F 
ENDBRANCH  17  21
ENDBRANCH   5   7
ENDBRANCH   4   5
ENDBRANCH   3   4
ENDBRANCH   2   3
ENDBRANCH   1   2
BRANCH   1  25
ATOM     25  C   UNL A   1      35.856  20.349  25.031  1.00  0.00     0.202 C 
BRANCH  25  26
ATOM     26  C   UNL A   1      37.387  20.287  24.926  1.00  0.00     0.261 C 
BRANCH  26  27
ATOM     27  O   UNL A   1      38.008  21.432  25.540  1.00  0.00    -0.460 OA
BRANCH  27  28
ATOM     28  C   UNL A   1      39.195  21.197  26.147  1.00  0.00     0.338 C 
ATOM     29  O   UNL A   1      39.838  20.160  26.131  1.00  0.00    -0.246 OA
BRANCH  28  30
ATOM     30  C   UNL A   1      39.740  22.474  26.664  1.00  0.00     0.060 A 
ATOM     31  C   UNL A   1      40.757  22.518  27.619  1.00  0.00     0.016 A 
ATOM     32  C   UNL A   1      39.188  23.663  26.168  1.00  0.00     0.016 A 
ATOM     33  C   UNL A   1      41.246  23.758  28.046  1.00  0.00     0.010 A 
ATOM     34  C   UNL A   1      39.676  24.898  26.595  1.00  0.00     0.010 A 
ATOM     35  C   UNL A   1      40.726  24.956  27.521  1.00  0.00    -0.014 A 
BRANCH  35  36
ATOM     36  C   UNL A   1      41.369  26.259  27.831  1.00  0.00     0.031 A 
ATOM     37  C   UNL A   1      42.790  26.551  27.451  1.00  0.00     0.074 A 
ATOM     38  C   UNL A   1      40.656  27.177  28.509  1.00  0.00     0.049 A 
ATOM     39  N   UNL A   1      43.478  27.653  27.626  1.00  0.00    -0.248 NA
ATOM     40  C   UNL A   1      43.540  25.470  26.797  1.00  0.00     0.031 C 
ATOM     41  C   UNL A   1      39.281  26.991  28.974  1.00  0.00     0.029 A 
ATOM     42  N   UNL A   1      40.981  28.444  28.925  1.00  0.00    -0.354 N 
ATOM     43  C   UNL A   1      44.734  27.408  27.088  1.00  0.00     0.074 A 
ATOM     44  C   UNL A   1      44.731  26.034  26.628  1.00  0.00     0.031 C 
ATOM     45  C   UNL A   1      38.868  28.113  29.581  1.00  0.00     0.029 A 
ATOM     46  C   UNL A   1      39.958  29.085  29.581  1.00  0.00     0.049 A 
ATOM     47  H   UNL A   1      41.862  28.853  28.769  1.00  0.00     0.167 HD
ATOM     48  C   UNL A   1      45.782  28.261  26.972  1.00  0.00     0.037 A 
ATOM     49  C   UNL A   1      39.902  30.317  30.121  1.00  0.00     0.037 A 
ATOM     50  C   UNL A   1      45.785  29.622  27.446  1.00  0.00     0.049 A 
ATOM     51  C   UNL A   1      41.097  31.224  30.023  1.00  0.00     0.074 A 
ATOM     52  C   UNL A   1      46.788  30.570  27.335  1.00  0.00     0.029 A 
ATOM     53  N   UNL A   1      44.743  30.228  28.135  1.00  0.00    -0.354 N 
ATOM     54  N   UNL A   1      42.251  31.009  29.440  1.00  0.00    -0.248 NA
ATOM     55  C   UNL A   1      40.980  32.545  30.654  1.00  0.00     0.031 C 
ATOM     56  C   UNL A   1      46.379  31.727  28.006  1.00  0.00     0.029 A 
ATOM     57  C   UNL A   1      45.095  31.525  28.483  1.00  0.00     0.049 A 
ATOM     58  H   UNL A   1      43.882  29.801  28.346  1.00  0.00     0.167 HD
ATOM     59  C   UNL A   1      42.989  32.173  29.614  1.00  0.00     0.074 A 
ATOM     60  C   UNL A   1      42.144  33.099  30.340  1.00  0.00     0.031 C 
ATOM     61  C   UNL A   1      44.253  32.444  29.209  1.00  0.00     0.037 A 
BRANCH  48  62
ATOM     62  C   UNL A   1      47.023  27.758  26.289  1.00  0.00     0.064 A 
ATOM     63  C   UNL A   1      48.046  27.126  27.012  1.00  0.00     0.173 A 
ATOM     64  C   UNL A   1      47.152  27.823  24.894  1.00  0.00     0.173 A 
ATOM     65  F   UNL A   1      47.976  27.039  28.349  1.00  0.00    -0.203 F 
ATOM     66  C   UNL A   1      49.160  26.594  26.365  1.00  0.00     0.198 A 
ATOM     67  C   UNL A   1      48.251  27.265  24.247  1.00  0.00     0.198 A 
ATOM     68  F   UNL A   1      46.196  28.406  24.153  1.00  0.00    -0.203 F 
ATOM     69  F   UNL A   1      50.139  26.026  27.079  1.00  0.00    -0.200 F 
ATOM     70  C   UNL A   1      49.256  26.655  24.983  1.00  0.00     0.200 A 
ATOM     71  F   UNL A   1      48.334  27.308  22.910  1.00  0.00    -0.200 F 
ATOM     72  F   UNL A   1      50.318  26.126  24.360  1.00  0.00    -0.200 F 
ENDBRANCH  48  62
BRANCH  49  73
ATOM     73  C   UNL A   1      38.645  30.774  30.768  1.00  0.00     0.064 A 
ATOM     74  C   UNL A   1      38.487  30.700  32.159  1.00  0.00     0.173 A 
ATOM     75  C   UNL A   1      37.592  31.320  30.018  1.00  0.00     0.173 A 
ATOM     76  F   UNL A   1      39.457  30.168  32.916  1.00  0.00    -0.203 F 
ATOM     77  C   UNL A   1      37.320  31.148  32.775  1.00  0.00     0.198 A 
ATOM     78  C   UNL A   1      36.439  31.795  30.638  1.00  0.00     0.198 A 
ATOM     79  F   UNL A   1      37.697  31.417  28.685  1.00  0.00    -0.203 F 
ATOM     80  F   UNL A   1      37.181  31.034  34.102  1.00  0.00    -0.200 F 
ATOM     81  C   UNL A   1      36.301  31.703  32.015  1.00  0.00     0.200 A 
ATOM     82  F   UNL A   1      35.465  32.347  29.903  1.00  0.00    -0.200 F 
ATOM     83  F   UNL A   1      35.185  32.147  32.610  1.00  0.00    -0.200 F 
ENDBRANCH  49  73
BRANCH  61  84
ATOM     84  C   UNL A   1      44.811  33.803  29.526  1.00  0.00     0.064 A 
ATOM     85  C   UNL A   1      44.609  34.897  28.672  1.00  0.00     0.173 A 
ATOM     86  C   UNL A   1      45.497  34.030  30.729  1.00  0.00     0.173 A 
ATOM     87  F   UNL A   1      43.972  34.733  27.502  1.00  0.00    -0.203 F 
ATOM     88  C   UNL A   1      45.086  36.163  29.003  1.00  0.00     0.198 A 
ATOM     89  C   UNL A   1      45.944  35.304  31.072  1.00  0.00     0.198 A 
ATOM     90  F   UNL A   1      45.713  33.021  31.586  1.00  0.00    -0.203 F 
ATOM     91  F   UNL A   1      44.915  37.185  28.152  1.00  0.00    -0.200 F 
ATOM     92  C   UNL A   1      45.743  36.368  30.207  1.00  0.00     0.200 A 
ATOM     93  F   UNL A   1      46.563  35.502  32.244  1.00  0.00    -0.200 F 
ATOM     94  F   UNL A   1      46.185  37.590  30.532  1.00  0.00    -0.200 F 
ENDBRANCH  61  84
ENDBRANCH  35  36
ENDBRANCH  28  30
ENDBRANCH  27  28
ENDBRANCH  26  27
ENDBRANCH  25  26
ENDBRANCH   1  25
TORSDOF 17
ENDMDL
