MODEL 1
REMARK VINA RESULT:     -12.7      0.000      0.000
REMARK SMILES O=C(OCCOCCOC(=O)c1cccc(N/C(=[NH+]\Cc2ccccc2)N2CCN(c3ccc(F)cc3)CC2)c1)c1ccc(-c2c3nc(c(-c4c(F)c(F)c(F)c(F)c4F)c4ccc([nH]4)c(-c4c(F)c(F)c(F)c(F)c4F)c4nc(c(-c5c(F)c(F)c(F)c(F)c5F)c5ccc2[nH]5)C=C4)C=C3)cc1
REMARK SMILES IDX 7 1 6 2 5 3 4 4 3 5 2 6 1 7 41 8 42 9 103 10 43 11 102 12
REMARK SMILES IDX 44 13 45 14 46 15 96 16 47 17 101 18 95 19 97 20 48 21
REMARK SMILES IDX 100 22 94 23 93 24 49 26 81 27 61 28 80 29 62 30 65 31 79 32
REMARK SMILES IDX 98 33 63 34 64 35 78 37 99 38 66 39 50 40 51 41 59 42 52 43
REMARK SMILES IDX 53 44 57 45 60 46 54 47 55 48 58 49 56 50 82 51 83 52 91 53
REMARK SMILES IDX 84 54 85 55 89 56 92 57 86 58 87 59 90 60 88 61 67 62 68 63
REMARK SMILES IDX 76 64 69 65 70 66 74 67 77 68 71 69 72 70 75 71 73 72 8 73
REMARK SMILES IDX 9 74 10 75 11 76 12 77 13 78 40 79 14 80 16 81 15 82 17 83
REMARK SMILES IDX 18 84 19 86 27 87 28 89 39 90 29 91 38 92 30 93 20 94 21 95
REMARK SMILES IDX 22 96 26 97 23 98 25 99 24 100 31 101 32 102 37 103 33 104
REMARK SMILES IDX 36 105 34 106 35 107
REMARK H PARENT 97 25 65 36 17 85 19 88
REMARK Flexibility Score: inf
ROOT
ATOM      1  C   UNL A   1      34.557  35.719  27.951  1.00  0.00     0.202 C 
ENDROOT
BRANCH   1   2
ATOM      2  O   UNL A   1      33.912  36.901  28.444  1.00  0.00    -0.374 OA
BRANCH   2   3
ATOM      3  C   UNL A   1      33.006  36.723  29.535  1.00  0.00     0.202 C 
BRANCH   3   4
ATOM      4  C   UNL A   1      33.271  37.624  30.747  1.00  0.00     0.261 C 
BRANCH   4   5
ATOM      5  O   UNL A   1      32.707  37.058  31.940  1.00  0.00    -0.460 OA
BRANCH   5   6
ATOM      6  C   UNL A   1      32.742  35.765  32.343  1.00  0.00     0.338 C 
ATOM      7  O   UNL A   1      31.683  35.150  32.459  1.00  0.00    -0.246 OA
BRANCH   6   8
ATOM      8  C   UNL A   1      34.007  35.037  32.657  1.00  0.00     0.060 A 
ATOM      9  C   UNL A   1      35.287  35.568  32.501  1.00  0.00     0.016 A 
ATOM     10  C   UNL A   1      33.893  33.763  33.239  1.00  0.00     0.016 A 
ATOM     11  C   UNL A   1      36.419  34.861  32.844  1.00  0.00     0.010 A 
ATOM     12  C   UNL A   1      35.030  33.053  33.637  1.00  0.00     0.010 A 
ATOM     13  C   UNL A   1      36.297  33.609  33.428  1.00  0.00    -0.014 A 
BRANCH  13  14
ATOM     14  C   UNL A   1      37.549  32.888  33.690  1.00  0.00     0.031 A 
ATOM     15  C   UNL A   1      38.202  33.083  35.018  1.00  0.00     0.074 A 
ATOM     16  C   UNL A   1      37.946  31.939  32.824  1.00  0.00     0.049 A 
ATOM     17  N   UNL A   1      39.311  32.574  35.477  1.00  0.00    -0.248 NA
ATOM     18  C   UNL A   1      37.495  33.957  35.972  1.00  0.00     0.031 C 
ATOM     19  C   UNL A   1      37.247  31.585  31.583  1.00  0.00     0.029 A 
ATOM     20  N   UNL A   1      38.998  31.069  32.870  1.00  0.00    -0.354 N 
ATOM     21  C   UNL A   1      39.446  33.082  36.761  1.00  0.00     0.074 A 
ATOM     22  C   UNL A   1      38.318  33.949  37.008  1.00  0.00     0.031 C 
ATOM     23  C   UNL A   1      37.882  30.558  30.998  1.00  0.00     0.029 A 
ATOM     24  C   UNL A   1      39.072  30.242  31.775  1.00  0.00     0.049 A 
ATOM     25  H   UNL A   1      39.640  31.036  33.616  1.00  0.00     0.167 HD
ATOM     26  C   UNL A   1      40.438  32.833  37.646  1.00  0.00     0.037 A 
ATOM     27  C   UNL A   1      40.034  29.368  31.430  1.00  0.00     0.037 A 
ATOM     28  C   UNL A   1      41.544  31.965  37.350  1.00  0.00     0.049 A 
ATOM     29  C   UNL A   1      41.197  29.218  32.374  1.00  0.00     0.074 A 
ATOM     30  C   UNL A   1      42.670  31.702  38.103  1.00  0.00     0.029 A 
ATOM     31  N   UNL A   1      41.651  31.212  36.184  1.00  0.00    -0.354 N 
ATOM     32  N   UNL A   1      41.386  29.775  33.550  1.00  0.00    -0.248 NA
ATOM     33  C   UNL A   1      42.286  28.337  31.945  1.00  0.00     0.031 C 
ATOM     34  C   UNL A   1      43.481  30.826  37.372  1.00  0.00     0.029 A 
ATOM     35  C   UNL A   1      42.832  30.492  36.192  1.00  0.00     0.049 A 
ATOM     36  H   UNL A   1      40.984  31.194  35.460  1.00  0.00     0.167 HD
ATOM     37  C   UNL A   1      42.601  29.295  34.011  1.00  0.00     0.074 A 
ATOM     38  C   UNL A   1      43.092  28.380  32.997  1.00  0.00     0.031 C 
ATOM     39  C   UNL A   1      43.263  29.583  35.159  1.00  0.00     0.037 A 
BRANCH  26  40
ATOM     40  C   UNL A   1      40.387  33.567  38.952  1.00  0.00     0.064 A 
ATOM     41  C   UNL A   1      39.557  33.155  40.006  1.00  0.00     0.173 A 
ATOM     42  C   UNL A   1      41.145  34.733  39.134  1.00  0.00     0.173 A 
ATOM     43  F   UNL A   1      38.783  32.067  39.871  1.00  0.00    -0.203 F 
ATOM     44  C   UNL A   1      39.466  33.900  41.180  1.00  0.00     0.198 A 
ATOM     45  C   UNL A   1      41.075  35.458  40.320  1.00  0.00     0.198 A 
ATOM     46  F   UNL A   1      41.944  35.180  38.153  1.00  0.00    -0.203 F 
ATOM     47  F   UNL A   1      38.616  33.524  42.146  1.00  0.00    -0.200 F 
ATOM     48  C   UNL A   1      40.229  35.047  41.338  1.00  0.00     0.200 A 
ATOM     49  F   UNL A   1      41.814  36.567  40.470  1.00  0.00    -0.200 F 
ATOM     50  F   UNL A   1      40.134  35.768  42.464  1.00  0.00    -0.200 F 
ENDBRANCH  26  40
BRANCH  27  51
ATOM     51  C   UNL A   1      39.982  28.651  30.126  1.00  0.00     0.064 A 
ATOM     52  C   UNL A   1      39.381  27.390  30.004  1.00  0.00     0.173 A 
ATOM     53  C   UNL A   1      40.582  29.192  28.977  1.00  0.00     0.173 A 
ATOM     54  F   UNL A   1      38.808  26.815  31.072  1.00  0.00    -0.203 F 
ATOM     55  C   UNL A   1      39.413  26.689  28.799  1.00  0.00     0.198 A 
ATOM     56  C   UNL A   1      40.580  28.507  27.764  1.00  0.00     0.198 A 
ATOM     57  F   UNL A   1      41.177  30.394  29.030  1.00  0.00    -0.203 F 
ATOM     58  F   UNL A   1      38.891  25.456  28.731  1.00  0.00    -0.200 F 
ATOM     59  C   UNL A   1      40.010  27.248  27.679  1.00  0.00     0.200 A 
ATOM     60  F   UNL A   1      41.145  29.062  26.683  1.00  0.00    -0.200 F 
ATOM     61  F   UNL A   1      40.049  26.568  26.526  1.00  0.00    -0.200 F 
ENDBRANCH  27  51
BRANCH  39  62
ATOM     62  C   UNL A   1      44.556  28.859  35.388  1.00  0.00     0.064 A 
ATOM     63  C   UNL A   1      45.779  29.373  34.937  1.00  0.00     0.173 A 
ATOM     64  C   UNL A   1      44.568  27.651  36.102  1.00  0.00     0.173 A 
ATOM     65  F   UNL A   1      45.815  30.517  34.235  1.00  0.00    -0.203 F 
ATOM     66  C   UNL A   1      46.967  28.687  35.166  1.00  0.00     0.198 A 
ATOM     67  C   UNL A   1      45.761  26.989  36.363  1.00  0.00     0.198 A 
ATOM     68  F   UNL A   1      43.421  27.125  36.560  1.00  0.00    -0.203 F 
ATOM     69  F   UNL A   1      48.119  29.165  34.675  1.00  0.00    -0.200 F 
ATOM     70  C   UNL A   1      46.958  27.501  35.886  1.00  0.00     0.200 A 
ATOM     71  F   UNL A   1      45.752  25.854  37.075  1.00  0.00    -0.200 F 
ATOM     72  F   UNL A   1      48.105  26.847  36.115  1.00  0.00    -0.200 F 
ENDBRANCH  39  62
ENDBRANCH  13  14
ENDBRANCH   6   8
ENDBRANCH   5   6
ENDBRANCH   4   5
ENDBRANCH   3   4
ENDBRANCH   2   3
ENDBRANCH   1   2
BRANCH   1  73
ATOM     73  C   UNL A   1      34.165  34.518  28.815  1.00  0.00     0.261 C 
BRANCH  73  74
ATOM     74  O   UNL A   1      34.817  33.358  28.284  1.00  0.00    -0.460 OA
BRANCH  74  75
ATOM     75  C   UNL A   1      34.595  32.237  29.013  1.00  0.00     0.338 C 
ATOM     76  O   UNL A   1      34.417  32.155  30.219  1.00  0.00    -0.246 OA
BRANCH  75  77
ATOM     77  C   UNL A   1      34.386  31.115  28.083  1.00  0.00     0.063 A 
ATOM     78  C   UNL A   1      35.317  30.075  28.081  1.00  0.00     0.016 A 
ATOM     79  C   UNL A   1      33.272  31.078  27.240  1.00  0.00     0.058 A 
ATOM     80  C   UNL A   1      35.161  29.029  27.190  1.00  0.00     0.004 A 
ATOM     81  C   UNL A   1      33.113  30.044  26.312  1.00  0.00     0.100 A 
ATOM     82  C   UNL A   1      34.096  29.053  26.289  1.00  0.00     0.043 A 
BRANCH  81  83
ATOM     83  N   UNL A   1      31.981  30.088  25.484  1.00  0.00    -0.245 N 
ATOM     84  C   UNL A   1      31.365  29.193  24.649  1.00  0.00     0.351 C 
ATOM     85  H   UNL A   1      31.527  30.961  25.508  1.00  0.00     0.267 HD
ATOM     86  N   UNL A   1      30.308  29.449  23.943  1.00  0.00    -0.273 N 
ATOM     87  N   UNL A   1      31.894  27.931  24.602  1.00  0.00    -0.261 N 
ATOM     88  H   UNL A   1      29.906  28.739  23.391  1.00  0.00     0.260 HD
ATOM     89  C   UNL A   1      32.281  27.347  23.314  1.00  0.00     0.221 C 
ATOM     90  C   UNL A   1      31.463  26.913  25.575  1.00  0.00     0.221 C 
ATOM     91  C   UNL A   1      33.481  26.402  23.524  1.00  0.00     0.154 C 
ATOM     92  C   UNL A   1      32.546  25.829  25.794  1.00  0.00     0.154 C 
ATOM     93  N   UNL A   1      33.168  25.369  24.530  1.00  0.00    -0.365 N 
BRANCH  86  94
ATOM     94  C   UNL A   1      29.705  30.789  23.958  1.00  0.00     0.233 C 
BRANCH  94  95
ATOM     95  C   UNL A   1      29.041  31.261  22.675  1.00  0.00    -0.014 A 
ATOM     96  C   UNL A   1      28.698  32.616  22.541  1.00  0.00     0.007 A 
ATOM     97  C   UNL A   1      28.725  30.390  21.621  1.00  0.00     0.007 A 
ATOM     98  C   UNL A   1      28.025  33.074  21.404  1.00  0.00     0.000 A 
ATOM     99  C   UNL A   1      28.029  30.842  20.500  1.00  0.00     0.000 A 
ATOM    100  C   UNL A   1      27.676  32.183  20.391  1.00  0.00     0.000 A 
ENDBRANCH  94  95
ENDBRANCH  86  94
BRANCH  93 101
ATOM    101  C   UNL A   1      33.915  24.200  24.574  1.00  0.00     0.037 A 
ATOM    102  C   UNL A   1      33.395  22.947  24.211  1.00  0.00     0.029 A 
ATOM    103  C   UNL A   1      35.242  24.244  25.035  1.00  0.00     0.029 A 
ATOM    104  C   UNL A   1      34.167  21.784  24.314  1.00  0.00     0.041 A 
ATOM    105  C   UNL A   1      36.015  23.087  25.147  1.00  0.00     0.041 A 
ATOM    106  C   UNL A   1      35.468  21.866  24.788  1.00  0.00     0.123 A 
ATOM    107  F   UNL A   1      36.203  20.753  24.907  1.00  0.00    -0.207 F 
ENDBRANCH  93 101
ENDBRANCH  81  83
ENDBRANCH  75  77
ENDBRANCH  74  75
ENDBRANCH  73  74
ENDBRANCH   1  73
TORSDOF 18
ENDMDL
MODEL 2
REMARK VINA RESULT:     -12.5      6.900     12.217
REMARK SMILES O=C(OCCOCCOC(=O)c1cccc(N/C(=[NH+]\Cc2ccccc2)N2CCN(c3ccc(F)cc3)CC2)c1)c1ccc(-c2c3nc(c(-c4c(F)c(F)c(F)c(F)c4F)c4ccc([nH]4)c(-c4c(F)c(F)c(F)c(F)c4F)c4nc(c(-c5c(F)c(F)c(F)c(F)c5F)c5ccc2[nH]5)C=C4)C=C3)cc1
REMARK SMILES IDX 7 1 6 2 5 3 4 4 3 5 2 6 1 7 41 8 42 9 103 10 43 11 102 12
REMARK SMILES IDX 44 13 45 14 46 15 96 16 47 17 101 18 95 19 97 20 48 21
REMARK SMILES IDX 100 22 94 23 93 24 49 26 81 27 61 28 80 29 62 30 65 31 79 32
REMARK SMILES IDX 98 33 63 34 64 35 78 37 99 38 66 39 50 40 51 41 59 42 52 43
REMARK SMILES IDX 53 44 57 45 60 46 54 47 55 48 58 49 56 50 82 51 83 52 91 53
REMARK SMILES IDX 84 54 85 55 89 56 92 57 86 58 87 59 90 60 88 61 67 62 68 63
REMARK SMILES IDX 76 64 69 65 70 66 74 67 77 68 71 69 72 70 75 71 73 72 8 73
REMARK SMILES IDX 9 74 10 75 11 76 12 77 13 78 40 79 14 80 16 81 15 82 17 83
REMARK SMILES IDX 18 84 19 86 27 87 28 89 39 90 29 91 38 92 30 93 20 94 21 95
REMARK SMILES IDX 22 96 26 97 23 98 25 99 24 100 31 101 32 102 37 103 33 104
REMARK SMILES IDX 36 105 34 106 35 107
REMARK H PARENT 97 25 65 36 17 85 19 88
REMARK Flexibility Score: inf
ROOT
ATOM      1  C   UNL A   1      41.439  21.528  26.214  1.00  0.00     0.202 C 
ENDROOT
BRANCH   1   2
ATOM      2  O   UNL A   1      41.842  20.250  26.722  1.00  0.00    -0.374 OA
BRANCH   2   3
ATOM      3  C   UNL A   1      42.149  19.247  25.751  1.00  0.00     0.202 C 
BRANCH   3   4
ATOM      4  C   UNL A   1      43.402  18.416  26.054  1.00  0.00     0.261 C 
BRANCH   4   5
ATOM      5  O   UNL A   1      44.345  18.498  24.975  1.00  0.00    -0.460 OA
BRANCH   5   6
ATOM      6  C   UNL A   1      44.584  19.553  24.159  1.00  0.00     0.338 C 
ATOM      7  O   UNL A   1      44.684  19.357  22.950  1.00  0.00    -0.246 OA
BRANCH   6   8
ATOM      8  C   UNL A   1      44.735  20.955  24.652  1.00  0.00     0.060 A 
ATOM      9  C   UNL A   1      44.300  22.087  23.964  1.00  0.00     0.016 A 
ATOM     10  C   UNL A   1      45.267  21.134  25.939  1.00  0.00     0.016 A 
ATOM     11  C   UNL A   1      44.432  23.355  24.486  1.00  0.00     0.010 A 
ATOM     12  C   UNL A   1      45.364  22.410  26.502  1.00  0.00     0.010 A 
ATOM     13  C   UNL A   1      44.948  23.523  25.762  1.00  0.00    -0.014 A 
BRANCH  13  14
ATOM     14  C   UNL A   1      45.132  24.908  26.213  1.00  0.00     0.031 A 
ATOM     15  C   UNL A   1      46.453  25.556  25.957  1.00  0.00     0.074 A 
ATOM     16  C   UNL A   1      44.062  25.599  26.644  1.00  0.00     0.049 A 
ATOM     17  N   UNL A   1      46.861  26.753  26.270  1.00  0.00    -0.248 NA
ATOM     18  C   UNL A   1      47.446  24.748  25.226  1.00  0.00     0.031 C 
ATOM     19  C   UNL A   1      42.701  25.062  26.754  1.00  0.00     0.029 A 
ATOM     20  N   UNL A   1      43.934  26.905  27.024  1.00  0.00    -0.354 N 
ATOM     21  C   UNL A   1      48.162  26.835  25.796  1.00  0.00     0.074 A 
ATOM     22  C   UNL A   1      48.485  25.567  25.187  1.00  0.00     0.031 C 
ATOM     23  C   UNL A   1      41.873  26.039  27.156  1.00  0.00     0.029 A 
ATOM     24  C   UNL A   1      42.658  27.239  27.412  1.00  0.00     0.049 A 
ATOM     25  H   UNL A   1      44.682  27.545  27.020  1.00  0.00     0.167 HD
ATOM     26  C   UNL A   1      49.002  27.892  25.872  1.00  0.00     0.037 A 
ATOM     27  C   UNL A   1      42.205  28.380  27.959  1.00  0.00     0.037 A 
ATOM     28  C   UNL A   1      48.636  29.133  26.496  1.00  0.00     0.049 A 
ATOM     29  C   UNL A   1      43.202  29.490  28.160  1.00  0.00     0.074 A 
ATOM     30  C   UNL A   1      49.413  30.248  26.740  1.00  0.00     0.029 A 
ATOM     31  N   UNL A   1      47.360  29.415  26.976  1.00  0.00    -0.354 N 
ATOM     32  N   UNL A   1      44.467  29.540  27.807  1.00  0.00    -0.248 NA
ATOM     33  C   UNL A   1      42.722  30.693  28.845  1.00  0.00     0.031 C 
ATOM     34  C   UNL A   1      48.619  31.186  27.410  1.00  0.00     0.029 A 
ATOM     35  C   UNL A   1      47.331  30.682  27.528  1.00  0.00     0.049 A 
ATOM     36  H   UNL A   1      46.591  28.802  26.930  1.00  0.00     0.167 HD
ATOM     37  C   UNL A   1      44.927  30.785  28.205  1.00  0.00     0.074 A 
ATOM     38  C   UNL A   1      43.796  31.468  28.803  1.00  0.00     0.031 C 
ATOM     39  C   UNL A   1      46.170  31.320  28.098  1.00  0.00     0.037 A 
BRANCH  26  40
ATOM     40  C   UNL A   1      50.391  27.700  25.341  1.00  0.00     0.064 A 
ATOM     41  C   UNL A   1      50.680  27.776  23.969  1.00  0.00     0.173 A 
ATOM     42  C   UNL A   1      51.442  27.382  26.215  1.00  0.00     0.173 A 
ATOM     43  F   UNL A   1      49.704  28.040  23.087  1.00  0.00    -0.203 F 
ATOM     44  C   UNL A   1      51.963  27.513  23.491  1.00  0.00     0.198 A 
ATOM     45  C   UNL A   1      52.728  27.150  25.737  1.00  0.00     0.198 A 
ATOM     46  F   UNL A   1      51.217  27.281  27.533  1.00  0.00    -0.203 F 
ATOM     47  F   UNL A   1      52.200  27.526  22.172  1.00  0.00    -0.200 F 
ATOM     48  C   UNL A   1      52.986  27.205  24.376  1.00  0.00     0.200 A 
ATOM     49  F   UNL A   1      53.716  26.853  26.593  1.00  0.00    -0.200 F 
ATOM     50  F   UNL A   1      54.217  26.943  23.914  1.00  0.00    -0.200 F 
ENDBRANCH  26  40
BRANCH  27  51
ATOM     51  C   UNL A   1      40.795  28.496  28.424  1.00  0.00     0.064 A 
ATOM     52  C   UNL A   1      39.783  28.983  27.585  1.00  0.00     0.173 A 
ATOM     53  C   UNL A   1      40.437  28.168  29.742  1.00  0.00     0.173 A 
ATOM     54  F   UNL A   1      40.068  29.330  26.321  1.00  0.00    -0.203 F 
ATOM     55  C   UNL A   1      38.482  29.169  28.055  1.00  0.00     0.198 A 
ATOM     56  C   UNL A   1      39.129  28.319  30.200  1.00  0.00     0.198 A 
ATOM     57  F   UNL A   1      41.361  27.700  30.595  1.00  0.00    -0.203 F 
ATOM     58  F   UNL A   1      37.552  29.703  27.251  1.00  0.00    -0.200 F 
ATOM     59  C   UNL A   1      38.156  28.835  29.361  1.00  0.00     0.200 A 
ATOM     60  F   UNL A   1      38.819  27.978  31.458  1.00  0.00    -0.200 F 
ATOM     61  F   UNL A   1      36.910  29.025  29.814  1.00  0.00    -0.200 F 
ENDBRANCH  27  51
BRANCH  39  62
ATOM     62  C   UNL A   1      46.340  32.724  28.595  1.00  0.00     0.064 A 
ATOM     63  C   UNL A   1      46.121  33.832  27.766  1.00  0.00     0.173 A 
ATOM     64  C   UNL A   1      46.689  32.957  29.934  1.00  0.00     0.173 A 
ATOM     65  F   UNL A   1      45.801  33.657  26.474  1.00  0.00    -0.203 F 
ATOM     66  C   UNL A   1      46.278  35.126  28.251  1.00  0.00     0.198 A 
ATOM     67  C   UNL A   1      46.807  34.251  30.425  1.00  0.00     0.198 A 
ATOM     68  F   UNL A   1      46.900  31.926  30.768  1.00  0.00    -0.203 F 
ATOM     69  F   UNL A   1      46.123  36.171  27.427  1.00  0.00    -0.200 F 
ATOM     70  C   UNL A   1      46.612  35.334  29.582  1.00  0.00     0.200 A 
ATOM     71  F   UNL A   1      47.110  34.451  31.715  1.00  0.00    -0.200 F 
ATOM     72  F   UNL A   1      46.751  36.581  30.050  1.00  0.00    -0.200 F 
ENDBRANCH  39  62
ENDBRANCH  13  14
ENDBRANCH   6   8
ENDBRANCH   5   6
ENDBRANCH   4   5
ENDBRANCH   3   4
ENDBRANCH   2   3
ENDBRANCH   1   2
BRANCH   1  73
ATOM     73  C   UNL A   1      40.335  22.111  27.099  1.00  0.00     0.261 C 
BRANCH  73  74
ATOM     74  O   UNL A   1      39.162  22.277  26.292  1.00  0.00    -0.460 OA
BRANCH  74  75
ATOM     75  C   UNL A   1      38.525  23.455  26.507  1.00  0.00     0.338 C 
ATOM     76  O   UNL A   1      38.874  24.368  27.240  1.00  0.00    -0.246 OA
BRANCH  75  77
ATOM     77  C   UNL A   1      37.421  23.566  25.540  1.00  0.00     0.063 A 
ATOM     78  C   UNL A   1      37.662  23.198  24.216  1.00  0.00     0.016 A 
ATOM     79  C   UNL A   1      36.156  24.007  25.940  1.00  0.00     0.058 A 
ATOM     80  C   UNL A   1      36.650  23.329  23.283  1.00  0.00     0.004 A 
ATOM     81  C   UNL A   1      35.129  24.174  25.006  1.00  0.00     0.100 A 
ATOM     82  C   UNL A   1      35.421  23.860  23.678  1.00  0.00     0.043 A 
BRANCH  81  83
ATOM     83  N   UNL A   1      33.894  24.642  25.480  1.00  0.00    -0.245 N 
ATOM     84  C   UNL A   1      32.709  24.048  25.826  1.00  0.00     0.351 C 
ATOM     85  H   UNL A   1      33.875  25.620  25.587  1.00  0.00     0.267 HD
ATOM     86  N   UNL A   1      31.657  24.683  26.237  1.00  0.00    -0.273 N 
ATOM     87  N   UNL A   1      32.667  22.680  25.768  1.00  0.00    -0.261 N 
ATOM     88  H   UNL A   1      30.853  24.179  26.499  1.00  0.00     0.260 HD
ATOM     89  C   UNL A   1      31.624  22.013  24.982  1.00  0.00     0.221 C 
ATOM     90  C   UNL A   1      33.101  21.877  26.925  1.00  0.00     0.221 C 
ATOM     91  C   UNL A   1      32.180  20.691  24.418  1.00  0.00     0.154 C 
ATOM     92  C   UNL A   1      33.581  20.469  26.502  1.00  0.00     0.154 C 
ATOM     93  N   UNL A   1      32.694  19.831  25.501  1.00  0.00    -0.365 N 
BRANCH  86  94
ATOM     94  C   UNL A   1      31.653  26.151  26.315  1.00  0.00     0.233 C 
BRANCH  94  95
ATOM     95  C   UNL A   1      30.995  26.900  25.168  1.00  0.00    -0.014 A 
ATOM     96  C   UNL A   1      31.502  28.154  24.789  1.00  0.00     0.007 A 
ATOM     97  C   UNL A   1      29.874  26.406  24.484  1.00  0.00     0.007 A 
ATOM     98  C   UNL A   1      30.882  28.903  23.785  1.00  0.00     0.000 A 
ATOM     99  C   UNL A   1      29.238  27.165  23.502  1.00  0.00     0.000 A 
ATOM    100  C   UNL A   1      29.740  28.415  23.153  1.00  0.00     0.000 A 
ENDBRANCH  94  95
ENDBRANCH  86  94
BRANCH  93 101
ATOM    101  C   UNL A   1      32.851  18.469  25.285  1.00  0.00     0.037 A 
ATOM    102  C   UNL A   1      33.290  17.934  24.063  1.00  0.00     0.029 A 
ATOM    103  C   UNL A   1      32.526  17.564  26.310  1.00  0.00     0.029 A 
ATOM    104  C   UNL A   1      33.390  16.552  23.870  1.00  0.00     0.041 A 
ATOM    105  C   UNL A   1      32.616  16.184  26.122  1.00  0.00     0.041 A 
ATOM    106  C   UNL A   1      33.045  15.690  24.901  1.00  0.00     0.123 A 
ATOM    107  F   UNL A   1      33.120  14.366  24.713  1.00  0.00    -0.207 F 
ENDBRANCH  93 101
ENDBRANCH  81  83
ENDBRANCH  75  77
ENDBRANCH  74  75
ENDBRANCH  73  74
ENDBRANCH   1  73
TORSDOF 18
ENDMDL
MODEL 3
REMARK VINA RESULT:     -12.4      6.994     11.870
REMARK SMILES O=C(OCCOCCOC(=O)c1cccc(N/C(=[NH+]\Cc2ccccc2)N2CCN(c3ccc(F)cc3)CC2)c1)c1ccc(-c2c3nc(c(-c4c(F)c(F)c(F)c(F)c4F)c4ccc([nH]4)c(-c4c(F)c(F)c(F)c(F)c4F)c4nc(c(-c5c(F)c(F)c(F)c(F)c5F)c5ccc2[nH]5)C=C4)C=C3)cc1
REMARK SMILES IDX 7 1 6 2 5 3 4 4 3 5 2 6 1 7 41 8 42 9 103 10 43 11 102 12
REMARK SMILES IDX 44 13 45 14 46 15 96 16 47 17 101 18 95 19 97 20 48 21
REMARK SMILES IDX 100 22 94 23 93 24 49 26 81 27 61 28 80 29 62 30 65 31 79 32
REMARK SMILES IDX 98 33 63 34 64 35 78 37 99 38 66 39 50 40 51 41 59 42 52 43
REMARK SMILES IDX 53 44 57 45 60 46 54 47 55 48 58 49 56 50 82 51 83 52 91 53
REMARK SMILES IDX 84 54 85 55 89 56 92 57 86 58 87 59 90 60 88 61 67 62 68 63
REMARK SMILES IDX 76 64 69 65 70 66 74 67 77 68 71 69 72 70 75 71 73 72 8 73
REMARK SMILES IDX 9 74 10 75 11 76 12 77 13 78 40 79 14 80 16 81 15 82 17 83
REMARK SMILES IDX 18 84 19 86 27 87 28 89 39 90 29 91 38 92 30 93 20 94 21 95
REMARK SMILES IDX 22 96 26 97 23 98 25 99 24 100 31 101 32 102 37 103 33 104
REMARK SMILES IDX 36 105 34 106 35 107
REMARK H PARENT 97 25 65 36 17 85 19 88
REMARK Flexibility Score: inf
ROOT
ATOM      1  C   UNL A   1      42.158  21.869  27.654  1.00  0.00     0.202 C 
ENDROOT
BRANCH   1   2
ATOM      2  O   UNL A   1      41.867  20.480  27.449  1.00  0.00    -0.374 OA
BRANCH   2   3
ATOM      3  C   UNL A   1      41.872  20.024  26.094  1.00  0.00     0.202 C 
BRANCH   3   4
ATOM      4  C   UNL A   1      42.926  18.955  25.777  1.00  0.00     0.261 C 
BRANCH   4   5
ATOM      5  O   UNL A   1      43.609  19.255  24.551  1.00  0.00    -0.460 OA
BRANCH   5   6
ATOM      6  C   UNL A   1      44.794  19.893  24.395  1.00  0.00     0.338 C 
ATOM      7  O   UNL A   1      45.736  19.280  23.896  1.00  0.00    -0.246 OA
BRANCH   6   8
ATOM      8  C   UNL A   1      45.023  21.312  24.799  1.00  0.00     0.060 A 
ATOM      9  C   UNL A   1      44.786  22.416  23.983  1.00  0.00     0.016 A 
ATOM     10  C   UNL A   1      45.416  21.550  26.127  1.00  0.00     0.016 A 
ATOM     11  C   UNL A   1      44.980  23.707  24.424  1.00  0.00     0.010 A 
ATOM     12  C   UNL A   1      45.571  22.855  26.603  1.00  0.00     0.010 A 
ATOM     13  C   UNL A   1      45.357  23.935  25.739  1.00  0.00    -0.014 A 
BRANCH  13  14
ATOM     14  C   UNL A   1      45.621  25.331  26.108  1.00  0.00     0.031 A 
ATOM     15  C   UNL A   1      44.510  26.111  26.729  1.00  0.00     0.074 A 
ATOM     16  C   UNL A   1      46.886  25.786  26.065  1.00  0.00     0.049 A 
ATOM     17  N   UNL A   1      44.492  27.353  27.123  1.00  0.00    -0.248 NA
ATOM     18  C   UNL A   1      43.249  25.383  26.959  1.00  0.00     0.031 C 
ATOM     19  C   UNL A   1      48.048  25.006  25.624  1.00  0.00     0.029 A 
ATOM     20  N   UNL A   1      47.417  26.989  26.437  1.00  0.00    -0.354 N 
ATOM     21  C   UNL A   1      43.216  27.562  27.626  1.00  0.00     0.074 A 
ATOM     22  C   UNL A   1      42.481  26.328  27.476  1.00  0.00     0.031 C 
ATOM     23  C   UNL A   1      49.157  25.747  25.771  1.00  0.00     0.029 A 
ATOM     24  C   UNL A   1      48.773  27.074  26.232  1.00  0.00     0.049 A 
ATOM     25  H   UNL A   1      46.881  27.722  26.816  1.00  0.00     0.167 HD
ATOM     26  C   UNL A   1      42.717  28.698  28.164  1.00  0.00     0.037 A 
ATOM     27  C   UNL A   1      49.590  28.135  26.359  1.00  0.00     0.037 A 
ATOM     28  C   UNL A   1      43.488  29.904  28.285  1.00  0.00     0.049 A 
ATOM     29  C   UNL A   1      48.972  29.425  26.828  1.00  0.00     0.074 A 
ATOM     30  C   UNL A   1      43.087  31.155  28.710  1.00  0.00     0.029 A 
ATOM     31  N   UNL A   1      44.841  29.997  27.974  1.00  0.00    -0.354 N 
ATOM     32  N   UNL A   1      47.737  29.661  27.210  1.00  0.00    -0.248 NA
ATOM     33  C   UNL A   1      49.848  30.599  26.872  1.00  0.00     0.031 C 
ATOM     34  C   UNL A   1      44.186  32.015  28.610  1.00  0.00     0.029 A 
ATOM     35  C   UNL A   1      45.289  31.288  28.184  1.00  0.00     0.049 A 
ATOM     36  H   UNL A   1      45.399  29.253  27.650  1.00  0.00     0.167 HD
ATOM     37  C   UNL A   1      47.692  31.001  27.560  1.00  0.00     0.074 A 
ATOM     38  C   UNL A   1      49.034  31.519  27.369  1.00  0.00     0.031 C 
ATOM     39  C   UNL A   1      46.643  31.745  27.992  1.00  0.00     0.037 A 
BRANCH  26  40
ATOM     40  C   UNL A   1      41.275  28.684  28.572  1.00  0.00     0.064 A 
ATOM     41  C   UNL A   1      40.244  29.005  27.674  1.00  0.00     0.173 A 
ATOM     42  C   UNL A   1      40.921  28.395  29.899  1.00  0.00     0.173 A 
ATOM     43  F   UNL A   1      40.531  29.327  26.404  1.00  0.00    -0.203 F 
ATOM     44  C   UNL A   1      38.918  29.066  28.098  1.00  0.00     0.198 A 
ATOM     45  C   UNL A   1      39.592  28.426  30.311  1.00  0.00     0.198 A 
ATOM     46  F   UNL A   1      41.868  28.096  30.801  1.00  0.00    -0.203 F 
ATOM     47  F   UNL A   1      37.959  29.440  27.240  1.00  0.00    -0.200 F 
ATOM     48  C   UNL A   1      38.593  28.771  29.414  1.00  0.00     0.200 A 
ATOM     49  F   UNL A   1      39.280  28.141  31.582  1.00  0.00    -0.200 F 
ATOM     50  F   UNL A   1      37.318  28.838  29.822  1.00  0.00    -0.200 F 
ENDBRANCH  26  40
BRANCH  27  51
ATOM     51  C   UNL A   1      51.023  28.047  25.966  1.00  0.00     0.064 A 
ATOM     52  C   UNL A   1      51.425  28.147  24.627  1.00  0.00     0.173 A 
ATOM     53  C   UNL A   1      52.024  27.810  26.923  1.00  0.00     0.173 A 
ATOM     54  F   UNL A   1      50.512  28.355  23.667  1.00  0.00    -0.203 F 
ATOM     55  C   UNL A   1      52.760  27.978  24.259  1.00  0.00     0.198 A 
ATOM     56  C   UNL A   1      53.362  27.679  26.559  1.00  0.00     0.198 A 
ATOM     57  F   UNL A   1      51.702  27.701  28.221  1.00  0.00    -0.203 F 
ATOM     58  F   UNL A   1      53.104  28.008  22.964  1.00  0.00    -0.200 F 
ATOM     59  C   UNL A   1      53.728  27.747  25.225  1.00  0.00     0.200 A 
ATOM     60  F   UNL A   1      54.293  27.472  27.500  1.00  0.00    -0.200 F 
ATOM     61  F   UNL A   1      55.008  27.574  24.869  1.00  0.00    -0.200 F 
ENDBRANCH  27  51
BRANCH  39  62
ATOM     62  C   UNL A   1      46.932  33.177  28.330  1.00  0.00     0.064 A 
ATOM     63  C   UNL A   1      47.356  33.561  29.609  1.00  0.00     0.173 A 
ATOM     64  C   UNL A   1      46.817  34.169  27.344  1.00  0.00     0.173 A 
ATOM     65  F   UNL A   1      47.465  32.650  30.589  1.00  0.00    -0.203 F 
ATOM     66  C   UNL A   1      47.625  34.895  29.898  1.00  0.00     0.198 A 
ATOM     67  C   UNL A   1      47.125  35.494  27.627  1.00  0.00     0.198 A 
ATOM     68  F   UNL A   1      46.422  33.846  26.103  1.00  0.00    -0.203 F 
ATOM     69  F   UNL A   1      47.972  35.251  31.143  1.00  0.00    -0.200 F 
ATOM     70  C   UNL A   1      47.518  35.858  28.906  1.00  0.00     0.200 A 
ATOM     71  F   UNL A   1      47.040  36.419  26.661  1.00  0.00    -0.200 F 
ATOM     72  F   UNL A   1      47.789  37.140  29.183  1.00  0.00    -0.200 F 
ENDBRANCH  39  62
ENDBRANCH  13  14
ENDBRANCH   6   8
ENDBRANCH   5   6
ENDBRANCH   4   5
ENDBRANCH   3   4
ENDBRANCH   2   3
ENDBRANCH   1   2
BRANCH   1  73
ATOM     73  C   UNL A   1      41.205  22.726  26.817  1.00  0.00     0.261 C 
BRANCH  73  74
ATOM     74  O   UNL A   1      40.042  22.995  27.607  1.00  0.00    -0.460 OA
BRANCH  74  75
ATOM     75  C   UNL A   1      39.273  23.994  27.107  1.00  0.00     0.338 C 
ATOM     76  O   UNL A   1      39.429  25.198  27.249  1.00  0.00    -0.246 OA
BRANCH  75  77
ATOM     77  C   UNL A   1      38.308  23.407  26.164  1.00  0.00     0.063 A 
ATOM     78  C   UNL A   1      38.625  22.184  25.569  1.00  0.00     0.016 A 
ATOM     79  C   UNL A   1      37.094  24.042  25.886  1.00  0.00     0.058 A 
ATOM     80  C   UNL A   1      37.749  21.631  24.652  1.00  0.00     0.004 A 
ATOM     81  C   UNL A   1      36.210  23.513  24.941  1.00  0.00     0.100 A 
ATOM     82  C   UNL A   1      36.586  22.324  24.314  1.00  0.00     0.043 A 
BRANCH  81  83
ATOM     83  N   UNL A   1      35.022  24.221  24.700  1.00  0.00    -0.245 N 
ATOM     84  C   UNL A   1      33.711  23.866  24.521  1.00  0.00     0.351 C 
ATOM     85  H   UNL A   1      35.164  25.194  24.646  1.00  0.00     0.267 HD
ATOM     86  N   UNL A   1      32.746  24.699  24.289  1.00  0.00    -0.273 N 
ATOM     87  N   UNL A   1      33.413  22.535  24.643  1.00  0.00    -0.261 N 
ATOM     88  H   UNL A   1      31.823  24.366  24.205  1.00  0.00     0.260 HD
ATOM     89  C   UNL A   1      32.711  21.840  23.559  1.00  0.00     0.221 C 
ATOM     90  C   UNL A   1      33.109  21.964  25.966  1.00  0.00     0.221 C 
ATOM     91  C   UNL A   1      33.167  20.369  23.519  1.00  0.00     0.154 C 
ATOM     92  C   UNL A   1      33.419  20.449  26.025  1.00  0.00     0.154 C 
ATOM     93  N   UNL A   1      32.955  19.716  24.825  1.00  0.00    -0.365 N 
BRANCH  86  94
ATOM     94  C   UNL A   1      33.017  26.137  24.148  1.00  0.00     0.233 C 
BRANCH  94  95
ATOM     95  C   UNL A   1      32.862  26.992  25.396  1.00  0.00    -0.014 A 
ATOM     96  C   UNL A   1      31.606  27.072  26.019  1.00  0.00     0.007 A 
ATOM     97  C   UNL A   1      33.920  27.736  25.939  1.00  0.00     0.007 A 
ATOM     98  C   UNL A   1      31.410  27.901  27.127  1.00  0.00     0.000 A 
ATOM     99  C   UNL A   1      33.717  28.585  27.027  1.00  0.00     0.000 A 
ATOM    100  C   UNL A   1      32.462  28.671  27.620  1.00  0.00     0.000 A 
ENDBRANCH  94  95
ENDBRANCH  86  94
BRANCH  93 101
ATOM    101  C   UNL A   1      32.900  18.331  24.903  1.00  0.00     0.037 A 
ATOM    102  C   UNL A   1      32.527  17.646  26.070  1.00  0.00     0.029 A 
ATOM    103  C   UNL A   1      33.266  17.560  23.786  1.00  0.00     0.029 A 
ATOM    104  C   UNL A   1      32.530  16.247  26.123  1.00  0.00     0.041 A 
ATOM    105  C   UNL A   1      33.278  16.165  23.833  1.00  0.00     0.041 A 
ATOM    106  C   UNL A   1      32.912  15.521  25.004  1.00  0.00     0.123 A 
ATOM    107  F   UNL A   1      32.935  14.183  25.057  1.00  0.00    -0.207 F 
ENDBRANCH  93 101
ENDBRANCH  81  83
ENDBRANCH  75  77
ENDBRANCH  74  75
ENDBRANCH  73  74
ENDBRANCH   1  73
TORSDOF 18
ENDMDL
