MODEL 1
REMARK VINA RESULT:     -11.2      0.000      0.000
REMARK SMILES CN(C(=O)N1Cc2nc[nH]c2C[C@@H]1C(=O)OCCOCCOC(=O)c1ccc(-c2c3nc(c(-c4c(F)c(F)c(F)c(F)c4F)c4ccc([nH]4)c(-c4c(F)c(F)c(F)c(F)c4F)c4nc(c(-c5c(F)c(F)c(F)c(F)c5F)c5ccc2[nH]5)C=C4)C=C3)cc1)C1CC1
REMARK SMILES IDX 18 1 17 2 16 3 14 4 15 5 13 6 5 7 6 8 7 9 12 10 8 11 11 12
REMARK SMILES IDX 9 13 10 14 3 16 4 17 2 18 1 19 88 20 89 21 90 22 19 23 20 24
REMARK SMILES IDX 21 25 22 26 23 27 24 28 25 29 26 30 87 31 27 32 86 33 28 34
REMARK SMILES IDX 29 35 30 36 80 37 31 38 85 39 79 40 81 41 32 42 84 43 78 44
REMARK SMILES IDX 77 45 33 47 65 48 45 49 64 50 46 51 49 52 63 53 82 54 47 55
REMARK SMILES IDX 48 56 62 58 83 59 50 60 34 61 35 62 43 63 36 64 37 65 41 66
REMARK SMILES IDX 44 67 38 68 39 69 42 70 40 71 66 72 67 73 75 74 68 75 69 76
REMARK SMILES IDX 73 77 76 78 70 79 71 80 74 81 72 82 51 83 52 84 60 85 53 86
REMARK SMILES IDX 54 87 58 88 61 89 55 90 56 91 59 92 57 93
REMARK H PARENT 10 15 81 46 49 57
REMARK Flexibility Score: inf
ROOT
ATOM      1  C   UNL A   1      39.257  21.891  26.330  1.00  0.00     0.202 C 
ENDROOT
BRANCH   1   2
ATOM      2  C   UNL A   1      38.155  22.045  25.282  1.00  0.00     0.261 C 
BRANCH   2   3
ATOM      3  O   UNL A   1      36.851  22.282  25.833  1.00  0.00    -0.462 OA
BRANCH   3   4
ATOM      4  C   UNL A   1      35.953  22.812  24.957  1.00  0.00     0.329 C 
ATOM      5  O   UNL A   1      35.919  23.991  24.617  1.00  0.00    -0.250 OA
BRANCH   4   6
ATOM      6  C   UNL A   1      34.897  21.805  24.520  1.00  0.00     0.203 C 
ATOM      7  N   UNL A   1      33.512  22.352  24.447  1.00  0.00    -0.304 N 
ATOM      8  C   UNL A   1      32.544  21.510  23.712  1.00  0.00     0.180 C 
ATOM      9  C   UNL A   1      32.834  20.056  23.941  1.00  0.00     0.081 A 
ATOM     10  C   UNL A   1      34.964  20.440  25.259  1.00  0.00     0.093 C 
ATOM     11  N   UNL A   1      32.123  19.019  23.398  1.00  0.00    -0.240 NA
ATOM     12  C   UNL A   1      33.927  19.578  24.631  1.00  0.00     0.042 A 
ATOM     13  C   UNL A   1      32.759  17.931  23.779  1.00  0.00     0.197 A 
ATOM     14  N   UNL A   1      33.863  18.220  24.541  1.00  0.00    -0.348 N 
ATOM     15  H   UNL A   1      34.487  17.573  24.942  1.00  0.00     0.167 HD
BRANCH   7  16
ATOM     16  C   UNL A   1      33.031  22.972  25.598  1.00  0.00     0.321 C 
ATOM     17  O   UNL A   1      33.028  22.376  26.672  1.00  0.00    -0.248 OA
BRANCH  16  18
ATOM     18  N   UNL A   1      32.588  24.290  25.413  1.00  0.00    -0.325 N 
ATOM     19  C   UNL A   1      31.336  24.616  24.718  1.00  0.00     0.149 C 
BRANCH  18  20
ATOM     20  C   UNL A   1      33.258  25.447  25.988  1.00  0.00     0.086 C 
ATOM     21  C   UNL A   1      33.589  26.696  25.223  1.00  0.00     0.027 C 
ATOM     22  C   UNL A   1      32.554  26.734  26.315  1.00  0.00     0.027 C 
ENDBRANCH  18  20
ENDBRANCH  16  18
ENDBRANCH   7  16
ENDBRANCH   4   6
ENDBRANCH   3   4
ENDBRANCH   2   3
ENDBRANCH   1   2
BRANCH   1  23
ATOM     23  O   UNL A   1      40.445  21.192  25.978  1.00  0.00    -0.374 OA
BRANCH  23  24
ATOM     24  C   UNL A   1      41.235  20.562  26.978  1.00  0.00     0.202 C 
BRANCH  24  25
ATOM     25  C   UNL A   1      42.247  19.506  26.549  1.00  0.00     0.261 C 
BRANCH  25  26
ATOM     26  O   UNL A   1      42.747  19.735  25.234  1.00  0.00    -0.460 OA
BRANCH  26  27
ATOM     27  C   UNL A   1      44.080  19.928  25.182  1.00  0.00     0.338 C 
ATOM     28  O   UNL A   1      44.952  19.066  25.297  1.00  0.00    -0.246 OA
BRANCH  27  29
ATOM     29  C   UNL A   1      44.383  21.359  25.138  1.00  0.00     0.060 A 
ATOM     30  C   UNL A   1      45.365  21.785  26.033  1.00  0.00     0.016 A 
ATOM     31  C   UNL A   1      43.512  22.261  24.509  1.00  0.00     0.016 A 
ATOM     32  C   UNL A   1      45.289  23.068  26.514  1.00  0.00     0.010 A 
ATOM     33  C   UNL A   1      43.442  23.553  24.988  1.00  0.00     0.010 A 
ATOM     34  C   UNL A   1      44.258  23.899  26.061  1.00  0.00    -0.014 A 
BRANCH  34  35
ATOM     35  C   UNL A   1      44.052  25.115  26.818  1.00  0.00     0.031 A 
ATOM     36  C   UNL A   1      45.120  26.124  26.686  1.00  0.00     0.074 A 
ATOM     37  C   UNL A   1      42.977  25.302  27.604  1.00  0.00     0.049 A 
ATOM     38  N   UNL A   1      45.879  26.604  27.616  1.00  0.00    -0.248 NA
ATOM     39  C   UNL A   1      45.440  26.586  25.331  1.00  0.00     0.031 C 
ATOM     40  C   UNL A   1      41.736  24.528  27.656  1.00  0.00     0.029 A 
ATOM     41  N   UNL A   1      42.749  26.322  28.474  1.00  0.00    -0.354 N 
ATOM     42  C   UNL A   1      46.690  27.540  26.988  1.00  0.00     0.074 A 
ATOM     43  C   UNL A   1      46.453  27.416  25.572  1.00  0.00     0.031 C 
ATOM     44  C   UNL A   1      40.809  25.235  28.342  1.00  0.00     0.029 A 
ATOM     45  C   UNL A   1      41.429  26.443  28.866  1.00  0.00     0.049 A 
ATOM     46  H   UNL A   1      43.460  26.921  28.796  1.00  0.00     0.167 HD
ATOM     47  C   UNL A   1      47.372  28.483  27.689  1.00  0.00     0.037 A 
ATOM     48  C   UNL A   1      40.879  27.515  29.484  1.00  0.00     0.037 A 
ATOM     49  C   UNL A   1      47.554  28.116  29.065  1.00  0.00     0.049 A 
ATOM     50  C   UNL A   1      41.978  28.294  30.110  1.00  0.00     0.074 A 
ATOM     51  C   UNL A   1      48.178  27.063  29.706  1.00  0.00     0.029 A 
ATOM     52  N   UNL A   1      46.782  28.722  30.026  1.00  0.00    -0.354 N 
ATOM     53  N   UNL A   1      42.652  27.907  31.157  1.00  0.00    -0.248 NA
ATOM     54  C   UNL A   1      42.607  29.346  29.320  1.00  0.00     0.031 C 
ATOM     55  C   UNL A   1      47.391  26.807  30.866  1.00  0.00     0.029 A 
ATOM     56  C   UNL A   1      46.344  27.727  30.864  1.00  0.00     0.049 A 
ATOM     57  H   UNL A   1      46.581  29.683  30.098  1.00  0.00     0.167 HD
ATOM     58  C   UNL A   1      43.947  28.351  30.929  1.00  0.00     0.074 A 
ATOM     59  C   UNL A   1      43.836  29.317  29.843  1.00  0.00     0.031 C 
ATOM     60  C   UNL A   1      45.025  27.692  31.446  1.00  0.00     0.037 A 
BRANCH  47  61
ATOM     61  C   UNL A   1      47.612  29.871  27.170  1.00  0.00     0.064 A 
ATOM     62  C   UNL A   1      48.915  30.397  27.158  1.00  0.00     0.173 A 
ATOM     63  C   UNL A   1      46.569  30.798  26.947  1.00  0.00     0.173 A 
ATOM     64  F   UNL A   1      49.972  29.608  27.397  1.00  0.00    -0.203 F 
ATOM     65  C   UNL A   1      49.153  31.762  26.984  1.00  0.00     0.198 A 
ATOM     66  C   UNL A   1      46.813  32.148  26.716  1.00  0.00     0.198 A 
ATOM     67  F   UNL A   1      45.280  30.452  27.054  1.00  0.00    -0.203 F 
ATOM     68  F   UNL A   1      50.399  32.239  27.093  1.00  0.00    -0.200 F 
ATOM     69  C   UNL A   1      48.101  32.636  26.763  1.00  0.00     0.200 A 
ATOM     70  F   UNL A   1      45.780  32.981  26.526  1.00  0.00    -0.200 F 
ATOM     71  F   UNL A   1      48.323  33.952  26.648  1.00  0.00    -0.200 F 
ENDBRANCH  47  61
BRANCH  48  72
ATOM     72  C   UNL A   1      39.507  28.047  29.319  1.00  0.00     0.064 A 
ATOM     73  C   UNL A   1      38.643  28.174  30.416  1.00  0.00     0.173 A 
ATOM     74  C   UNL A   1      39.095  28.673  28.123  1.00  0.00     0.173 A 
ATOM     75  F   UNL A   1      38.981  27.656  31.606  1.00  0.00    -0.203 F 
ATOM     76  C   UNL A   1      37.446  28.892  30.328  1.00  0.00     0.198 A 
ATOM     77  C   UNL A   1      37.894  29.373  28.031  1.00  0.00     0.198 A 
ATOM     78  F   UNL A   1      39.889  28.696  27.044  1.00  0.00    -0.203 F 
ATOM     79  F   UNL A   1      36.676  29.042  31.413  1.00  0.00    -0.200 F 
ATOM     80  C   UNL A   1      37.074  29.494  29.136  1.00  0.00     0.200 A 
ATOM     81  F   UNL A   1      37.564  29.975  26.880  1.00  0.00    -0.200 F 
ATOM     82  F   UNL A   1      35.952  30.220  29.063  1.00  0.00    -0.200 F 
ENDBRANCH  48  72
BRANCH  60  83
ATOM     83  C   UNL A   1      44.771  26.645  32.491  1.00  0.00     0.064 A 
ATOM     84  C   UNL A   1      44.645  26.935  33.860  1.00  0.00     0.173 A 
ATOM     85  C   UNL A   1      44.505  25.332  32.080  1.00  0.00     0.173 A 
ATOM     86  F   UNL A   1      44.773  28.188  34.314  1.00  0.00    -0.203 F 
ATOM     87  C   UNL A   1      44.322  25.940  34.781  1.00  0.00     0.198 A 
ATOM     88  C   UNL A   1      44.144  24.349  32.997  1.00  0.00     0.198 A 
ATOM     89  F   UNL A   1      44.547  25.013  30.776  1.00  0.00    -0.203 F 
ATOM     90  F   UNL A   1      44.224  26.237  36.084  1.00  0.00    -0.200 F 
ATOM     91  C   UNL A   1      44.066  24.649  34.348  1.00  0.00     0.200 A 
ATOM     92  F   UNL A   1      43.848  23.114  32.569  1.00  0.00    -0.200 F 
ATOM     93  F   UNL A   1      43.716  23.702  35.228  1.00  0.00    -0.200 F 
ENDBRANCH  60  83
ENDBRANCH  34  35
ENDBRANCH  27  29
ENDBRANCH  26  27
ENDBRANCH  25  26
ENDBRANCH  24  25
ENDBRANCH  23  24
ENDBRANCH   1  23
TORSDOF 17
ENDMDL
MODEL 2
REMARK VINA RESULT:     -11.2      3.566      5.721
REMARK SMILES CN(C(=O)N1Cc2nc[nH]c2C[C@@H]1C(=O)OCCOCCOC(=O)c1ccc(-c2c3nc(c(-c4c(F)c(F)c(F)c(F)c4F)c4ccc([nH]4)c(-c4c(F)c(F)c(F)c(F)c4F)c4nc(c(-c5c(F)c(F)c(F)c(F)c5F)c5ccc2[nH]5)C=C4)C=C3)cc1)C1CC1
REMARK SMILES IDX 18 1 17 2 16 3 14 4 15 5 13 6 5 7 6 8 7 9 12 10 8 11 11 12
REMARK SMILES IDX 9 13 10 14 3 16 4 17 2 18 1 19 88 20 89 21 90 22 19 23 20 24
REMARK SMILES IDX 21 25 22 26 23 27 24 28 25 29 26 30 87 31 27 32 86 33 28 34
REMARK SMILES IDX 29 35 30 36 80 37 31 38 85 39 79 40 81 41 32 42 84 43 78 44
REMARK SMILES IDX 77 45 33 47 65 48 45 49 64 50 46 51 49 52 63 53 82 54 47 55
REMARK SMILES IDX 48 56 62 58 83 59 50 60 34 61 35 62 43 63 36 64 37 65 41 66
REMARK SMILES IDX 44 67 38 68 39 69 42 70 40 71 66 72 67 73 75 74 68 75 69 76
REMARK SMILES IDX 73 77 76 78 70 79 71 80 74 81 72 82 51 83 52 84 60 85 53 86
REMARK SMILES IDX 54 87 58 88 61 89 55 90 56 91 59 92 57 93
REMARK H PARENT 10 15 81 46 49 57
REMARK Flexibility Score: inf
ROOT
ATOM      1  C   UNL A   1      33.672  23.037  24.750  1.00  0.00     0.202 C 
ENDROOT
BRANCH   1   2
ATOM      2  C   UNL A   1      32.437  23.912  24.957  1.00  0.00     0.261 C 
BRANCH   2   3
ATOM      3  O   UNL A   1      32.731  25.300  25.172  1.00  0.00    -0.462 OA
BRANCH   3   4
ATOM      4  C   UNL A   1      31.871  25.939  26.014  1.00  0.00     0.329 C 
ATOM      5  O   UNL A   1      30.786  25.494  26.375  1.00  0.00    -0.250 OA
BRANCH   4   6
ATOM      6  C   UNL A   1      32.340  27.342  26.377  1.00  0.00     0.203 C 
ATOM      7  N   UNL A   1      31.622  28.439  25.667  1.00  0.00    -0.304 N 
ATOM      8  C   UNL A   1      31.815  29.788  26.241  1.00  0.00     0.180 C 
ATOM      9  C   UNL A   1      33.210  29.938  26.770  1.00  0.00     0.081 A 
ATOM     10  C   UNL A   1      33.882  27.529  26.363  1.00  0.00     0.093 C 
ATOM     11  N   UNL A   1      33.706  31.066  27.368  1.00  0.00    -0.240 NA
ATOM     12  C   UNL A   1      34.135  28.918  26.830  1.00  0.00     0.042 A 
ATOM     13  C   UNL A   1      34.922  30.743  27.756  1.00  0.00     0.197 A 
ATOM     14  N   UNL A   1      35.233  29.444  27.442  1.00  0.00    -0.348 N 
ATOM     15  H   UNL A   1      36.083  28.981  27.625  1.00  0.00     0.167 HD
BRANCH   7  16
ATOM     16  C   UNL A   1      31.599  28.364  24.277  1.00  0.00     0.321 C 
ATOM     17  O   UNL A   1      32.646  28.264  23.641  1.00  0.00    -0.248 OA
BRANCH  16  18
ATOM     18  N   UNL A   1      30.318  28.398  23.708  1.00  0.00    -0.325 N 
ATOM     19  C   UNL A   1      29.490  27.197  23.543  1.00  0.00     0.149 C 
BRANCH  18  20
ATOM     20  C   UNL A   1      29.641  29.632  23.336  1.00  0.00     0.086 C 
ATOM     21  C   UNL A   1      29.474  30.109  21.922  1.00  0.00     0.027 C 
ATOM     22  C   UNL A   1      28.272  29.672  22.715  1.00  0.00     0.027 C 
ENDBRANCH  18  20
ENDBRANCH  16  18
ENDBRANCH   7  16
ENDBRANCH   4   6
ENDBRANCH   3   4
ENDBRANCH   2   3
ENDBRANCH   1   2
BRANCH   1  23
ATOM     23  O   UNL A   1      34.952  23.657  24.709  1.00  0.00    -0.374 OA
BRANCH  23  24
ATOM     24  C   UNL A   1      35.845  23.543  25.810  1.00  0.00     0.202 C 
BRANCH  24  25
ATOM     25  C   UNL A   1      37.320  23.281  25.528  1.00  0.00     0.261 C 
BRANCH  25  26
ATOM     26  O   UNL A   1      38.163  23.728  26.586  1.00  0.00    -0.460 OA
BRANCH  26  27
ATOM     27  C   UNL A   1      39.445  23.326  26.470  1.00  0.00     0.338 C 
ATOM     28  O   UNL A   1      39.842  22.172  26.310  1.00  0.00    -0.246 OA
BRANCH  27  29
ATOM     29  C   UNL A   1      40.350  24.445  26.734  1.00  0.00     0.060 A 
ATOM     30  C   UNL A   1      40.794  24.550  28.053  1.00  0.00     0.016 A 
ATOM     31  C   UNL A   1      40.466  25.510  25.826  1.00  0.00     0.016 A 
ATOM     32  C   UNL A   1      41.088  25.800  28.539  1.00  0.00     0.010 A 
ATOM     33  C   UNL A   1      40.768  26.764  26.316  1.00  0.00     0.010 A 
ATOM     34  C   UNL A   1      40.964  26.902  27.687  1.00  0.00    -0.014 A 
BRANCH  34  35
ATOM     35  C   UNL A   1      40.990  28.200  28.328  1.00  0.00     0.031 A 
ATOM     36  C   UNL A   1      42.181  29.020  28.035  1.00  0.00     0.074 A 
ATOM     37  C   UNL A   1      40.012  28.617  29.151  1.00  0.00     0.049 A 
ATOM     38  N   UNL A   1      43.066  29.462  28.868  1.00  0.00    -0.248 NA
ATOM     39  C   UNL A   1      42.468  29.303  26.624  1.00  0.00     0.031 C 
ATOM     40  C   UNL A   1      38.679  28.047  29.351  1.00  0.00     0.029 A 
ATOM     41  N   UNL A   1      39.997  29.735  29.926  1.00  0.00    -0.354 N 
ATOM     42  C   UNL A   1      43.957  30.204  28.105  1.00  0.00     0.074 A 
ATOM     43  C   UNL A   1      43.604  29.989  26.723  1.00  0.00     0.031 C 
ATOM     44  C   UNL A   1      37.915  28.945  30.014  1.00  0.00     0.029 A 
ATOM     45  C   UNL A   1      38.739  30.088  30.378  1.00  0.00     0.049 A 
ATOM     46  H   UNL A   1      40.808  30.246  30.146  1.00  0.00     0.167 HD
ATOM     47  C   UNL A   1      44.816  31.093  28.667  1.00  0.00     0.037 A 
ATOM     48  C   UNL A   1      38.395  31.282  30.916  1.00  0.00     0.037 A 
ATOM     49  C   UNL A   1      45.040  30.828  30.061  1.00  0.00     0.049 A 
ATOM     50  C   UNL A   1      39.638  31.941  31.398  1.00  0.00     0.074 A 
ATOM     51  C   UNL A   1      45.550  29.756  30.768  1.00  0.00     0.029 A 
ATOM     52  N   UNL A   1      44.434  31.628  30.998  1.00  0.00    -0.354 N 
ATOM     53  N   UNL A   1      40.321  31.552  32.438  1.00  0.00    -0.248 NA
ATOM     54  C   UNL A   1      40.355  32.809  30.472  1.00  0.00     0.031 C 
ATOM     55  C   UNL A   1      44.818  29.728  31.990  1.00  0.00     0.029 A 
ATOM     56  C   UNL A   1      43.918  30.792  31.955  1.00  0.00     0.049 A 
ATOM     57  H   UNL A   1      44.380  32.612  30.985  1.00  0.00     0.167 HD
ATOM     58  C   UNL A   1      41.647  31.774  32.093  1.00  0.00     0.074 A 
ATOM     59  C   UNL A   1      41.600  32.643  30.924  1.00  0.00     0.031 C 
ATOM     60  C   UNL A   1      42.653  31.009  32.612  1.00  0.00     0.037 A 
BRANCH  47  61
ATOM     61  C   UNL A   1      45.217  32.376  27.999  1.00  0.00     0.064 A 
ATOM     62  C   UNL A   1      44.254  33.374  27.770  1.00  0.00     0.173 A 
ATOM     63  C   UNL A   1      46.450  32.540  27.330  1.00  0.00     0.173 A 
ATOM     64  F   UNL A   1      43.038  33.292  28.329  1.00  0.00    -0.203 F 
ATOM     65  C   UNL A   1      44.494  34.435  26.894  1.00  0.00     0.198 A 
ATOM     66  C   UNL A   1      46.705  33.629  26.503  1.00  0.00     0.198 A 
ATOM     67  F   UNL A   1      47.404  31.601  27.364  1.00  0.00    -0.203 F 
ATOM     68  F   UNL A   1      43.511  35.301  26.615  1.00  0.00    -0.200 F 
ATOM     69  C   UNL A   1      45.719  34.561  26.261  1.00  0.00     0.200 A 
ATOM     70  F   UNL A   1      47.890  33.722  25.881  1.00  0.00    -0.200 F 
ATOM     71  F   UNL A   1      45.931  35.548  25.381  1.00  0.00    -0.200 F 
ENDBRANCH  47  61
BRANCH  48  72
ATOM     72  C   UNL A   1      37.107  31.998  30.776  1.00  0.00     0.064 A 
ATOM     73  C   UNL A   1      36.141  31.955  31.793  1.00  0.00     0.173 A 
ATOM     74  C   UNL A   1      36.892  32.941  29.749  1.00  0.00     0.173 A 
ATOM     75  F   UNL A   1      36.294  31.126  32.835  1.00  0.00    -0.203 F 
ATOM     76  C   UNL A   1      35.035  32.811  31.789  1.00  0.00     0.198 A 
ATOM     77  C   UNL A   1      35.779  33.780  29.736  1.00  0.00     0.198 A 
ATOM     78  F   UNL A   1      37.800  33.132  28.782  1.00  0.00    -0.203 F 
ATOM     79  F   UNL A   1      34.166  32.782  32.808  1.00  0.00    -0.200 F 
ATOM     80  C   UNL A   1      34.856  33.725  30.763  1.00  0.00     0.200 A 
ATOM     81  F   UNL A   1      35.638  34.680  28.753  1.00  0.00    -0.200 F 
ATOM     82  F   UNL A   1      33.823  34.575  30.782  1.00  0.00    -0.200 F 
ENDBRANCH  48  72
BRANCH  60  83
ATOM     83  C   UNL A   1      42.325  30.112  33.769  1.00  0.00     0.064 A 
ATOM     84  C   UNL A   1      41.830  28.805  33.618  1.00  0.00     0.173 A 
ATOM     85  C   UNL A   1      42.656  30.532  35.064  1.00  0.00     0.173 A 
ATOM     86  F   UNL A   1      41.597  28.293  32.402  1.00  0.00    -0.203 F 
ATOM     87  C   UNL A   1      41.624  27.980  34.722  1.00  0.00     0.198 A 
ATOM     88  C   UNL A   1      42.486  29.692  36.161  1.00  0.00     0.198 A 
ATOM     89  F   UNL A   1      43.193  31.747  35.261  1.00  0.00    -0.203 F 
ATOM     90  F   UNL A   1      41.135  26.743  34.553  1.00  0.00    -0.200 F 
ATOM     91  C   UNL A   1      41.957  28.421  35.991  1.00  0.00     0.200 A 
ATOM     92  F   UNL A   1      42.857  30.103  37.381  1.00  0.00    -0.200 F 
ATOM     93  F   UNL A   1      41.797  27.613  37.048  1.00  0.00    -0.200 F 
ENDBRANCH  60  83
ENDBRANCH  34  35
ENDBRANCH  27  29
ENDBRANCH  26  27
ENDBRANCH  25  26
ENDBRANCH  24  25
ENDBRANCH  23  24
ENDBRANCH   1  23
TORSDOF 17
ENDMDL
MODEL 3
REMARK VINA RESULT:     -11.1      1.129      2.645
REMARK SMILES CN(C(=O)N1Cc2nc[nH]c2C[C@@H]1C(=O)OCCOCCOC(=O)c1ccc(-c2c3nc(c(-c4c(F)c(F)c(F)c(F)c4F)c4ccc([nH]4)c(-c4c(F)c(F)c(F)c(F)c4F)c4nc(c(-c5c(F)c(F)c(F)c(F)c5F)c5ccc2[nH]5)C=C4)C=C3)cc1)C1CC1
REMARK SMILES IDX 18 1 17 2 16 3 14 4 15 5 13 6 5 7 6 8 7 9 12 10 8 11 11 12
REMARK SMILES IDX 9 13 10 14 3 16 4 17 2 18 1 19 88 20 89 21 90 22 19 23 20 24
REMARK SMILES IDX 21 25 22 26 23 27 24 28 25 29 26 30 87 31 27 32 86 33 28 34
REMARK SMILES IDX 29 35 30 36 80 37 31 38 85 39 79 40 81 41 32 42 84 43 78 44
REMARK SMILES IDX 77 45 33 47 65 48 45 49 64 50 46 51 49 52 63 53 82 54 47 55
REMARK SMILES IDX 48 56 62 58 83 59 50 60 34 61 35 62 43 63 36 64 37 65 41 66
REMARK SMILES IDX 44 67 38 68 39 69 42 70 40 71 66 72 67 73 75 74 68 75 69 76
REMARK SMILES IDX 73 77 76 78 70 79 71 80 74 81 72 82 51 83 52 84 60 85 53 86
REMARK SMILES IDX 54 87 58 88 61 89 55 90 56 91 59 92 57 93
REMARK H PARENT 10 15 81 46 49 57
REMARK Flexibility Score: inf
ROOT
ATOM      1  C   UNL A   1      39.074  21.379  25.827  1.00  0.00     0.202 C 
ENDROOT
BRANCH   1   2
ATOM      2  C   UNL A   1      38.642  22.822  26.082  1.00  0.00     0.261 C 
BRANCH   2   3
ATOM      3  O   UNL A   1      37.237  22.977  26.336  1.00  0.00    -0.462 OA
BRANCH   3   4
ATOM      4  C   UNL A   1      36.524  23.479  25.289  1.00  0.00     0.329 C 
ATOM      5  O   UNL A   1      36.973  23.670  24.163  1.00  0.00    -0.250 OA
BRANCH   4   6
ATOM      6  C   UNL A   1      35.116  23.902  25.690  1.00  0.00     0.203 C 
ATOM      7  N   UNL A   1      34.109  22.803  25.666  1.00  0.00    -0.304 N 
ATOM      8  C   UNL A   1      32.840  23.102  26.365  1.00  0.00     0.180 C 
ATOM      9  C   UNL A   1      32.473  24.546  26.192  1.00  0.00     0.081 A 
ATOM     10  C   UNL A   1      34.609  25.194  24.992  1.00  0.00     0.093 C 
ATOM     11  N   UNL A   1      31.358  25.141  26.719  1.00  0.00    -0.240 NA
ATOM     12  C   UNL A   1      33.275  25.486  25.580  1.00  0.00     0.042 A 
ATOM     13  C   UNL A   1      31.469  26.415  26.405  1.00  0.00     0.197 A 
ATOM     14  N   UNL A   1      32.619  26.674  25.703  1.00  0.00    -0.348 N 
ATOM     15  H   UNL A   1      32.912  27.547  25.355  1.00  0.00     0.167 HD
BRANCH   7  16
ATOM     16  C   UNL A   1      33.996  22.093  24.473  1.00  0.00     0.321 C 
ATOM     17  O   UNL A   1      33.783  22.681  23.415  1.00  0.00    -0.248 OA
BRANCH  16  18
ATOM     18  N   UNL A   1      34.160  20.706  24.598  1.00  0.00    -0.325 N 
ATOM     19  C   UNL A   1      35.432  20.089  24.996  1.00  0.00     0.149 C 
BRANCH  18  20
ATOM     20  C   UNL A   1      33.065  19.757  24.462  1.00  0.00     0.086 C 
ATOM     21  C   UNL A   1      33.238  18.325  24.043  1.00  0.00     0.027 C 
ATOM     22  C   UNL A   1      32.800  18.651  25.445  1.00  0.00     0.027 C 
ENDBRANCH  18  20
ENDBRANCH  16  18
ENDBRANCH   7  16
ENDBRANCH   4   6
ENDBRANCH   3   4
ENDBRANCH   2   3
ENDBRANCH   1   2
BRANCH   1  23
ATOM     23  O   UNL A   1      40.109  20.822  26.629  1.00  0.00    -0.374 OA
BRANCH  23  24
ATOM     24  C   UNL A   1      40.701  19.577  26.279  1.00  0.00     0.202 C 
BRANCH  24  25
ATOM     25  C   UNL A   1      42.204  19.530  26.029  1.00  0.00     0.261 C 
BRANCH  25  26
ATOM     26  O   UNL A   1      42.672  20.673  25.318  1.00  0.00    -0.460 OA
BRANCH  26  27
ATOM     27  C   UNL A   1      44.016  20.776  25.271  1.00  0.00     0.338 C 
ATOM     28  O   UNL A   1      44.825  19.849  25.317  1.00  0.00    -0.246 OA
BRANCH  27  29
ATOM     29  C   UNL A   1      44.417  22.182  25.331  1.00  0.00     0.060 A 
ATOM     30  C   UNL A   1      45.161  22.538  26.456  1.00  0.00     0.016 A 
ATOM     31  C   UNL A   1      43.802  23.143  24.515  1.00  0.00     0.016 A 
ATOM     32  C   UNL A   1      45.053  23.824  26.923  1.00  0.00     0.010 A 
ATOM     33  C   UNL A   1      43.699  24.437  24.982  1.00  0.00     0.010 A 
ATOM     34  C   UNL A   1      44.233  24.725  26.235  1.00  0.00    -0.014 A 
BRANCH  34  35
ATOM     35  C   UNL A   1      43.923  25.954  26.934  1.00  0.00     0.031 A 
ATOM     36  C   UNL A   1      44.891  27.049  26.737  1.00  0.00     0.074 A 
ATOM     37  C   UNL A   1      42.843  26.080  27.726  1.00  0.00     0.049 A 
ATOM     38  N   UNL A   1      45.612  27.644  27.630  1.00  0.00    -0.248 NA
ATOM     39  C   UNL A   1      45.153  27.470  25.355  1.00  0.00     0.031 C 
ATOM     40  C   UNL A   1      41.680  25.199  27.835  1.00  0.00     0.029 A 
ATOM     41  N   UNL A   1      42.531  27.117  28.549  1.00  0.00    -0.354 N 
ATOM     42  C   UNL A   1      46.326  28.617  26.945  1.00  0.00     0.074 A 
ATOM     43  C   UNL A   1      46.086  28.401  25.540  1.00  0.00     0.031 C 
ATOM     44  C   UNL A   1      40.699  25.850  28.500  1.00  0.00     0.029 A 
ATOM     45  C   UNL A   1      41.210  27.135  28.954  1.00  0.00     0.049 A 
ATOM     46  H   UNL A   1      43.187  27.795  28.830  1.00  0.00     0.167 HD
ATOM     47  C   UNL A   1      46.925  29.653  27.587  1.00  0.00     0.037 A 
ATOM     48  C   UNL A   1      40.570  28.181  29.528  1.00  0.00     0.037 A 
ATOM     49  C   UNL A   1      47.155  29.374  28.977  1.00  0.00     0.049 A 
ATOM     50  C   UNL A   1      41.599  29.090  30.098  1.00  0.00     0.074 A 
ATOM     51  C   UNL A   1      47.881  28.417  29.659  1.00  0.00     0.029 A 
ATOM     52  N   UNL A   1      46.340  29.954  29.918  1.00  0.00    -0.354 N 
ATOM     53  N   UNL A   1      42.317  28.819  31.152  1.00  0.00    -0.248 NA
ATOM     54  C   UNL A   1      42.119  30.153  29.248  1.00  0.00     0.031 C 
ATOM     55  C   UNL A   1      47.134  28.148  30.842  1.00  0.00     0.029 A 
ATOM     56  C   UNL A   1      46.006  28.967  30.811  1.00  0.00     0.049 A 
ATOM     57  H   UNL A   1      46.052  30.895  29.947  1.00  0.00     0.167 HD
ATOM     58  C   UNL A   1      43.562  29.369  30.882  1.00  0.00     0.074 A 
ATOM     59  C   UNL A   1      43.350  30.265  29.752  1.00  0.00     0.031 C 
ATOM     60  C   UNL A   1      44.702  28.839  31.415  1.00  0.00     0.037 A 
BRANCH  47  61
ATOM     61  C   UNL A   1      47.029  31.030  26.998  1.00  0.00     0.064 A 
ATOM     62  C   UNL A   1      48.276  31.676  26.949  1.00  0.00     0.173 A 
ATOM     63  C   UNL A   1      45.902  31.840  26.736  1.00  0.00     0.173 A 
ATOM     64  F   UNL A   1      49.405  31.004  27.218  1.00  0.00    -0.203 F 
ATOM     65  C   UNL A   1      48.381  33.047  26.703  1.00  0.00     0.198 A 
ATOM     66  C   UNL A   1      46.015  33.194  26.436  1.00  0.00     0.198 A 
ATOM     67  F   UNL A   1      44.652  31.378  26.872  1.00  0.00    -0.203 F 
ATOM     68  F   UNL A   1      49.576  33.646  26.779  1.00  0.00    -0.200 F 
ATOM     69  C   UNL A   1      47.250  33.804  26.448  1.00  0.00     0.200 A 
ATOM     70  F   UNL A   1      44.906  33.914  26.213  1.00  0.00    -0.200 F 
ATOM     71  F   UNL A   1      47.345  35.128  26.265  1.00  0.00    -0.200 F 
ENDBRANCH  47  61
BRANCH  48  72
ATOM     72  C   UNL A   1      39.153  28.576  29.357  1.00  0.00     0.064 A 
ATOM     73  C   UNL A   1      38.304  28.719  30.465  1.00  0.00     0.173 A 
ATOM     74  C   UNL A   1      38.661  29.059  28.127  1.00  0.00     0.173 A 
ATOM     75  F   UNL A   1      38.711  28.335  31.683  1.00  0.00    -0.203 F 
ATOM     76  C   UNL A   1      37.046  29.320  30.351  1.00  0.00     0.198 A 
ATOM     77  C   UNL A   1      37.401  29.641  28.010  1.00  0.00     0.198 A 
ATOM     78  F   UNL A   1      39.428  29.060  27.027  1.00  0.00    -0.203 F 
ATOM     79  F   UNL A   1      36.288  29.494  31.442  1.00  0.00    -0.200 F 
ATOM     80  C   UNL A   1      36.597  29.783  29.125  1.00  0.00     0.200 A 
ATOM     81  F   UNL A   1      36.995  30.113  26.823  1.00  0.00    -0.200 F 
ATOM     82  F   UNL A   1      35.413  30.400  29.023  1.00  0.00    -0.200 F 
ENDBRANCH  48  72
BRANCH  60  83
ATOM     83  C   UNL A   1      44.558  27.827  32.513  1.00  0.00     0.064 A 
ATOM     84  C   UNL A   1      44.433  28.172  33.870  1.00  0.00     0.173 A 
ATOM     85  C   UNL A   1      44.398  26.478  32.171  1.00  0.00     0.173 A 
ATOM     86  F   UNL A   1      44.462  29.453  34.261  1.00  0.00    -0.203 F 
ATOM     87  C   UNL A   1      44.213  27.199  34.844  1.00  0.00     0.198 A 
ATOM     88  C   UNL A   1      44.139  25.514  33.141  1.00  0.00     0.198 A 
ATOM     89  F   UNL A   1      44.443  26.100  30.883  1.00  0.00    -0.203 F 
ATOM     90  F   UNL A   1      44.114  27.552  36.133  1.00  0.00    -0.200 F 
ATOM     91  C   UNL A   1      44.061  25.872  34.478  1.00  0.00     0.200 A 
ATOM     92  F   UNL A   1      43.942  24.238  32.779  1.00  0.00    -0.200 F 
ATOM     93  F   UNL A   1      43.809  24.943  35.410  1.00  0.00    -0.200 F 
ENDBRANCH  60  83
ENDBRANCH  34  35
ENDBRANCH  27  29
ENDBRANCH  26  27
ENDBRANCH  25  26
ENDBRANCH  24  25
ENDBRANCH  23  24
ENDBRANCH   1  23
TORSDOF 17
ENDMDL
