MODEL 1
REMARK VINA RESULT:     -13.0      0.000      0.000
REMARK SMILES Cc1ccc([C@@]23C[C@@H]4C[C@@H](C[C@@](C(=O)N5CCC(C(=O)OCCOCCOC(=O)c6ccc(-c7c8nc(c(-c9c(F)c(F)c(F)c(F)c9F)c9ccc([nH]9)c(-c9c(F)c(F)c(F)c(F)c9F)c9nc(c(-c%10c(F)c(F)c(F)c(F)c%10F)c%10ccc7[nH]%10)C=C9)C=C8)cc6)CC5)(C4)C2)C3)cc1
REMARK SMILES IDX 24 1 23 2 22 3 21 4 19 5 20 6 18 7 13 8 14 9 15 10 16 11
REMARK SMILES IDX 94 12 17 13 93 14 12 15 6 16 7 17 96 18 97 19 8 20 10 21
REMARK SMILES IDX 9 22 95 23 11 24 5 25 1 26 2 27 3 28 99 29 4 30 98 31 25 32
REMARK SMILES IDX 26 33 27 34 28 35 29 36 30 37 31 38 92 39 32 40 91 41 33 42
REMARK SMILES IDX 34 43 35 44 85 45 36 46 90 47 84 48 86 49 37 50 89 51 83 52
REMARK SMILES IDX 82 53 38 55 70 56 50 57 69 58 51 59 54 60 68 61 87 62 52 63
REMARK SMILES IDX 53 64 67 66 88 67 55 68 39 69 40 70 48 71 41 72 42 73 46 74
REMARK SMILES IDX 49 75 43 76 44 77 47 78 45 79 71 80 72 81 80 82 73 83 74 84
REMARK SMILES IDX 78 85 81 86 75 87 76 88 79 89 77 90 56 91 57 92 65 93 58 94
REMARK SMILES IDX 59 95 63 96 66 97 60 98 61 99 64 100 62 101
REMARK H PARENT 86 54 54 65
REMARK Flexibility Score: inf
ROOT
ATOM      1  O   UNL A   1      33.615  29.454  24.815  1.00  0.00    -0.374 OA
ENDROOT
BRANCH   1   2
ATOM      2  C   UNL A   1      34.010  28.595  23.761  1.00  0.00     0.202 C 
BRANCH   2   3
ATOM      3  C   UNL A   1      32.916  28.702  22.751  1.00  0.00     0.261 C 
BRANCH   3   4
ATOM      4  O   UNL A   1      31.681  29.138  23.335  1.00  0.00    -0.463 OA
BRANCH   4   5
ATOM      5  C   UNL A   1      30.488  28.637  22.866  1.00  0.00     0.309 C 
ATOM      6  O   UNL A   1      29.912  28.942  21.849  1.00  0.00    -0.252 OA
BRANCH   5   7
ATOM      7  C   UNL A   1      29.994  27.603  23.848  1.00  0.00     0.103 C 
ATOM      8  C   UNL A   1      32.547  25.171  25.622  1.00  0.00     0.228 C 
ATOM      9  O   UNL A   1      33.302  25.854  26.316  1.00  0.00    -0.274 OA
ATOM     10  N   UNL A   1      31.215  25.556  25.376  1.00  0.00    -0.342 N 
ATOM     11  C   UNL A   1      30.654  26.661  26.126  1.00  0.00     0.120 C 
ATOM     12  C   UNL A   1      30.341  25.144  24.265  1.00  0.00     0.120 C 
ATOM     13  C   UNL A   1      30.620  27.878  25.226  1.00  0.00     0.037 C 
ATOM     14  C   UNL A   1      30.327  26.235  23.234  1.00  0.00     0.037 C 
BRANCH   8  15
ATOM     15  C   UNL A   1      33.004  23.806  25.077  1.00  0.00     0.051 C 
ATOM     16  C   UNL A   1      35.189  22.455  25.054  1.00  0.00    -0.003 C 
ATOM     17  C   UNL A   1      34.385  21.370  25.838  1.00  0.00     0.015 C 
ATOM     18  C   UNL A   1      34.521  23.805  25.284  1.00  0.00     0.028 C 
ATOM     19  C   UNL A   1      35.025  22.206  23.535  1.00  0.00     0.015 C 
ATOM     20  C   UNL A   1      32.911  21.314  25.395  1.00  0.00    -0.009 C 
ATOM     21  C   UNL A   1      33.521  22.239  23.142  1.00  0.00    -0.009 C 
ATOM     22  C   UNL A   1      32.822  21.085  23.880  1.00  0.00     0.007 C 
ATOM     23  C   UNL A   1      32.232  22.644  25.731  1.00  0.00     0.020 C 
ATOM     24  C   UNL A   1      32.848  23.589  23.546  1.00  0.00     0.020 C 
BRANCH  16  25
ATOM     25  C   UNL A   1      36.648  22.516  25.551  1.00  0.00    -0.042 A 
ATOM     26  C   UNL A   1      40.829  22.778  26.702  1.00  0.00     0.044 C 
ATOM     27  C   UNL A   1      39.386  22.707  26.311  1.00  0.00    -0.051 A 
ATOM     28  C   UNL A   1      38.897  21.534  25.753  1.00  0.00     0.004 A 
ATOM     29  C   UNL A   1      38.508  23.781  26.494  1.00  0.00     0.004 A 
ATOM     30  C   UNL A   1      37.552  21.438  25.399  1.00  0.00     0.004 A 
ATOM     31  C   UNL A   1      37.159  23.688  26.118  1.00  0.00     0.004 A 
ENDBRANCH  16  25
ENDBRANCH   8  15
ENDBRANCH   5   7
ENDBRANCH   4   5
ENDBRANCH   3   4
ENDBRANCH   2   3
ENDBRANCH   1   2
BRANCH   1  32
ATOM     32  C   UNL A   1      33.965  29.036  26.116  1.00  0.00     0.202 C 
BRANCH  32  33
ATOM     33  C   UNL A   1      33.573  30.053  27.195  1.00  0.00     0.261 C 
BRANCH  33  34
ATOM     34  O   UNL A   1      34.490  31.169  27.153  1.00  0.00    -0.460 OA
BRANCH  34  35
ATOM     35  C   UNL A   1      35.155  31.451  28.308  1.00  0.00     0.338 C 
ATOM     36  O   UNL A   1      35.126  32.520  28.897  1.00  0.00    -0.246 OA
BRANCH  35  37
ATOM     37  C   UNL A   1      36.158  30.377  28.586  1.00  0.00     0.060 A 
ATOM     38  C   UNL A   1      36.120  29.672  29.807  1.00  0.00     0.016 A 
ATOM     39  C   UNL A   1      37.299  30.316  27.792  1.00  0.00     0.016 A 
ATOM     40  C   UNL A   1      37.278  29.050  30.307  1.00  0.00     0.010 A 
ATOM     41  C   UNL A   1      38.454  29.785  28.329  1.00  0.00     0.010 A 
ATOM     42  C   UNL A   1      38.472  29.189  29.604  1.00  0.00    -0.014 A 
BRANCH  42  43
ATOM     43  C   UNL A   1      39.822  28.895  30.105  1.00  0.00     0.031 A 
ATOM     44  C   UNL A   1      40.489  27.675  29.600  1.00  0.00     0.074 A 
ATOM     45  C   UNL A   1      40.581  29.843  30.719  1.00  0.00     0.049 A 
ATOM     46  N   UNL A   1      41.651  27.293  29.995  1.00  0.00    -0.248 NA
ATOM     47  C   UNL A   1      39.903  26.747  28.632  1.00  0.00     0.031 C 
ATOM     48  C   UNL A   1      42.044  29.963  30.723  1.00  0.00     0.029 A 
ATOM     49  N   UNL A   1      40.194  30.960  31.476  1.00  0.00    -0.354 N 
ATOM     50  C   UNL A   1      42.114  26.384  29.084  1.00  0.00     0.074 A 
ATOM     51  C   UNL A   1      40.940  25.942  28.378  1.00  0.00     0.031 C 
ATOM     52  C   UNL A   1      42.421  30.858  31.652  1.00  0.00     0.029 A 
ATOM     53  C   UNL A   1      41.233  31.256  32.378  1.00  0.00     0.049 A 
ATOM     54  H   UNL A   1      39.344  31.449  31.390  1.00  0.00     0.167 HD
ATOM     55  C   UNL A   1      43.463  26.239  28.960  1.00  0.00     0.037 A 
ATOM     56  C   UNL A   1      41.006  31.213  33.717  1.00  0.00     0.037 A 
ATOM     57  C   UNL A   1      44.173  26.928  30.063  1.00  0.00     0.049 A 
ATOM     58  C   UNL A   1      41.761  30.042  34.293  1.00  0.00     0.074 A 
ATOM     59  C   UNL A   1      45.070  27.976  30.175  1.00  0.00     0.029 A 
ATOM     60  N   UNL A   1      43.737  26.690  31.366  1.00  0.00    -0.354 N 
ATOM     61  N   UNL A   1      42.599  29.335  33.584  1.00  0.00    -0.248 NA
ATOM     62  C   UNL A   1      41.611  29.514  35.638  1.00  0.00     0.031 C 
ATOM     63  C   UNL A   1      45.116  28.379  31.557  1.00  0.00     0.029 A 
ATOM     64  C   UNL A   1      44.297  27.543  32.299  1.00  0.00     0.049 A 
ATOM     65  H   UNL A   1      43.092  25.983  31.599  1.00  0.00     0.167 HD
ATOM     66  C   UNL A   1      43.054  28.269  34.277  1.00  0.00     0.074 A 
ATOM     67  C   UNL A   1      42.380  28.409  35.567  1.00  0.00     0.031 C 
ATOM     68  C   UNL A   1      43.928  27.378  33.713  1.00  0.00     0.037 A 
BRANCH  55  69
ATOM     69  C   UNL A   1      44.140  25.561  27.784  1.00  0.00     0.064 A 
ATOM     70  C   UNL A   1      44.684  26.331  26.737  1.00  0.00     0.173 A 
ATOM     71  C   UNL A   1      44.227  24.161  27.585  1.00  0.00     0.173 A 
ATOM     72  F   UNL A   1      44.631  27.669  26.767  1.00  0.00    -0.203 F 
ATOM     73  C   UNL A   1      45.292  25.752  25.612  1.00  0.00     0.198 A 
ATOM     74  C   UNL A   1      44.888  23.586  26.494  1.00  0.00     0.198 A 
ATOM     75  F   UNL A   1      43.623  23.285  28.394  1.00  0.00    -0.203 F 
ATOM     76  F   UNL A   1      45.751  26.536  24.627  1.00  0.00    -0.200 F 
ATOM     77  C   UNL A   1      45.416  24.381  25.503  1.00  0.00     0.200 A 
ATOM     78  F   UNL A   1      44.984  22.250  26.404  1.00  0.00    -0.200 F 
ATOM     79  F   UNL A   1      46.013  23.829  24.439  1.00  0.00    -0.200 F 
ENDBRANCH  55  69
BRANCH  56  80
ATOM     80  C   UNL A   1      39.634  31.735  34.026  1.00  0.00     0.064 A 
ATOM     81  C   UNL A   1      39.472  33.143  33.998  1.00  0.00     0.173 A 
ATOM     82  C   UNL A   1      38.493  30.961  33.775  1.00  0.00     0.173 A 
ATOM     83  F   UNL A   1      40.531  33.945  34.200  1.00  0.00    -0.203 F 
ATOM     84  C   UNL A   1      38.280  33.734  33.575  1.00  0.00     0.198 A 
ATOM     85  C   UNL A   1      37.300  31.561  33.353  1.00  0.00     0.198 A 
ATOM     86  F   UNL A   1      38.574  29.623  33.774  1.00  0.00    -0.203 F 
ATOM     87  F   UNL A   1      38.223  35.060  33.368  1.00  0.00    -0.200 F 
ATOM     88  C   UNL A   1      37.211  32.938  33.208  1.00  0.00     0.200 A 
ATOM     89  F   UNL A   1      36.271  30.794  32.963  1.00  0.00    -0.200 F 
ATOM     90  F   UNL A   1      36.132  33.489  32.631  1.00  0.00    -0.200 F 
ENDBRANCH  56  80
BRANCH  68  91
ATOM     91  C   UNL A   1      44.449  26.198  34.481  1.00  0.00     0.064 A 
ATOM     92  C   UNL A   1      43.646  25.092  34.791  1.00  0.00     0.173 A 
ATOM     93  C   UNL A   1      45.776  26.143  34.962  1.00  0.00     0.173 A 
ATOM     94  F   UNL A   1      42.320  25.121  34.589  1.00  0.00    -0.203 F 
ATOM     95  C   UNL A   1      44.182  23.931  35.341  1.00  0.00     0.198 A 
ATOM     96  C   UNL A   1      46.292  25.008  35.575  1.00  0.00     0.198 A 
ATOM     97  F   UNL A   1      46.627  27.168  34.847  1.00  0.00    -0.203 F 
ATOM     98  F   UNL A   1      43.402  22.852  35.494  1.00  0.00    -0.200 F 
ATOM     99  C   UNL A   1      45.510  23.883  35.717  1.00  0.00     0.200 A 
ATOM    100  F   UNL A   1      47.562  25.009  36.002  1.00  0.00    -0.200 F 
ATOM    101  F   UNL A   1      46.031  22.762  36.229  1.00  0.00    -0.200 F 
ENDBRANCH  68  91
ENDBRANCH  42  43
ENDBRANCH  35  37
ENDBRANCH  34  35
ENDBRANCH  33  34
ENDBRANCH  32  33
ENDBRANCH   1  32
TORSDOF 16
ENDMDL
MODEL 2
REMARK VINA RESULT:     -12.9      2.034      3.232
REMARK SMILES Cc1ccc([C@@]23C[C@@H]4C[C@@H](C[C@@](C(=O)N5CCC(C(=O)OCCOCCOC(=O)c6ccc(-c7c8nc(c(-c9c(F)c(F)c(F)c(F)c9F)c9ccc([nH]9)c(-c9c(F)c(F)c(F)c(F)c9F)c9nc(c(-c%10c(F)c(F)c(F)c(F)c%10F)c%10ccc7[nH]%10)C=C9)C=C8)cc6)CC5)(C4)C2)C3)cc1
REMARK SMILES IDX 24 1 23 2 22 3 21 4 19 5 20 6 18 7 13 8 14 9 15 10 16 11
REMARK SMILES IDX 94 12 17 13 93 14 12 15 6 16 7 17 96 18 97 19 8 20 10 21
REMARK SMILES IDX 9 22 95 23 11 24 5 25 1 26 2 27 3 28 99 29 4 30 98 31 25 32
REMARK SMILES IDX 26 33 27 34 28 35 29 36 30 37 31 38 92 39 32 40 91 41 33 42
REMARK SMILES IDX 34 43 35 44 85 45 36 46 90 47 84 48 86 49 37 50 89 51 83 52
REMARK SMILES IDX 82 53 38 55 70 56 50 57 69 58 51 59 54 60 68 61 87 62 52 63
REMARK SMILES IDX 53 64 67 66 88 67 55 68 39 69 40 70 48 71 41 72 42 73 46 74
REMARK SMILES IDX 49 75 43 76 44 77 47 78 45 79 71 80 72 81 80 82 73 83 74 84
REMARK SMILES IDX 78 85 81 86 75 87 76 88 79 89 77 90 56 91 57 92 65 93 58 94
REMARK SMILES IDX 59 95 63 96 66 97 60 98 61 99 64 100 62 101
REMARK H PARENT 86 54 54 65
REMARK Flexibility Score: inf
ROOT
ATOM      1  O   UNL A   1      33.660  32.646  28.677  1.00  0.00    -0.374 OA
ENDROOT
BRANCH   1   2
ATOM      2  C   UNL A   1      34.179  31.761  27.701  1.00  0.00     0.202 C 
BRANCH   2   3
ATOM      3  C   UNL A   1      32.982  31.072  27.134  1.00  0.00     0.261 C 
BRANCH   3   4
ATOM      4  O   UNL A   1      32.917  29.693  27.518  1.00  0.00    -0.463 OA
BRANCH   4   5
ATOM      5  C   UNL A   1      33.449  28.728  26.694  1.00  0.00     0.309 C 
ATOM      6  O   UNL A   1      34.602  28.376  26.623  1.00  0.00    -0.252 OA
BRANCH   5   7
ATOM      7  C   UNL A   1      32.328  28.148  25.866  1.00  0.00     0.103 C 
ATOM      8  C   UNL A   1      31.553  24.280  26.008  1.00  0.00     0.228 C 
ATOM      9  O   UNL A   1      31.202  24.005  27.156  1.00  0.00    -0.274 OA
ATOM     10  N   UNL A   1      31.303  25.543  25.439  1.00  0.00    -0.342 N 
ATOM     11  C   UNL A   1      30.427  26.465  26.133  1.00  0.00     0.120 C 
ATOM     12  C   UNL A   1      32.005  26.189  24.317  1.00  0.00     0.120 C 
ATOM     13  C   UNL A   1      31.283  27.519  26.804  1.00  0.00     0.037 C 
ATOM     14  C   UNL A   1      32.987  27.181  24.871  1.00  0.00     0.037 C 
BRANCH   8  15
ATOM     15  C   UNL A   1      32.193  23.209  25.107  1.00  0.00     0.051 C 
ATOM     16  C   UNL A   1      34.565  22.315  24.687  1.00  0.00    -0.003 C 
ATOM     17  C   UNL A   1      34.000  20.939  25.160  1.00  0.00     0.015 C 
ATOM     18  C   UNL A   1      33.700  23.418  25.283  1.00  0.00     0.028 C 
ATOM     19  C   UNL A   1      34.351  22.451  23.160  1.00  0.00     0.015 C 
ATOM     20  C   UNL A   1      32.530  20.744  24.741  1.00  0.00    -0.009 C 
ATOM     21  C   UNL A   1      32.841  22.323  22.813  1.00  0.00    -0.009 C 
ATOM     22  C   UNL A   1      32.387  20.911  23.222  1.00  0.00     0.007 C 
ATOM     23  C   UNL A   1      31.665  21.799  25.433  1.00  0.00     0.020 C 
ATOM     24  C   UNL A   1      31.981  23.380  23.576  1.00  0.00     0.020 C 
BRANCH  16  25
ATOM     25  C   UNL A   1      36.022  22.496  25.159  1.00  0.00    -0.042 A 
ATOM     26  C   UNL A   1      40.046  22.928  26.738  1.00  0.00     0.044 C 
ATOM     27  C   UNL A   1      38.663  22.760  26.190  1.00  0.00    -0.051 A 
ATOM     28  C   UNL A   1      37.783  23.832  26.245  1.00  0.00     0.004 A 
ATOM     29  C   UNL A   1      38.228  21.560  25.617  1.00  0.00     0.004 A 
ATOM     30  C   UNL A   1      36.497  23.705  25.723  1.00  0.00     0.004 A 
ATOM     31  C   UNL A   1      36.925  21.429  25.111  1.00  0.00     0.004 A 
ENDBRANCH  16  25
ENDBRANCH   8  15
ENDBRANCH   5   7
ENDBRANCH   4   5
ENDBRANCH   3   4
ENDBRANCH   2   3
ENDBRANCH   1   2
BRANCH   1  32
ATOM     32  C   UNL A   1      33.594  34.005  28.305  1.00  0.00     0.202 C 
BRANCH  32  33
ATOM     33  C   UNL A   1      33.575  34.954  29.510  1.00  0.00     0.261 C 
BRANCH  33  34
ATOM     34  O   UNL A   1      33.588  34.176  30.728  1.00  0.00    -0.460 OA
BRANCH  34  35
ATOM     35  C   UNL A   1      34.713  34.263  31.491  1.00  0.00     0.338 C 
ATOM     36  O   UNL A   1      35.061  35.246  32.125  1.00  0.00    -0.246 OA
BRANCH  35  37
ATOM     37  C   UNL A   1      35.609  33.102  31.202  1.00  0.00     0.060 A 
ATOM     38  C   UNL A   1      35.565  31.953  32.019  1.00  0.00     0.016 A 
ATOM     39  C   UNL A   1      36.691  33.298  30.349  1.00  0.00     0.016 A 
ATOM     40  C   UNL A   1      36.676  31.095  32.102  1.00  0.00     0.010 A 
ATOM     41  C   UNL A   1      37.811  32.507  30.504  1.00  0.00     0.010 A 
ATOM     42  C   UNL A   1      37.837  31.429  31.410  1.00  0.00    -0.014 A 
BRANCH  42  43
ATOM     43  C   UNL A   1      39.174  30.853  31.612  1.00  0.00     0.031 A 
ATOM     44  C   UNL A   1      39.491  29.594  30.904  1.00  0.00     0.074 A 
ATOM     45  C   UNL A   1      40.199  31.586  32.125  1.00  0.00     0.049 A 
ATOM     46  N   UNL A   1      40.611  28.976  31.034  1.00  0.00    -0.248 NA
ATOM     47  C   UNL A   1      38.571  28.887  30.012  1.00  0.00     0.031 C 
ATOM     48  C   UNL A   1      41.634  31.447  31.847  1.00  0.00     0.029 A 
ATOM     49  N   UNL A   1      40.178  32.669  33.016  1.00  0.00    -0.354 N 
ATOM     50  C   UNL A   1      40.716  28.097  29.991  1.00  0.00     0.074 A 
ATOM     51  C   UNL A   1      39.371  27.943  29.504  1.00  0.00     0.031 C 
ATOM     52  C   UNL A   1      42.338  32.162  32.740  1.00  0.00     0.029 A 
ATOM     53  C   UNL A   1      41.402  32.685  33.713  1.00  0.00     0.049 A 
ATOM     54  H   UNL A   1      39.437  33.307  33.134  1.00  0.00     0.167 HD
ATOM     55  C   UNL A   1      41.967  27.732  29.593  1.00  0.00     0.037 A 
ATOM     56  C   UNL A   1      41.419  32.546  35.064  1.00  0.00     0.037 A 
ATOM     57  C   UNL A   1      42.984  28.169  30.576  1.00  0.00     0.049 A 
ATOM     58  C   UNL A   1      42.028  31.207  35.400  1.00  0.00     0.074 A 
ATOM     59  C   UNL A   1      44.071  29.027  30.578  1.00  0.00     0.029 A 
ATOM     60  N   UNL A   1      42.756  27.879  31.922  1.00  0.00    -0.354 N 
ATOM     61  N   UNL A   1      42.571  30.441  34.493  1.00  0.00    -0.248 NA
ATOM     62  C   UNL A   1      42.027  30.579  36.709  1.00  0.00     0.031 C 
ATOM     63  C   UNL A   1      44.445  29.271  31.947  1.00  0.00     0.029 A 
ATOM     64  C   UNL A   1      43.630  28.521  32.779  1.00  0.00     0.049 A 
ATOM     65  H   UNL A   1      42.042  27.276  32.230  1.00  0.00     0.167 HD
ATOM     66  C   UNL A   1      42.931  29.247  35.009  1.00  0.00     0.074 A 
ATOM     67  C   UNL A   1      42.544  29.370  36.414  1.00  0.00     0.031 C 
ATOM     68  C   UNL A   1      43.500  28.278  34.225  1.00  0.00     0.037 A 
BRANCH  55  69
ATOM     69  C   UNL A   1      42.275  27.070  28.263  1.00  0.00     0.064 A 
ATOM     70  C   UNL A   1      42.206  27.812  27.067  1.00  0.00     0.173 A 
ATOM     71  C   UNL A   1      42.574  25.697  28.081  1.00  0.00     0.173 A 
ATOM     72  F   UNL A   1      41.887  29.113  27.081  1.00  0.00    -0.203 F 
ATOM     73  C   UNL A   1      42.451  27.240  25.810  1.00  0.00     0.198 A 
ATOM     74  C   UNL A   1      42.878  25.142  26.833  1.00  0.00     0.198 A 
ATOM     75  F   UNL A   1      42.520  24.815  29.084  1.00  0.00    -0.203 F 
ATOM     76  F   UNL A   1      42.327  27.986  24.704  1.00  0.00    -0.200 F 
ATOM     77  C   UNL A   1      42.810  25.912  25.695  1.00  0.00     0.200 A 
ATOM     78  F   UNL A   1      43.213  23.845  26.747  1.00  0.00    -0.200 F 
ATOM     79  F   UNL A   1      43.063  25.370  24.496  1.00  0.00    -0.200 F 
ENDBRANCH  55  69
BRANCH  56  80
ATOM     80  C   UNL A   1      40.253  33.265  35.673  1.00  0.00     0.064 A 
ATOM     81  C   UNL A   1      39.172  32.460  36.113  1.00  0.00     0.173 A 
ATOM     82  C   UNL A   1      40.418  34.505  36.305  1.00  0.00     0.173 A 
ATOM     83  F   UNL A   1      38.974  31.247  35.571  1.00  0.00    -0.203 F 
ATOM     84  C   UNL A   1      38.414  32.802  37.235  1.00  0.00     0.198 A 
ATOM     85  C   UNL A   1      39.653  34.843  37.429  1.00  0.00     0.198 A 
ATOM     86  F   UNL A   1      41.425  35.314  35.948  1.00  0.00    -0.203 F 
ATOM     87  F   UNL A   1      37.534  31.925  37.745  1.00  0.00    -0.200 F 
ATOM     88  C   UNL A   1      38.688  33.973  37.918  1.00  0.00     0.200 A 
ATOM     89  F   UNL A   1      39.936  35.959  38.117  1.00  0.00    -0.200 F 
ATOM     90  F   UNL A   1      38.090  34.218  39.094  1.00  0.00    -0.200 F 
ENDBRANCH  56  80
BRANCH  68  91
ATOM     91  C   UNL A   1      43.917  26.953  34.793  1.00  0.00     0.064 A 
ATOM     92  C   UNL A   1      45.255  26.651  35.082  1.00  0.00     0.173 A 
ATOM     93  C   UNL A   1      42.989  25.919  35.047  1.00  0.00     0.173 A 
ATOM     94  F   UNL A   1      46.250  27.455  34.680  1.00  0.00    -0.203 F 
ATOM     95  C   UNL A   1      45.610  25.496  35.774  1.00  0.00     0.198 A 
ATOM     96  C   UNL A   1      43.355  24.736  35.675  1.00  0.00     0.198 A 
ATOM     97  F   UNL A   1      41.697  26.015  34.717  1.00  0.00    -0.203 F 
ATOM     98  F   UNL A   1      46.884  25.315  36.147  1.00  0.00    -0.200 F 
ATOM     99  C   UNL A   1      44.657  24.546  36.086  1.00  0.00     0.200 A 
ATOM    100  F   UNL A   1      42.429  23.795  35.900  1.00  0.00    -0.200 F 
ATOM    101  F   UNL A   1      44.993  23.444  36.767  1.00  0.00    -0.200 F 
ENDBRANCH  68  91
ENDBRANCH  42  43
ENDBRANCH  35  37
ENDBRANCH  34  35
ENDBRANCH  33  34
ENDBRANCH  32  33
ENDBRANCH   1  32
TORSDOF 16
ENDMDL
MODEL 3
REMARK VINA RESULT:     -12.8      1.811      3.265
REMARK SMILES Cc1ccc([C@@]23C[C@@H]4C[C@@H](C[C@@](C(=O)N5CCC(C(=O)OCCOCCOC(=O)c6ccc(-c7c8nc(c(-c9c(F)c(F)c(F)c(F)c9F)c9ccc([nH]9)c(-c9c(F)c(F)c(F)c(F)c9F)c9nc(c(-c%10c(F)c(F)c(F)c(F)c%10F)c%10ccc7[nH]%10)C=C9)C=C8)cc6)CC5)(C4)C2)C3)cc1
REMARK SMILES IDX 24 1 23 2 22 3 21 4 19 5 20 6 18 7 13 8 14 9 15 10 16 11
REMARK SMILES IDX 94 12 17 13 93 14 12 15 6 16 7 17 96 18 97 19 8 20 10 21
REMARK SMILES IDX 9 22 95 23 11 24 5 25 1 26 2 27 3 28 99 29 4 30 98 31 25 32
REMARK SMILES IDX 26 33 27 34 28 35 29 36 30 37 31 38 92 39 32 40 91 41 33 42
REMARK SMILES IDX 34 43 35 44 85 45 36 46 90 47 84 48 86 49 37 50 89 51 83 52
REMARK SMILES IDX 82 53 38 55 70 56 50 57 69 58 51 59 54 60 68 61 87 62 52 63
REMARK SMILES IDX 53 64 67 66 88 67 55 68 39 69 40 70 48 71 41 72 42 73 46 74
REMARK SMILES IDX 49 75 43 76 44 77 47 78 45 79 71 80 72 81 80 82 73 83 74 84
REMARK SMILES IDX 78 85 81 86 75 87 76 88 79 89 77 90 56 91 57 92 65 93 58 94
REMARK SMILES IDX 59 95 63 96 66 97 60 98 61 99 64 100 62 101
REMARK H PARENT 86 54 54 65
REMARK Flexibility Score: inf
ROOT
ATOM      1  O   UNL A   1      32.015  29.263  27.061  1.00  0.00    -0.374 OA
ENDROOT
BRANCH   1   2
ATOM      2  C   UNL A   1      31.578  28.466  25.975  1.00  0.00     0.202 C 
BRANCH   2   3
ATOM      3  C   UNL A   1      31.553  29.395  24.805  1.00  0.00     0.261 C 
BRANCH   3   4
ATOM      4  O   UNL A   1      31.880  28.729  23.578  1.00  0.00    -0.463 OA
BRANCH   4   5
ATOM      5  C   UNL A   1      30.907  28.534  22.626  1.00  0.00     0.309 C 
ATOM      6  O   UNL A   1      30.252  29.378  22.061  1.00  0.00    -0.252 OA
BRANCH   5   7
ATOM      7  C   UNL A   1      30.781  27.050  22.379  1.00  0.00     0.103 C 
ATOM      8  C   UNL A   1      32.059  24.474  25.082  1.00  0.00     0.228 C 
ATOM      9  O   UNL A   1      31.388  24.629  26.102  1.00  0.00    -0.274 OA
ATOM     10  N   UNL A   1      31.530  24.720  23.800  1.00  0.00    -0.342 N 
ATOM     11  C   UNL A   1      30.107  24.950  23.661  1.00  0.00     0.120 C 
ATOM     12  C   UNL A   1      32.261  25.021  22.558  1.00  0.00     0.120 C 
ATOM     13  C   UNL A   1      29.883  26.434  23.465  1.00  0.00     0.037 C 
ATOM     14  C   UNL A   1      32.215  26.503  22.321  1.00  0.00     0.037 C 
BRANCH   8  15
ATOM     15  C   UNL A   1      33.486  23.901  25.163  1.00  0.00     0.051 C 
ATOM     16  C   UNL A   1      34.569  21.581  24.951  1.00  0.00    -0.003 C 
ATOM     17  C   UNL A   1      35.364  22.194  23.756  1.00  0.00     0.015 C 
ATOM     18  C   UNL A   1      33.287  22.383  25.136  1.00  0.00     0.028 C 
ATOM     19  C   UNL A   1      35.358  21.825  26.261  1.00  0.00     0.015 C 
ATOM     20  C   UNL A   1      35.698  23.680  23.987  1.00  0.00    -0.009 C 
ATOM     21  C   UNL A   1      35.594  23.347  26.474  1.00  0.00    -0.009 C 
ATOM     22  C   UNL A   1      36.461  23.852  25.307  1.00  0.00     0.007 C 
ATOM     23  C   UNL A   1      34.397  24.483  24.065  1.00  0.00     0.020 C 
ATOM     24  C   UNL A   1      34.250  24.142  26.496  1.00  0.00     0.020 C 
BRANCH  16  25
ATOM     25  C   UNL A   1      34.213  20.107  24.670  1.00  0.00    -0.042 A 
ATOM     26  C   UNL A   1      33.184  15.919  24.146  1.00  0.00     0.044 C 
ATOM     27  C   UNL A   1      33.519  17.367  24.326  1.00  0.00    -0.051 A 
ATOM     28  C   UNL A   1      34.846  17.734  24.499  1.00  0.00     0.004 A 
ATOM     29  C   UNL A   1      32.540  18.366  24.320  1.00  0.00     0.004 A 
ATOM     30  C   UNL A   1      35.185  19.077  24.648  1.00  0.00     0.004 A 
ATOM     31  C   UNL A   1      32.882  19.717  24.492  1.00  0.00     0.004 A 
ENDBRANCH  16  25
ENDBRANCH   8  15
ENDBRANCH   5   7
ENDBRANCH   4   5
ENDBRANCH   3   4
ENDBRANCH   2   3
ENDBRANCH   1   2
BRANCH   1  32
ATOM     32  C   UNL A   1      33.062  30.166  26.780  1.00  0.00     0.202 C 
BRANCH  32  33
ATOM     33  C   UNL A   1      34.366  29.813  27.509  1.00  0.00     0.261 C 
BRANCH  33  34
ATOM     34  O   UNL A   1      35.329  30.869  27.299  1.00  0.00    -0.460 OA
BRANCH  34  35
ATOM     35  C   UNL A   1      36.241  31.064  28.293  1.00  0.00     0.338 C 
ATOM     36  O   UNL A   1      36.507  32.139  28.806  1.00  0.00    -0.246 OA
BRANCH  35  37
ATOM     37  C   UNL A   1      37.080  29.837  28.454  1.00  0.00     0.060 A 
ATOM     38  C   UNL A   1      37.125  29.167  29.694  1.00  0.00     0.016 A 
ATOM     39  C   UNL A   1      38.049  29.569  27.492  1.00  0.00     0.016 A 
ATOM     40  C   UNL A   1      38.228  28.362  30.029  1.00  0.00     0.010 A 
ATOM     41  C   UNL A   1      39.171  28.854  27.860  1.00  0.00     0.010 A 
ATOM     42  C   UNL A   1      39.297  28.282  29.141  1.00  0.00    -0.014 A 
BRANCH  42  43
ATOM     43  C   UNL A   1      40.642  27.767  29.433  1.00  0.00     0.031 A 
ATOM     44  C   UNL A   1      40.965  26.399  28.973  1.00  0.00     0.074 A 
ATOM     45  C   UNL A   1      41.665  28.592  29.786  1.00  0.00     0.049 A 
ATOM     46  N   UNL A   1      42.093  25.826  29.204  1.00  0.00    -0.248 NA
ATOM     47  C   UNL A   1      40.044  25.528  28.242  1.00  0.00     0.031 C 
ATOM     48  C   UNL A   1      43.098  28.415  29.522  1.00  0.00     0.029 A 
ATOM     49  N   UNL A   1      41.640  29.825  30.456  1.00  0.00    -0.354 N 
ATOM     50  C   UNL A   1      42.197  24.766  28.346  1.00  0.00     0.074 A 
ATOM     51  C   UNL A   1      40.849  24.511  27.913  1.00  0.00     0.031 C 
ATOM     52  C   UNL A   1      43.803  29.292  30.255  1.00  0.00     0.029 A 
ATOM     53  C   UNL A   1      42.871  29.983  31.122  1.00  0.00     0.049 A 
ATOM     54  H   UNL A   1      40.893  30.466  30.459  1.00  0.00     0.167 HD
ATOM     55  C   UNL A   1      43.448  24.343  28.009  1.00  0.00     0.037 A 
ATOM     56  C   UNL A   1      42.903  30.102  32.475  1.00  0.00     0.037 A 
ATOM     57  C   UNL A   1      44.470  24.968  28.880  1.00  0.00     0.049 A 
ATOM     58  C   UNL A   1      43.529  28.857  33.051  1.00  0.00     0.074 A 
ATOM     59  C   UNL A   1      45.548  25.819  28.706  1.00  0.00     0.029 A 
ATOM     60  N   UNL A   1      44.258  24.936  30.258  1.00  0.00    -0.354 N 
ATOM     61  N   UNL A   1      44.071  27.937  32.299  1.00  0.00    -0.248 NA
ATOM     62  C   UNL A   1      43.548  28.488  34.456  1.00  0.00     0.031 C 
ATOM     63  C   UNL A   1      45.933  26.322  30.000  1.00  0.00     0.029 A 
ATOM     64  C   UNL A   1      45.134  25.736  30.968  1.00  0.00     0.049 A 
ATOM     65  H   UNL A   1      43.554  24.396  30.684  1.00  0.00     0.167 HD
ATOM     66  C   UNL A   1      44.450  26.866  33.028  1.00  0.00     0.074 A 
ATOM     67  C   UNL A   1      44.075  27.249  34.388  1.00  0.00     0.031 C 
ATOM     68  C   UNL A   1      45.021  25.771  32.435  1.00  0.00     0.037 A 
BRANCH  55  69
ATOM     69  C   UNL A   1      43.749  23.443  26.825  1.00  0.00     0.064 A 
ATOM     70  C   UNL A   1      43.279  22.115  26.804  1.00  0.00     0.173 A 
ATOM     71  C   UNL A   1      44.552  23.796  25.712  1.00  0.00     0.173 A 
ATOM     72  F   UNL A   1      42.546  21.628  27.814  1.00  0.00    -0.203 F 
ATOM     73  C   UNL A   1      43.557  21.234  25.748  1.00  0.00     0.198 A 
ATOM     74  C   UNL A   1      44.775  22.936  24.630  1.00  0.00     0.198 A 
ATOM     75  F   UNL A   1      45.211  24.957  25.645  1.00  0.00    -0.203 F 
ATOM     76  F   UNL A   1      43.119  19.968  25.806  1.00  0.00    -0.200 F 
ATOM     77  C   UNL A   1      44.284  21.652  24.651  1.00  0.00     0.200 A 
ATOM     78  F   UNL A   1      45.496  23.362  23.581  1.00  0.00    -0.200 F 
ATOM     79  F   UNL A   1      44.532  20.816  23.634  1.00  0.00    -0.200 F 
ENDBRANCH  55  69
BRANCH  56  80
ATOM     80  C   UNL A   1      41.735  30.914  32.950  1.00  0.00     0.064 A 
ATOM     81  C   UNL A   1      41.794  32.310  32.707  1.00  0.00     0.173 A 
ATOM     82  C   UNL A   1      40.460  30.345  33.069  1.00  0.00     0.173 A 
ATOM     83  F   UNL A   1      42.983  32.914  32.552  1.00  0.00    -0.203 F 
ATOM     84  C   UNL A   1      40.645  33.053  32.428  1.00  0.00     0.198 A 
ATOM     85  C   UNL A   1      39.312  31.097  32.790  1.00  0.00     0.198 A 
ATOM     86  F   UNL A   1      40.327  29.030  33.288  1.00  0.00    -0.203 F 
ATOM     87  F   UNL A   1      40.753  34.324  32.006  1.00  0.00    -0.200 F 
ATOM     88  C   UNL A   1      39.410  32.433  32.425  1.00  0.00     0.200 A 
ATOM     89  F   UNL A   1      38.114  30.495  32.751  1.00  0.00    -0.200 F 
ATOM     90  F   UNL A   1      38.329  33.095  31.983  1.00  0.00    -0.200 F 
ENDBRANCH  56  80
BRANCH  68  91
ATOM     91  C   UNL A   1      45.458  24.581  33.240  1.00  0.00     0.064 A 
ATOM     92  C   UNL A   1      46.726  24.504  33.833  1.00  0.00     0.173 A 
ATOM     93  C   UNL A   1      44.627  23.454  33.425  1.00  0.00     0.173 A 
ATOM     94  F   UNL A   1      47.681  25.400  33.546  1.00  0.00    -0.203 F 
ATOM     95  C   UNL A   1      47.055  23.485  34.723  1.00  0.00     0.198 A 
ATOM     96  C   UNL A   1      44.985  22.403  34.259  1.00  0.00     0.198 A 
ATOM     97  F   UNL A   1      43.437  23.331  32.827  1.00  0.00    -0.203 F 
ATOM     98  F   UNL A   1      48.227  23.527  35.369  1.00  0.00    -0.200 F 
ATOM     99  C   UNL A   1      46.177  22.443  34.949  1.00  0.00     0.200 A 
ATOM    100  F   UNL A   1      44.150  21.365  34.406  1.00  0.00    -0.200 F 
ATOM    101  F   UNL A   1      46.483  21.473  35.818  1.00  0.00    -0.200 F 
ENDBRANCH  68  91
ENDBRANCH  42  43
ENDBRANCH  35  37
ENDBRANCH  34  35
ENDBRANCH  33  34
ENDBRANCH  32  33
ENDBRANCH   1  32
TORSDOF 16
ENDMDL
