MODEL 1
REMARK VINA RESULT:     -13.5      0.000      0.000
REMARK SMILES O=C1O[C@@H](c2ccc(O)c(O)c2)[C@H](C(=O)OCCOCCOC(=O)c2ccc(-c3c4nc(c(-c5c(F)c(F)c(F)c(F)c5F)c5ccc([nH]5)c(-c5c(F)c(F)c(F)c(F)c5F)c5nc(c(-c6c(F)c(F)c(F)c(F)c6F)c6ccc3[nH]6)C=C5)C=C4)cc2)/C1=C\c1ccc(O)c(O)c1
REMARK SMILES IDX 19 1 18 2 17 3 16 4 14 5 15 6 13 7 1 8 2 9 3 10 88 11 4 12
REMARK SMILES IDX 89 13 5 14 6 15 12 16 7 17 10 18 8 19 11 20 9 22 90 24 91 25
REMARK SMILES IDX 97 26 92 27 95 28 93 29 96 30 94 32 20 34 21 35 22 36 23 37
REMARK SMILES IDX 24 38 25 39 26 40 87 41 27 42 86 43 28 44 29 45 30 46 80 47
REMARK SMILES IDX 31 48 85 49 79 50 81 51 32 52 84 53 78 54 77 55 33 57 65 58
REMARK SMILES IDX 45 59 64 60 46 61 49 62 63 63 82 64 47 65 48 66 62 68 83 69
REMARK SMILES IDX 50 70 34 71 35 72 43 73 36 74 37 75 41 76 44 77 38 78 39 79
REMARK SMILES IDX 42 80 40 81 66 82 67 83 75 84 68 85 69 86 73 87 76 88 70 89
REMARK SMILES IDX 71 90 74 91 72 92 51 93 52 94 60 95 53 96 54 97 58 98 61 99
REMARK SMILES IDX 55 100 56 101 59 102 57 103
REMARK H PARENT 11 21 9 23 96 31 94 33 81 56 49 67
REMARK Flexibility Score: inf
ROOT
ATOM      1  O   UNL A   1      40.665  21.043  26.745  1.00  0.00    -0.374 OA
ENDROOT
BRANCH   1   2
ATOM      2  C   UNL A   1      39.526  21.106  25.896  1.00  0.00     0.202 C 
BRANCH   2   3
ATOM      3  C   UNL A   1      38.544  22.263  26.083  1.00  0.00     0.261 C 
BRANCH   3   4
ATOM      4  O   UNL A   1      37.198  21.843  25.803  1.00  0.00    -0.463 OA
BRANCH   4   5
ATOM      5  C   UNL A   1      36.284  22.855  25.731  1.00  0.00     0.317 C 
ATOM      6  O   UNL A   1      36.507  24.018  26.034  1.00  0.00    -0.251 OA
BRANCH   5   7
ATOM      7  C   UNL A   1      34.971  22.325  25.178  1.00  0.00     0.182 C 
ATOM      8  O   UNL A   1      32.939  22.426  28.084  1.00  0.00    -0.247 OA
ATOM      9  C   UNL A   1      33.615  22.130  27.113  1.00  0.00     0.335 C 
ATOM     10  O   UNL A   1      34.283  20.955  26.941  1.00  0.00    -0.453 OA
ATOM     11  C   UNL A   1      33.848  22.967  25.915  1.00  0.00     0.056 C 
ATOM     12  C   UNL A   1      34.836  20.879  25.613  1.00  0.00     0.226 C 
ATOM     13  C   UNL A   1      33.111  24.062  25.673  1.00  0.00     0.020 C 
BRANCH  12  14
ATOM     14  C   UNL A   1      33.974  20.010  24.701  1.00  0.00    -0.002 A 
ATOM     15  C   UNL A   1      32.937  20.581  23.932  1.00  0.00     0.012 A 
ATOM     16  C   UNL A   1      34.235  18.638  24.552  1.00  0.00     0.057 A 
ATOM     17  C   UNL A   1      32.167  19.797  23.061  1.00  0.00     0.050 A 
ATOM     18  C   UNL A   1      33.470  17.871  23.684  1.00  0.00     0.157 A 
ATOM     19  C   UNL A   1      32.441  18.441  22.944  1.00  0.00     0.157 A 
BRANCH  18  20
ATOM     20  O   UNL A   1      33.750  16.541  23.556  1.00  0.00    -0.504 OA
ATOM     21  H   UNL A   1      33.052  15.919  23.500  1.00  0.00     0.293 HD
ENDBRANCH  18  20
BRANCH  19  22
ATOM     22  O   UNL A   1      31.738  17.626  22.103  1.00  0.00    -0.504 OA
ATOM     23  H   UNL A   1      31.138  17.995  21.485  1.00  0.00     0.293 HD
ENDBRANCH  19  22
ENDBRANCH  12  14
BRANCH  13  24
ATOM     24  C   UNL A   1      33.224  24.942  24.505  1.00  0.00    -0.021 A 
ATOM     25  C   UNL A   1      33.622  26.281  24.648  1.00  0.00     0.012 A 
ATOM     26  C   UNL A   1      33.000  24.427  23.223  1.00  0.00     0.058 A 
ATOM     27  C   UNL A   1      33.774  27.108  23.527  1.00  0.00     0.051 A 
ATOM     28  C   UNL A   1      33.144  25.258  22.115  1.00  0.00     0.157 A 
ATOM     29  C   UNL A   1      33.521  26.590  22.263  1.00  0.00     0.157 A 
BRANCH  28  30
ATOM     30  O   UNL A   1      32.879  24.761  20.872  1.00  0.00    -0.504 OA
ATOM     31  H   UNL A   1      33.561  24.354  20.374  1.00  0.00     0.293 HD
ENDBRANCH  28  30
BRANCH  29  32
ATOM     32  O   UNL A   1      33.605  27.356  21.134  1.00  0.00    -0.504 OA
ATOM     33  H   UNL A   1      33.852  26.965  20.319  1.00  0.00     0.293 HD
ENDBRANCH  29  32
ENDBRANCH  13  24
ENDBRANCH   5   7
ENDBRANCH   4   5
ENDBRANCH   3   4
ENDBRANCH   2   3
ENDBRANCH   1   2
BRANCH   1  34
ATOM     34  C   UNL A   1      41.890  20.547  26.221  1.00  0.00     0.202 C 
BRANCH  34  35
ATOM     35  C   UNL A   1      42.944  21.542  25.718  1.00  0.00     0.261 C 
BRANCH  35  36
ATOM     36  O   UNL A   1      42.393  22.712  25.107  1.00  0.00    -0.460 OA
BRANCH  36  37
ATOM     37  C   UNL A   1      43.223  23.785  25.141  1.00  0.00     0.338 C 
ATOM     38  O   UNL A   1      44.215  23.988  24.467  1.00  0.00    -0.246 OA
BRANCH  37  39
ATOM     39  C   UNL A   1      42.644  24.798  26.033  1.00  0.00     0.060 A 
ATOM     40  C   UNL A   1      43.269  26.051  26.094  1.00  0.00     0.016 A 
ATOM     41  C   UNL A   1      41.536  24.506  26.827  1.00  0.00     0.016 A 
ATOM     42  C   UNL A   1      42.804  27.014  26.979  1.00  0.00     0.010 A 
ATOM     43  C   UNL A   1      41.079  25.467  27.727  1.00  0.00     0.010 A 
ATOM     44  C   UNL A   1      41.731  26.711  27.826  1.00  0.00    -0.014 A 
BRANCH  44  45
ATOM     45  C   UNL A   1      41.385  27.628  28.932  1.00  0.00     0.031 A 
ATOM     46  C   UNL A   1      42.187  27.558  30.198  1.00  0.00     0.074 A 
ATOM     47  C   UNL A   1      40.369  28.498  28.806  1.00  0.00     0.049 A 
ATOM     48  N   UNL A   1      42.000  28.172  31.336  1.00  0.00    -0.248 NA
ATOM     49  C   UNL A   1      43.358  26.664  30.179  1.00  0.00     0.031 C 
ATOM     50  C   UNL A   1      39.560  28.681  27.603  1.00  0.00     0.029 A 
ATOM     51  N   UNL A   1      39.836  29.378  29.712  1.00  0.00    -0.354 N 
ATOM     52  C   UNL A   1      43.016  27.728  32.172  1.00  0.00     0.074 A 
ATOM     53  C   UNL A   1      43.800  26.772  31.422  1.00  0.00     0.031 C 
ATOM     54  C   UNL A   1      38.615  29.604  27.853  1.00  0.00     0.029 A 
ATOM     55  C   UNL A   1      38.730  30.040  29.243  1.00  0.00     0.049 A 
ATOM     56  H   UNL A   1      40.211  29.521  30.611  1.00  0.00     0.167 HD
ATOM     57  C   UNL A   1      43.270  28.095  33.449  1.00  0.00     0.037 A 
ATOM     58  C   UNL A   1      37.886  30.873  29.882  1.00  0.00     0.037 A 
ATOM     59  C   UNL A   1      42.481  29.051  34.179  1.00  0.00     0.049 A 
ATOM     60  C   UNL A   1      38.142  31.204  31.330  1.00  0.00     0.074 A 
ATOM     61  C   UNL A   1      42.661  29.512  35.471  1.00  0.00     0.029 A 
ATOM     62  N   UNL A   1      41.353  29.688  33.680  1.00  0.00    -0.354 N 
ATOM     63  N   UNL A   1      39.113  30.797  32.113  1.00  0.00    -0.248 NA
ATOM     64  C   UNL A   1      37.185  32.106  31.985  1.00  0.00     0.031 C 
ATOM     65  C   UNL A   1      41.607  30.378  35.775  1.00  0.00     0.029 A 
ATOM     66  C   UNL A   1      40.809  30.513  34.649  1.00  0.00     0.049 A 
ATOM     67  H   UNL A   1      40.994  29.571  32.771  1.00  0.00     0.167 HD
ATOM     68  C   UNL A   1      38.906  31.422  33.336  1.00  0.00     0.074 A 
ATOM     69  C   UNL A   1      37.719  32.238  33.191  1.00  0.00     0.031 C 
ATOM     70  C   UNL A   1      39.635  31.332  34.476  1.00  0.00     0.037 A 
BRANCH  57  71
ATOM     71  C   UNL A   1      44.422  27.436  34.150  1.00  0.00     0.064 A 
ATOM     72  C   UNL A   1      45.708  27.996  34.153  1.00  0.00     0.173 A 
ATOM     73  C   UNL A   1      44.228  26.239  34.856  1.00  0.00     0.173 A 
ATOM     74  F   UNL A   1      45.952  29.131  33.479  1.00  0.00    -0.203 F 
ATOM     75  C   UNL A   1      46.761  27.370  34.815  1.00  0.00     0.198 A 
ATOM     76  C   UNL A   1      45.275  25.633  35.544  1.00  0.00     0.198 A 
ATOM     77  F   UNL A   1      43.018  25.660  34.886  1.00  0.00    -0.203 F 
ATOM     78  F   UNL A   1      47.992  27.897  34.761  1.00  0.00    -0.200 F 
ATOM     79  C   UNL A   1      46.542  26.195  35.518  1.00  0.00     0.200 A 
ATOM     80  F   UNL A   1      45.058  24.504  36.234  1.00  0.00    -0.200 F 
ATOM     81  F   UNL A   1      47.555  25.597  36.161  1.00  0.00    -0.200 F 
ENDBRANCH  57  71
BRANCH  58  82
ATOM     82  C   UNL A   1      36.712  31.437  29.165  1.00  0.00     0.064 A 
ATOM     83  C   UNL A   1      36.667  32.789  28.802  1.00  0.00     0.173 A 
ATOM     84  C   UNL A   1      35.607  30.637  28.836  1.00  0.00     0.173 A 
ATOM     85  F   UNL A   1      37.689  33.600  29.112  1.00  0.00    -0.203 F 
ATOM     86  C   UNL A   1      35.554  33.326  28.157  1.00  0.00     0.198 A 
ATOM     87  C   UNL A   1      34.508  31.167  28.164  1.00  0.00     0.198 A 
ATOM     88  F   UNL A   1      35.600  29.335  29.158  1.00  0.00    -0.203 F 
ATOM     89  F   UNL A   1      35.516  34.633  27.866  1.00  0.00    -0.200 F 
ATOM     90  C   UNL A   1      34.478  32.512  27.833  1.00  0.00     0.200 A 
ATOM     91  F   UNL A   1      33.478  30.373  27.839  1.00  0.00    -0.200 F 
ATOM     92  F   UNL A   1      33.409  33.028  27.211  1.00  0.00    -0.200 F 
ENDBRANCH  58  82
BRANCH  70  93
ATOM     93  C   UNL A   1      39.208  32.173  35.645  1.00  0.00     0.064 A 
ATOM     94  C   UNL A   1      38.375  31.670  36.655  1.00  0.00     0.173 A 
ATOM     95  C   UNL A   1      39.701  33.480  35.790  1.00  0.00     0.173 A 
ATOM     96  F   UNL A   1      37.866  30.433  36.556  1.00  0.00    -0.203 F 
ATOM     97  C   UNL A   1      38.040  32.450  37.760  1.00  0.00     0.198 A 
ATOM     98  C   UNL A   1      39.392  34.244  36.911  1.00  0.00     0.198 A 
ATOM     99  F   UNL A   1      40.509  34.005  34.856  1.00  0.00    -0.203 F 
ATOM    100  F   UNL A   1      37.212  31.963  38.694  1.00  0.00    -0.200 F 
ATOM    101  C   UNL A   1      38.558  33.730  37.892  1.00  0.00     0.200 A 
ATOM    102  F   UNL A   1      39.909  35.472  37.046  1.00  0.00    -0.200 F 
ATOM    103  F   UNL A   1      38.250  34.471  38.965  1.00  0.00    -0.200 F 
ENDBRANCH  70  93
ENDBRANCH  44  45
ENDBRANCH  37  39
ENDBRANCH  36  37
ENDBRANCH  35  36
ENDBRANCH  34  35
ENDBRANCH   1  34
TORSDOF 20
ENDMDL
MODEL 2
REMARK VINA RESULT:     -13.1      5.085     10.478
REMARK SMILES O=C1O[C@@H](c2ccc(O)c(O)c2)[C@H](C(=O)OCCOCCOC(=O)c2ccc(-c3c4nc(c(-c5c(F)c(F)c(F)c(F)c5F)c5ccc([nH]5)c(-c5c(F)c(F)c(F)c(F)c5F)c5nc(c(-c6c(F)c(F)c(F)c(F)c6F)c6ccc3[nH]6)C=C5)C=C4)cc2)/C1=C\c1ccc(O)c(O)c1
REMARK SMILES IDX 19 1 18 2 17 3 16 4 14 5 15 6 13 7 1 8 2 9 3 10 88 11 4 12
REMARK SMILES IDX 89 13 5 14 6 15 12 16 7 17 10 18 8 19 11 20 9 22 90 24 91 25
REMARK SMILES IDX 97 26 92 27 95 28 93 29 96 30 94 32 20 34 21 35 22 36 23 37
REMARK SMILES IDX 24 38 25 39 26 40 87 41 27 42 86 43 28 44 29 45 30 46 80 47
REMARK SMILES IDX 31 48 85 49 79 50 81 51 32 52 84 53 78 54 77 55 33 57 65 58
REMARK SMILES IDX 45 59 64 60 46 61 49 62 63 63 82 64 47 65 48 66 62 68 83 69
REMARK SMILES IDX 50 70 34 71 35 72 43 73 36 74 37 75 41 76 44 77 38 78 39 79
REMARK SMILES IDX 42 80 40 81 66 82 67 83 75 84 68 85 69 86 73 87 76 88 70 89
REMARK SMILES IDX 71 90 74 91 72 92 51 93 52 94 60 95 53 96 54 97 58 98 61 99
REMARK SMILES IDX 55 100 56 101 59 102 57 103
REMARK H PARENT 11 21 9 23 96 31 94 33 81 56 49 67
REMARK Flexibility Score: inf
ROOT
ATOM      1  O   UNL A   1      34.450  32.894  28.109  1.00  0.00    -0.374 OA
ENDROOT
BRANCH   1   2
ATOM      2  C   UNL A   1      33.510  31.933  27.644  1.00  0.00     0.202 C 
BRANCH   2   3
ATOM      3  C   UNL A   1      34.023  30.546  27.255  1.00  0.00     0.261 C 
BRANCH   3   4
ATOM      4  O   UNL A   1      33.239  29.991  26.185  1.00  0.00    -0.463 OA
BRANCH   4   5
ATOM      5  C   UNL A   1      33.507  28.685  25.895  1.00  0.00     0.317 C 
ATOM      6  O   UNL A   1      34.487  28.070  26.290  1.00  0.00    -0.251 OA
BRANCH   5   7
ATOM      7  C   UNL A   1      32.387  28.104  25.048  1.00  0.00     0.182 C 
ATOM      8  O   UNL A   1      34.001  27.842  21.900  1.00  0.00    -0.247 OA
ATOM      9  C   UNL A   1      33.305  28.119  22.861  1.00  0.00     0.335 C 
ATOM     10  O   UNL A   1      32.675  29.310  23.067  1.00  0.00    -0.453 OA
ATOM     11  C   UNL A   1      32.982  27.230  24.000  1.00  0.00     0.056 C 
ATOM     12  C   UNL A   1      31.807  29.230  24.214  1.00  0.00     0.226 C 
ATOM     13  C   UNL A   1      33.235  25.914  23.952  1.00  0.00     0.020 C 
BRANCH  12  14
ATOM     14  C   UNL A   1      30.351  29.038  23.797  1.00  0.00    -0.002 A 
ATOM     15  C   UNL A   1      29.758  27.758  23.821  1.00  0.00     0.012 A 
ATOM     16  C   UNL A   1      29.549  30.137  23.445  1.00  0.00     0.057 A 
ATOM     17  C   UNL A   1      28.410  27.579  23.479  1.00  0.00     0.050 A 
ATOM     18  C   UNL A   1      28.215  29.950  23.112  1.00  0.00     0.157 A 
ATOM     19  C   UNL A   1      27.645  28.682  23.125  1.00  0.00     0.157 A 
BRANCH  18  20
ATOM     20  O   UNL A   1      27.458  31.037  22.780  1.00  0.00    -0.504 OA
ATOM     21  H   UNL A   1      27.790  31.900  22.925  1.00  0.00     0.293 HD
ENDBRANCH  18  20
BRANCH  19  22
ATOM     22  O   UNL A   1      26.324  28.577  22.794  1.00  0.00    -0.504 OA
ATOM     23  H   UNL A   1      26.072  28.158  21.995  1.00  0.00     0.293 HD
ENDBRANCH  19  22
ENDBRANCH  12  14
BRANCH  13  24
ATOM     24  C   UNL A   1      32.925  24.933  24.998  1.00  0.00    -0.021 A 
ATOM     25  C   UNL A   1      33.942  24.383  25.794  1.00  0.00     0.012 A 
ATOM     26  C   UNL A   1      31.592  24.588  25.254  1.00  0.00     0.058 A 
ATOM     27  C   UNL A   1      33.639  23.481  26.823  1.00  0.00     0.051 A 
ATOM     28  C   UNL A   1      31.301  23.684  26.272  1.00  0.00     0.157 A 
ATOM     29  C   UNL A   1      32.315  23.128  27.047  1.00  0.00     0.157 A 
BRANCH  28  30
ATOM     30  O   UNL A   1      30.004  23.318  26.486  1.00  0.00    -0.504 OA
ATOM     31  H   UNL A   1      29.810  22.556  26.996  1.00  0.00     0.293 HD
ENDBRANCH  28  30
BRANCH  29  32
ATOM     32  O   UNL A   1      31.958  22.219  28.003  1.00  0.00    -0.504 OA
ATOM     33  H   UNL A   1      31.720  21.347  27.756  1.00  0.00     0.293 HD
ENDBRANCH  29  32
ENDBRANCH  13  24
ENDBRANCH   5   7
ENDBRANCH   4   5
ENDBRANCH   3   4
ENDBRANCH   2   3
ENDBRANCH   1   2
BRANCH   1  34
ATOM     34  C   UNL A   1      34.034  33.860  29.065  1.00  0.00     0.202 C 
BRANCH  34  35
ATOM     35  C   UNL A   1      34.450  33.687  30.532  1.00  0.00     0.261 C 
BRANCH  35  36
ATOM     36  O   UNL A   1      34.492  32.325  30.966  1.00  0.00    -0.460 OA
BRANCH  36  37
ATOM     37  C   UNL A   1      35.419  32.090  31.929  1.00  0.00     0.338 C 
ATOM     38  O   UNL A   1      35.343  32.334  33.119  1.00  0.00    -0.246 OA
BRANCH  37  39
ATOM     39  C   UNL A   1      36.520  31.315  31.342  1.00  0.00     0.060 A 
ATOM     40  C   UNL A   1      37.493  30.801  32.210  1.00  0.00     0.016 A 
ATOM     41  C   UNL A   1      36.616  31.137  29.963  1.00  0.00     0.016 A 
ATOM     42  C   UNL A   1      38.593  30.127  31.694  1.00  0.00     0.010 A 
ATOM     43  C   UNL A   1      37.728  30.475  29.445  1.00  0.00     0.010 A 
ATOM     44  C   UNL A   1      38.733  29.996  30.307  1.00  0.00    -0.014 A 
BRANCH  44  45
ATOM     45  C   UNL A   1      40.005  29.502  29.740  1.00  0.00     0.031 A 
ATOM     46  C   UNL A   1      41.152  30.461  29.614  1.00  0.00     0.074 A 
ATOM     47  C   UNL A   1      40.125  28.226  29.340  1.00  0.00     0.049 A 
ATOM     48  N   UNL A   1      42.316  30.294  29.044  1.00  0.00    -0.248 NA
ATOM     49  C   UNL A   1      40.954  31.796  30.203  1.00  0.00     0.031 C 
ATOM     50  C   UNL A   1      39.090  27.201  29.465  1.00  0.00     0.029 A 
ATOM     51  N   UNL A   1      41.171  27.581  28.731  1.00  0.00    -0.354 N 
ATOM     52  C   UNL A   1      42.982  31.504  29.192  1.00  0.00     0.074 A 
ATOM     53  C   UNL A   1      42.083  32.406  29.878  1.00  0.00     0.031 C 
ATOM     54  C   UNL A   1      39.545  26.057  28.927  1.00  0.00     0.029 A 
ATOM     55  C   UNL A   1      40.883  26.285  28.383  1.00  0.00     0.049 A 
ATOM     56  H   UNL A   1      42.041  28.006  28.560  1.00  0.00     0.167 HD
ATOM     57  C   UNL A   1      44.234  31.824  28.794  1.00  0.00     0.037 A 
ATOM     58  C   UNL A   1      41.609  25.400  27.673  1.00  0.00     0.037 A 
ATOM     59  C   UNL A   1      45.117  30.913  28.116  1.00  0.00     0.049 A 
ATOM     60  C   UNL A   1      42.969  25.807  27.168  1.00  0.00     0.074 A 
ATOM     61  C   UNL A   1      46.414  31.126  27.686  1.00  0.00     0.029 A 
ATOM     62  N   UNL A   1      44.786  29.612  27.761  1.00  0.00    -0.354 N 
ATOM     63  N   UNL A   1      43.604  26.945  27.325  1.00  0.00    -0.248 NA
ATOM     64  C   UNL A   1      43.714  24.810  26.387  1.00  0.00     0.031 C 
ATOM     65  C   UNL A   1      46.845  29.978  27.016  1.00  0.00     0.029 A 
ATOM     66  C   UNL A   1      45.843  29.023  27.089  1.00  0.00     0.049 A 
ATOM     67  H   UNL A   1      43.927  29.174  27.959  1.00  0.00     0.167 HD
ATOM     68  C   UNL A   1      44.832  26.788  26.697  1.00  0.00     0.074 A 
ATOM     69  C   UNL A   1      44.857  25.444  26.160  1.00  0.00     0.031 C 
ATOM     70  C   UNL A   1      45.851  27.675  26.578  1.00  0.00     0.037 A 
BRANCH  57  71
ATOM     71  C   UNL A   1      44.711  33.225  29.047  1.00  0.00     0.064 A 
ATOM     72  C   UNL A   1      44.533  34.251  28.107  1.00  0.00     0.173 A 
ATOM     73  C   UNL A   1      45.327  33.553  30.265  1.00  0.00     0.173 A 
ATOM     74  F   UNL A   1      43.965  33.988  26.920  1.00  0.00    -0.203 F 
ATOM     75  C   UNL A   1      44.977  35.545  28.365  1.00  0.00     0.198 A 
ATOM     76  C   UNL A   1      45.739  34.855  30.533  1.00  0.00     0.198 A 
ATOM     77  F   UNL A   1      45.521  32.611  31.200  1.00  0.00    -0.203 F 
ATOM     78  F   UNL A   1      44.843  36.497  27.431  1.00  0.00    -0.200 F 
ATOM     79  C   UNL A   1      45.571  35.848  29.581  1.00  0.00     0.200 A 
ATOM     80  F   UNL A   1      46.301  35.148  31.714  1.00  0.00    -0.200 F 
ATOM     81  F   UNL A   1      45.990  37.096  29.832  1.00  0.00    -0.200 F 
ENDBRANCH  57  71
BRANCH  58  82
ATOM     82  C   UNL A   1      41.057  24.051  27.380  1.00  0.00     0.064 A 
ATOM     83  C   UNL A   1      41.596  22.903  27.977  1.00  0.00     0.173 A 
ATOM     84  C   UNL A   1      39.985  23.880  26.490  1.00  0.00     0.173 A 
ATOM     85  F   UNL A   1      42.635  23.012  28.819  1.00  0.00    -0.203 F 
ATOM     86  C   UNL A   1      41.100  21.635  27.679  1.00  0.00     0.198 A 
ATOM     87  C   UNL A   1      39.470  22.615  26.217  1.00  0.00     0.198 A 
ATOM     88  F   UNL A   1      39.430  24.945  25.894  1.00  0.00    -0.203 F 
ATOM     89  F   UNL A   1      41.667  20.551  28.226  1.00  0.00    -0.200 F 
ATOM     90  C   UNL A   1      40.033  21.493  26.804  1.00  0.00     0.200 A 
ATOM     91  F   UNL A   1      38.429  22.484  25.384  1.00  0.00    -0.200 F 
ATOM     92  F   UNL A   1      39.554  20.274  26.520  1.00  0.00    -0.200 F 
ENDBRANCH  58  82
BRANCH  70  93
ATOM     93  C   UNL A   1      47.102  27.211  25.889  1.00  0.00     0.064 A 
ATOM     94  C   UNL A   1      47.333  27.458  24.528  1.00  0.00     0.173 A 
ATOM     95  C   UNL A   1      48.116  26.574  26.622  1.00  0.00     0.173 A 
ATOM     96  F   UNL A   1      46.391  28.050  23.780  1.00  0.00    -0.203 F 
ATOM     97  C   UNL A   1      48.527  27.070  23.924  1.00  0.00     0.198 A 
ATOM     98  C   UNL A   1      49.321  26.219  26.023  1.00  0.00     0.198 A 
ATOM     99  F   UNL A   1      47.949  26.323  27.930  1.00  0.00    -0.203 F 
ATOM    100  F   UNL A   1      48.711  27.281  22.613  1.00  0.00    -0.200 F 
ATOM    101  C   UNL A   1      49.523  26.462  24.674  1.00  0.00     0.200 A 
ATOM    102  F   UNL A   1      50.289  25.650  26.754  1.00  0.00    -0.200 F 
ATOM    103  F   UNL A   1      50.678  26.109  24.094  1.00  0.00    -0.200 F 
ENDBRANCH  70  93
ENDBRANCH  44  45
ENDBRANCH  37  39
ENDBRANCH  36  37
ENDBRANCH  35  36
ENDBRANCH  34  35
ENDBRANCH   1  34
TORSDOF 20
ENDMDL
MODEL 3
REMARK VINA RESULT:     -13.0      2.560      7.675
REMARK SMILES O=C1O[C@@H](c2ccc(O)c(O)c2)[C@H](C(=O)OCCOCCOC(=O)c2ccc(-c3c4nc(c(-c5c(F)c(F)c(F)c(F)c5F)c5ccc([nH]5)c(-c5c(F)c(F)c(F)c(F)c5F)c5nc(c(-c6c(F)c(F)c(F)c(F)c6F)c6ccc3[nH]6)C=C5)C=C4)cc2)/C1=C\c1ccc(O)c(O)c1
REMARK SMILES IDX 19 1 18 2 17 3 16 4 14 5 15 6 13 7 1 8 2 9 3 10 88 11 4 12
REMARK SMILES IDX 89 13 5 14 6 15 12 16 7 17 10 18 8 19 11 20 9 22 90 24 91 25
REMARK SMILES IDX 97 26 92 27 95 28 93 29 96 30 94 32 20 34 21 35 22 36 23 37
REMARK SMILES IDX 24 38 25 39 26 40 87 41 27 42 86 43 28 44 29 45 30 46 80 47
REMARK SMILES IDX 31 48 85 49 79 50 81 51 32 52 84 53 78 54 77 55 33 57 65 58
REMARK SMILES IDX 45 59 64 60 46 61 49 62 63 63 82 64 47 65 48 66 62 68 83 69
REMARK SMILES IDX 50 70 34 71 35 72 43 73 36 74 37 75 41 76 44 77 38 78 39 79
REMARK SMILES IDX 42 80 40 81 66 82 67 83 75 84 68 85 69 86 73 87 76 88 70 89
REMARK SMILES IDX 71 90 74 91 72 92 51 93 52 94 60 95 53 96 54 97 58 98 61 99
REMARK SMILES IDX 55 100 56 101 59 102 57 103
REMARK H PARENT 11 21 9 23 96 31 94 33 81 56 49 67
REMARK Flexibility Score: inf
ROOT
ATOM      1  O   UNL A   1      31.514  27.110  26.886  1.00  0.00    -0.374 OA
ENDROOT
BRANCH   1   2
ATOM      2  C   UNL A   1      30.813  25.953  26.447  1.00  0.00     0.202 C 
BRANCH   2   3
ATOM      3  C   UNL A   1      31.362  25.184  25.245  1.00  0.00     0.261 C 
BRANCH   3   4
ATOM      4  O   UNL A   1      31.934  23.931  25.658  1.00  0.00    -0.463 OA
BRANCH   4   5
ATOM      5  C   UNL A   1      33.297  23.878  25.604  1.00  0.00     0.317 C 
ATOM      6  O   UNL A   1      34.047  24.746  26.026  1.00  0.00    -0.251 OA
BRANCH   5   7
ATOM      7  C   UNL A   1      33.737  22.562  24.982  1.00  0.00     0.182 C 
ATOM      8  O   UNL A   1      33.834  23.449  21.549  1.00  0.00    -0.247 OA
ATOM      9  C   UNL A   1      33.597  22.995  22.655  1.00  0.00     0.335 C 
ATOM     10  O   UNL A   1      32.391  22.516  23.074  1.00  0.00    -0.453 OA
ATOM     11  C   UNL A   1      34.556  22.854  23.774  1.00  0.00     0.056 C 
ATOM     12  C   UNL A   1      32.514  21.907  24.373  1.00  0.00     0.226 C 
ATOM     13  C   UNL A   1      35.877  22.990  23.582  1.00  0.00     0.020 C 
BRANCH  12  14
ATOM     14  C   UNL A   1      32.583  20.385  24.269  1.00  0.00    -0.002 A 
ATOM     15  C   UNL A   1      32.939  19.603  25.388  1.00  0.00     0.012 A 
ATOM     16  C   UNL A   1      32.228  19.725  23.081  1.00  0.00     0.057 A 
ATOM     17  C   UNL A   1      32.965  18.203  25.313  1.00  0.00     0.050 A 
ATOM     18  C   UNL A   1      32.253  18.339  23.018  1.00  0.00     0.157 A 
ATOM     19  C   UNL A   1      32.620  17.579  24.122  1.00  0.00     0.157 A 
BRANCH  18  20
ATOM     20  O   UNL A   1      31.898  17.724  21.851  1.00  0.00    -0.504 OA
ATOM     21  H   UNL A   1      31.680  16.813  21.850  1.00  0.00     0.293 HD
ENDBRANCH  18  20
BRANCH  19  22
ATOM     22  O   UNL A   1      32.613  16.219  23.987  1.00  0.00    -0.504 OA
ATOM     23  H   UNL A   1      32.302  15.681  24.688  1.00  0.00     0.293 HD
ENDBRANCH  19  22
ENDBRANCH  12  14
BRANCH  13  24
ATOM     24  C   UNL A   1      36.920  22.833  24.601  1.00  0.00    -0.021 A 
ATOM     25  C   UNL A   1      37.572  21.603  24.782  1.00  0.00     0.012 A 
ATOM     26  C   UNL A   1      37.323  23.939  25.360  1.00  0.00     0.058 A 
ATOM     27  C   UNL A   1      38.601  21.467  25.723  1.00  0.00     0.051 A 
ATOM     28  C   UNL A   1      38.339  23.793  26.299  1.00  0.00     0.157 A 
ATOM     29  C   UNL A   1      38.970  22.567  26.488  1.00  0.00     0.157 A 
BRANCH  28  30
ATOM     30  O   UNL A   1      38.694  24.865  27.067  1.00  0.00    -0.504 OA
ATOM     31  H   UNL A   1      38.428  25.729  26.818  1.00  0.00     0.293 HD
ENDBRANCH  28  30
BRANCH  29  32
ATOM     32  O   UNL A   1      39.932  22.489  27.455  1.00  0.00    -0.504 OA
ATOM     33  H   UNL A   1      39.847  21.870  28.153  1.00  0.00     0.293 HD
ENDBRANCH  29  32
ENDBRANCH  13  24
ENDBRANCH   5   7
ENDBRANCH   4   5
ENDBRANCH   3   4
ENDBRANCH   2   3
ENDBRANCH   1   2
BRANCH   1  34
ATOM     34  C   UNL A   1      31.730  28.176  25.971  1.00  0.00     0.202 C 
BRANCH  34  35
ATOM     35  C   UNL A   1      31.905  29.601  26.513  1.00  0.00     0.261 C 
BRANCH  35  36
ATOM     36  O   UNL A   1      33.199  30.160  26.271  1.00  0.00    -0.460 OA
BRANCH  36  37
ATOM     37  C   UNL A   1      33.513  31.184  27.104  1.00  0.00     0.338 C 
ATOM     38  O   UNL A   1      32.797  32.094  27.477  1.00  0.00    -0.246 OA
BRANCH  37  39
ATOM     39  C   UNL A   1      34.856  30.948  27.652  1.00  0.00     0.060 A 
ATOM     40  C   UNL A   1      35.207  29.632  27.979  1.00  0.00     0.016 A 
ATOM     41  C   UNL A   1      35.733  32.008  27.881  1.00  0.00     0.016 A 
ATOM     42  C   UNL A   1      36.436  29.371  28.570  1.00  0.00     0.010 A 
ATOM     43  C   UNL A   1      36.960  31.747  28.489  1.00  0.00     0.010 A 
ATOM     44  C   UNL A   1      37.300  30.433  28.863  1.00  0.00    -0.014 A 
BRANCH  44  45
ATOM     45  C   UNL A   1      38.492  30.201  29.704  1.00  0.00     0.031 A 
ATOM     46  C   UNL A   1      39.585  29.322  29.170  1.00  0.00     0.074 A 
ATOM     47  C   UNL A   1      38.588  30.759  30.922  1.00  0.00     0.049 A 
ATOM     48  N   UNL A   1      40.662  28.881  29.765  1.00  0.00    -0.248 NA
ATOM     49  C   UNL A   1      39.437  28.872  27.776  1.00  0.00     0.031 C 
ATOM     50  C   UNL A   1      37.608  31.667  31.514  1.00  0.00     0.029 A 
ATOM     51  N   UNL A   1      39.554  30.625  31.886  1.00  0.00    -0.354 N 
ATOM     52  C   UNL A   1      41.310  28.090  28.825  1.00  0.00     0.074 A 
ATOM     53  C   UNL A   1      40.493  28.087  27.632  1.00  0.00     0.031 C 
ATOM     54  C   UNL A   1      38.013  31.994  32.753  1.00  0.00     0.029 A 
ATOM     55  C   UNL A   1      39.254  31.283  33.053  1.00  0.00     0.049 A 
ATOM     56  H   UNL A   1      40.381  30.108  31.755  1.00  0.00     0.167 HD
ATOM     57  C   UNL A   1      42.486  27.433  28.952  1.00  0.00     0.037 A 
ATOM     58  C   UNL A   1      39.896  31.278  34.237  1.00  0.00     0.037 A 
ATOM     59  C   UNL A   1      43.287  27.449  30.146  1.00  0.00     0.049 A 
ATOM     60  C   UNL A   1      41.161  30.471  34.380  1.00  0.00     0.074 A 
ATOM     61  C   UNL A   1      44.506  26.835  30.376  1.00  0.00     0.029 A 
ATOM     62  N   UNL A   1      42.943  28.110  31.317  1.00  0.00    -0.354 N 
ATOM     63  N   UNL A   1      41.782  29.739  33.485  1.00  0.00    -0.248 NA
ATOM     64  C   UNL A   1      41.815  30.487  35.696  1.00  0.00     0.031 C 
ATOM     65  C   UNL A   1      44.867  27.072  31.705  1.00  0.00     0.029 A 
ATOM     66  C   UNL A   1      43.911  27.892  32.283  1.00  0.00     0.049 A 
ATOM     67  H   UNL A   1      42.133  28.654  31.442  1.00  0.00     0.167 HD
ATOM     68  C   UNL A   1      42.914  29.240  34.116  1.00  0.00     0.074 A 
ATOM     69  C   UNL A   1      42.897  29.755  35.469  1.00  0.00     0.031 C 
ATOM     70  C   UNL A   1      43.882  28.431  33.620  1.00  0.00     0.037 A 
BRANCH  57  71
ATOM     71  C   UNL A   1      42.956  26.612  27.786  1.00  0.00     0.064 A 
ATOM     72  C   UNL A   1      42.596  25.265  27.633  1.00  0.00     0.173 A 
ATOM     73  C   UNL A   1      43.756  27.193  26.790  1.00  0.00     0.173 A 
ATOM     74  F   UNL A   1      41.846  24.657  28.565  1.00  0.00    -0.203 F 
ATOM     75  C   UNL A   1      43.038  24.525  26.540  1.00  0.00     0.198 A 
ATOM     76  C   UNL A   1      44.168  26.459  25.682  1.00  0.00     0.198 A 
ATOM     77  F   UNL A   1      44.129  28.478  26.886  1.00  0.00    -0.203 F 
ATOM     78  F   UNL A   1      42.724  23.225  26.441  1.00  0.00    -0.200 F 
ATOM     79  C   UNL A   1      43.816  25.124  25.561  1.00  0.00     0.200 A 
ATOM     80  F   UNL A   1      44.909  27.044  24.730  1.00  0.00    -0.200 F 
ATOM     81  F   UNL A   1      44.235  24.412  24.505  1.00  0.00    -0.200 F 
ENDBRANCH  57  71
BRANCH  58  82
ATOM     82  C   UNL A   1      39.343  32.043  35.385  1.00  0.00     0.064 A 
ATOM     83  C   UNL A   1      39.647  33.399  35.564  1.00  0.00     0.173 A 
ATOM     84  C   UNL A   1      38.509  31.432  36.334  1.00  0.00     0.173 A 
ATOM     85  F   UNL A   1      40.458  34.024  34.696  1.00  0.00    -0.203 F 
ATOM     86  C   UNL A   1      39.156  34.111  36.657  1.00  0.00     0.198 A 
ATOM     87  C   UNL A   1      37.992  32.152  37.409  1.00  0.00     0.198 A 
ATOM     88  F   UNL A   1      38.184  30.137  36.209  1.00  0.00    -0.203 F 
ATOM     89  F   UNL A   1      39.502  35.393  36.830  1.00  0.00    -0.200 F 
ATOM     90  C   UNL A   1      38.323  33.487  37.575  1.00  0.00     0.200 A 
ATOM     91  F   UNL A   1      37.176  31.549  38.284  1.00  0.00    -0.200 F 
ATOM     92  F   UNL A   1      37.848  34.172  38.625  1.00  0.00    -0.200 F 
ENDBRANCH  58  82
BRANCH  70  93
ATOM     93  C   UNL A   1      45.036  28.092  34.520  1.00  0.00     0.064 A 
ATOM     94  C   UNL A   1      46.162  28.920  34.624  1.00  0.00     0.173 A 
ATOM     95  C   UNL A   1      44.976  26.958  35.346  1.00  0.00     0.173 A 
ATOM     96  F   UNL A   1      46.275  30.008  33.848  1.00  0.00    -0.203 F 
ATOM     97  C   UNL A   1      47.194  28.617  35.511  1.00  0.00     0.198 A 
ATOM     98  C   UNL A   1      45.991  26.676  36.254  1.00  0.00     0.198 A 
ATOM     99  F   UNL A   1      43.915  26.138  35.292  1.00  0.00    -0.203 F 
ATOM    100  F   UNL A   1      48.279  29.401  35.566  1.00  0.00    -0.200 F 
ATOM    101  C   UNL A   1      47.102  27.502  36.331  1.00  0.00     0.200 A 
ATOM    102  F   UNL A   1      45.891  25.610  37.059  1.00  0.00    -0.200 F 
ATOM    103  F   UNL A   1      48.086  27.224  37.197  1.00  0.00    -0.200 F 
ENDBRANCH  70  93
ENDBRANCH  44  45
ENDBRANCH  37  39
ENDBRANCH  36  37
ENDBRANCH  35  36
ENDBRANCH  34  35
ENDBRANCH   1  34
TORSDOF 20
ENDMDL
