MODEL 1
REMARK VINA RESULT:     -12.8      0.000      0.000
REMARK SMILES Cc1ccc(F)c(C(=O)N[C@@H]2C=C[C@@H](C(=O)OCCOCCOC(=O)c3ccc(-c4c5nc(c(-c6c(F)c(F)c(F)c(F)c6F)c6ccc([nH]6)c(-c6c(F)c(F)c(F)c(F)c6F)c6nc(c(-c7c(F)c(F)c(F)c(F)c7F)c7ccc4[nH]7)C=C6)C=C5)cc3)C2)c1
REMARK SMILES IDX 20 1 19 2 18 3 17 4 15 5 16 6 14 7 11 8 12 9 89 10 13 11
REMARK SMILES IDX 10 12 8 13 9 14 7 16 1 17 2 18 3 19 90 20 4 21 5 22 6 23
REMARK SMILES IDX 21 24 22 25 23 26 24 27 25 28 26 29 27 30 88 31 28 32 87 33
REMARK SMILES IDX 29 34 30 35 31 36 81 37 32 38 86 39 80 40 82 41 33 42 85 43
REMARK SMILES IDX 79 44 78 45 34 47 66 48 46 49 65 50 47 51 50 52 64 53 83 54
REMARK SMILES IDX 48 55 49 56 63 58 84 59 51 60 35 61 36 62 44 63 37 64 38 65
REMARK SMILES IDX 42 66 45 67 39 68 40 69 43 70 41 71 67 72 68 73 76 74 69 75
REMARK SMILES IDX 70 76 74 77 77 78 71 79 72 80 75 81 73 82 52 83 53 84 61 85
REMARK SMILES IDX 54 86 55 87 59 88 62 89 56 90 57 91 60 92 58 93
REMARK H PARENT 10 15 82 46 50 57
REMARK Flexibility Score: inf
ROOT
ATOM      1  O   UNL A   1      39.746  21.181  26.673  1.00  0.00    -0.374 OA
ENDROOT
BRANCH   1   2
ATOM      2  C   UNL A   1      38.852  21.973  25.897  1.00  0.00     0.202 C 
BRANCH   2   3
ATOM      3  C   UNL A   1      37.444  21.426  25.626  1.00  0.00     0.261 C 
BRANCH   3   4
ATOM      4  O   UNL A   1      37.115  21.399  24.226  1.00  0.00    -0.463 OA
BRANCH   4   5
ATOM      5  C   UNL A   1      36.519  22.519  23.736  1.00  0.00     0.312 C 
ATOM      6  O   UNL A   1      36.934  23.155  22.771  1.00  0.00    -0.252 OA
BRANCH   5   7
ATOM      7  C   UNL A   1      35.228  22.896  24.466  1.00  0.00     0.124 C 
ATOM      8  C   UNL A   1      34.031  24.946  25.166  1.00  0.00     0.106 C 
ATOM      9  C   UNL A   1      33.594  24.461  23.820  1.00  0.00    -0.006 C 
ATOM     10  C   UNL A   1      35.261  24.073  25.454  1.00  0.00     0.048 C 
ATOM     11  C   UNL A   1      34.217  23.337  23.454  1.00  0.00    -0.014 C 
BRANCH   8  12
ATOM     12  N   UNL A   1      32.893  24.788  26.050  1.00  0.00    -0.346 N 
ATOM     13  C   UNL A   1      31.743  25.505  26.260  1.00  0.00     0.254 C 
ATOM     14  O   UNL A   1      30.855  24.970  26.922  1.00  0.00    -0.269 OA
ATOM     15  H   UNL A   1      32.959  23.992  26.624  1.00  0.00     0.164 HD
BRANCH  13  16
ATOM     16  C   UNL A   1      31.544  26.885  25.770  1.00  0.00     0.075 A 
ATOM     17  C   UNL A   1      32.206  30.525  26.670  1.00  0.00     0.044 C 
ATOM     18  C   UNL A   1      31.751  29.304  25.936  1.00  0.00    -0.050 A 
ATOM     19  C   UNL A   1      31.104  29.446  24.704  1.00  0.00     0.006 A 
ATOM     20  C   UNL A   1      32.000  28.019  26.451  1.00  0.00     0.020 A 
ATOM     21  C   UNL A   1      30.693  28.320  24.000  1.00  0.00     0.040 A 
ATOM     22  C   UNL A   1      30.908  27.053  24.535  1.00  0.00     0.135 A 
ATOM     23  F   UNL A   1      30.460  26.000  23.835  1.00  0.00    -0.206 F 
ENDBRANCH  13  16
ENDBRANCH   8  12
ENDBRANCH   5   7
ENDBRANCH   4   5
ENDBRANCH   3   4
ENDBRANCH   2   3
ENDBRANCH   1   2
BRANCH   1  24
ATOM     24  C   UNL A   1      40.771  21.814  27.438  1.00  0.00     0.202 C 
BRANCH  24  25
ATOM     25  C   UNL A   1      42.031  22.282  26.706  1.00  0.00     0.261 C 
BRANCH  25  26
ATOM     26  O   UNL A   1      41.893  23.609  26.186  1.00  0.00    -0.460 OA
BRANCH  26  27
ATOM     27  C   UNL A   1      41.746  24.548  27.147  1.00  0.00     0.338 C 
ATOM     28  O   UNL A   1      42.460  24.714  28.121  1.00  0.00    -0.246 OA
BRANCH  27  29
ATOM     29  C   UNL A   1      40.528  25.365  26.930  1.00  0.00     0.060 A 
ATOM     30  C   UNL A   1      40.790  26.549  26.229  1.00  0.00     0.016 A 
ATOM     31  C   UNL A   1      39.603  25.333  27.970  1.00  0.00     0.016 A 
ATOM     32  C   UNL A   1      40.538  27.747  26.870  1.00  0.00     0.010 A 
ATOM     33  C   UNL A   1      39.363  26.525  28.619  1.00  0.00     0.010 A 
ATOM     34  C   UNL A   1      39.959  27.697  28.135  1.00  0.00    -0.014 A 
BRANCH  34  35
ATOM     35  C   UNL A   1      40.026  28.812  29.062  1.00  0.00     0.031 A 
ATOM     36  C   UNL A   1      39.015  29.872  28.957  1.00  0.00     0.074 A 
ATOM     37  C   UNL A   1      41.017  28.875  29.980  1.00  0.00     0.049 A 
ATOM     38  N   UNL A   1      39.116  31.033  29.505  1.00  0.00    -0.248 NA
ATOM     39  C   UNL A   1      37.839  29.728  28.105  1.00  0.00     0.031 C 
ATOM     40  C   UNL A   1      41.111  29.783  31.119  1.00  0.00     0.029 A 
ATOM     41  N   UNL A   1      42.288  28.274  29.907  1.00  0.00    -0.354 N 
ATOM     42  C   UNL A   1      37.944  31.708  29.274  1.00  0.00     0.074 A 
ATOM     43  C   UNL A   1      37.244  30.907  28.303  1.00  0.00     0.031 C 
ATOM     44  C   UNL A   1      42.401  29.920  31.458  1.00  0.00     0.029 A 
ATOM     45  C   UNL A   1      43.185  29.221  30.457  1.00  0.00     0.049 A 
ATOM     46  H   UNL A   1      42.506  27.383  29.549  1.00  0.00     0.167 HD
ATOM     47  C   UNL A   1      37.679  32.815  30.019  1.00  0.00     0.037 A 
ATOM     48  C   UNL A   1      44.159  29.793  29.692  1.00  0.00     0.037 A 
ATOM     49  C   UNL A   1      38.901  33.301  30.664  1.00  0.00     0.049 A 
ATOM     50  C   UNL A   1      44.061  31.299  29.550  1.00  0.00     0.074 A 
ATOM     51  C   UNL A   1      39.450  33.205  31.931  1.00  0.00     0.029 A 
ATOM     52  N   UNL A   1      39.912  33.780  29.846  1.00  0.00    -0.354 N 
ATOM     53  N   UNL A   1      43.061  32.016  29.979  1.00  0.00    -0.248 NA
ATOM     54  C   UNL A   1      45.046  32.096  28.815  1.00  0.00     0.031 C 
ATOM     55  C   UNL A   1      40.828  33.574  31.841  1.00  0.00     0.029 A 
ATOM     56  C   UNL A   1      41.103  33.913  30.529  1.00  0.00     0.049 A 
ATOM     57  H   UNL A   1      39.793  33.998  28.893  1.00  0.00     0.167 HD
ATOM     58  C   UNL A   1      43.222  33.309  29.559  1.00  0.00     0.074 A 
ATOM     59  C   UNL A   1      44.479  33.314  28.835  1.00  0.00     0.031 C 
ATOM     60  C   UNL A   1      42.299  34.284  29.792  1.00  0.00     0.037 A 
BRANCH  47  61
ATOM     61  C   UNL A   1      36.301  33.392  30.288  1.00  0.00     0.064 A 
ATOM     62  C   UNL A   1      35.561  33.957  29.225  1.00  0.00     0.173 A 
ATOM     63  C   UNL A   1      35.696  33.541  31.555  1.00  0.00     0.173 A 
ATOM     64  F   UNL A   1      35.998  33.894  27.960  1.00  0.00    -0.203 F 
ATOM     65  C   UNL A   1      34.352  34.636  29.422  1.00  0.00     0.198 A 
ATOM     66  C   UNL A   1      34.475  34.195  31.747  1.00  0.00     0.198 A 
ATOM     67  F   UNL A   1      36.255  33.104  32.682  1.00  0.00    -0.203 F 
ATOM     68  F   UNL A   1      33.724  35.192  28.377  1.00  0.00    -0.200 F 
ATOM     69  C   UNL A   1      33.808  34.755  30.684  1.00  0.00     0.200 A 
ATOM     70  F   UNL A   1      33.970  34.293  32.985  1.00  0.00    -0.200 F 
ATOM     71  F   UNL A   1      32.659  35.414  30.878  1.00  0.00    -0.200 F 
ENDBRANCH  47  61
BRANCH  48  72
ATOM     72  C   UNL A   1      44.692  28.885  28.644  1.00  0.00     0.064 A 
ATOM     73  C   UNL A   1      45.580  27.859  29.020  1.00  0.00     0.173 A 
ATOM     74  C   UNL A   1      44.105  28.804  27.378  1.00  0.00     0.173 A 
ATOM     75  F   UNL A   1      46.164  27.887  30.229  1.00  0.00    -0.203 F 
ATOM     76  C   UNL A   1      45.807  26.759  28.195  1.00  0.00     0.198 A 
ATOM     77  C   UNL A   1      44.337  27.704  26.552  1.00  0.00     0.198 A 
ATOM     78  F   UNL A   1      43.237  29.742  26.972  1.00  0.00    -0.203 F 
ATOM     79  F   UNL A   1      46.603  25.765  28.612  1.00  0.00    -0.200 F 
ATOM     80  C   UNL A   1      45.173  26.676  26.966  1.00  0.00     0.200 A 
ATOM     81  F   UNL A   1      43.700  27.612  25.376  1.00  0.00    -0.200 F 
ATOM     82  F   UNL A   1      45.350  25.601  26.186  1.00  0.00    -0.200 F 
ENDBRANCH  48  72
BRANCH  60  83
ATOM     83  C   UNL A   1      42.479  35.688  29.308  1.00  0.00     0.064 A 
ATOM     84  C   UNL A   1      41.945  36.126  28.088  1.00  0.00     0.173 A 
ATOM     85  C   UNL A   1      43.288  36.603  30.010  1.00  0.00     0.173 A 
ATOM     86  F   UNL A   1      41.182  35.308  27.346  1.00  0.00    -0.203 F 
ATOM     87  C   UNL A   1      42.189  37.413  27.607  1.00  0.00     0.198 A 
ATOM     88  C   UNL A   1      43.568  37.870  29.505  1.00  0.00     0.198 A 
ATOM     89  F   UNL A   1      43.802  36.293  31.210  1.00  0.00    -0.203 F 
ATOM     90  F   UNL A   1      41.625  37.813  26.459  1.00  0.00    -0.200 F 
ATOM     91  C   UNL A   1      43.012  38.278  28.308  1.00  0.00     0.200 A 
ATOM     92  F   UNL A   1      44.375  38.695  30.189  1.00  0.00    -0.200 F 
ATOM     93  F   UNL A   1      43.263  39.506  27.834  1.00  0.00    -0.200 F 
ENDBRANCH  60  83
ENDBRANCH  34  35
ENDBRANCH  27  29
ENDBRANCH  26  27
ENDBRANCH  25  26
ENDBRANCH  24  25
ENDBRANCH   1  24
TORSDOF 16
ENDMDL
MODEL 2
REMARK VINA RESULT:     -12.8      4.051     10.497
REMARK SMILES Cc1ccc(F)c(C(=O)N[C@@H]2C=C[C@@H](C(=O)OCCOCCOC(=O)c3ccc(-c4c5nc(c(-c6c(F)c(F)c(F)c(F)c6F)c6ccc([nH]6)c(-c6c(F)c(F)c(F)c(F)c6F)c6nc(c(-c7c(F)c(F)c(F)c(F)c7F)c7ccc4[nH]7)C=C6)C=C5)cc3)C2)c1
REMARK SMILES IDX 20 1 19 2 18 3 17 4 15 5 16 6 14 7 11 8 12 9 89 10 13 11
REMARK SMILES IDX 10 12 8 13 9 14 7 16 1 17 2 18 3 19 90 20 4 21 5 22 6 23
REMARK SMILES IDX 21 24 22 25 23 26 24 27 25 28 26 29 27 30 88 31 28 32 87 33
REMARK SMILES IDX 29 34 30 35 31 36 81 37 32 38 86 39 80 40 82 41 33 42 85 43
REMARK SMILES IDX 79 44 78 45 34 47 66 48 46 49 65 50 47 51 50 52 64 53 83 54
REMARK SMILES IDX 48 55 49 56 63 58 84 59 51 60 35 61 36 62 44 63 37 64 38 65
REMARK SMILES IDX 42 66 45 67 39 68 40 69 43 70 41 71 67 72 68 73 76 74 69 75
REMARK SMILES IDX 70 76 74 77 77 78 71 79 72 80 75 81 73 82 52 83 53 84 61 85
REMARK SMILES IDX 54 86 55 87 59 88 62 89 56 90 57 91 60 92 58 93
REMARK H PARENT 10 15 82 46 50 57
REMARK Flexibility Score: inf
ROOT
ATOM      1  O   UNL A   1      33.676  33.882  30.746  1.00  0.00    -0.374 OA
ENDROOT
BRANCH   1   2
ATOM      2  C   UNL A   1      34.064  34.817  29.743  1.00  0.00     0.202 C 
BRANCH   2   3
ATOM      3  C   UNL A   1      34.023  34.369  28.276  1.00  0.00     0.261 C 
BRANCH   3   4
ATOM      4  O   UNL A   1      33.356  33.106  28.096  1.00  0.00    -0.463 OA
BRANCH   4   5
ATOM      5  C   UNL A   1      34.138  32.081  27.663  1.00  0.00     0.312 C 
ATOM      6  O   UNL A   1      35.328  32.192  27.385  1.00  0.00    -0.252 OA
BRANCH   5   7
ATOM      7  C   UNL A   1      33.410  30.737  27.606  1.00  0.00     0.124 C 
ATOM      8  C   UNL A   1      32.982  28.933  25.965  1.00  0.00     0.106 C 
ATOM      9  C   UNL A   1      34.209  28.682  26.784  1.00  0.00    -0.006 C 
ATOM     10  C   UNL A   1      32.625  30.381  26.333  1.00  0.00     0.048 C 
ATOM     11  C   UNL A   1      34.424  29.639  27.691  1.00  0.00    -0.014 C 
BRANCH   8  12
ATOM     12  N   UNL A   1      32.026  27.907  26.331  1.00  0.00    -0.346 N 
ATOM     13  C   UNL A   1      31.989  26.544  26.187  1.00  0.00     0.254 C 
ATOM     14  O   UNL A   1      31.134  25.931  26.825  1.00  0.00    -0.269 OA
ATOM     15  H   UNL A   1      31.229  28.268  26.782  1.00  0.00     0.164 HD
BRANCH  13  16
ATOM     16  C   UNL A   1      32.887  25.798  25.283  1.00  0.00     0.075 A 
ATOM     17  C   UNL A   1      36.093  23.744  25.241  1.00  0.00     0.044 C 
ATOM     18  C   UNL A   1      34.852  24.449  24.793  1.00  0.00    -0.050 A 
ATOM     19  C   UNL A   1      34.490  24.407  23.442  1.00  0.00     0.006 A 
ATOM     20  C   UNL A   1      34.029  25.118  25.717  1.00  0.00     0.020 A 
ATOM     21  C   UNL A   1      33.329  25.041  23.013  1.00  0.00     0.040 A 
ATOM     22  C   UNL A   1      32.541  25.734  23.928  1.00  0.00     0.135 A 
ATOM     23  F   UNL A   1      31.452  26.359  23.458  1.00  0.00    -0.206 F 
ENDBRANCH  13  16
ENDBRANCH   8  12
ENDBRANCH   5   7
ENDBRANCH   4   5
ENDBRANCH   3   4
ENDBRANCH   2   3
ENDBRANCH   1   2
BRANCH   1  24
ATOM     24  C   UNL A   1      34.666  33.293  31.586  1.00  0.00     0.202 C 
BRANCH  24  25
ATOM     25  C   UNL A   1      36.039  32.991  30.980  1.00  0.00     0.261 C 
BRANCH  25  26
ATOM     26  O   UNL A   1      36.175  31.615  30.609  1.00  0.00    -0.460 OA
BRANCH  26  27
ATOM     27  C   UNL A   1      37.327  31.348  29.955  1.00  0.00     0.338 C 
ATOM     28  O   UNL A   1      38.291  32.086  29.842  1.00  0.00    -0.246 OA
BRANCH  27  29
ATOM     29  C   UNL A   1      37.283  30.022  29.292  1.00  0.00     0.060 A 
ATOM     30  C   UNL A   1      37.418  28.962  30.198  1.00  0.00     0.016 A 
ATOM     31  C   UNL A   1      37.872  29.973  28.032  1.00  0.00     0.016 A 
ATOM     32  C   UNL A   1      38.513  28.131  30.059  1.00  0.00     0.010 A 
ATOM     33  C   UNL A   1      38.973  29.154  27.898  1.00  0.00     0.010 A 
ATOM     34  C   UNL A   1      39.360  28.349  28.977  1.00  0.00    -0.014 A 
BRANCH  34  35
ATOM     35  C   UNL A   1      40.722  27.847  28.945  1.00  0.00     0.031 A 
ATOM     36  C   UNL A   1      40.940  26.432  28.610  1.00  0.00     0.074 A 
ATOM     37  C   UNL A   1      41.757  28.665  29.243  1.00  0.00     0.049 A 
ATOM     38  N   UNL A   1      42.037  25.794  28.823  1.00  0.00    -0.248 NA
ATOM     39  C   UNL A   1      39.861  25.590  28.106  1.00  0.00     0.031 C 
ATOM     40  C   UNL A   1      43.178  28.400  29.045  1.00  0.00     0.029 A 
ATOM     41  N   UNL A   1      41.724  29.826  30.038  1.00  0.00    -0.354 N 
ATOM     42  C   UNL A   1      41.898  24.537  28.291  1.00  0.00     0.074 A 
ATOM     43  C   UNL A   1      40.498  24.424  27.974  1.00  0.00     0.031 C 
ATOM     44  C   UNL A   1      43.882  29.150  29.906  1.00  0.00     0.029 A 
ATOM     45  C   UNL A   1      42.929  29.808  30.781  1.00  0.00     0.049 A 
ATOM     46  H   UNL A   1      41.014  30.507  30.069  1.00  0.00     0.167 HD
ATOM     47  C   UNL A   1      43.019  23.790  28.098  1.00  0.00     0.037 A 
ATOM     48  C   UNL A   1      42.915  29.695  32.141  1.00  0.00     0.037 A 
ATOM     49  C   UNL A   1      44.136  24.337  28.872  1.00  0.00     0.049 A 
ATOM     50  C   UNL A   1      43.604  28.462  32.689  1.00  0.00     0.074 A 
ATOM     51  C   UNL A   1      45.234  25.130  28.590  1.00  0.00     0.029 A 
ATOM     52  N   UNL A   1      44.039  24.298  30.254  1.00  0.00    -0.354 N 
ATOM     53  N   UNL A   1      44.055  27.483  31.957  1.00  0.00    -0.248 NA
ATOM     54  C   UNL A   1      43.740  28.196  34.123  1.00  0.00     0.031 C 
ATOM     55  C   UNL A   1      45.752  25.620  29.829  1.00  0.00     0.029 A 
ATOM     56  C   UNL A   1      44.983  25.104  30.856  1.00  0.00     0.049 A 
ATOM     57  H   UNL A   1      43.375  23.761  30.745  1.00  0.00     0.167 HD
ATOM     58  C   UNL A   1      44.481  26.470  32.773  1.00  0.00     0.074 A 
ATOM     59  C   UNL A   1      44.266  26.960  34.121  1.00  0.00     0.031 C 
ATOM     60  C   UNL A   1      44.942  25.279  32.298  1.00  0.00     0.037 A 
BRANCH  47  61
ATOM     61  C   UNL A   1      43.162  22.647  27.109  1.00  0.00     0.064 A 
ATOM     62  C   UNL A   1      42.393  21.474  27.282  1.00  0.00     0.173 A 
ATOM     63  C   UNL A   1      44.101  22.572  26.058  1.00  0.00     0.173 A 
ATOM     64  F   UNL A   1      41.455  21.389  28.235  1.00  0.00    -0.203 F 
ATOM     65  C   UNL A   1      42.577  20.327  26.499  1.00  0.00     0.198 A 
ATOM     66  C   UNL A   1      44.264  21.437  25.258  1.00  0.00     0.198 A 
ATOM     67  F   UNL A   1      44.938  23.564  25.759  1.00  0.00    -0.203 F 
ATOM     68  F   UNL A   1      41.849  19.230  26.746  1.00  0.00    -0.200 F 
ATOM     69  C   UNL A   1      43.513  20.309  25.486  1.00  0.00     0.200 A 
ATOM     70  F   UNL A   1      45.181  21.448  24.279  1.00  0.00    -0.200 F 
ATOM     71  F   UNL A   1      43.700  19.210  24.744  1.00  0.00    -0.200 F 
ENDBRANCH  47  61
BRANCH  48  72
ATOM     72  C   UNL A   1      41.740  30.351  32.772  1.00  0.00     0.064 A 
ATOM     73  C   UNL A   1      41.738  31.751  32.916  1.00  0.00     0.173 A 
ATOM     74  C   UNL A   1      40.523  29.680  32.925  1.00  0.00     0.173 A 
ATOM     75  F   UNL A   1      42.880  32.442  32.770  1.00  0.00    -0.203 F 
ATOM     76  C   UNL A   1      40.554  32.455  33.126  1.00  0.00     0.198 A 
ATOM     77  C   UNL A   1      39.340  30.387  33.140  1.00  0.00     0.198 A 
ATOM     78  F   UNL A   1      40.460  28.348  32.781  1.00  0.00    -0.203 F 
ATOM     79  F   UNL A   1      40.576  33.794  33.188  1.00  0.00    -0.200 F 
ATOM     80  C   UNL A   1      39.353  31.773  33.223  1.00  0.00     0.200 A 
ATOM     81  F   UNL A   1      38.175  29.726  33.204  1.00  0.00    -0.200 F 
ATOM     82  F   UNL A   1      38.204  32.445  33.380  1.00  0.00    -0.200 F 
ENDBRANCH  48  72
BRANCH  60  83
ATOM     83  C   UNL A   1      45.384  24.174  33.203  1.00  0.00     0.064 A 
ATOM     84  C   UNL A   1      44.542  23.101  33.528  1.00  0.00     0.173 A 
ATOM     85  C   UNL A   1      46.632  24.219  33.854  1.00  0.00     0.173 A 
ATOM     86  F   UNL A   1      43.326  22.996  32.970  1.00  0.00    -0.203 F 
ATOM     87  C   UNL A   1      44.933  22.118  34.439  1.00  0.00     0.198 A 
ATOM     88  C   UNL A   1      47.002  23.263  34.797  1.00  0.00     0.198 A 
ATOM     89  F   UNL A   1      47.526  25.178  33.570  1.00  0.00    -0.203 F 
ATOM     90  F   UNL A   1      44.121  21.083  34.693  1.00  0.00    -0.200 F 
ATOM     91  C   UNL A   1      46.156  22.209  35.083  1.00  0.00     0.200 A 
ATOM     92  F   UNL A   1      48.184  23.367  35.421  1.00  0.00    -0.200 F 
ATOM     93  F   UNL A   1      46.522  21.276  35.973  1.00  0.00    -0.200 F 
ENDBRANCH  60  83
ENDBRANCH  34  35
ENDBRANCH  27  29
ENDBRANCH  26  27
ENDBRANCH  25  26
ENDBRANCH  24  25
ENDBRANCH   1  24
TORSDOF 16
ENDMDL
MODEL 3
REMARK VINA RESULT:     -12.7      1.353      1.740
REMARK SMILES Cc1ccc(F)c(C(=O)N[C@@H]2C=C[C@@H](C(=O)OCCOCCOC(=O)c3ccc(-c4c5nc(c(-c6c(F)c(F)c(F)c(F)c6F)c6ccc([nH]6)c(-c6c(F)c(F)c(F)c(F)c6F)c6nc(c(-c7c(F)c(F)c(F)c(F)c7F)c7ccc4[nH]7)C=C6)C=C5)cc3)C2)c1
REMARK SMILES IDX 20 1 19 2 18 3 17 4 15 5 16 6 14 7 11 8 12 9 89 10 13 11
REMARK SMILES IDX 10 12 8 13 9 14 7 16 1 17 2 18 3 19 90 20 4 21 5 22 6 23
REMARK SMILES IDX 21 24 22 25 23 26 24 27 25 28 26 29 27 30 88 31 28 32 87 33
REMARK SMILES IDX 29 34 30 35 31 36 81 37 32 38 86 39 80 40 82 41 33 42 85 43
REMARK SMILES IDX 79 44 78 45 34 47 66 48 46 49 65 50 47 51 50 52 64 53 83 54
REMARK SMILES IDX 48 55 49 56 63 58 84 59 51 60 35 61 36 62 44 63 37 64 38 65
REMARK SMILES IDX 42 66 45 67 39 68 40 69 43 70 41 71 67 72 68 73 76 74 69 75
REMARK SMILES IDX 70 76 74 77 77 78 71 79 72 80 75 81 73 82 52 83 53 84 61 85
REMARK SMILES IDX 54 86 55 87 59 88 62 89 56 90 57 91 60 92 58 93
REMARK H PARENT 10 15 82 46 50 57
REMARK Flexibility Score: inf
ROOT
ATOM      1  O   UNL A   1      39.738  21.495  25.770  1.00  0.00    -0.374 OA
ENDROOT
BRANCH   1   2
ATOM      2  C   UNL A   1      38.359  21.851  25.799  1.00  0.00     0.202 C 
BRANCH   2   3
ATOM      3  C   UNL A   1      37.427  21.235  24.747  1.00  0.00     0.261 C 
BRANCH   3   4
ATOM      4  O   UNL A   1      36.221  20.695  25.317  1.00  0.00    -0.463 OA
BRANCH   4   5
ATOM      5  C   UNL A   1      35.229  21.592  25.563  1.00  0.00     0.312 C 
ATOM      6  O   UNL A   1      34.664  21.716  26.646  1.00  0.00    -0.252 OA
BRANCH   5   7
ATOM      7  C   UNL A   1      34.909  22.495  24.370  1.00  0.00     0.124 C 
ATOM      8  C   UNL A   1      33.205  24.169  23.721  1.00  0.00     0.106 C 
ATOM      9  C   UNL A   1      34.397  24.792  24.377  1.00  0.00    -0.006 C 
ATOM     10  C   UNL A   1      33.439  22.669  23.954  1.00  0.00     0.048 C 
ATOM     11  C   UNL A   1      35.331  23.893  24.700  1.00  0.00    -0.014 C 
BRANCH   8  12
ATOM     12  N   UNL A   1      33.205  24.627  22.346  1.00  0.00    -0.346 N 
ATOM     13  C   UNL A   1      32.907  25.820  21.739  1.00  0.00     0.254 C 
ATOM     14  O   UNL A   1      33.240  25.956  20.563  1.00  0.00    -0.269 OA
ATOM     15  H   UNL A   1      33.481  23.931  21.708  1.00  0.00     0.164 HD
BRANCH  13  16
ATOM     16  C   UNL A   1      32.177  26.914  22.412  1.00  0.00     0.075 A 
ATOM     17  C   UNL A   1      28.666  28.202  23.128  1.00  0.00     0.044 C 
ATOM     18  C   UNL A   1      30.157  28.085  23.098  1.00  0.00    -0.050 A 
ATOM     19  C   UNL A   1      30.933  29.051  23.746  1.00  0.00     0.006 A 
ATOM     20  C   UNL A   1      30.782  26.998  22.459  1.00  0.00     0.020 A 
ATOM     21  C   UNL A   1      32.320  28.946  23.743  1.00  0.00     0.040 A 
ATOM     22  C   UNL A   1      32.932  27.888  23.076  1.00  0.00     0.135 A 
ATOM     23  F   UNL A   1      34.273  27.852  23.072  1.00  0.00    -0.206 F 
ENDBRANCH  13  16
ENDBRANCH   8  12
ENDBRANCH   5   7
ENDBRANCH   4   5
ENDBRANCH   3   4
ENDBRANCH   2   3
ENDBRANCH   1   2
BRANCH   1  24
ATOM     24  C   UNL A   1      40.418  21.196  26.988  1.00  0.00     0.202 C 
BRANCH  24  25
ATOM     25  C   UNL A   1      41.619  22.064  27.374  1.00  0.00     0.261 C 
BRANCH  25  26
ATOM     26  O   UNL A   1      41.227  23.383  27.768  1.00  0.00    -0.460 OA
BRANCH  26  27
ATOM     27  C   UNL A   1      41.509  24.326  26.841  1.00  0.00     0.338 C 
ATOM     28  O   UNL A   1      42.558  24.464  26.236  1.00  0.00    -0.246 OA
BRANCH  27  29
ATOM     29  C   UNL A   1      40.381  25.272  26.664  1.00  0.00     0.060 A 
ATOM     30  C   UNL A   1      40.765  26.453  26.016  1.00  0.00     0.016 A 
ATOM     31  C   UNL A   1      39.456  25.288  27.704  1.00  0.00     0.016 A 
ATOM     32  C   UNL A   1      40.635  27.640  26.710  1.00  0.00     0.010 A 
ATOM     33  C   UNL A   1      39.337  26.469  28.405  1.00  0.00     0.010 A 
ATOM     34  C   UNL A   1      40.051  27.594  27.972  1.00  0.00    -0.014 A 
BRANCH  34  35
ATOM     35  C   UNL A   1      40.230  28.653  28.948  1.00  0.00     0.031 A 
ATOM     36  C   UNL A   1      39.196  29.693  29.052  1.00  0.00     0.074 A 
ATOM     37  C   UNL A   1      41.339  28.687  29.721  1.00  0.00     0.049 A 
ATOM     38  N   UNL A   1      39.355  30.822  29.650  1.00  0.00    -0.248 NA
ATOM     39  C   UNL A   1      37.915  29.570  28.365  1.00  0.00     0.031 C 
ATOM     40  C   UNL A   1      41.577  29.529  30.890  1.00  0.00     0.029 A 
ATOM     41  N   UNL A   1      42.596  28.123  29.434  1.00  0.00    -0.354 N 
ATOM     42  C   UNL A   1      38.151  31.479  29.627  1.00  0.00     0.074 A 
ATOM     43  C   UNL A   1      37.334  30.719  28.716  1.00  0.00     0.031 C 
ATOM     44  C   UNL A   1      42.900  29.678  31.053  1.00  0.00     0.029 A 
ATOM     45  C   UNL A   1      43.546  29.059  29.911  1.00  0.00     0.049 A 
ATOM     46  H   UNL A   1      42.776  27.260  28.995  1.00  0.00     0.167 HD
ATOM     47  C   UNL A   1      37.975  32.534  30.468  1.00  0.00     0.037 A 
ATOM     48  C   UNL A   1      44.393  29.699  29.054  1.00  0.00     0.037 A 
ATOM     49  C   UNL A   1      39.268  33.011  30.965  1.00  0.00     0.049 A 
ATOM     50  C   UNL A   1      44.252  31.207  29.021  1.00  0.00     0.074 A 
ATOM     51  C   UNL A   1      39.991  32.855  32.135  1.00  0.00     0.029 A 
ATOM     52  N   UNL A   1      40.145  33.562  30.046  1.00  0.00    -0.354 N 
ATOM     53  N   UNL A   1      43.310  31.873  29.628  1.00  0.00    -0.248 NA
ATOM     54  C   UNL A   1      45.110  32.071  28.206  1.00  0.00     0.031 C 
ATOM     55  C   UNL A   1      41.337  33.262  31.877  1.00  0.00     0.029 A 
ATOM     56  C   UNL A   1      41.418  33.685  30.562  1.00  0.00     0.049 A 
ATOM     57  H   UNL A   1      39.890  33.833  29.133  1.00  0.00     0.167 HD
ATOM     58  C   UNL A   1      43.389  33.192  29.271  1.00  0.00     0.074 A 
ATOM     59  C   UNL A   1      44.532  33.270  28.380  1.00  0.00     0.031 C 
ATOM     60  C   UNL A   1      42.493  34.128  29.690  1.00  0.00     0.037 A 
BRANCH  47  61
ATOM     61  C   UNL A   1      36.640  33.059  30.962  1.00  0.00     0.064 A 
ATOM     62  C   UNL A   1      35.830  33.830  30.098  1.00  0.00     0.173 A 
ATOM     63  C   UNL A   1      36.145  32.962  32.281  1.00  0.00     0.173 A 
ATOM     64  F   UNL A   1      36.160  34.014  28.812  1.00  0.00    -0.203 F 
ATOM     65  C   UNL A   1      34.659  34.468  30.527  1.00  0.00     0.198 A 
ATOM     66  C   UNL A   1      34.962  33.576  32.701  1.00  0.00     0.198 A 
ATOM     67  F   UNL A   1      36.782  32.305  33.248  1.00  0.00    -0.203 F 
ATOM     68  F   UNL A   1      33.962  35.225  29.669  1.00  0.00    -0.200 F 
ATOM     69  C   UNL A   1      34.224  34.341  31.830  1.00  0.00     0.200 A 
ATOM     70  F   UNL A   1      34.562  33.433  33.974  1.00  0.00    -0.200 F 
ATOM     71  F   UNL A   1      33.113  34.959  32.247  1.00  0.00    -0.200 F 
ENDBRANCH  47  61
BRANCH  48  72
ATOM     72  C   UNL A   1      44.789  28.867  27.889  1.00  0.00     0.064 A 
ATOM     73  C   UNL A   1      45.730  27.838  28.075  1.00  0.00     0.173 A 
ATOM     74  C   UNL A   1      44.034  28.852  26.711  1.00  0.00     0.173 A 
ATOM     75  F   UNL A   1      46.474  27.804  29.193  1.00  0.00    -0.203 F 
ATOM     76  C   UNL A   1      45.856  26.796  27.158  1.00  0.00     0.198 A 
ATOM     77  C   UNL A   1      44.164  27.810  25.793  1.00  0.00     0.198 A 
ATOM     78  F   UNL A   1      43.109  29.796  26.487  1.00  0.00    -0.203 F 
ATOM     79  F   UNL A   1      46.712  25.794  27.399  1.00  0.00    -0.200 F 
ATOM     80  C   UNL A   1      45.060  26.775  26.024  1.00  0.00     0.200 A 
ATOM     81  F   UNL A   1      43.373  27.778  24.711  1.00  0.00    -0.200 F 
ATOM     82  F   UNL A   1      45.141  25.754  25.160  1.00  0.00    -0.200 F 
ENDBRANCH  48  72
BRANCH  60  83
ATOM     83  C   UNL A   1      42.580  35.562  29.273  1.00  0.00     0.064 A 
ATOM     84  C   UNL A   1      42.033  36.017  28.065  1.00  0.00     0.173 A 
ATOM     85  C   UNL A   1      43.312  36.498  30.029  1.00  0.00     0.173 A 
ATOM     86  F   UNL A   1      41.340  35.184  27.274  1.00  0.00    -0.203 F 
ATOM     87  C   UNL A   1      42.191  37.339  27.647  1.00  0.00     0.198 A 
ATOM     88  C   UNL A   1      43.508  37.804  29.587  1.00  0.00     0.198 A 
ATOM     89  F   UNL A   1      43.829  36.170  31.223  1.00  0.00    -0.203 F 
ATOM     90  F   UNL A   1      41.617  37.752  26.508  1.00  0.00    -0.200 F 
ATOM     91  C   UNL A   1      42.942  38.227  28.400  1.00  0.00     0.200 A 
ATOM     92  F   UNL A   1      44.245  38.651  30.322  1.00  0.00    -0.200 F 
ATOM     93  F   UNL A   1      43.111  39.490  27.987  1.00  0.00    -0.200 F 
ENDBRANCH  60  83
ENDBRANCH  34  35
ENDBRANCH  27  29
ENDBRANCH  26  27
ENDBRANCH  25  26
ENDBRANCH  24  25
ENDBRANCH   1  24
TORSDOF 16
ENDMDL
