MODEL 1
REMARK VINA RESULT:     -11.5      0.000      0.000
REMARK SMILES CSc1nc(N)cc(Nc2cccc(C(=O)OCCOCCOC(=O)c3ccc(-c4c5nc(c(-c6c(F)c(F)c(F)c(F)c6F)c6ccc([nH]6)c(-c6c(F)c(F)c(F)c(F)c6F)c6nc(c(-c7c(F)c(F)c(F)c(F)c7F)c7ccc4[nH]7)C=C6)C=C5)cc3)c2)n1
REMARK SMILES IDX 19 1 18 2 17 3 15 4 16 5 14 6 10 7 11 8 89 9 12 10 13 11
REMARK SMILES IDX 9 12 8 14 3 15 4 16 90 17 5 18 7 19 2 20 1 21 6 22 20 25
REMARK SMILES IDX 21 26 22 27 23 28 24 29 25 30 26 31 27 32 88 33 28 34 87 35
REMARK SMILES IDX 29 36 30 37 31 38 81 39 32 40 86 41 80 42 82 43 33 44 85 45
REMARK SMILES IDX 79 46 78 47 34 49 66 50 46 51 65 52 47 53 50 54 64 55 83 56
REMARK SMILES IDX 48 57 49 58 63 60 84 61 51 62 35 63 36 64 44 65 37 66 38 67
REMARK SMILES IDX 42 68 45 69 39 70 40 71 43 72 41 73 67 74 68 75 76 76 69 77
REMARK SMILES IDX 70 78 74 79 77 80 71 81 72 82 75 83 73 84 52 85 53 86 61 87
REMARK SMILES IDX 54 88 55 89 59 90 62 91 56 92 57 93 60 94 58 95
REMARK H PARENT 9 13 6 23 6 24 82 48 50 59
REMARK Flexibility Score: inf
ROOT
ATOM      1  C   UNL A   1      43.371  19.268  25.576  1.00  0.00     0.202 C 
ENDROOT
BRANCH   1   2
ATOM      2  C   UNL A   1      41.933  19.180  26.097  1.00  0.00     0.261 C 
BRANCH   2   3
ATOM      3  O   UNL A   1      41.243  20.422  25.877  1.00  0.00    -0.460 OA
BRANCH   3   4
ATOM      4  C   UNL A   1      40.538  20.896  26.933  1.00  0.00     0.338 C 
ATOM      5  O   UNL A   1      40.790  20.728  28.116  1.00  0.00    -0.246 OA
BRANCH   4   6
ATOM      6  C   UNL A   1      39.501  21.838  26.453  1.00  0.00     0.062 A 
ATOM      7  C   UNL A   1      37.539  22.366  25.112  1.00  0.00     0.040 A 
ATOM      8  C   UNL A   1      37.599  23.682  25.593  1.00  0.00     0.026 A 
ATOM      9  C   UNL A   1      38.529  21.460  25.523  1.00  0.00     0.041 A 
ATOM     10  C   UNL A   1      38.586  24.072  26.504  1.00  0.00     0.003 A 
ATOM     11  C   UNL A   1      39.524  23.146  26.949  1.00  0.00     0.016 A 
BRANCH   7  12
ATOM     12  N   UNL A   1      36.432  21.968  24.334  1.00  0.00    -0.340 N 
ATOM     13  H   UNL A   1      36.473  22.180  23.373  1.00  0.00     0.168 HD
BRANCH  12  14
ATOM     14  C   UNL A   1      35.273  21.300  24.779  1.00  0.00     0.137 A 
ATOM     15  C   UNL A   1      34.030  19.383  24.992  1.00  0.00     0.191 A 
ATOM     16  N   UNL A   1      33.030  19.992  25.636  1.00  0.00    -0.206 NA
ATOM     17  N   UNL A   1      35.148  19.981  24.575  1.00  0.00    -0.205 NA
ATOM     18  C   UNL A   1      33.174  21.303  25.842  1.00  0.00     0.130 A 
ATOM     19  C   UNL A   1      34.271  22.014  25.403  1.00  0.00     0.093 A 
BRANCH  15  20
ATOM     20  S   UNL A   1      33.862  17.669  24.572  1.00  0.00    -0.090 SA
ATOM     21  C   UNL A   1      32.793  17.841  23.131  1.00  0.00     0.094 C 
ENDBRANCH  15  20
BRANCH  18  22
ATOM     22  N   UNL A   1      32.123  21.945  26.470  1.00  0.00    -0.383 N 
ATOM     23  H   UNL A   1      31.342  22.237  25.946  1.00  0.00     0.158 HD
ATOM     24  H   UNL A   1      32.155  22.110  27.439  1.00  0.00     0.158 HD
ENDBRANCH  18  22
ENDBRANCH  12  14
ENDBRANCH   7  12
ENDBRANCH   4   6
ENDBRANCH   3   4
ENDBRANCH   2   3
ENDBRANCH   1   2
BRANCH   1  25
ATOM     25  O   UNL A   1      43.620  20.308  24.628  1.00  0.00    -0.374 OA
BRANCH  25  26
ATOM     26  C   UNL A   1      44.451  21.387  25.063  1.00  0.00     0.202 C 
BRANCH  26  27
ATOM     27  C   UNL A   1      44.475  22.614  24.147  1.00  0.00     0.261 C 
BRANCH  27  28
ATOM     28  O   UNL A   1      43.656  23.677  24.667  1.00  0.00    -0.460 OA
BRANCH  28  29
ATOM     29  C   UNL A   1      44.336  24.778  25.059  1.00  0.00     0.338 C 
ATOM     30  O   UNL A   1      45.406  25.185  24.629  1.00  0.00    -0.246 OA
BRANCH  29  31
ATOM     31  C   UNL A   1      43.523  25.558  26.010  1.00  0.00     0.060 A 
ATOM     32  C   UNL A   1      43.764  26.936  26.085  1.00  0.00     0.016 A 
ATOM     33  C   UNL A   1      42.596  24.953  26.862  1.00  0.00     0.016 A 
ATOM     34  C   UNL A   1      43.120  27.706  27.051  1.00  0.00     0.010 A 
ATOM     35  C   UNL A   1      41.955  25.725  27.836  1.00  0.00     0.010 A 
ATOM     36  C   UNL A   1      42.242  27.096  27.958  1.00  0.00    -0.014 A 
BRANCH  36  37
ATOM     37  C   UNL A   1      41.745  27.867  29.123  1.00  0.00     0.031 A 
ATOM     38  C   UNL A   1      42.479  27.764  30.431  1.00  0.00     0.074 A 
ATOM     39  C   UNL A   1      40.670  28.666  29.012  1.00  0.00     0.049 A 
ATOM     40  N   UNL A   1      42.207  28.320  31.584  1.00  0.00    -0.248 NA
ATOM     41  C   UNL A   1      43.682  26.916  30.439  1.00  0.00     0.031 C 
ATOM     42  C   UNL A   1      39.899  28.876  27.790  1.00  0.00     0.029 A 
ATOM     43  N   UNL A   1      40.041  29.447  29.949  1.00  0.00    -0.354 N 
ATOM     44  C   UNL A   1      43.199  27.887  32.454  1.00  0.00     0.074 A 
ATOM     45  C   UNL A   1      44.061  26.998  31.706  1.00  0.00     0.031 C 
ATOM     46  C   UNL A   1      38.891  29.725  28.053  1.00  0.00     0.029 A 
ATOM     47  C   UNL A   1      38.931  30.092  29.467  1.00  0.00     0.049 A 
ATOM     48  H   UNL A   1      40.357  29.534  30.877  1.00  0.00     0.167 HD
ATOM     49  C   UNL A   1      43.380  28.210  33.757  1.00  0.00     0.037 A 
ATOM     50  C   UNL A   1      38.037  30.874  30.104  1.00  0.00     0.037 A 
ATOM     51  C   UNL A   1      42.523  29.096  34.499  1.00  0.00     0.049 A 
ATOM     52  C   UNL A   1      38.220  31.164  31.572  1.00  0.00     0.074 A 
ATOM     53  C   UNL A   1      42.633  29.503  35.817  1.00  0.00     0.029 A 
ATOM     54  N   UNL A   1      41.388  29.708  33.986  1.00  0.00    -0.354 N 
ATOM     55  N   UNL A   1      39.174  30.772  32.382  1.00  0.00    -0.248 NA
ATOM     56  C   UNL A   1      37.202  32.008  32.212  1.00  0.00     0.031 C 
ATOM     57  C   UNL A   1      41.537  30.321  36.116  1.00  0.00     0.029 A 
ATOM     58  C   UNL A   1      40.773  30.467  34.969  1.00  0.00     0.049 A 
ATOM     59  H   UNL A   1      41.066  29.615  33.059  1.00  0.00     0.167 HD
ATOM     60  C   UNL A   1      38.888  31.343  33.615  1.00  0.00     0.074 A 
ATOM     61  C   UNL A   1      37.676  32.116  33.445  1.00  0.00     0.031 C 
ATOM     62  C   UNL A   1      39.570  31.237  34.783  1.00  0.00     0.037 A 
BRANCH  49  63
ATOM     63  C   UNL A   1      44.538  27.577  34.471  1.00  0.00     0.064 A 
ATOM     64  C   UNL A   1      44.439  26.304  35.054  1.00  0.00     0.173 A 
ATOM     65  C   UNL A   1      45.769  28.243  34.556  1.00  0.00     0.173 A 
ATOM     66  F   UNL A   1      43.280  25.631  35.013  1.00  0.00    -0.203 F 
ATOM     67  C   UNL A   1      45.522  25.736  35.721  1.00  0.00     0.198 A 
ATOM     68  C   UNL A   1      46.858  27.661  35.198  1.00  0.00     0.198 A 
ATOM     69  F   UNL A   1      45.918  29.460  34.011  1.00  0.00    -0.203 F 
ATOM     70  F   UNL A   1      45.390  24.542  36.314  1.00  0.00    -0.200 F 
ATOM     71  C   UNL A   1      46.731  26.412  35.787  1.00  0.00     0.200 A 
ATOM     72  F   UNL A   1      48.029  28.310  35.251  1.00  0.00    -0.200 F 
ATOM     73  F   UNL A   1      47.774  25.862  36.426  1.00  0.00    -0.200 F 
ENDBRANCH  49  63
BRANCH  50  74
ATOM     74  C   UNL A   1      36.883  31.437  29.357  1.00  0.00     0.064 A 
ATOM     75  C   UNL A   1      36.827  32.798  29.031  1.00  0.00     0.173 A 
ATOM     76  C   UNL A   1      35.808  30.626  28.963  1.00  0.00     0.173 A 
ATOM     77  F   UNL A   1      37.818  33.618  29.413  1.00  0.00    -0.203 F 
ATOM     78  C   UNL A   1      35.735  33.331  28.349  1.00  0.00     0.198 A 
ATOM     79  C   UNL A   1      34.729  31.154  28.258  1.00  0.00     0.198 A 
ATOM     80  F   UNL A   1      35.810  29.318  29.258  1.00  0.00    -0.203 F 
ATOM     81  F   UNL A   1      35.687  34.644  28.088  1.00  0.00    -0.200 F 
ATOM     82  C   UNL A   1      34.690  32.507  27.958  1.00  0.00     0.200 A 
ATOM     83  F   UNL A   1      33.725  30.354  27.876  1.00  0.00    -0.200 F 
ATOM     84  F   UNL A   1      33.641  33.019  27.301  1.00  0.00    -0.200 F 
ENDBRANCH  50  74
BRANCH  62  85
ATOM     85  C   UNL A   1      39.044  32.004  35.962  1.00  0.00     0.064 A 
ATOM     86  C   UNL A   1      38.198  31.410  36.910  1.00  0.00     0.173 A 
ATOM     87  C   UNL A   1      39.429  33.338  36.168  1.00  0.00     0.173 A 
ATOM     88  F   UNL A   1      37.791  30.143  36.751  1.00  0.00    -0.203 F 
ATOM     89  C   UNL A   1      37.739  32.131  38.010  1.00  0.00     0.198 A 
ATOM     90  C   UNL A   1      38.991  34.047  37.283  1.00  0.00     0.198 A 
ATOM     91  F   UNL A   1      40.241  33.950  35.294  1.00  0.00    -0.203 F 
ATOM     92  F   UNL A   1      36.897  31.557  38.880  1.00  0.00    -0.200 F 
ATOM     93  C   UNL A   1      38.141  33.445  38.200  1.00  0.00     0.200 A 
ATOM     94  F   UNL A   1      39.391  35.311  37.472  1.00  0.00    -0.200 F 
ATOM     95  F   UNL A   1      37.704  34.135  39.262  1.00  0.00    -0.200 F 
ENDBRANCH  62  85
ENDBRANCH  36  37
ENDBRANCH  29  31
ENDBRANCH  28  29
ENDBRANCH  27  28
ENDBRANCH  26  27
ENDBRANCH  25  26
ENDBRANCH   1  25
TORSDOF 18
ENDMDL
MODEL 2
REMARK VINA RESULT:     -11.4      1.095      2.103
REMARK SMILES CSc1nc(N)cc(Nc2cccc(C(=O)OCCOCCOC(=O)c3ccc(-c4c5nc(c(-c6c(F)c(F)c(F)c(F)c6F)c6ccc([nH]6)c(-c6c(F)c(F)c(F)c(F)c6F)c6nc(c(-c7c(F)c(F)c(F)c(F)c7F)c7ccc4[nH]7)C=C6)C=C5)cc3)c2)n1
REMARK SMILES IDX 19 1 18 2 17 3 15 4 16 5 14 6 10 7 11 8 89 9 12 10 13 11
REMARK SMILES IDX 9 12 8 14 3 15 4 16 90 17 5 18 7 19 2 20 1 21 6 22 20 25
REMARK SMILES IDX 21 26 22 27 23 28 24 29 25 30 26 31 27 32 88 33 28 34 87 35
REMARK SMILES IDX 29 36 30 37 31 38 81 39 32 40 86 41 80 42 82 43 33 44 85 45
REMARK SMILES IDX 79 46 78 47 34 49 66 50 46 51 65 52 47 53 50 54 64 55 83 56
REMARK SMILES IDX 48 57 49 58 63 60 84 61 51 62 35 63 36 64 44 65 37 66 38 67
REMARK SMILES IDX 42 68 45 69 39 70 40 71 43 72 41 73 67 74 68 75 76 76 69 77
REMARK SMILES IDX 70 78 74 79 77 80 71 81 72 82 75 83 73 84 52 85 53 86 61 87
REMARK SMILES IDX 54 88 55 89 59 90 62 91 56 92 57 93 60 94 58 95
REMARK H PARENT 9 13 6 23 6 24 82 48 50 59
REMARK Flexibility Score: inf
ROOT
ATOM      1  C   UNL A   1      43.231  19.306  25.679  1.00  0.00     0.202 C 
ENDROOT
BRANCH   1   2
ATOM      2  C   UNL A   1      41.739  19.301  26.027  1.00  0.00     0.261 C 
BRANCH   2   3
ATOM      3  O   UNL A   1      41.173  20.606  25.822  1.00  0.00    -0.460 OA
BRANCH   3   4
ATOM      4  C   UNL A   1      40.501  21.127  26.877  1.00  0.00     0.338 C 
ATOM      5  O   UNL A   1      40.816  21.051  28.055  1.00  0.00    -0.246 OA
BRANCH   4   6
ATOM      6  C   UNL A   1      39.405  21.994  26.388  1.00  0.00     0.062 A 
ATOM      7  C   UNL A   1      37.350  22.350  25.132  1.00  0.00     0.040 A 
ATOM      8  C   UNL A   1      37.391  23.703  25.501  1.00  0.00     0.026 A 
ATOM      9  C   UNL A   1      38.393  21.512  25.553  1.00  0.00     0.041 A 
ATOM     10  C   UNL A   1      38.416  24.196  26.315  1.00  0.00     0.003 A 
ATOM     11  C   UNL A   1      39.410  23.338  26.775  1.00  0.00     0.016 A 
BRANCH   7  12
ATOM     12  N   UNL A   1      36.214  21.856  24.457  1.00  0.00    -0.340 N 
ATOM     13  H   UNL A   1      36.315  20.986  24.008  1.00  0.00     0.168 HD
BRANCH  12  14
ATOM     14  C   UNL A   1      34.949  22.470  24.356  1.00  0.00     0.137 A 
ATOM     15  C   UNL A   1      32.990  23.179  25.318  1.00  0.00     0.191 A 
ATOM     16  N   UNL A   1      32.493  23.657  24.173  1.00  0.00    -0.206 NA
ATOM     17  N   UNL A   1      34.189  22.610  25.451  1.00  0.00    -0.205 NA
ATOM     18  C   UNL A   1      33.265  23.522  23.093  1.00  0.00     0.130 A 
ATOM     19  C   UNL A   1      34.498  22.903  23.126  1.00  0.00     0.093 A 
BRANCH  15  20
ATOM     20  S   UNL A   1      31.977  23.211  26.773  1.00  0.00    -0.090 SA
ATOM     21  C   UNL A   1      33.098  22.370  27.907  1.00  0.00     0.094 C 
ENDBRANCH  15  20
BRANCH  18  22
ATOM     22  N   UNL A   1      32.737  23.977  21.899  1.00  0.00    -0.383 N 
ATOM     23  H   UNL A   1      31.761  24.027  21.781  1.00  0.00     0.158 HD
ATOM     24  H   UNL A   1      33.337  24.252  21.169  1.00  0.00     0.158 HD
ENDBRANCH  18  22
ENDBRANCH  12  14
ENDBRANCH   7  12
ENDBRANCH   4   6
ENDBRANCH   3   4
ENDBRANCH   2   3
ENDBRANCH   1   2
BRANCH   1  25
ATOM     25  O   UNL A   1      43.636  20.280  24.715  1.00  0.00    -0.374 OA
BRANCH  25  26
ATOM     26  C   UNL A   1      44.417  21.375  25.199  1.00  0.00     0.202 C 
BRANCH  26  27
ATOM     27  C   UNL A   1      44.609  22.535  24.217  1.00  0.00     0.261 C 
BRANCH  27  28
ATOM     28  O   UNL A   1      43.821  23.680  24.593  1.00  0.00    -0.460 OA
BRANCH  28  29
ATOM     29  C   UNL A   1      44.534  24.737  25.043  1.00  0.00     0.338 C 
ATOM     30  O   UNL A   1      45.638  25.104  24.669  1.00  0.00    -0.246 OA
BRANCH  29  31
ATOM     31  C   UNL A   1      43.719  25.527  25.984  1.00  0.00     0.060 A 
ATOM     32  C   UNL A   1      43.976  26.902  26.063  1.00  0.00     0.016 A 
ATOM     33  C   UNL A   1      42.774  24.934  26.824  1.00  0.00     0.016 A 
ATOM     34  C   UNL A   1      43.330  27.680  27.020  1.00  0.00     0.010 A 
ATOM     35  C   UNL A   1      42.130  25.714  27.790  1.00  0.00     0.010 A 
ATOM     36  C   UNL A   1      42.433  27.082  27.916  1.00  0.00    -0.014 A 
BRANCH  36  37
ATOM     37  C   UNL A   1      41.931  27.859  29.074  1.00  0.00     0.031 A 
ATOM     38  C   UNL A   1      42.686  27.800  30.372  1.00  0.00     0.074 A 
ATOM     39  C   UNL A   1      40.832  28.625  28.965  1.00  0.00     0.049 A 
ATOM     40  N   UNL A   1      42.415  28.370  31.520  1.00  0.00    -0.248 NA
ATOM     41  C   UNL A   1      43.912  26.987  30.378  1.00  0.00     0.031 C 
ATOM     42  C   UNL A   1      40.038  28.792  27.751  1.00  0.00     0.029 A 
ATOM     43  N   UNL A   1      40.195  29.405  29.898  1.00  0.00    -0.354 N 
ATOM     44  C   UNL A   1      43.431  27.980  32.382  1.00  0.00     0.074 A 
ATOM     45  C   UNL A   1      44.307  27.102  31.637  1.00  0.00     0.031 C 
ATOM     46  C   UNL A   1      39.010  29.616  28.014  1.00  0.00     0.029 A 
ATOM     47  C   UNL A   1      39.059  30.010  29.421  1.00  0.00     0.049 A 
ATOM     48  H   UNL A   1      40.521  29.518  30.820  1.00  0.00     0.167 HD
ATOM     49  C   UNL A   1      43.622  28.331  33.676  1.00  0.00     0.037 A 
ATOM     50  C   UNL A   1      38.153  30.778  30.057  1.00  0.00     0.037 A 
ATOM     51  C   UNL A   1      42.750  29.206  34.415  1.00  0.00     0.049 A 
ATOM     52  C   UNL A   1      38.349  31.099  31.517  1.00  0.00     0.074 A 
ATOM     53  C   UNL A   1      42.868  29.639  35.724  1.00  0.00     0.029 A 
ATOM     54  N   UNL A   1      41.591  29.776  33.908  1.00  0.00    -0.354 N 
ATOM     55  N   UNL A   1      39.325  30.749  32.320  1.00  0.00    -0.248 NA
ATOM     56  C   UNL A   1      37.316  31.926  32.157  1.00  0.00     0.031 C 
ATOM     57  C   UNL A   1      41.754  30.432  36.025  1.00  0.00     0.029 A 
ATOM     58  C   UNL A   1      40.969  30.535  34.888  1.00  0.00     0.049 A 
ATOM     59  H   UNL A   1      41.259  29.658  32.989  1.00  0.00     0.167 HD
ATOM     60  C   UNL A   1      39.041  31.333  33.547  1.00  0.00     0.074 A 
ATOM     61  C   UNL A   1      37.804  32.069  33.381  1.00  0.00     0.031 C 
ATOM     62  C   UNL A   1      39.742  31.268  34.706  1.00  0.00     0.037 A 
BRANCH  49  63
ATOM     63  C   UNL A   1      44.808  27.744  34.384  1.00  0.00     0.064 A 
ATOM     64  C   UNL A   1      46.056  28.385  34.389  1.00  0.00     0.173 A 
ATOM     65  C   UNL A   1      44.688  26.534  35.084  1.00  0.00     0.173 A 
ATOM     66  F   UNL A   1      46.227  29.536  33.722  1.00  0.00    -0.203 F 
ATOM     67  C   UNL A   1      47.148  27.820  35.043  1.00  0.00     0.198 A 
ATOM     68  C   UNL A   1      45.774  25.987  35.761  1.00  0.00     0.198 A 
ATOM     69  F   UNL A   1      43.515  25.884  35.114  1.00  0.00    -0.203 F 
ATOM     70  F   UNL A   1      48.343  28.423  34.993  1.00  0.00    -0.200 F 
ATOM     71  C   UNL A   1      47.005  26.626  35.733  1.00  0.00     0.200 A 
ATOM     72  F   UNL A   1      45.631  24.839  36.437  1.00  0.00    -0.200 F 
ATOM     73  F   UNL A   1      48.056  26.085  36.366  1.00  0.00    -0.200 F 
ENDBRANCH  49  63
BRANCH  50  74
ATOM     74  C   UNL A   1      36.973  31.294  29.318  1.00  0.00     0.064 A 
ATOM     75  C   UNL A   1      36.884  32.642  28.949  1.00  0.00     0.173 A 
ATOM     76  C   UNL A   1      35.906  30.451  28.973  1.00  0.00     0.173 A 
ATOM     77  F   UNL A   1      37.867  33.493  29.282  1.00  0.00    -0.203 F 
ATOM     78  C   UNL A   1      35.768  33.132  28.274  1.00  0.00     0.198 A 
ATOM     79  C   UNL A   1      34.802  30.935  28.276  1.00  0.00     0.198 A 
ATOM     80  F   UNL A   1      35.939  29.153  29.311  1.00  0.00    -0.203 F 
ATOM     81  F   UNL A   1      35.689  34.435  27.971  1.00  0.00    -0.200 F 
ATOM     82  C   UNL A   1      34.731  32.277  27.932  1.00  0.00     0.200 A 
ATOM     83  F   UNL A   1      33.806  30.105  27.942  1.00  0.00    -0.200 F 
ATOM     84  F   UNL A   1      33.658  32.748  27.282  1.00  0.00    -0.200 F 
ENDBRANCH  50  74
BRANCH  62  85
ATOM     85  C   UNL A   1      39.211  32.041  35.878  1.00  0.00     0.064 A 
ATOM     86  C   UNL A   1      39.559  33.381  36.097  1.00  0.00     0.173 A 
ATOM     87  C   UNL A   1      38.306  31.443  36.769  1.00  0.00     0.173 A 
ATOM     88  F   UNL A   1      40.431  33.994  35.282  1.00  0.00    -0.203 F 
ATOM     89  C   UNL A   1      39.037  34.088  37.177  1.00  0.00     0.198 A 
ATOM     90  C   UNL A   1      37.765  32.161  37.832  1.00  0.00     0.198 A 
ATOM     91  F   UNL A   1      37.935  30.165  36.601  1.00  0.00    -0.203 F 
ATOM     92  F   UNL A   1      39.418  35.356  37.392  1.00  0.00    -0.200 F 
ATOM     93  C   UNL A   1      38.136  33.482  38.039  1.00  0.00     0.200 A 
ATOM     94  F   UNL A   1      36.883  31.577  38.654  1.00  0.00    -0.200 F 
ATOM     95  F   UNL A   1      37.629  34.166  39.074  1.00  0.00    -0.200 F 
ENDBRANCH  62  85
ENDBRANCH  36  37
ENDBRANCH  29  31
ENDBRANCH  28  29
ENDBRANCH  27  28
ENDBRANCH  26  27
ENDBRANCH  25  26
ENDBRANCH   1  25
TORSDOF 18
ENDMDL
MODEL 3
REMARK VINA RESULT:     -11.2      1.046      1.989
REMARK SMILES CSc1nc(N)cc(Nc2cccc(C(=O)OCCOCCOC(=O)c3ccc(-c4c5nc(c(-c6c(F)c(F)c(F)c(F)c6F)c6ccc([nH]6)c(-c6c(F)c(F)c(F)c(F)c6F)c6nc(c(-c7c(F)c(F)c(F)c(F)c7F)c7ccc4[nH]7)C=C6)C=C5)cc3)c2)n1
REMARK SMILES IDX 19 1 18 2 17 3 15 4 16 5 14 6 10 7 11 8 89 9 12 10 13 11
REMARK SMILES IDX 9 12 8 14 3 15 4 16 90 17 5 18 7 19 2 20 1 21 6 22 20 25
REMARK SMILES IDX 21 26 22 27 23 28 24 29 25 30 26 31 27 32 88 33 28 34 87 35
REMARK SMILES IDX 29 36 30 37 31 38 81 39 32 40 86 41 80 42 82 43 33 44 85 45
REMARK SMILES IDX 79 46 78 47 34 49 66 50 46 51 65 52 47 53 50 54 64 55 83 56
REMARK SMILES IDX 48 57 49 58 63 60 84 61 51 62 35 63 36 64 44 65 37 66 38 67
REMARK SMILES IDX 42 68 45 69 39 70 40 71 43 72 41 73 67 74 68 75 76 76 69 77
REMARK SMILES IDX 70 78 74 79 77 80 71 81 72 82 75 83 73 84 52 85 53 86 61 87
REMARK SMILES IDX 54 88 55 89 59 90 62 91 56 92 57 93 60 94 58 95
REMARK H PARENT 9 13 6 23 6 24 82 48 50 59
REMARK Flexibility Score: inf
ROOT
ATOM      1  C   UNL A   1      42.082  19.256  26.256  1.00  0.00     0.202 C 
ENDROOT
BRANCH   1   2
ATOM      2  C   UNL A   1      41.074  20.140  26.999  1.00  0.00     0.261 C 
BRANCH   2   3
ATOM      3  O   UNL A   1      40.348  20.962  26.071  1.00  0.00    -0.460 OA
BRANCH   3   4
ATOM      4  C   UNL A   1      39.161  20.463  25.648  1.00  0.00     0.338 C 
ATOM      5  O   UNL A   1      38.912  19.298  25.376  1.00  0.00    -0.246 OA
BRANCH   4   6
ATOM      6  C   UNL A   1      38.119  21.510  25.749  1.00  0.00     0.062 A 
ATOM      7  C   UNL A   1      35.792  22.224  25.755  1.00  0.00     0.040 A 
ATOM      8  C   UNL A   1      36.227  23.546  25.933  1.00  0.00     0.026 A 
ATOM      9  C   UNL A   1      36.758  21.216  25.623  1.00  0.00     0.041 A 
ATOM     10  C   UNL A   1      37.588  23.848  26.032  1.00  0.00     0.003 A 
ATOM     11  C   UNL A   1      38.532  22.829  25.961  1.00  0.00     0.016 A 
BRANCH   7  12
ATOM     12  N   UNL A   1      34.412  21.939  25.832  1.00  0.00    -0.340 N 
ATOM     13  H   UNL A   1      33.910  22.394  26.547  1.00  0.00     0.168 HD
BRANCH  12  14
ATOM     14  C   UNL A   1      33.673  21.074  24.999  1.00  0.00     0.137 A 
ATOM     15  C   UNL A   1      32.854  18.986  24.513  1.00  0.00     0.191 A 
ATOM     16  N   UNL A   1      32.244  19.385  23.392  1.00  0.00    -0.206 NA
ATOM     17  N   UNL A   1      33.544  19.782  25.332  1.00  0.00    -0.205 NA
ATOM     18  C   UNL A   1      32.371  20.677  23.080  1.00  0.00     0.130 A 
ATOM     19  C   UNL A   1      33.106  21.562  23.840  1.00  0.00     0.093 A 
BRANCH  15  20
ATOM     20  S   UNL A   1      32.835  17.264  24.934  1.00  0.00    -0.090 SA
ATOM     21  C   UNL A   1      34.570  16.885  24.626  1.00  0.00     0.094 C 
ENDBRANCH  15  20
BRANCH  18  22
ATOM     22  N   UNL A   1      31.778  21.084  21.899  1.00  0.00    -0.383 N 
ATOM     23  H   UNL A   1      32.121  21.876  21.426  1.00  0.00     0.158 HD
ATOM     24  H   UNL A   1      31.015  20.583  21.534  1.00  0.00     0.158 HD
ENDBRANCH  18  22
ENDBRANCH  12  14
ENDBRANCH   7  12
ENDBRANCH   4   6
ENDBRANCH   3   4
ENDBRANCH   2   3
ENDBRANCH   1   2
BRANCH   1  25
ATOM     25  O   UNL A   1      42.725  19.866  25.134  1.00  0.00    -0.374 OA
BRANCH  25  26
ATOM     26  C   UNL A   1      44.144  20.018  25.214  1.00  0.00     0.202 C 
BRANCH  26  27
ATOM     27  C   UNL A   1      44.646  21.454  25.388  1.00  0.00     0.261 C 
BRANCH  27  28
ATOM     28  O   UNL A   1      43.558  22.397  25.395  1.00  0.00    -0.460 OA
BRANCH  28  29
ATOM     29  C   UNL A   1      43.916  23.679  25.155  1.00  0.00     0.338 C 
ATOM     30  O   UNL A   1      44.630  24.096  24.255  1.00  0.00    -0.246 OA
BRANCH  29  31
ATOM     31  C   UNL A   1      43.185  24.582  26.062  1.00  0.00     0.060 A 
ATOM     32  C   UNL A   1      43.530  25.940  26.035  1.00  0.00     0.016 A 
ATOM     33  C   UNL A   1      42.235  24.110  26.970  1.00  0.00     0.016 A 
ATOM     34  C   UNL A   1      42.966  26.821  26.954  1.00  0.00     0.010 A 
ATOM     35  C   UNL A   1      41.675  24.994  27.897  1.00  0.00     0.010 A 
ATOM     36  C   UNL A   1      42.067  26.345  27.918  1.00  0.00    -0.014 A 
BRANCH  36  37
ATOM     37  C   UNL A   1      41.654  27.230  29.033  1.00  0.00     0.031 A 
ATOM     38  C   UNL A   1      42.439  27.200  30.314  1.00  0.00     0.074 A 
ATOM     39  C   UNL A   1      40.612  28.067  28.898  1.00  0.00     0.049 A 
ATOM     40  N   UNL A   1      42.242  27.860  31.427  1.00  0.00    -0.248 NA
ATOM     41  C   UNL A   1      43.603  26.300  30.345  1.00  0.00     0.031 C 
ATOM     42  C   UNL A   1      39.798  28.214  27.695  1.00  0.00     0.029 A 
ATOM     43  N   UNL A   1      40.059  28.951  29.791  1.00  0.00    -0.354 N 
ATOM     44  C   UNL A   1      43.251  27.453  32.290  1.00  0.00     0.074 A 
ATOM     45  C   UNL A   1      44.040  26.466  31.585  1.00  0.00     0.031 C 
ATOM     46  C   UNL A   1      38.840  29.128  27.926  1.00  0.00     0.029 A 
ATOM     47  C   UNL A   1      38.957  29.607  29.302  1.00  0.00     0.049 A 
ATOM     48  H   UNL A   1      40.418  29.099  30.696  1.00  0.00     0.167 HD
ATOM     49  C   UNL A   1      43.502  27.872  33.553  1.00  0.00     0.037 A 
ATOM     50  C   UNL A   1      38.128  30.479  29.906  1.00  0.00     0.037 A 
ATOM     51  C   UNL A   1      42.717  28.855  34.252  1.00  0.00     0.049 A 
ATOM     52  C   UNL A   1      38.386  30.879  31.336  1.00  0.00     0.074 A 
ATOM     53  C   UNL A   1      42.902  29.362  35.526  1.00  0.00     0.029 A 
ATOM     54  N   UNL A   1      41.589  29.476  33.736  1.00  0.00    -0.354 N 
ATOM     55  N   UNL A   1      39.357  30.509  32.138  1.00  0.00    -0.248 NA
ATOM     56  C   UNL A   1      37.435  31.819  31.944  1.00  0.00     0.031 C 
ATOM     57  C   UNL A   1      41.858  30.252  35.800  1.00  0.00     0.029 A 
ATOM     58  C   UNL A   1      41.051  30.340  34.676  1.00  0.00     0.049 A 
ATOM     59  H   UNL A   1      41.224  29.323  32.834  1.00  0.00     0.167 HD
ATOM     60  C   UNL A   1      39.150  31.191  33.330  1.00  0.00     0.074 A 
ATOM     61  C   UNL A   1      37.966  32.005  33.144  1.00  0.00     0.031 C 
ATOM     62  C   UNL A   1      39.876  31.149  34.474  1.00  0.00     0.037 A 
BRANCH  49  63
ATOM     63  C   UNL A   1      44.662  27.245  34.271  1.00  0.00     0.064 A 
ATOM     64  C   UNL A   1      45.952  27.795  34.211  1.00  0.00     0.173 A 
ATOM     65  C   UNL A   1      44.476  26.090  35.045  1.00  0.00     0.173 A 
ATOM     66  F   UNL A   1      46.185  28.889  33.473  1.00  0.00    -0.203 F 
ATOM     67  C   UNL A   1      47.017  27.194  34.876  1.00  0.00     0.198 A 
ATOM     68  C   UNL A   1      45.537  25.509  35.732  1.00  0.00     0.198 A 
ATOM     69  F   UNL A   1      43.261  25.528  35.139  1.00  0.00    -0.203 F 
ATOM     70  F   UNL A   1      48.250  27.707  34.764  1.00  0.00    -0.200 F 
ATOM     71  C   UNL A   1      46.808  26.055  35.640  1.00  0.00     0.200 A 
ATOM     72  F   UNL A   1      45.332  24.416  36.480  1.00  0.00    -0.200 F 
ATOM     73  F   UNL A   1      47.834  25.480  36.283  1.00  0.00    -0.200 F 
ENDBRANCH  49  63
BRANCH  50  74
ATOM     74  C   UNL A   1      36.968  31.033  29.162  1.00  0.00     0.064 A 
ATOM     75  C   UNL A   1      35.850  30.240  28.871  1.00  0.00     0.173 A 
ATOM     76  C   UNL A   1      36.958  32.364  28.718  1.00  0.00     0.173 A 
ATOM     77  F   UNL A   1      35.827  28.953  29.249  1.00  0.00    -0.203 F 
ATOM     78  C   UNL A   1      34.771  30.752  28.153  1.00  0.00     0.198 A 
ATOM     79  C   UNL A   1      35.868  32.883  28.024  1.00  0.00     0.198 A 
ATOM     80  F   UNL A   1      38.007  33.162  28.964  1.00  0.00    -0.203 F 
ATOM     81  F   UNL A   1      33.734  29.960  27.851  1.00  0.00    -0.200 F 
ATOM     82  C   UNL A   1      34.778  32.075  27.736  1.00  0.00     0.200 A 
ATOM     83  F   UNL A   1      35.876  34.163  27.629  1.00  0.00    -0.200 F 
ATOM     84  F   UNL A   1      33.739  32.568  27.048  1.00  0.00    -0.200 F 
ENDBRANCH  50  74
BRANCH  62  85
ATOM     85  C   UNL A   1      39.435  32.033  35.605  1.00  0.00     0.064 A 
ATOM     86  C   UNL A   1      38.516  31.594  36.569  1.00  0.00     0.173 A 
ATOM     87  C   UNL A   1      39.977  33.320  35.750  1.00  0.00     0.173 A 
ATOM     88  F   UNL A   1      37.960  30.379  36.468  1.00  0.00    -0.203 F 
ATOM     89  C   UNL A   1      38.138  32.421  37.624  1.00  0.00     0.198 A 
ATOM     90  C   UNL A   1      39.617  34.132  36.822  1.00  0.00     0.198 A 
ATOM     91  F   UNL A   1      40.865  33.784  34.859  1.00  0.00    -0.203 F 
ATOM     92  F   UNL A   1      37.224  31.998  38.509  1.00  0.00    -0.200 F 
ATOM     93  C   UNL A   1      38.693  33.685  37.754  1.00  0.00     0.200 A 
ATOM     94  F   UNL A   1      40.166  35.348  36.953  1.00  0.00    -0.200 F 
ATOM     95  F   UNL A   1      38.333  34.476  38.774  1.00  0.00    -0.200 F 
ENDBRANCH  62  85
ENDBRANCH  36  37
ENDBRANCH  29  31
ENDBRANCH  28  29
ENDBRANCH  27  28
ENDBRANCH  26  27
ENDBRANCH  25  26
ENDBRANCH   1  25
TORSDOF 18
ENDMDL
