MODEL 1
REMARK VINA RESULT:     -11.0      0.000      0.000
REMARK SMILES CC[C@@](C)([NH3+])C(=O)N1CC[NH+]([C@H](C)C(=O)OCCOCCOC(=O)c2ccc(-c3c4nc(c(-c5c(F)c(F)c(F)c(F)c5F)c5ccc([nH]5)c(-c5c(F)c(F)c(F)c(F)c5F)c5nc(c(-c6c(F)c(F)c(F)c(F)c6F)c6ccc3[nH]6)C=C5)C=C4)cc2)CC1
REMARK SMILES IDX 18 1 17 2 16 3 14 4 15 5 12 6 13 7 11 8 6 9 7 10 8 11 9 12
REMARK SMILES IDX 89 13 10 14 88 15 3 17 4 18 2 19 1 20 5 21 19 25 20 26 21 27
REMARK SMILES IDX 22 28 23 29 24 30 25 31 26 32 87 33 27 34 86 35 28 36 29 37
REMARK SMILES IDX 30 38 80 39 31 40 85 41 79 42 81 43 32 44 84 45 78 46 77 47
REMARK SMILES IDX 33 49 65 50 45 51 64 52 46 53 49 54 63 55 82 56 47 57 48 58
REMARK SMILES IDX 62 60 83 61 50 62 34 63 35 64 43 65 36 66 37 67 41 68 44 69
REMARK SMILES IDX 38 70 39 71 42 72 40 73 66 74 67 75 75 76 68 77 69 78 73 79
REMARK SMILES IDX 76 80 70 81 71 82 74 83 72 84 51 85 52 86 60 87 53 88 54 89
REMARK SMILES IDX 58 90 61 91 55 92 56 93 59 94 57 95
REMARK H PARENT 11 16 5 22 5 23 5 24 81 48 49 59
REMARK Flexibility Score: inf
ROOT
ATOM      1  C   UNL A   1      31.752  28.779  27.176  1.00  0.00     0.202 C 
ENDROOT
BRANCH   1   2
ATOM      2  C   UNL A   1      32.170  28.006  25.922  1.00  0.00     0.261 C 
BRANCH   2   3
ATOM      3  O   UNL A   1      31.339  26.849  25.721  1.00  0.00    -0.459 OA
BRANCH   3   4
ATOM      4  C   UNL A   1      31.508  26.188  24.540  1.00  0.00     0.364 C 
ATOM      5  O   UNL A   1      31.897  26.708  23.500  1.00  0.00    -0.245 OA
BRANCH   4   6
ATOM      6  C   UNL A   1      31.138  24.697  24.648  1.00  0.00     0.292 C 
ATOM      7  C   UNL A   1      30.571  24.098  23.353  1.00  0.00     0.088 C 
BRANCH   6   8
ATOM      8  N   UNL A   1      32.272  23.958  25.248  1.00  0.00    -0.321 N 
ATOM      9  C   UNL A   1      34.525  20.452  25.190  1.00  0.00     0.283 C 
ATOM     10  O   UNL A   1      35.725  20.390  24.896  1.00  0.00    -0.268 OA
ATOM     11  N   UNL A   1      33.989  21.674  25.555  1.00  0.00    -0.326 N 
ATOM     12  C   UNL A   1      34.527  22.889  24.957  1.00  0.00     0.181 C 
ATOM     13  C   UNL A   1      32.971  21.939  26.564  1.00  0.00     0.181 C 
ATOM     14  C   UNL A   1      33.370  23.671  24.299  1.00  0.00     0.284 C 
ATOM     15  C   UNL A   1      31.813  22.750  25.964  1.00  0.00     0.284 C 
ATOM     16  H   UNL A   1      32.683  24.588  25.936  1.00  0.00     0.348 HD
BRANCH   9  17
ATOM     17  C   UNL A   1      33.561  19.240  24.895  1.00  0.00     0.171 C 
ATOM     18  C   UNL A   1      32.471  19.701  23.913  1.00  0.00     0.090 C 
BRANCH  17  19
ATOM     19  C   UNL A   1      34.366  18.047  24.302  1.00  0.00     0.075 C 
ATOM     20  C   UNL A   1      33.715  16.670  24.430  1.00  0.00     0.011 C 
ENDBRANCH  17  19
BRANCH  17  21
ATOM     21  N   UNL A   1      32.911  18.740  26.132  1.00  0.00    -0.345 N 
ATOM     22  H   UNL A   1      32.088  18.190  25.886  1.00  0.00     0.345 HD
ATOM     23  H   UNL A   1      32.630  19.530  26.713  1.00  0.00     0.345 HD
ATOM     24  H   UNL A   1      33.568  18.155  26.649  1.00  0.00     0.345 HD
ENDBRANCH  17  21
ENDBRANCH   9  17
ENDBRANCH   6   8
ENDBRANCH   4   6
ENDBRANCH   3   4
ENDBRANCH   2   3
ENDBRANCH   1   2
BRANCH   1  25
ATOM     25  O   UNL A   1      32.241  30.115  27.288  1.00  0.00    -0.374 OA
BRANCH  25  26
ATOM     26  C   UNL A   1      31.767  31.074  26.346  1.00  0.00     0.202 C 
BRANCH  26  27
ATOM     27  C   UNL A   1      31.945  32.550  26.725  1.00  0.00     0.261 C 
BRANCH  27  28
ATOM     28  O   UNL A   1      32.653  32.719  27.968  1.00  0.00    -0.460 OA
BRANCH  28  29
ATOM     29  C   UNL A   1      33.730  33.534  27.895  1.00  0.00     0.338 C 
ATOM     30  O   UNL A   1      33.734  34.748  27.721  1.00  0.00    -0.246 OA
BRANCH  29  31
ATOM     31  C   UNL A   1      34.965  32.797  28.208  1.00  0.00     0.060 A 
ATOM     32  C   UNL A   1      34.832  31.476  28.655  1.00  0.00     0.016 A 
ATOM     33  C   UNL A   1      36.215  33.418  28.188  1.00  0.00     0.016 A 
ATOM     34  C   UNL A   1      35.943  30.787  29.134  1.00  0.00     0.010 A 
ATOM     35  C   UNL A   1      37.330  32.727  28.679  1.00  0.00     0.010 A 
ATOM     36  C   UNL A   1      37.190  31.423  29.191  1.00  0.00    -0.014 A 
BRANCH  36  37
ATOM     37  C   UNL A   1      38.302  30.773  29.926  1.00  0.00     0.031 A 
ATOM     38  C   UNL A   1      38.523  31.117  31.373  1.00  0.00     0.074 A 
ATOM     39  C   UNL A   1      39.077  29.851  29.328  1.00  0.00     0.049 A 
ATOM     40  N   UNL A   1      39.427  30.668  32.207  1.00  0.00    -0.248 NA
ATOM     41  C   UNL A   1      37.597  32.098  31.961  1.00  0.00     0.031 C 
ATOM     42  C   UNL A   1      38.938  29.403  27.945  1.00  0.00     0.029 A 
ATOM     43  N   UNL A   1      40.136  29.127  29.814  1.00  0.00    -0.354 N 
ATOM     44  C   UNL A   1      39.180  31.310  33.414  1.00  0.00     0.074 A 
ATOM     45  C   UNL A   1      38.061  32.202  33.197  1.00  0.00     0.031 C 
ATOM     46  C   UNL A   1      39.884  28.483  27.689  1.00  0.00     0.029 A 
ATOM     47  C   UNL A   1      40.708  28.297  28.883  1.00  0.00     0.049 A 
ATOM     48  H   UNL A   1      40.456  29.196  30.743  1.00  0.00     0.167 HD
ATOM     49  C   UNL A   1      39.820  31.160  34.598  1.00  0.00     0.037 A 
ATOM     50  C   UNL A   1      41.784  27.492  28.981  1.00  0.00     0.037 A 
ATOM     51  C   UNL A   1      40.931  30.271  34.816  1.00  0.00     0.049 A 
ATOM     52  C   UNL A   1      42.524  27.398  30.288  1.00  0.00     0.074 A 
ATOM     53  C   UNL A   1      41.630  30.032  35.985  1.00  0.00     0.029 A 
ATOM     54  N   UNL A   1      41.511  29.480  33.835  1.00  0.00    -0.354 N 
ATOM     55  N   UNL A   1      42.266  27.986  31.431  1.00  0.00    -0.248 NA
ATOM     56  C   UNL A   1      43.707  26.525  30.318  1.00  0.00     0.031 C 
ATOM     57  C   UNL A   1      42.662  29.130  35.703  1.00  0.00     0.029 A 
ATOM     58  C   UNL A   1      42.577  28.774  34.367  1.00  0.00     0.049 A 
ATOM     59  H   UNL A   1      41.209  29.428  32.899  1.00  0.00     0.167 HD
ATOM     60  C   UNL A   1      43.236  27.539  32.320  1.00  0.00     0.074 A 
ATOM     61  C   UNL A   1      44.082  26.621  31.587  1.00  0.00     0.031 C 
ATOM     62  C   UNL A   1      43.411  27.862  33.625  1.00  0.00     0.037 A 
BRANCH  49  63
ATOM     63  C   UNL A   1      39.346  31.996  35.749  1.00  0.00     0.064 A 
ATOM     64  C   UNL A   1      38.417  31.508  36.680  1.00  0.00     0.173 A 
ATOM     65  C   UNL A   1      39.850  33.291  35.940  1.00  0.00     0.173 A 
ATOM     66  F   UNL A   1      37.895  30.281  36.532  1.00  0.00    -0.203 F 
ATOM     67  C   UNL A   1      37.991  32.296  37.746  1.00  0.00     0.198 A 
ATOM     68  C   UNL A   1      39.442  34.067  37.022  1.00  0.00     0.198 A 
ATOM     69  F   UNL A   1      40.744  33.803  35.080  1.00  0.00    -0.203 F 
ATOM     70  F   UNL A   1      37.070  31.826  38.599  1.00  0.00    -0.200 F 
ATOM     71  C   UNL A   1      38.508  33.572  37.920  1.00  0.00     0.200 A 
ATOM     72  F   UNL A   1      39.949  35.295  37.192  1.00  0.00    -0.200 F 
ATOM     73  F   UNL A   1      38.100  34.327  38.948  1.00  0.00    -0.200 F 
ENDBRANCH  49  63
BRANCH  50  74
ATOM     74  C   UNL A   1      42.234  26.714  27.798  1.00  0.00     0.064 A 
ATOM     75  C   UNL A   1      43.163  27.244  26.894  1.00  0.00     0.173 A 
ATOM     76  C   UNL A   1      41.732  25.431  27.542  1.00  0.00     0.173 A 
ATOM     77  F   UNL A   1      43.651  28.480  27.083  1.00  0.00    -0.203 F 
ATOM     78  C   UNL A   1      43.565  26.524  25.771  1.00  0.00     0.198 A 
ATOM     79  C   UNL A   1      42.152  24.701  26.433  1.00  0.00     0.198 A 
ATOM     80  F   UNL A   1      40.836  24.882  28.376  1.00  0.00    -0.203 F 
ATOM     81  F   UNL A   1      44.426  27.070  24.901  1.00  0.00    -0.200 F 
ATOM     82  C   UNL A   1      43.064  25.251  25.544  1.00  0.00     0.200 A 
ATOM     83  F   UNL A   1      41.671  23.468  26.222  1.00  0.00    -0.200 F 
ATOM     84  F   UNL A   1      43.453  24.558  24.466  1.00  0.00    -0.200 F 
ENDBRANCH  50  74
BRANCH  62  85
ATOM     85  C   UNL A   1      44.544  27.201  34.353  1.00  0.00     0.064 A 
ATOM     86  C   UNL A   1      44.389  25.947  34.965  1.00  0.00     0.173 A 
ATOM     87  C   UNL A   1      45.809  27.805  34.402  1.00  0.00     0.173 A 
ATOM     88  F   UNL A   1      43.195  25.336  34.958  1.00  0.00    -0.203 F 
ATOM     89  C   UNL A   1      45.455  25.335  35.618  1.00  0.00     0.198 A 
ATOM     90  C   UNL A   1      46.879  27.176  35.033  1.00  0.00     0.198 A 
ATOM     91  F   UNL A   1      46.010  28.999  33.826  1.00  0.00    -0.203 F 
ATOM     92  F   UNL A   1      45.274  24.157  36.232  1.00  0.00    -0.200 F 
ATOM     93  C   UNL A   1      46.700  25.945  35.646  1.00  0.00     0.200 A 
ATOM     94  F   UNL A   1      48.084  27.763  35.048  1.00  0.00    -0.200 F 
ATOM     95  F   UNL A   1      47.726  25.350  36.269  1.00  0.00    -0.200 F 
ENDBRANCH  62  85
ENDBRANCH  36  37
ENDBRANCH  29  31
ENDBRANCH  28  29
ENDBRANCH  27  28
ENDBRANCH  26  27
ENDBRANCH  25  26
ENDBRANCH   1  25
TORSDOF 18
ENDMDL
MODEL 2
REMARK VINA RESULT:     -10.8      1.358      2.629
REMARK SMILES CC[C@@](C)([NH3+])C(=O)N1CC[NH+]([C@H](C)C(=O)OCCOCCOC(=O)c2ccc(-c3c4nc(c(-c5c(F)c(F)c(F)c(F)c5F)c5ccc([nH]5)c(-c5c(F)c(F)c(F)c(F)c5F)c5nc(c(-c6c(F)c(F)c(F)c(F)c6F)c6ccc3[nH]6)C=C5)C=C4)cc2)CC1
REMARK SMILES IDX 18 1 17 2 16 3 14 4 15 5 12 6 13 7 11 8 6 9 7 10 8 11 9 12
REMARK SMILES IDX 89 13 10 14 88 15 3 17 4 18 2 19 1 20 5 21 19 25 20 26 21 27
REMARK SMILES IDX 22 28 23 29 24 30 25 31 26 32 87 33 27 34 86 35 28 36 29 37
REMARK SMILES IDX 30 38 80 39 31 40 85 41 79 42 81 43 32 44 84 45 78 46 77 47
REMARK SMILES IDX 33 49 65 50 45 51 64 52 46 53 49 54 63 55 82 56 47 57 48 58
REMARK SMILES IDX 62 60 83 61 50 62 34 63 35 64 43 65 36 66 37 67 41 68 44 69
REMARK SMILES IDX 38 70 39 71 42 72 40 73 66 74 67 75 75 76 68 77 69 78 73 79
REMARK SMILES IDX 76 80 70 81 71 82 74 83 72 84 51 85 52 86 60 87 53 88 54 89
REMARK SMILES IDX 58 90 61 91 55 92 56 93 59 94 57 95
REMARK H PARENT 11 16 5 22 5 23 5 24 81 48 49 59
REMARK Flexibility Score: inf
ROOT
ATOM      1  C   UNL A   1      31.663  28.523  27.566  1.00  0.00     0.202 C 
ENDROOT
BRANCH   1   2
ATOM      2  C   UNL A   1      31.412  27.623  26.353  1.00  0.00     0.261 C 
BRANCH   2   3
ATOM      3  O   UNL A   1      30.665  26.450  26.719  1.00  0.00    -0.459 OA
BRANCH   3   4
ATOM      4  C   UNL A   1      30.493  25.519  25.736  1.00  0.00     0.364 C 
ATOM      5  O   UNL A   1      29.678  25.610  24.826  1.00  0.00    -0.245 OA
BRANCH   4   6
ATOM      6  C   UNL A   1      31.437  24.314  25.904  1.00  0.00     0.292 C 
ATOM      7  C   UNL A   1      30.761  22.954  25.674  1.00  0.00     0.088 C 
BRANCH   6   8
ATOM      8  N   UNL A   1      32.671  24.551  25.121  1.00  0.00    -0.321 N 
ATOM      9  C   UNL A   1      36.382  23.035  23.981  1.00  0.00     0.283 C 
ATOM     10  O   UNL A   1      36.699  22.746  22.821  1.00  0.00    -0.268 OA
ATOM     11  N   UNL A   1      35.305  23.878  24.188  1.00  0.00    -0.326 N 
ATOM     12  C   UNL A   1      34.191  23.845  23.249  1.00  0.00     0.181 C 
ATOM     13  C   UNL A   1      35.154  24.902  25.214  1.00  0.00     0.181 C 
ATOM     14  C   UNL A   1      32.890  23.573  24.033  1.00  0.00     0.284 C 
ATOM     15  C   UNL A   1      33.851  24.694  25.999  1.00  0.00     0.284 C 
ATOM     16  H   UNL A   1      32.531  25.441  24.644  1.00  0.00     0.348 HD
BRANCH   9  17
ATOM     17  C   UNL A   1      37.005  22.258  25.203  1.00  0.00     0.171 C 
ATOM     18  C   UNL A   1      37.266  20.802  24.781  1.00  0.00     0.090 C 
BRANCH  17  19
ATOM     19  C   UNL A   1      38.325  22.943  25.658  1.00  0.00     0.075 C 
ATOM     20  C   UNL A   1      38.175  24.094  26.653  1.00  0.00     0.011 C 
ENDBRANCH  17  19
BRANCH  17  21
ATOM     21  N   UNL A   1      36.098  22.261  26.378  1.00  0.00    -0.345 N 
ATOM     22  H   UNL A   1      35.300  22.868  26.190  1.00  0.00     0.345 HD
ATOM     23  H   UNL A   1      36.601  22.604  27.195  1.00  0.00     0.345 HD
ATOM     24  H   UNL A   1      35.767  21.311  26.554  1.00  0.00     0.345 HD
ENDBRANCH  17  21
ENDBRANCH   9  17
ENDBRANCH   6   8
ENDBRANCH   4   6
ENDBRANCH   3   4
ENDBRANCH   2   3
ENDBRANCH   1   2
BRANCH   1  25
ATOM     25  O   UNL A   1      32.406  29.718  27.325  1.00  0.00    -0.374 OA
BRANCH  25  26
ATOM     26  C   UNL A   1      31.855  30.667  26.416  1.00  0.00     0.202 C 
BRANCH  26  27
ATOM     27  C   UNL A   1      31.931  32.140  26.839  1.00  0.00     0.261 C 
BRANCH  27  28
ATOM     28  O   UNL A   1      32.735  32.336  28.017  1.00  0.00    -0.460 OA
BRANCH  28  29
ATOM     29  C   UNL A   1      33.788  33.169  27.848  1.00  0.00     0.338 C 
ATOM     30  O   UNL A   1      33.754  34.368  27.594  1.00  0.00    -0.246 OA
BRANCH  29  31
ATOM     31  C   UNL A   1      35.053  32.483  28.158  1.00  0.00     0.060 A 
ATOM     32  C   UNL A   1      34.980  31.136  28.536  1.00  0.00     0.016 A 
ATOM     33  C   UNL A   1      36.268  33.169  28.202  1.00  0.00     0.016 A 
ATOM     34  C   UNL A   1      36.114  30.483  29.011  1.00  0.00     0.010 A 
ATOM     35  C   UNL A   1      37.405  32.514  28.689  1.00  0.00     0.010 A 
ATOM     36  C   UNL A   1      37.323  31.180  29.133  1.00  0.00    -0.014 A 
BRANCH  36  37
ATOM     37  C   UNL A   1      38.450  30.553  29.865  1.00  0.00     0.031 A 
ATOM     38  C   UNL A   1      38.693  30.933  31.300  1.00  0.00     0.074 A 
ATOM     39  C   UNL A   1      39.220  29.621  29.278  1.00  0.00     0.049 A 
ATOM     40  N   UNL A   1      39.612  30.508  32.130  1.00  0.00    -0.248 NA
ATOM     41  C   UNL A   1      37.771  31.924  31.879  1.00  0.00     0.031 C 
ATOM     42  C   UNL A   1      39.061  29.139  27.908  1.00  0.00     0.029 A 
ATOM     43  N   UNL A   1      40.290  28.913  29.764  1.00  0.00    -0.354 N 
ATOM     44  C   UNL A   1      39.381  31.178  33.325  1.00  0.00     0.074 A 
ATOM     45  C   UNL A   1      38.255  32.060  33.105  1.00  0.00     0.031 C 
ATOM     46  C   UNL A   1      40.007  28.216  27.659  1.00  0.00     0.029 A 
ATOM     47  C   UNL A   1      40.851  28.064  28.844  1.00  0.00     0.049 A 
ATOM     48  H   UNL A   1      40.624  29.007  30.686  1.00  0.00     0.167 HD
ATOM     49  C   UNL A   1      40.041  31.060  34.502  1.00  0.00     0.037 A 
ATOM     50  C   UNL A   1      41.932  27.266  28.944  1.00  0.00     0.037 A 
ATOM     51  C   UNL A   1      41.159  30.182  34.723  1.00  0.00     0.049 A 
ATOM     52  C   UNL A   1      42.694  27.207  30.241  1.00  0.00     0.074 A 
ATOM     53  C   UNL A   1      41.878  29.974  35.887  1.00  0.00     0.029 A 
ATOM     54  N   UNL A   1      41.728  29.370  33.752  1.00  0.00    -0.354 N 
ATOM     55  N   UNL A   1      42.451  27.821  31.374  1.00  0.00    -0.248 NA
ATOM     56  C   UNL A   1      43.881  26.341  30.273  1.00  0.00     0.031 C 
ATOM     57  C   UNL A   1      42.910  29.071  35.609  1.00  0.00     0.029 A 
ATOM     58  C   UNL A   1      42.806  28.682  34.284  1.00  0.00     0.049 A 
ATOM     59  H   UNL A   1      41.411  29.294  32.823  1.00  0.00     0.167 HD
ATOM     60  C   UNL A   1      43.437  27.401  32.257  1.00  0.00     0.074 A 
ATOM     61  C   UNL A   1      44.276  26.469  31.533  1.00  0.00     0.031 C 
ATOM     62  C   UNL A   1      43.631  27.756  33.551  1.00  0.00     0.037 A 
BRANCH  49  63
ATOM     63  C   UNL A   1      39.581  31.922  35.639  1.00  0.00     0.064 A 
ATOM     64  C   UNL A   1      40.114  33.201  35.856  1.00  0.00     0.173 A 
ATOM     65  C   UNL A   1      38.575  31.474  36.508  1.00  0.00     0.173 A 
ATOM     66  F   UNL A   1      41.090  33.669  35.061  1.00  0.00    -0.203 F 
ATOM     67  C   UNL A   1      39.673  33.991  36.914  1.00  0.00     0.198 A 
ATOM     68  C   UNL A   1      38.117  32.276  37.549  1.00  0.00     0.198 A 
ATOM     69  F   UNL A   1      38.030  30.259  36.341  1.00  0.00    -0.203 F 
ATOM     70  F   UNL A   1      40.226  35.192  37.128  1.00  0.00    -0.200 F 
ATOM     71  C   UNL A   1      38.672  33.531  37.757  1.00  0.00     0.200 A 
ATOM     72  F   UNL A   1      37.144  31.833  38.356  1.00  0.00    -0.200 F 
ATOM     73  F   UNL A   1      38.245  34.293  38.772  1.00  0.00    -0.200 F 
ENDBRANCH  49  63
BRANCH  50  74
ATOM     74  C   UNL A   1      42.367  26.462  27.773  1.00  0.00     0.064 A 
ATOM     75  C   UNL A   1      41.873  25.169  27.559  1.00  0.00     0.173 A 
ATOM     76  C   UNL A   1      43.298  26.967  26.853  1.00  0.00     0.173 A 
ATOM     77  F   UNL A   1      41.003  24.633  28.428  1.00  0.00    -0.203 F 
ATOM     78  C   UNL A   1      42.302  24.406  26.475  1.00  0.00     0.198 A 
ATOM     79  C   UNL A   1      43.707  26.213  25.757  1.00  0.00     0.198 A 
ATOM     80  F   UNL A   1      43.803  28.199  27.018  1.00  0.00    -0.203 F 
ATOM     81  F   UNL A   1      41.844  23.157  26.315  1.00  0.00    -0.200 F 
ATOM     82  C   UNL A   1      43.214  24.931  25.571  1.00  0.00     0.200 A 
ATOM     83  F   UNL A   1      44.583  26.727  24.882  1.00  0.00    -0.200 F 
ATOM     84  F   UNL A   1      43.624  24.197  24.528  1.00  0.00    -0.200 F 
ENDBRANCH  50  74
BRANCH  62  85
ATOM     85  C   UNL A   1      44.779  27.118  34.276  1.00  0.00     0.064 A 
ATOM     86  C   UNL A   1      46.039  27.732  34.339  1.00  0.00     0.173 A 
ATOM     87  C   UNL A   1      44.606  25.900  34.952  1.00  0.00     0.173 A 
ATOM     88  F   UNL A   1      46.259  28.888  33.696  1.00  0.00    -0.203 F 
ATOM     89  C   UNL A   1      47.090  27.138  35.034  1.00  0.00     0.198 A 
ATOM     90  C   UNL A   1      45.652  25.324  35.669  1.00  0.00     0.198 A 
ATOM     91  F   UNL A   1      43.420  25.277  34.928  1.00  0.00    -0.203 F 
ATOM     92  F   UNL A   1      48.297  27.722  35.046  1.00  0.00    -0.200 F 
ATOM     93  C   UNL A   1      46.894  25.940  35.704  1.00  0.00     0.200 A 
ATOM     94  F   UNL A   1      45.457  24.172  36.325  1.00  0.00    -0.200 F 
ATOM     95  F   UNL A   1      47.905  25.374  36.378  1.00  0.00    -0.200 F 
ENDBRANCH  62  85
ENDBRANCH  36  37
ENDBRANCH  29  31
ENDBRANCH  28  29
ENDBRANCH  27  28
ENDBRANCH  26  27
ENDBRANCH  25  26
ENDBRANCH   1  25
TORSDOF 18
ENDMDL
MODEL 3
REMARK VINA RESULT:     -10.7      1.347      2.414
REMARK SMILES CC[C@@](C)([NH3+])C(=O)N1CC[NH+]([C@H](C)C(=O)OCCOCCOC(=O)c2ccc(-c3c4nc(c(-c5c(F)c(F)c(F)c(F)c5F)c5ccc([nH]5)c(-c5c(F)c(F)c(F)c(F)c5F)c5nc(c(-c6c(F)c(F)c(F)c(F)c6F)c6ccc3[nH]6)C=C5)C=C4)cc2)CC1
REMARK SMILES IDX 18 1 17 2 16 3 14 4 15 5 12 6 13 7 11 8 6 9 7 10 8 11 9 12
REMARK SMILES IDX 89 13 10 14 88 15 3 17 4 18 2 19 1 20 5 21 19 25 20 26 21 27
REMARK SMILES IDX 22 28 23 29 24 30 25 31 26 32 87 33 27 34 86 35 28 36 29 37
REMARK SMILES IDX 30 38 80 39 31 40 85 41 79 42 81 43 32 44 84 45 78 46 77 47
REMARK SMILES IDX 33 49 65 50 45 51 64 52 46 53 49 54 63 55 82 56 47 57 48 58
REMARK SMILES IDX 62 60 83 61 50 62 34 63 35 64 43 65 36 66 37 67 41 68 44 69
REMARK SMILES IDX 38 70 39 71 42 72 40 73 66 74 67 75 75 76 68 77 69 78 73 79
REMARK SMILES IDX 76 80 70 81 71 82 74 83 72 84 51 85 52 86 60 87 53 88 54 89
REMARK SMILES IDX 58 90 61 91 55 92 56 93 59 94 57 95
REMARK H PARENT 11 16 5 22 5 23 5 24 81 48 49 59
REMARK Flexibility Score: inf
ROOT
ATOM      1  C   UNL A   1      32.787  26.926  26.087  1.00  0.00     0.202 C 
ENDROOT
BRANCH   1   2
ATOM      2  C   UNL A   1      31.424  26.230  26.049  1.00  0.00     0.261 C 
BRANCH   2   3
ATOM      3  O   UNL A   1      31.548  24.862  25.623  1.00  0.00    -0.459 OA
BRANCH   3   4
ATOM      4  C   UNL A   1      31.514  23.921  26.610  1.00  0.00     0.364 C 
ATOM      5  O   UNL A   1      30.534  23.674  27.303  1.00  0.00    -0.245 OA
BRANCH   4   6
ATOM      6  C   UNL A   1      32.866  23.202  26.777  1.00  0.00     0.292 C 
ATOM      7  C   UNL A   1      33.026  22.474  28.120  1.00  0.00     0.088 C 
BRANCH   6   8
ATOM      8  N   UNL A   1      33.130  22.380  25.574  1.00  0.00    -0.321 N 
ATOM      9  C   UNL A   1      32.987  18.568  23.897  1.00  0.00     0.283 C 
ATOM     10  O   UNL A   1      32.276  18.246  22.937  1.00  0.00    -0.268 OA
ATOM     11  N   UNL A   1      33.250  19.909  24.112  1.00  0.00    -0.326 N 
ATOM     12  C   UNL A   1      32.238  20.895  23.755  1.00  0.00     0.181 C 
ATOM     13  C   UNL A   1      34.488  20.512  24.592  1.00  0.00     0.181 C 
ATOM     14  C   UNL A   1      31.921  21.752  24.999  1.00  0.00     0.284 C 
ATOM     15  C   UNL A   1      34.216  21.408  25.810  1.00  0.00     0.284 C 
ATOM     16  H   UNL A   1      33.449  23.031  24.856  1.00  0.00     0.348 HD
BRANCH   9  17
ATOM     17  C   UNL A   1      33.364  17.515  25.008  1.00  0.00     0.171 C 
ATOM     18  C   UNL A   1      32.575  16.220  24.750  1.00  0.00     0.090 C 
BRANCH  17  19
ATOM     19  C   UNL A   1      34.895  17.239  24.988  1.00  0.00     0.075 C 
ATOM     20  C   UNL A   1      35.321  15.803  25.291  1.00  0.00     0.011 C 
ENDBRANCH  17  19
BRANCH  17  21
ATOM     21  N   UNL A   1      33.040  18.011  26.369  1.00  0.00    -0.345 N 
ATOM     22  H   UNL A   1      32.510  17.300  26.872  1.00  0.00     0.345 HD
ATOM     23  H   UNL A   1      32.484  18.863  26.298  1.00  0.00     0.345 HD
ATOM     24  H   UNL A   1      33.905  18.210  26.873  1.00  0.00     0.345 HD
ENDBRANCH  17  21
ENDBRANCH   9  17
ENDBRANCH   6   8
ENDBRANCH   4   6
ENDBRANCH   3   4
ENDBRANCH   2   3
ENDBRANCH   1   2
BRANCH   1  25
ATOM     25  O   UNL A   1      32.933  27.980  27.038  1.00  0.00    -0.374 OA
BRANCH  25  26
ATOM     26  C   UNL A   1      31.815  28.839  27.250  1.00  0.00     0.202 C 
BRANCH  26  27
ATOM     27  C   UNL A   1      32.031  30.328  26.949  1.00  0.00     0.261 C 
BRANCH  27  28
ATOM     28  O   UNL A   1      33.403  30.634  26.636  1.00  0.00    -0.460 OA
BRANCH  28  29
ATOM     29  C   UNL A   1      33.975  31.551  27.451  1.00  0.00     0.338 C 
ATOM     30  O   UNL A   1      33.450  32.551  27.929  1.00  0.00    -0.246 OA
BRANCH  29  31
ATOM     31  C   UNL A   1      35.328  31.128  27.845  1.00  0.00     0.060 A 
ATOM     32  C   UNL A   1      35.537  29.762  28.071  1.00  0.00     0.016 A 
ATOM     33  C   UNL A   1      36.338  32.055  28.110  1.00  0.00     0.016 A 
ATOM     34  C   UNL A   1      36.741  29.321  28.615  1.00  0.00     0.010 A 
ATOM     35  C   UNL A   1      37.544  31.611  28.666  1.00  0.00     0.010 A 
ATOM     36  C   UNL A   1      37.734  30.247  28.958  1.00  0.00    -0.014 A 
BRANCH  36  37
ATOM     37  C   UNL A   1      38.899  29.797  29.757  1.00  0.00     0.031 A 
ATOM     38  C   UNL A   1      39.089  30.341  31.146  1.00  0.00     0.074 A 
ATOM     39  C   UNL A   1      39.753  28.878  29.274  1.00  0.00     0.049 A 
ATOM     40  N   UNL A   1      40.029  30.084  32.021  1.00  0.00    -0.248 NA
ATOM     41  C   UNL A   1      38.079  31.305  31.614  1.00  0.00     0.031 C 
ATOM     42  C   UNL A   1      39.655  28.246  27.961  1.00  0.00     0.029 A 
ATOM     43  N   UNL A   1      40.872  28.318  29.837  1.00  0.00    -0.354 N 
ATOM     44  C   UNL A   1      39.725  30.851  33.138  1.00  0.00     0.074 A 
ATOM     45  C   UNL A   1      38.532  31.607  32.822  1.00  0.00     0.031 C 
ATOM     46  C   UNL A   1      40.678  27.386  27.814  1.00  0.00     0.029 A 
ATOM     47  C   UNL A   1      41.515  27.428  29.013  1.00  0.00     0.049 A 
ATOM     48  H   UNL A   1      41.184  28.533  30.746  1.00  0.00     0.167 HD
ATOM     49  C   UNL A   1      40.376  30.911  34.325  1.00  0.00     0.037 A 
ATOM     50  C   UNL A   1      42.658  26.740  29.201  1.00  0.00     0.037 A 
ATOM     51  C   UNL A   1      41.561  30.159  34.642  1.00  0.00     0.049 A 
ATOM     52  C   UNL A   1      43.403  26.880  30.501  1.00  0.00     0.074 A 
ATOM     53  C   UNL A   1      42.278  30.134  35.825  1.00  0.00     0.029 A 
ATOM     54  N   UNL A   1      42.209  29.303  33.764  1.00  0.00    -0.354 N 
ATOM     55  N   UNL A   1      43.094  27.584  31.563  1.00  0.00    -0.248 NA
ATOM     56  C   UNL A   1      44.659  26.125  30.630  1.00  0.00     0.031 C 
ATOM     57  C   UNL A   1      43.386  29.298  35.648  1.00  0.00     0.029 A 
ATOM     58  C   UNL A   1      43.333  28.767  34.370  1.00  0.00     0.049 A 
ATOM     59  H   UNL A   1      41.913  29.105  32.846  1.00  0.00     0.167 HD
ATOM     60  C   UNL A   1      44.099  27.342  32.490  1.00  0.00     0.074 A 
ATOM     61  C   UNL A   1      45.024  26.415  31.871  1.00  0.00     0.031 C 
ATOM     62  C   UNL A   1      44.244  27.844  33.741  1.00  0.00     0.037 A 
BRANCH  49  63
ATOM     63  C   UNL A   1      39.830  31.843  35.364  1.00  0.00     0.064 A 
ATOM     64  C   UNL A   1      40.271  33.171  35.468  1.00  0.00     0.173 A 
ATOM     65  C   UNL A   1      38.831  31.412  36.251  1.00  0.00     0.173 A 
ATOM     66  F   UNL A   1      41.234  33.627  34.652  1.00  0.00    -0.203 F 
ATOM     67  C   UNL A   1      39.749  34.025  36.436  1.00  0.00     0.198 A 
ATOM     68  C   UNL A   1      38.294  32.276  37.200  1.00  0.00     0.198 A 
ATOM     69  F   UNL A   1      38.372  30.152  36.190  1.00  0.00    -0.203 F 
ATOM     70  F   UNL A   1      40.216  35.277  36.545  1.00  0.00    -0.200 F 
ATOM     71  C   UNL A   1      38.758  33.579  37.297  1.00  0.00     0.200 A 
ATOM     72  F   UNL A   1      37.330  31.845  38.026  1.00  0.00    -0.200 F 
ATOM     73  F   UNL A   1      38.254  34.403  38.226  1.00  0.00    -0.200 F 
ENDBRANCH  49  63
BRANCH  50  74
ATOM     74  C   UNL A   1      43.176  25.860  28.122  1.00  0.00     0.064 A 
ATOM     75  C   UNL A   1      42.879  24.491  28.101  1.00  0.00     0.173 A 
ATOM     76  C   UNL A   1      43.989  26.369  27.100  1.00  0.00     0.173 A 
ATOM     77  F   UNL A   1      42.128  23.954  29.073  1.00  0.00    -0.203 F 
ATOM     78  C   UNL A   1      43.387  23.661  27.103  1.00  0.00     0.198 A 
ATOM     79  C   UNL A   1      44.476  25.544  26.090  1.00  0.00     0.198 A 
ATOM     80  F   UNL A   1      44.305  27.673  27.080  1.00  0.00    -0.203 F 
ATOM     81  F   UNL A   1      43.121  22.348  27.127  1.00  0.00    -0.200 F 
ATOM     82  C   UNL A   1      44.180  24.189  26.095  1.00  0.00     0.200 A 
ATOM     83  F   UNL A   1      45.236  26.060  25.113  1.00  0.00    -0.200 F 
ATOM     84  F   UNL A   1      44.666  23.392  25.135  1.00  0.00    -0.200 F 
ENDBRANCH  50  74
BRANCH  62  85
ATOM     85  C   UNL A   1      45.431  27.384  34.535  1.00  0.00     0.064 A 
ATOM     86  C   UNL A   1      45.379  26.227  35.328  1.00  0.00     0.173 A 
ATOM     87  C   UNL A   1      46.647  28.081  34.469  1.00  0.00     0.173 A 
ATOM     88  F   UNL A   1      44.235  25.535  35.435  1.00  0.00    -0.203 F 
ATOM     89  C   UNL A   1      46.494  25.798  36.042  1.00  0.00     0.198 A 
ATOM     90  C   UNL A   1      47.768  27.633  35.164  1.00  0.00     0.198 A 
ATOM     91  F   UNL A   1      46.751  29.188  33.720  1.00  0.00    -0.203 F 
ATOM     92  F   UNL A   1      46.409  24.714  36.826  1.00  0.00    -0.200 F 
ATOM     93  C   UNL A   1      47.688  26.497  35.954  1.00  0.00     0.200 A 
ATOM     94  F   UNL A   1      48.925  28.303  35.068  1.00  0.00    -0.200 F 
ATOM     95  F   UNL A   1      48.763  26.078  36.637  1.00  0.00    -0.200 F 
ENDBRANCH  62  85
ENDBRANCH  36  37
ENDBRANCH  29  31
ENDBRANCH  28  29
ENDBRANCH  27  28
ENDBRANCH  26  27
ENDBRANCH  25  26
ENDBRANCH   1  25
TORSDOF 18
ENDMDL
