MODEL 1
REMARK VINA RESULT:     -12.3      0.000      0.000
REMARK SMILES CCC(=O)N1CCc2cc(C(=O)NC3(C(=O)OCCOCCOC(=O)c4ccc(-c5c6nc(c(-c7c(F)c(F)c(F)c(F)c7F)c7ccc([nH]7)c(-c7c(F)c(F)c(F)c(F)c7F)c7nc(c(-c8c(F)c(F)c(F)c(F)c8F)c8ccc5[nH]8)C=C7)C=C6)cc4)CCCC3)ccc21
REMARK SMILES IDX 19 1 18 2 17 3 15 4 16 5 14 6 89 7 92 8 90 9 91 10 13 11
REMARK SMILES IDX 11 12 12 13 10 15 5 16 6 17 95 18 7 19 8 20 94 21 9 22 93 23
REMARK SMILES IDX 3 24 4 25 2 26 1 27 20 28 21 29 22 30 23 31 24 32 25 33
REMARK SMILES IDX 26 34 27 35 88 36 28 37 87 38 29 39 30 40 31 41 81 42 32 43
REMARK SMILES IDX 86 44 80 45 82 46 33 47 85 48 79 49 78 50 34 52 66 53 46 54
REMARK SMILES IDX 65 55 47 56 50 57 64 58 83 59 48 60 49 61 63 63 84 64 51 65
REMARK SMILES IDX 35 66 36 67 44 68 37 69 38 70 42 71 45 72 39 73 40 74 43 75
REMARK SMILES IDX 41 76 67 77 68 78 76 79 69 80 70 81 74 82 77 83 71 84 72 85
REMARK SMILES IDX 75 86 73 87 52 88 53 89 61 90 54 91 55 92 59 93 62 94 56 95
REMARK SMILES IDX 57 96 60 97 58 98
REMARK H PARENT 13 14 82 51 50 62
REMARK Flexibility Score: inf
ROOT
ATOM      1  C   UNL A   1      36.235  20.538  24.917  1.00  0.00     0.202 C 
ENDROOT
BRANCH   1   2
ATOM      2  C   UNL A   1      34.797  19.994  25.013  1.00  0.00     0.261 C 
BRANCH   2   3
ATOM      3  O   UNL A   1      33.845  20.783  25.762  1.00  0.00    -0.461 OA
BRANCH   3   4
ATOM      4  C   UNL A   1      32.638  20.873  25.140  1.00  0.00     0.331 C 
ATOM      5  O   UNL A   1      31.969  19.865  24.912  1.00  0.00    -0.249 OA
BRANCH   4   6
ATOM      6  C   UNL A   1      32.110  22.335  24.853  1.00  0.00     0.138 C 
ATOM      7  C   UNL A   1      31.528  22.870  23.524  1.00  0.00     0.040 C 
ATOM      8  C   UNL A   1      33.353  23.276  24.865  1.00  0.00     0.040 C 
ATOM      9  C   UNL A   1      32.679  22.844  22.550  1.00  0.00     0.003 C 
ATOM     10  C   UNL A   1      33.849  23.318  23.399  1.00  0.00     0.003 C 
BRANCH   6  11
ATOM     11  N   UNL A   1      31.138  22.593  25.945  1.00  0.00    -0.336 N 
ATOM     12  C   UNL A   1      30.457  23.754  26.321  1.00  0.00     0.252 C 
ATOM     13  O   UNL A   1      29.671  23.657  27.265  1.00  0.00    -0.269 OA
ATOM     14  H   UNL A   1      30.935  21.806  26.501  1.00  0.00     0.165 HD
BRANCH  12  15
ATOM     15  C   UNL A   1      30.563  25.090  25.614  1.00  0.00     0.040 A 
ATOM     16  N   UNL A   1      30.596  28.976  24.057  1.00  0.00    -0.312 N 
ATOM     17  C   UNL A   1      31.677  29.610  24.820  1.00  0.00     0.130 C 
ATOM     18  C   UNL A   1      30.547  27.639  24.435  1.00  0.00     0.047 A 
ATOM     19  C   UNL A   1      32.047  28.640  25.966  1.00  0.00     0.059 C 
ATOM     20  C   UNL A   1      31.302  27.397  25.581  1.00  0.00    -0.022 A 
ATOM     21  C   UNL A   1      29.963  26.606  23.773  1.00  0.00     0.027 A 
ATOM     22  C   UNL A   1      31.307  26.136  26.194  1.00  0.00     0.019 A 
ATOM     23  C   UNL A   1      29.949  25.364  24.388  1.00  0.00     0.016 A 
BRANCH  16  24
ATOM     24  C   UNL A   1      29.915  29.628  23.055  1.00  0.00     0.226 C 
ATOM     25  O   UNL A   1      30.125  29.356  21.868  1.00  0.00    -0.275 OA
BRANCH  24  26
ATOM     26  C   UNL A   1      29.147  30.920  23.391  1.00  0.00     0.097 C 
ATOM     27  C   UNL A   1      27.638  30.961  23.517  1.00  0.00     0.014 C 
ENDBRANCH  24  26
ENDBRANCH  16  24
ENDBRANCH  12  15
ENDBRANCH   6  11
ENDBRANCH   4   6
ENDBRANCH   3   4
ENDBRANCH   2   3
ENDBRANCH   1   2
BRANCH   1  28
ATOM     28  O   UNL A   1      37.355  19.674  25.045  1.00  0.00    -0.374 OA
BRANCH  28  29
ATOM     29  C   UNL A   1      38.630  20.239  25.329  1.00  0.00     0.202 C 
BRANCH  29  30
ATOM     30  C   UNL A   1      39.785  19.297  25.698  1.00  0.00     0.261 C 
BRANCH  30  31
ATOM     31  O   UNL A   1      40.502  19.726  26.870  1.00  0.00    -0.460 OA
BRANCH  31  32
ATOM     32  C   UNL A   1      41.698  20.304  26.611  1.00  0.00     0.338 C 
ATOM     33  O   UNL A   1      42.620  19.844  25.944  1.00  0.00    -0.246 OA
BRANCH  32  34
ATOM     34  C   UNL A   1      41.701  21.702  27.071  1.00  0.00     0.060 A 
ATOM     35  C   UNL A   1      41.257  22.679  26.168  1.00  0.00     0.016 A 
ATOM     36  C   UNL A   1      42.207  22.065  28.321  1.00  0.00     0.016 A 
ATOM     37  C   UNL A   1      41.374  24.028  26.486  1.00  0.00     0.010 A 
ATOM     38  C   UNL A   1      42.339  23.422  28.632  1.00  0.00     0.010 A 
ATOM     39  C   UNL A   1      41.964  24.407  27.697  1.00  0.00    -0.014 A 
BRANCH  39  40
ATOM     40  C   UNL A   1      42.367  25.820  27.888  1.00  0.00     0.031 A 
ATOM     41  C   UNL A   1      43.680  26.277  27.316  1.00  0.00     0.074 A 
ATOM     42  C   UNL A   1      41.556  26.695  28.507  1.00  0.00     0.049 A 
ATOM     43  N   UNL A   1      44.243  27.457  27.360  1.00  0.00    -0.248 NA
ATOM     44  C   UNL A   1      44.463  25.263  26.591  1.00  0.00     0.031 C 
ATOM     45  C   UNL A   1      40.235  26.385  29.046  1.00  0.00     0.029 A 
ATOM     46  N   UNL A   1      41.730  28.029  28.778  1.00  0.00    -0.354 N 
ATOM     47  C   UNL A   1      45.442  27.328  26.670  1.00  0.00     0.074 A 
ATOM     48  C   UNL A   1      45.543  25.948  26.249  1.00  0.00     0.031 C 
ATOM     49  C   UNL A   1      39.714  27.501  29.587  1.00  0.00     0.029 A 
ATOM     50  C   UNL A   1      40.679  28.592  29.458  1.00  0.00     0.049 A 
ATOM     51  H   UNL A   1      42.532  28.533  28.511  1.00  0.00     0.167 HD
ATOM     52  C   UNL A   1      46.369  28.278  26.401  1.00  0.00     0.037 A 
ATOM     53  C   UNL A   1      40.526  29.843  29.932  1.00  0.00     0.037 A 
ATOM     54  C   UNL A   1      46.270  29.648  26.826  1.00  0.00     0.049 A 
ATOM     55  C   UNL A   1      41.619  30.856  29.709  1.00  0.00     0.074 A 
ATOM     56  C   UNL A   1      47.155  30.689  26.606  1.00  0.00     0.029 A 
ATOM     57  N   UNL A   1      45.219  30.166  27.570  1.00  0.00    -0.354 N 
ATOM     58  N   UNL A   1      42.745  30.731  29.048  1.00  0.00    -0.248 NA
ATOM     59  C   UNL A   1      41.419  32.187  30.301  1.00  0.00     0.031 C 
ATOM     60  C   UNL A   1      46.663  31.826  27.258  1.00  0.00     0.029 A 
ATOM     61  C   UNL A   1      45.447  31.507  27.840  1.00  0.00     0.049 A 
ATOM     62  H   UNL A   1      44.429  29.658  27.862  1.00  0.00     0.167 HD
ATOM     63  C   UNL A   1      43.369  31.969  29.116  1.00  0.00     0.074 A 
ATOM     64  C   UNL A   1      42.493  32.837  29.877  1.00  0.00     0.031 C 
ATOM     65  C   UNL A   1      44.559  32.357  28.592  1.00  0.00     0.037 A 
BRANCH  52  66
ATOM     66  C   UNL A   1      47.587  27.849  25.635  1.00  0.00     0.064 A 
ATOM     67  C   UNL A   1      48.799  27.558  26.280  1.00  0.00     0.173 A 
ATOM     68  C   UNL A   1      47.540  27.721  24.239  1.00  0.00     0.173 A 
ATOM     69  F   UNL A   1      48.901  27.683  27.613  1.00  0.00    -0.203 F 
ATOM     70  C   UNL A   1      49.927  27.188  25.552  1.00  0.00     0.198 A 
ATOM     71  C   UNL A   1      48.662  27.322  23.518  1.00  0.00     0.198 A 
ATOM     72  F   UNL A   1      46.405  27.985  23.573  1.00  0.00    -0.203 F 
ATOM     73  F   UNL A   1      51.089  26.970  26.185  1.00  0.00    -0.200 F 
ATOM     74  C   UNL A   1      49.857  27.065  24.173  1.00  0.00     0.200 A 
ATOM     75  F   UNL A   1      48.589  27.195  22.185  1.00  0.00    -0.200 F 
ATOM     76  F   UNL A   1      50.943  26.710  23.474  1.00  0.00    -0.200 F 
ENDBRANCH  52  66
BRANCH  53  77
ATOM     77  C   UNL A   1      39.289  30.213  30.667  1.00  0.00     0.064 A 
ATOM     78  C   UNL A   1      39.208  30.073  32.059  1.00  0.00     0.173 A 
ATOM     79  C   UNL A   1      38.159  30.699  29.993  1.00  0.00     0.173 A 
ATOM     80  F   UNL A   1      40.254  29.588  32.744  1.00  0.00    -0.203 F 
ATOM     81  C   UNL A   1      38.040  30.392  32.747  1.00  0.00     0.198 A 
ATOM     82  C   UNL A   1      37.000  31.042  30.686  1.00  0.00     0.198 A 
ATOM     83  F   UNL A   1      38.184  30.848  28.660  1.00  0.00    -0.203 F 
ATOM     84  F   UNL A   1      37.976  30.210  34.074  1.00  0.00    -0.200 F 
ATOM     85  C   UNL A   1      36.938  30.882  32.061  1.00  0.00     0.200 A 
ATOM     86  F   UNL A   1      35.942  31.525  30.019  1.00  0.00    -0.200 F 
ATOM     87  F   UNL A   1      35.817  31.192  32.724  1.00  0.00    -0.200 F 
ENDBRANCH  53  77
BRANCH  65  88
ATOM     88  C   UNL A   1      44.965  33.788  28.789  1.00  0.00     0.064 A 
ATOM     89  C   UNL A   1      44.577  34.795  27.893  1.00  0.00     0.173 A 
ATOM     90  C   UNL A   1      45.720  34.162  29.911  1.00  0.00     0.173 A 
ATOM     91  F   UNL A   1      43.868  34.486  26.797  1.00  0.00    -0.203 F 
ATOM     92  C   UNL A   1      44.950  36.120  28.101  1.00  0.00     0.198 A 
ATOM     93  C   UNL A   1      46.067  35.493  30.132  1.00  0.00     0.198 A 
ATOM     94  F   UNL A   1      46.111  33.239  30.802  1.00  0.00    -0.203 F 
ATOM     95  F   UNL A   1      44.608  37.059  27.209  1.00  0.00    -0.200 F 
ATOM     96  C   UNL A   1      45.688  36.469  29.223  1.00  0.00     0.200 A 
ATOM     97  F   UNL A   1      46.768  35.829  31.223  1.00  0.00    -0.200 F 
ATOM     98  F   UNL A   1      46.041  37.746  29.425  1.00  0.00    -0.200 F 
ENDBRANCH  65  88
ENDBRANCH  39  40
ENDBRANCH  32  34
ENDBRANCH  31  32
ENDBRANCH  30  31
ENDBRANCH  29  30
ENDBRANCH  28  29
ENDBRANCH   1  28
TORSDOF 18
ENDMDL
MODEL 2
REMARK VINA RESULT:     -12.2      0.141      1.546
REMARK SMILES CCC(=O)N1CCc2cc(C(=O)NC3(C(=O)OCCOCCOC(=O)c4ccc(-c5c6nc(c(-c7c(F)c(F)c(F)c(F)c7F)c7ccc([nH]7)c(-c7c(F)c(F)c(F)c(F)c7F)c7nc(c(-c8c(F)c(F)c(F)c(F)c8F)c8ccc5[nH]8)C=C7)C=C6)cc4)CCCC3)ccc21
REMARK SMILES IDX 19 1 18 2 17 3 15 4 16 5 14 6 89 7 92 8 90 9 91 10 13 11
REMARK SMILES IDX 11 12 12 13 10 15 5 16 6 17 95 18 7 19 8 20 94 21 9 22 93 23
REMARK SMILES IDX 3 24 4 25 2 26 1 27 20 28 21 29 22 30 23 31 24 32 25 33
REMARK SMILES IDX 26 34 27 35 88 36 28 37 87 38 29 39 30 40 31 41 81 42 32 43
REMARK SMILES IDX 86 44 80 45 82 46 33 47 85 48 79 49 78 50 34 52 66 53 46 54
REMARK SMILES IDX 65 55 47 56 50 57 64 58 83 59 48 60 49 61 63 63 84 64 51 65
REMARK SMILES IDX 35 66 36 67 44 68 37 69 38 70 42 71 45 72 39 73 40 74 43 75
REMARK SMILES IDX 41 76 67 77 68 78 76 79 69 80 70 81 74 82 77 83 71 84 72 85
REMARK SMILES IDX 75 86 73 87 52 88 53 89 61 90 54 91 55 92 59 93 62 94 56 95
REMARK SMILES IDX 57 96 60 97 58 98
REMARK H PARENT 13 14 82 51 50 62
REMARK Flexibility Score: inf
ROOT
ATOM      1  C   UNL A   1      36.371  20.639  24.898  1.00  0.00     0.202 C 
ENDROOT
BRANCH   1   2
ATOM      2  C   UNL A   1      34.924  20.122  25.007  1.00  0.00     0.261 C 
BRANCH   2   3
ATOM      3  O   UNL A   1      33.996  20.922  25.774  1.00  0.00    -0.461 OA
BRANCH   3   4
ATOM      4  C   UNL A   1      32.752  20.950  25.223  1.00  0.00     0.331 C 
ATOM      5  O   UNL A   1      32.097  19.917  25.091  1.00  0.00    -0.249 OA
BRANCH   4   6
ATOM      6  C   UNL A   1      32.172  22.382  24.889  1.00  0.00     0.138 C 
ATOM      7  C   UNL A   1      31.586  22.858  23.539  1.00  0.00     0.040 C 
ATOM      8  C   UNL A   1      33.377  23.372  24.889  1.00  0.00     0.040 C 
ATOM      9  C   UNL A   1      32.750  22.850  22.580  1.00  0.00     0.003 C 
ATOM     10  C   UNL A   1      33.890  23.393  23.428  1.00  0.00     0.003 C 
BRANCH   6  11
ATOM     11  N   UNL A   1      31.177  22.632  25.962  1.00  0.00    -0.336 N 
ATOM     12  C   UNL A   1      30.490  23.791  26.334  1.00  0.00     0.252 C 
ATOM     13  O   UNL A   1      29.684  23.686  27.260  1.00  0.00    -0.269 OA
ATOM     14  H   UNL A   1      30.961  21.840  26.506  1.00  0.00     0.165 HD
BRANCH  12  15
ATOM     15  C   UNL A   1      30.614  25.133  25.642  1.00  0.00     0.040 A 
ATOM     16  N   UNL A   1      30.691  29.034  24.126  1.00  0.00    -0.312 N 
ATOM     17  C   UNL A   1      31.767  29.653  24.908  1.00  0.00     0.130 C 
ATOM     18  C   UNL A   1      30.629  27.694  24.489  1.00  0.00     0.047 A 
ATOM     19  C   UNL A   1      32.116  28.669  26.048  1.00  0.00     0.059 C 
ATOM     20  C   UNL A   1      31.369  27.435  25.641  1.00  0.00    -0.022 A 
ATOM     21  C   UNL A   1      30.046  26.672  23.810  1.00  0.00     0.027 A 
ATOM     22  C   UNL A   1      31.357  26.168  26.242  1.00  0.00     0.019 A 
ATOM     23  C   UNL A   1      30.016  25.424  24.412  1.00  0.00     0.016 A 
BRANCH  16  24
ATOM     24  C   UNL A   1      30.027  29.701  23.122  1.00  0.00     0.226 C 
ATOM     25  O   UNL A   1      30.401  29.611  21.948  1.00  0.00    -0.275 OA
BRANCH  24  26
ATOM     26  C   UNL A   1      29.036  30.819  23.496  1.00  0.00     0.097 C 
ATOM     27  C   UNL A   1      27.535  30.637  23.417  1.00  0.00     0.014 C 
ENDBRANCH  24  26
ENDBRANCH  16  24
ENDBRANCH  12  15
ENDBRANCH   6  11
ENDBRANCH   4   6
ENDBRANCH   3   4
ENDBRANCH   2   3
ENDBRANCH   1   2
BRANCH   1  28
ATOM     28  O   UNL A   1      37.476  19.751  24.991  1.00  0.00    -0.374 OA
BRANCH  28  29
ATOM     29  C   UNL A   1      38.752  20.275  25.342  1.00  0.00     0.202 C 
BRANCH  29  30
ATOM     30  C   UNL A   1      39.861  19.295  25.751  1.00  0.00     0.261 C 
BRANCH  30  31
ATOM     31  O   UNL A   1      40.587  19.730  26.915  1.00  0.00    -0.460 OA
BRANCH  31  32
ATOM     32  C   UNL A   1      41.777  20.315  26.643  1.00  0.00     0.338 C 
ATOM     33  O   UNL A   1      42.699  19.857  25.975  1.00  0.00    -0.246 OA
BRANCH  32  34
ATOM     34  C   UNL A   1      41.772  21.717  27.091  1.00  0.00     0.060 A 
ATOM     35  C   UNL A   1      41.345  22.686  26.171  1.00  0.00     0.016 A 
ATOM     36  C   UNL A   1      42.255  22.092  28.346  1.00  0.00     0.016 A 
ATOM     37  C   UNL A   1      41.456  24.038  26.478  1.00  0.00     0.010 A 
ATOM     38  C   UNL A   1      42.381  23.452  28.647  1.00  0.00     0.010 A 
ATOM     39  C   UNL A   1      42.024  24.428  27.697  1.00  0.00    -0.014 A 
BRANCH  39  40
ATOM     40  C   UNL A   1      42.423  25.842  27.883  1.00  0.00     0.031 A 
ATOM     41  C   UNL A   1      43.728  26.304  27.295  1.00  0.00     0.074 A 
ATOM     42  C   UNL A   1      41.616  26.714  28.511  1.00  0.00     0.049 A 
ATOM     43  N   UNL A   1      44.287  27.487  27.331  1.00  0.00    -0.248 NA
ATOM     44  C   UNL A   1      44.506  25.293  26.561  1.00  0.00     0.031 C 
ATOM     45  C   UNL A   1      40.303  26.400  29.066  1.00  0.00     0.029 A 
ATOM     46  N   UNL A   1      41.789  28.049  28.779  1.00  0.00    -0.354 N 
ATOM     47  C   UNL A   1      45.478  27.362  26.627  1.00  0.00     0.074 A 
ATOM     48  C   UNL A   1      45.579  25.982  26.205  1.00  0.00     0.031 C 
ATOM     49  C   UNL A   1      39.785  27.514  29.613  1.00  0.00     0.029 A 
ATOM     50  C   UNL A   1      40.744  28.608  29.471  1.00  0.00     0.049 A 
ATOM     51  H   UNL A   1      42.586  28.557  28.502  1.00  0.00     0.167 HD
ATOM     52  C   UNL A   1      46.398  28.315  26.346  1.00  0.00     0.037 A 
ATOM     53  C   UNL A   1      40.592  29.860  29.947  1.00  0.00     0.037 A 
ATOM     54  C   UNL A   1      46.298  29.685  26.773  1.00  0.00     0.049 A 
ATOM     55  C   UNL A   1      41.678  30.877  29.711  1.00  0.00     0.074 A 
ATOM     56  C   UNL A   1      47.177  30.729  26.541  1.00  0.00     0.029 A 
ATOM     57  N   UNL A   1      45.255  30.200  27.528  1.00  0.00    -0.354 N 
ATOM     58  N   UNL A   1      42.796  30.755  29.036  1.00  0.00    -0.248 NA
ATOM     59  C   UNL A   1      41.480  32.206  30.305  1.00  0.00     0.031 C 
ATOM     60  C   UNL A   1      46.688  31.864  27.198  1.00  0.00     0.029 A 
ATOM     61  C   UNL A   1      45.480  31.541  27.795  1.00  0.00     0.049 A 
ATOM     62  H   UNL A   1      44.471  29.688  27.830  1.00  0.00     0.167 HD
ATOM     63  C   UNL A   1      43.416  31.996  29.096  1.00  0.00     0.074 A 
ATOM     64  C   UNL A   1      42.547  32.861  29.867  1.00  0.00     0.031 C 
ATOM     65  C   UNL A   1      44.599  32.388  28.558  1.00  0.00     0.037 A 
BRANCH  52  66
ATOM     66  C   UNL A   1      47.608  27.891  25.566  1.00  0.00     0.064 A 
ATOM     67  C   UNL A   1      47.598  27.833  24.164  1.00  0.00     0.173 A 
ATOM     68  C   UNL A   1      48.795  27.546  26.229  1.00  0.00     0.173 A 
ATOM     69  F   UNL A   1      46.482  28.136  23.484  1.00  0.00    -0.203 F 
ATOM     70  C   UNL A   1      48.722  27.411  23.457  1.00  0.00     0.198 A 
ATOM     71  C   UNL A   1      49.925  27.153  25.517  1.00  0.00     0.198 A 
ATOM     72  F   UNL A   1      48.859  27.587  27.568  1.00  0.00    -0.203 F 
ATOM     73  F   UNL A   1      48.670  27.308  22.121  1.00  0.00    -0.200 F 
ATOM     74  C   UNL A   1      49.885  27.076  24.132  1.00  0.00     0.200 A 
ATOM     75  F   UNL A   1      51.052  26.839  26.172  1.00  0.00    -0.200 F 
ATOM     76  F   UNL A   1      50.965  26.669  23.451  1.00  0.00    -0.200 F 
ENDBRANCH  52  66
BRANCH  53  77
ATOM     77  C   UNL A   1      39.363  30.224  30.697  1.00  0.00     0.064 A 
ATOM     78  C   UNL A   1      39.260  29.985  32.074  1.00  0.00     0.173 A 
ATOM     79  C   UNL A   1      38.261  30.806  30.051  1.00  0.00     0.173 A 
ATOM     80  F   UNL A   1      40.277  29.407  32.730  1.00  0.00    -0.203 F 
ATOM     81  C   UNL A   1      38.097  30.300  32.774  1.00  0.00     0.198 A 
ATOM     82  C   UNL A   1      37.109  31.145  30.758  1.00  0.00     0.198 A 
ATOM     83  F   UNL A   1      38.308  31.053  28.734  1.00  0.00    -0.203 F 
ATOM     84  F   UNL A   1      38.010  30.023  34.083  1.00  0.00    -0.200 F 
ATOM     85  C   UNL A   1      37.025  30.886  32.117  1.00  0.00     0.200 A 
ATOM     86  F   UNL A   1      36.080  31.720  30.120  1.00  0.00    -0.200 F 
ATOM     87  F   UNL A   1      35.909  31.191  32.791  1.00  0.00    -0.200 F 
ENDBRANCH  53  77
BRANCH  65  88
ATOM     88  C   UNL A   1      45.002  33.821  28.749  1.00  0.00     0.064 A 
ATOM     89  C   UNL A   1      45.694  34.246  29.892  1.00  0.00     0.173 A 
ATOM     90  C   UNL A   1      44.726  34.773  27.756  1.00  0.00     0.173 A 
ATOM     91  F   UNL A   1      45.968  33.378  30.877  1.00  0.00    -0.203 F 
ATOM     92  C   UNL A   1      46.075  35.577  30.044  1.00  0.00     0.198 A 
ATOM     93  C   UNL A   1      45.133  36.097  27.897  1.00  0.00     0.198 A 
ATOM     94  F   UNL A   1      44.073  34.416  26.640  1.00  0.00    -0.203 F 
ATOM     95  F   UNL A   1      46.694  35.971  31.165  1.00  0.00    -0.200 F 
ATOM     96  C   UNL A   1      45.800  36.499  29.045  1.00  0.00     0.200 A 
ATOM     97  F   UNL A   1      44.879  36.983  26.925  1.00  0.00    -0.200 F 
ATOM     98  F   UNL A   1      46.173  37.778  29.190  1.00  0.00    -0.200 F 
ENDBRANCH  65  88
ENDBRANCH  39  40
ENDBRANCH  32  34
ENDBRANCH  31  32
ENDBRANCH  30  31
ENDBRANCH  29  30
ENDBRANCH  28  29
ENDBRANCH   1  28
TORSDOF 18
ENDMDL
MODEL 3
REMARK VINA RESULT:     -12.2      1.391      2.364
REMARK SMILES CCC(=O)N1CCc2cc(C(=O)NC3(C(=O)OCCOCCOC(=O)c4ccc(-c5c6nc(c(-c7c(F)c(F)c(F)c(F)c7F)c7ccc([nH]7)c(-c7c(F)c(F)c(F)c(F)c7F)c7nc(c(-c8c(F)c(F)c(F)c(F)c8F)c8ccc5[nH]8)C=C7)C=C6)cc4)CCCC3)ccc21
REMARK SMILES IDX 19 1 18 2 17 3 15 4 16 5 14 6 89 7 92 8 90 9 91 10 13 11
REMARK SMILES IDX 11 12 12 13 10 15 5 16 6 17 95 18 7 19 8 20 94 21 9 22 93 23
REMARK SMILES IDX 3 24 4 25 2 26 1 27 20 28 21 29 22 30 23 31 24 32 25 33
REMARK SMILES IDX 26 34 27 35 88 36 28 37 87 38 29 39 30 40 31 41 81 42 32 43
REMARK SMILES IDX 86 44 80 45 82 46 33 47 85 48 79 49 78 50 34 52 66 53 46 54
REMARK SMILES IDX 65 55 47 56 50 57 64 58 83 59 48 60 49 61 63 63 84 64 51 65
REMARK SMILES IDX 35 66 36 67 44 68 37 69 38 70 42 71 45 72 39 73 40 74 43 75
REMARK SMILES IDX 41 76 67 77 68 78 76 79 69 80 70 81 74 82 77 83 71 84 72 85
REMARK SMILES IDX 75 86 73 87 52 88 53 89 61 90 54 91 55 92 59 93 62 94 56 95
REMARK SMILES IDX 57 96 60 97 58 98
REMARK H PARENT 13 14 82 51 50 62
REMARK Flexibility Score: inf
ROOT
ATOM      1  C   UNL A   1      37.137  21.868  24.997  1.00  0.00     0.202 C 
ENDROOT
BRANCH   1   2
ATOM      2  C   UNL A   1      35.897  20.996  25.273  1.00  0.00     0.261 C 
BRANCH   2   3
ATOM      3  O   UNL A   1      34.766  21.641  25.900  1.00  0.00    -0.461 OA
BRANCH   3   4
ATOM      4  C   UNL A   1      33.585  21.314  25.309  1.00  0.00     0.331 C 
ATOM      5  O   UNL A   1      33.216  20.142  25.242  1.00  0.00    -0.249 OA
BRANCH   4   6
ATOM      6  C   UNL A   1      32.684  22.525  24.839  1.00  0.00     0.138 C 
ATOM      7  C   UNL A   1      31.942  22.664  23.490  1.00  0.00     0.040 C 
ATOM      8  C   UNL A   1      33.636  23.739  24.616  1.00  0.00     0.040 C 
ATOM      9  C   UNL A   1      33.029  22.768  22.451  1.00  0.00     0.003 C 
ATOM     10  C   UNL A   1      34.059  23.660  23.129  1.00  0.00     0.003 C 
BRANCH   6  11
ATOM     11  N   UNL A   1      31.711  22.706  25.946  1.00  0.00    -0.336 N 
ATOM     12  C   UNL A   1      30.880  23.779  26.279  1.00  0.00     0.252 C 
ATOM     13  O   UNL A   1      30.139  23.628  27.252  1.00  0.00    -0.269 OA
ATOM     14  H   UNL A   1      31.637  21.934  26.551  1.00  0.00     0.165 HD
BRANCH  12  15
ATOM     15  C   UNL A   1      30.775  25.072  25.496  1.00  0.00     0.040 A 
ATOM     16  N   UNL A   1      30.210  28.823  23.724  1.00  0.00    -0.312 N 
ATOM     17  C   UNL A   1      31.206  29.649  24.416  1.00  0.00     0.130 C 
ATOM     18  C   UNL A   1      30.364  27.518  24.177  1.00  0.00     0.047 A 
ATOM     19  C   UNL A   1      31.739  28.812  25.601  1.00  0.00     0.059 C 
ATOM     20  C   UNL A   1      31.173  27.455  25.310  1.00  0.00    -0.022 A 
ATOM     21  C   UNL A   1      29.919  26.374  23.593  1.00  0.00     0.027 A 
ATOM     22  C   UNL A   1      31.373  26.246  25.992  1.00  0.00     0.019 A 
ATOM     23  C   UNL A   1      30.098  25.182  24.277  1.00  0.00     0.016 A 
BRANCH  16  24
ATOM     24  C   UNL A   1      29.418  29.311  22.710  1.00  0.00     0.226 C 
ATOM     25  O   UNL A   1      29.911  29.637  21.625  1.00  0.00    -0.275 OA
BRANCH  24  26
ATOM     26  C   UNL A   1      27.984  29.766  23.034  1.00  0.00     0.097 C 
ATOM     27  C   UNL A   1      27.658  31.175  23.485  1.00  0.00     0.014 C 
ENDBRANCH  24  26
ENDBRANCH  16  24
ENDBRANCH  12  15
ENDBRANCH   6  11
ENDBRANCH   4   6
ENDBRANCH   3   4
ENDBRANCH   2   3
ENDBRANCH   1   2
BRANCH   1  28
ATOM     28  O   UNL A   1      38.132  22.063  25.991  1.00  0.00    -0.374 OA
BRANCH  28  29
ATOM     29  C   UNL A   1      39.425  21.503  25.790  1.00  0.00     0.202 C 
BRANCH  29  30
ATOM     30  C   UNL A   1      39.653  20.030  26.158  1.00  0.00     0.261 C 
BRANCH  30  31
ATOM     31  O   UNL A   1      40.693  19.415  25.376  1.00  0.00    -0.460 OA
BRANCH  31  32
ATOM     32  C   UNL A   1      41.840  19.185  26.057  1.00  0.00     0.338 C 
ATOM     33  O   UNL A   1      42.362  18.100  26.295  1.00  0.00    -0.246 OA
BRANCH  32  34
ATOM     34  C   UNL A   1      42.539  20.452  26.324  1.00  0.00     0.060 A 
ATOM     35  C   UNL A   1      42.529  20.929  27.643  1.00  0.00     0.016 A 
ATOM     36  C   UNL A   1      43.115  21.206  25.300  1.00  0.00     0.016 A 
ATOM     37  C   UNL A   1      43.041  22.189  27.935  1.00  0.00     0.010 A 
ATOM     38  C   UNL A   1      43.615  22.479  25.591  1.00  0.00     0.010 A 
ATOM     39  C   UNL A   1      43.539  22.991  26.901  1.00  0.00    -0.014 A 
BRANCH  39  40
ATOM     40  C   UNL A   1      43.787  24.428  27.165  1.00  0.00     0.031 A 
ATOM     41  C   UNL A   1      45.152  24.986  26.875  1.00  0.00     0.074 A 
ATOM     42  C   UNL A   1      42.803  25.234  27.599  1.00  0.00     0.049 A 
ATOM     43  N   UNL A   1      45.605  26.204  27.029  1.00  0.00    -0.248 NA
ATOM     44  C   UNL A   1      46.141  24.041  26.332  1.00  0.00     0.031 C 
ATOM     45  C   UNL A   1      41.426  24.822  27.854  1.00  0.00     0.029 A 
ATOM     46  N   UNL A   1      42.818  26.574  27.893  1.00  0.00    -0.354 N 
ATOM     47  C   UNL A   1      46.927  26.171  26.602  1.00  0.00     0.074 A 
ATOM     48  C   UNL A   1      47.215  24.807  26.218  1.00  0.00     0.031 C 
ATOM     49  C   UNL A   1      40.723  25.891  28.270  1.00  0.00     0.029 A 
ATOM     50  C   UNL A   1      41.610  27.051  28.339  1.00  0.00     0.049 A 
ATOM     51  H   UNL A   1      43.618  27.139  27.796  1.00  0.00     0.167 HD
ATOM     52  C   UNL A   1      47.817  27.190  26.527  1.00  0.00     0.037 A 
ATOM     53  C   UNL A   1      41.270  28.282  28.766  1.00  0.00     0.037 A 
ATOM     54  C   UNL A   1      47.530  28.544  26.917  1.00  0.00     0.049 A 
ATOM     55  C   UNL A   1      42.307  29.375  28.769  1.00  0.00     0.074 A 
ATOM     56  C   UNL A   1      48.362  29.649  26.880  1.00  0.00     0.029 A 
ATOM     57  N   UNL A   1      46.313  28.975  27.424  1.00  0.00    -0.354 N 
ATOM     58  N   UNL A   1      43.552  29.340  28.356  1.00  0.00    -0.248 NA
ATOM     59  C   UNL A   1      41.891  30.681  29.302  1.00  0.00     0.031 C 
ATOM     60  C   UNL A   1      47.663  30.739  27.411  1.00  0.00     0.029 A 
ATOM     61  C   UNL A   1      46.380  30.326  27.730  1.00  0.00     0.049 A 
ATOM     62  H   UNL A   1      45.520  28.407  27.549  1.00  0.00     0.167 HD
ATOM     63  C   UNL A   1      44.055  30.620  28.546  1.00  0.00     0.074 A 
ATOM     64  C   UNL A   1      42.979  31.413  29.106  1.00  0.00     0.031 C 
ATOM     65  C   UNL A   1      45.295  31.100  28.279  1.00  0.00     0.037 A 
BRANCH  52  66
ATOM     66  C   UNL A   1      49.195  26.860  26.032  1.00  0.00     0.064 A 
ATOM     67  C   UNL A   1      50.196  26.389  26.895  1.00  0.00     0.173 A 
ATOM     68  C   UNL A   1      49.517  27.010  24.674  1.00  0.00     0.173 A 
ATOM     69  F   UNL A   1      49.943  26.246  28.206  1.00  0.00    -0.203 F 
ATOM     70  C   UNL A   1      51.477  26.115  26.424  1.00  0.00     0.198 A 
ATOM     71  C   UNL A   1      50.791  26.706  24.203  1.00  0.00     0.198 A 
ATOM     72  F   UNL A   1      48.596  27.454  23.806  1.00  0.00    -0.203 F 
ATOM     73  F   UNL A   1      52.433  25.720  27.279  1.00  0.00    -0.200 F 
ATOM     74  C   UNL A   1      51.772  26.267  25.079  1.00  0.00     0.200 A 
ATOM     75  F   UNL A   1      51.071  26.845  22.899  1.00  0.00    -0.200 F 
ATOM     76  F   UNL A   1      53.006  26.004  24.627  1.00  0.00    -0.200 F 
ENDBRANCH  52  66
BRANCH  53  77
ATOM     77  C   UNL A   1      39.884  28.552  29.227  1.00  0.00     0.064 A 
ATOM     78  C   UNL A   1      38.919  29.064  28.350  1.00  0.00     0.173 A 
ATOM     79  C   UNL A   1      39.500  28.317  30.556  1.00  0.00     0.173 A 
ATOM     80  F   UNL A   1      39.246  29.329  27.076  1.00  0.00    -0.203 F 
ATOM     81  C   UNL A   1      37.626  29.345  28.787  1.00  0.00     0.198 A 
ATOM     82  C   UNL A   1      38.199  28.573  30.984  1.00  0.00     0.198 A 
ATOM     83  F   UNL A   1      40.387  27.830  31.435  1.00  0.00    -0.203 F 
ATOM     84  F   UNL A   1      36.734  29.873  27.937  1.00  0.00    -0.200 F 
ATOM     85  C   UNL A   1      37.265  29.093  30.102  1.00  0.00     0.200 A 
ATOM     86  F   UNL A   1      37.853  28.318  32.254  1.00  0.00    -0.200 F 
ATOM     87  F   UNL A   1      36.021  29.359  30.521  1.00  0.00    -0.200 F 
ENDBRANCH  53  77
BRANCH  65  88
ATOM     88  C   UNL A   1      45.545  32.555  28.549  1.00  0.00     0.064 A 
ATOM     89  C   UNL A   1      46.179  32.989  29.723  1.00  0.00     0.173 A 
ATOM     90  C   UNL A   1      45.181  33.524  27.601  1.00  0.00     0.173 A 
ATOM     91  F   UNL A   1      46.532  32.103  30.666  1.00  0.00    -0.203 F 
ATOM     92  C   UNL A   1      46.417  34.342  29.948  1.00  0.00     0.198 A 
ATOM     93  C   UNL A   1      45.447  34.874  27.817  1.00  0.00     0.198 A 
ATOM     94  F   UNL A   1      44.579  33.161  26.459  1.00  0.00    -0.203 F 
ATOM     95  F   UNL A   1      46.981  34.739  31.097  1.00  0.00    -0.200 F 
ATOM     96  C   UNL A   1      46.057  35.282  28.993  1.00  0.00     0.200 A 
ATOM     97  F   UNL A   1      45.111  35.778  26.888  1.00  0.00    -0.200 F 
ATOM     98  F   UNL A   1      46.293  36.584  29.209  1.00  0.00    -0.200 F 
ENDBRANCH  65  88
ENDBRANCH  39  40
ENDBRANCH  32  34
ENDBRANCH  31  32
ENDBRANCH  30  31
ENDBRANCH  29  30
ENDBRANCH  28  29
ENDBRANCH   1  28
TORSDOF 18
ENDMDL
