MODEL 1
REMARK VINA RESULT:     -11.7      0.000      0.000
REMARK SMILES Cc1cscc1-c1ncc(C(=O)OCCOCCOC(=O)c2ccc(-c3c4nc(c(-c5c(F)c(F)c(F)c(F)c5F)c5ccc([nH]5)c(-c5c(F)c(F)c(F)c(F)c5F)c5nc(c(-c6c(F)c(F)c(F)c(F)c6F)c6ccc3[nH]6)C=C5)C=C4)cc2)c(=O)[nH]1
REMARK SMILES IDX 17 1 16 2 15 3 14 4 13 5 11 6 12 7 10 8 7 9 8 10 87 11 9 12
REMARK SMILES IDX 85 13 86 15 6 16 1 17 2 18 3 19 4 20 5 21 18 22 19 23 20 24
REMARK SMILES IDX 21 25 22 26 23 27 84 28 24 29 83 30 25 31 26 32 27 33 77 34
REMARK SMILES IDX 28 35 82 36 76 37 78 38 29 39 81 40 75 41 74 42 30 44 62 45
REMARK SMILES IDX 42 46 61 47 43 48 46 49 60 50 79 51 44 52 45 53 59 55 80 56
REMARK SMILES IDX 47 57 31 58 32 59 40 60 33 61 34 62 38 63 41 64 35 65 36 66
REMARK SMILES IDX 39 67 37 68 63 69 64 70 72 71 65 72 66 73 70 74 73 75 67 76
REMARK SMILES IDX 68 77 71 78 69 79 48 80 49 81 57 82 50 83 51 84 55 85 58 86
REMARK SMILES IDX 52 87 53 88 56 89 54 90
REMARK H PARENT 87 14 78 43 46 54
REMARK Flexibility Score: inf
ROOT
ATOM      1  C   UNL A   1      31.625  30.053  25.503  1.00  0.00     0.202 C 
ENDROOT
BRANCH   1   2
ATOM      2  O   UNL A   1      32.544  28.991  25.765  1.00  0.00    -0.374 OA
BRANCH   2   3
ATOM      3  C   UNL A   1      33.343  28.548  24.668  1.00  0.00     0.202 C 
BRANCH   3   4
ATOM      4  C   UNL A   1      32.843  28.979  23.288  1.00  0.00     0.261 C 
BRANCH   4   5
ATOM      5  O   UNL A   1      32.892  27.874  22.368  1.00  0.00    -0.459 OA
BRANCH   5   6
ATOM      6  C   UNL A   1      31.796  27.083  22.343  1.00  0.00     0.345 C 
ATOM      7  O   UNL A   1      30.673  27.427  22.001  1.00  0.00    -0.246 OA
BRANCH   6   8
ATOM      8  C   UNL A   1      32.139  25.686  22.649  1.00  0.00     0.143 A 
ATOM      9  C   UNL A   1      32.779  23.207  23.594  1.00  0.00     0.141 A 
ATOM     10  N   UNL A   1      32.000  23.943  24.315  1.00  0.00    -0.237 NA
ATOM     11  N   UNL A   1      33.224  23.569  22.351  1.00  0.00    -0.306 N 
ATOM     12  C   UNL A   1      31.716  25.194  23.824  1.00  0.00     0.135 A 
ATOM     13  C   UNL A   1      32.909  24.776  21.784  1.00  0.00     0.265 A 
ATOM     14  H   UNL A   1      33.789  22.940  21.848  1.00  0.00     0.171 HD
ATOM     15  O   UNL A   1      33.278  25.059  20.651  1.00  0.00    -0.269 OA
BRANCH   9  16
ATOM     16  C   UNL A   1      33.265  21.949  24.134  1.00  0.00     0.031 A 
ATOM     17  C   UNL A   1      35.687  22.667  24.782  1.00  0.00     0.046 C 
ATOM     18  C   UNL A   1      34.591  21.664  24.636  1.00  0.00    -0.029 A 
ATOM     19  C   UNL A   1      34.721  20.328  24.972  1.00  0.00     0.069 A 
ATOM     20  S   UNL A   1      33.291  19.434  24.719  1.00  0.00    -0.151 S 
ATOM     21  C   UNL A   1      32.471  20.814  24.144  1.00  0.00     0.077 A 
ENDBRANCH   9  16
ENDBRANCH   6   8
ENDBRANCH   5   6
ENDBRANCH   4   5
ENDBRANCH   3   4
ENDBRANCH   2   3
ENDBRANCH   1   2
BRANCH   1  22
ATOM     22  C   UNL A   1      31.718  31.255  26.450  1.00  0.00     0.261 C 
BRANCH  22  23
ATOM     23  O   UNL A   1      32.751  31.071  27.434  1.00  0.00    -0.460 OA
BRANCH  23  24
ATOM     24  C   UNL A   1      33.545  32.149  27.626  1.00  0.00     0.338 C 
ATOM     25  O   UNL A   1      33.200  33.323  27.667  1.00  0.00    -0.246 OA
BRANCH  24  26
ATOM     26  C   UNL A   1      34.922  31.730  27.948  1.00  0.00     0.060 A 
ATOM     27  C   UNL A   1      35.164  30.353  28.024  1.00  0.00     0.016 A 
ATOM     28  C   UNL A   1      35.935  32.645  28.252  1.00  0.00     0.016 A 
ATOM     29  C   UNL A   1      36.394  29.884  28.478  1.00  0.00     0.010 A 
ATOM     30  C   UNL A   1      37.170  32.172  28.711  1.00  0.00     0.010 A 
ATOM     31  C   UNL A   1      37.387  30.791  28.871  1.00  0.00    -0.014 A 
BRANCH  31  32
ATOM     32  C   UNL A   1      38.572  30.276  29.600  1.00  0.00     0.031 A 
ATOM     33  C   UNL A   1      38.791  30.702  31.027  1.00  0.00     0.074 A 
ATOM     34  C   UNL A   1      39.392  29.376  29.031  1.00  0.00     0.049 A 
ATOM     35  N   UNL A   1      39.706  30.314  31.879  1.00  0.00    -0.248 NA
ATOM     36  C   UNL A   1      37.850  31.696  31.566  1.00  0.00     0.031 C 
ATOM     37  C   UNL A   1      39.267  28.863  27.669  1.00  0.00     0.029 A 
ATOM     38  N   UNL A   1      40.488  28.725  29.540  1.00  0.00    -0.354 N 
ATOM     39  C   UNL A   1      39.447  31.011  33.053  1.00  0.00     0.074 A 
ATOM     40  C   UNL A   1      38.315  31.874  32.793  1.00  0.00     0.031 C 
ATOM     41  C   UNL A   1      40.247  27.969  27.451  1.00  0.00     0.029 A 
ATOM     42  C   UNL A   1      41.075  27.860  28.650  1.00  0.00     0.049 A 
ATOM     43  H   UNL A   1      40.823  28.866  30.455  1.00  0.00     0.167 HD
ATOM     44  C   UNL A   1      40.083  30.927  34.246  1.00  0.00     0.037 A 
ATOM     45  C   UNL A   1      42.157  27.070  28.791  1.00  0.00     0.037 A 
ATOM     46  C   UNL A   1      41.209  30.069  34.506  1.00  0.00     0.049 A 
ATOM     47  C   UNL A   1      42.880  27.032  30.113  1.00  0.00     0.074 A 
ATOM     48  C   UNL A   1      41.917  29.906  35.684  1.00  0.00     0.029 A 
ATOM     49  N   UNL A   1      41.795  29.231  33.569  1.00  0.00    -0.354 N 
ATOM     50  N   UNL A   1      42.606  27.666  31.226  1.00  0.00    -0.248 NA
ATOM     51  C   UNL A   1      44.058  26.156  30.198  1.00  0.00     0.031 C 
ATOM     52  C   UNL A   1      42.959  29.002  35.448  1.00  0.00     0.029 A 
ATOM     53  C   UNL A   1      42.868  28.564  34.136  1.00  0.00     0.049 A 
ATOM     54  H   UNL A   1      41.493  29.128  32.637  1.00  0.00     0.167 HD
ATOM     55  C   UNL A   1      43.551  27.243  32.152  1.00  0.00     0.074 A 
ATOM     56  C   UNL A   1      44.403  26.291  31.471  1.00  0.00     0.031 C 
ATOM     57  C   UNL A   1      43.699  27.608  33.449  1.00  0.00     0.037 A 
BRANCH  44  58
ATOM     58  C   UNL A   1      39.584  31.801  35.357  1.00  0.00     0.064 A 
ATOM     59  C   UNL A   1      40.045  33.117  35.521  1.00  0.00     0.173 A 
ATOM     60  C   UNL A   1      38.616  31.327  36.254  1.00  0.00     0.173 A 
ATOM     61  F   UNL A   1      40.981  33.611  34.697  1.00  0.00    -0.203 F 
ATOM     62  C   UNL A   1      39.570  33.918  36.557  1.00  0.00     0.198 A 
ATOM     63  C   UNL A   1      38.125  32.141  37.273  1.00  0.00     0.198 A 
ATOM     64  F   UNL A   1      38.141  30.078  36.141  1.00  0.00    -0.203 F 
ATOM     65  F   UNL A   1      40.056  35.156  36.721  1.00  0.00    -0.200 F 
ATOM     66  C   UNL A   1      38.607  33.430  37.428  1.00  0.00     0.200 A 
ATOM     67  F   UNL A   1      37.188  31.671  38.108  1.00  0.00    -0.200 F 
ATOM     68  F   UNL A   1      38.149  34.204  38.422  1.00  0.00    -0.200 F 
ENDBRANCH  44  58
BRANCH  45  69
ATOM     69  C   UNL A   1      42.615  26.234  27.653  1.00  0.00     0.064 A 
ATOM     70  C   UNL A   1      43.587  26.700  26.758  1.00  0.00     0.173 A 
ATOM     71  C   UNL A   1      42.081  24.956  27.431  1.00  0.00     0.173 A 
ATOM     72  F   UNL A   1      44.110  27.925  26.914  1.00  0.00    -0.203 F 
ATOM     73  C   UNL A   1      43.996  25.925  25.673  1.00  0.00     0.198 A 
ATOM     74  C   UNL A   1      42.509  24.173  26.362  1.00  0.00     0.198 A 
ATOM     75  F   UNL A   1      41.145  24.467  28.259  1.00  0.00    -0.203 F 
ATOM     76  F   UNL A   1      44.896  26.411  24.808  1.00  0.00    -0.200 F 
ATOM     77  C   UNL A   1      43.461  24.661  25.479  1.00  0.00     0.200 A 
ATOM     78  F   UNL A   1      41.995  22.948  26.184  1.00  0.00    -0.200 F 
ATOM     79  F   UNL A   1      43.856  23.916  24.439  1.00  0.00    -0.200 F 
ENDBRANCH  45  69
BRANCH  57  80
ATOM     80  C   UNL A   1      44.795  26.945  34.232  1.00  0.00     0.064 A 
ATOM     81  C   UNL A   1      44.582  25.747  34.930  1.00  0.00     0.173 A 
ATOM     82  C   UNL A   1      46.084  27.499  34.252  1.00  0.00     0.173 A 
ATOM     83  F   UNL A   1      43.365  25.186  34.952  1.00  0.00    -0.203 F 
ATOM     84  C   UNL A   1      45.616  25.141  35.641  1.00  0.00     0.198 A 
ATOM     85  C   UNL A   1      47.121  26.876  34.941  1.00  0.00     0.198 A 
ATOM     86  F   UNL A   1      46.341  28.639  33.594  1.00  0.00    -0.203 F 
ATOM     87  F   UNL A   1      45.380  24.022  36.339  1.00  0.00    -0.200 F 
ATOM     88  C   UNL A   1      46.885  25.702  35.640  1.00  0.00     0.200 A 
ATOM     89  F   UNL A   1      48.349  27.412  34.929  1.00  0.00    -0.200 F 
ATOM     90  F   UNL A   1      47.878  25.115  36.321  1.00  0.00    -0.200 F 
ENDBRANCH  57  80
ENDBRANCH  31  32
ENDBRANCH  24  26
ENDBRANCH  23  24
ENDBRANCH  22  23
ENDBRANCH   1  22
TORSDOF 15
ENDMDL
MODEL 2
REMARK VINA RESULT:     -11.7      4.175      9.155
REMARK SMILES Cc1cscc1-c1ncc(C(=O)OCCOCCOC(=O)c2ccc(-c3c4nc(c(-c5c(F)c(F)c(F)c(F)c5F)c5ccc([nH]5)c(-c5c(F)c(F)c(F)c(F)c5F)c5nc(c(-c6c(F)c(F)c(F)c(F)c6F)c6ccc3[nH]6)C=C5)C=C4)cc2)c(=O)[nH]1
REMARK SMILES IDX 17 1 16 2 15 3 14 4 13 5 11 6 12 7 10 8 7 9 8 10 87 11 9 12
REMARK SMILES IDX 85 13 86 15 6 16 1 17 2 18 3 19 4 20 5 21 18 22 19 23 20 24
REMARK SMILES IDX 21 25 22 26 23 27 84 28 24 29 83 30 25 31 26 32 27 33 77 34
REMARK SMILES IDX 28 35 82 36 76 37 78 38 29 39 81 40 75 41 74 42 30 44 62 45
REMARK SMILES IDX 42 46 61 47 43 48 46 49 60 50 79 51 44 52 45 53 59 55 80 56
REMARK SMILES IDX 47 57 31 58 32 59 40 60 33 61 34 62 38 63 41 64 35 65 36 66
REMARK SMILES IDX 39 67 37 68 63 69 64 70 72 71 65 72 66 73 70 74 73 75 67 76
REMARK SMILES IDX 68 77 71 78 69 79 48 80 49 81 57 82 50 83 51 84 55 85 58 86
REMARK SMILES IDX 52 87 53 88 56 89 54 90
REMARK H PARENT 87 14 78 43 46 54
REMARK Flexibility Score: inf
ROOT
ATOM      1  C   UNL A   1      45.353  21.541  24.470  1.00  0.00     0.202 C 
ENDROOT
BRANCH   1   2
ATOM      2  O   UNL A   1      44.199  20.768  24.805  1.00  0.00    -0.374 OA
BRANCH   2   3
ATOM      3  C   UNL A   1      44.374  19.353  24.881  1.00  0.00     0.202 C 
BRANCH   3   4
ATOM      4  C   UNL A   1      43.231  18.597  25.562  1.00  0.00     0.261 C 
BRANCH   4   5
ATOM      5  O   UNL A   1      41.984  19.285  25.361  1.00  0.00    -0.459 OA
BRANCH   5   6
ATOM      6  C   UNL A   1      41.340  19.673  26.484  1.00  0.00     0.345 C 
ATOM      7  O   UNL A   1      41.773  19.582  27.625  1.00  0.00    -0.246 OA
BRANCH   6   8
ATOM      8  C   UNL A   1      40.082  20.365  26.167  1.00  0.00     0.143 A 
ATOM      9  C   UNL A   1      37.743  21.430  25.250  1.00  0.00     0.141 A 
ATOM     10  N   UNL A   1      37.975  20.184  25.001  1.00  0.00    -0.237 NA
ATOM     11  N   UNL A   1      38.561  22.212  26.019  1.00  0.00    -0.306 N 
ATOM     12  C   UNL A   1      39.171  19.684  25.454  1.00  0.00     0.135 A 
ATOM     13  C   UNL A   1      39.729  21.741  26.558  1.00  0.00     0.265 A 
ATOM     14  H   UNL A   1      38.300  23.145  26.193  1.00  0.00     0.171 HD
ATOM     15  O   UNL A   1      40.421  22.443  27.284  1.00  0.00    -0.269 OA
BRANCH   9  16
ATOM     16  C   UNL A   1      36.586  22.069  24.647  1.00  0.00     0.031 A 
ATOM     17  C   UNL A   1      34.832  21.649  26.531  1.00  0.00     0.046 C 
ATOM     18  C   UNL A   1      35.246  22.143  25.184  1.00  0.00    -0.029 A 
ATOM     19  C   UNL A   1      34.379  22.739  24.284  1.00  0.00     0.069 A 
ATOM     20  S   UNL A   1      35.146  23.223  22.839  1.00  0.00    -0.151 S 
ATOM     21  C   UNL A   1      36.651  22.635  23.384  1.00  0.00     0.077 A 
ENDBRANCH   9  16
ENDBRANCH   6   8
ENDBRANCH   5   6
ENDBRANCH   4   5
ENDBRANCH   3   4
ENDBRANCH   2   3
ENDBRANCH   1   2
BRANCH   1  22
ATOM     22  C   UNL A   1      45.070  22.946  23.926  1.00  0.00     0.261 C 
BRANCH  22  23
ATOM     23  O   UNL A   1      44.246  23.704  24.829  1.00  0.00    -0.460 OA
BRANCH  23  24
ATOM     24  C   UNL A   1      44.752  24.910  25.175  1.00  0.00     0.338 C 
ATOM     25  O   UNL A   1      45.764  25.441  24.735  1.00  0.00    -0.246 OA
BRANCH  24  26
ATOM     26  C   UNL A   1      43.826  25.623  26.076  1.00  0.00     0.060 A 
ATOM     27  C   UNL A   1      44.094  26.975  26.318  1.00  0.00     0.016 A 
ATOM     28  C   UNL A   1      42.776  24.979  26.737  1.00  0.00     0.016 A 
ATOM     29  C   UNL A   1      43.363  27.671  27.277  1.00  0.00     0.010 A 
ATOM     30  C   UNL A   1      42.043  25.679  27.704  1.00  0.00     0.010 A 
ATOM     31  C   UNL A   1      42.366  27.013  28.011  1.00  0.00    -0.014 A 
BRANCH  31  32
ATOM     32  C   UNL A   1      41.797  27.690  29.202  1.00  0.00     0.031 A 
ATOM     33  C   UNL A   1      42.504  27.556  30.524  1.00  0.00     0.074 A 
ATOM     34  C   UNL A   1      40.717  28.482  29.093  1.00  0.00     0.049 A 
ATOM     35  N   UNL A   1      42.236  28.124  31.672  1.00  0.00    -0.248 NA
ATOM     36  C   UNL A   1      43.673  26.662  30.554  1.00  0.00     0.031 C 
ATOM     37  C   UNL A   1      39.964  28.717  27.863  1.00  0.00     0.029 A 
ATOM     38  N   UNL A   1      40.075  29.247  30.035  1.00  0.00    -0.354 N 
ATOM     39  C   UNL A   1      43.203  27.663  32.556  1.00  0.00     0.074 A 
ATOM     40  C   UNL A   1      44.041  26.738  31.824  1.00  0.00     0.031 C 
ATOM     41  C   UNL A   1      38.963  29.575  28.124  1.00  0.00     0.029 A 
ATOM     42  C   UNL A   1      38.996  29.936  29.540  1.00  0.00     0.049 A 
ATOM     43  H   UNL A   1      40.361  29.295  30.976  1.00  0.00     0.167 HD
ATOM     44  C   UNL A   1      43.388  27.994  33.857  1.00  0.00     0.037 A 
ATOM     45  C   UNL A   1      38.135  30.765  30.163  1.00  0.00     0.037 A 
ATOM     46  C   UNL A   1      42.556  28.913  34.587  1.00  0.00     0.049 A 
ATOM     47  C   UNL A   1      38.332  31.077  31.623  1.00  0.00     0.074 A 
ATOM     48  C   UNL A   1      42.668  29.320  35.905  1.00  0.00     0.029 A 
ATOM     49  N   UNL A   1      41.453  29.567  34.059  1.00  0.00    -0.354 N 
ATOM     50  N   UNL A   1      39.270  30.666  32.440  1.00  0.00    -0.248 NA
ATOM     51  C   UNL A   1      37.353  31.982  32.244  1.00  0.00     0.031 C 
ATOM     52  C   UNL A   1      41.606  30.186  36.187  1.00  0.00     0.029 A 
ATOM     53  C   UNL A   1      40.863  30.358  35.031  1.00  0.00     0.049 A 
ATOM     54  H   UNL A   1      41.136  29.480  33.131  1.00  0.00     0.167 HD
ATOM     55  C   UNL A   1      39.017  31.284  33.658  1.00  0.00     0.074 A 
ATOM     56  C   UNL A   1      37.840  32.107  33.470  1.00  0.00     0.031 C 
ATOM     57  C   UNL A   1      39.699  31.183  34.825  1.00  0.00     0.037 A 
BRANCH  44  58
ATOM     58  C   UNL A   1      44.529  27.340  34.579  1.00  0.00     0.064 A 
ATOM     59  C   UNL A   1      45.811  27.912  34.596  1.00  0.00     0.173 A 
ATOM     60  C   UNL A   1      44.333  26.143  35.283  1.00  0.00     0.173 A 
ATOM     61  F   UNL A   1      46.053  29.048  33.927  1.00  0.00    -0.203 F 
ATOM     62  C   UNL A   1      46.860  27.294  35.273  1.00  0.00     0.198 A 
ATOM     63  C   UNL A   1      45.379  25.544  35.980  1.00  0.00     0.198 A 
ATOM     64  F   UNL A   1      43.127  25.557  35.299  1.00  0.00    -0.203 F 
ATOM     65  F   UNL A   1      48.087  27.834  35.240  1.00  0.00    -0.200 F 
ATOM     66  C   UNL A   1      46.641  26.115  35.969  1.00  0.00     0.200 A 
ATOM     67  F   UNL A   1      45.164  24.408  36.659  1.00  0.00    -0.200 F 
ATOM     68  F   UNL A   1      47.652  25.524  36.622  1.00  0.00    -0.200 F 
ENDBRANCH  44  58
BRANCH  45  69
ATOM     69  C   UNL A   1      37.016  31.375  29.401  1.00  0.00     0.064 A 
ATOM     70  C   UNL A   1      37.031  32.733  29.055  1.00  0.00     0.173 A 
ATOM     71  C   UNL A   1      35.903  30.614  29.014  1.00  0.00     0.173 A 
ATOM     72  F   UNL A   1      38.062  33.507  29.425  1.00  0.00    -0.203 F 
ATOM     73  C   UNL A   1      35.967  33.311  28.365  1.00  0.00     0.198 A 
ATOM     74  C   UNL A   1      34.852  31.187  28.301  1.00  0.00     0.198 A 
ATOM     75  F   UNL A   1      35.840  29.311  29.325  1.00  0.00    -0.203 F 
ATOM     76  F   UNL A   1      35.987  34.621  28.083  1.00  0.00    -0.200 F 
ATOM     77  C   UNL A   1      34.881  32.537  27.983  1.00  0.00     0.200 A 
ATOM     78  F   UNL A   1      33.809  30.433  27.927  1.00  0.00    -0.200 F 
ATOM     79  F   UNL A   1      33.861  33.092  27.317  1.00  0.00    -0.200 F 
ENDBRANCH  45  69
BRANCH  57  80
ATOM     80  C   UNL A   1      39.218  32.012  35.980  1.00  0.00     0.064 A 
ATOM     81  C   UNL A   1      38.296  31.516  36.912  1.00  0.00     0.173 A 
ATOM     82  C   UNL A   1      39.719  33.309  36.176  1.00  0.00     0.173 A 
ATOM     83  F   UNL A   1      37.779  30.288  36.762  1.00  0.00    -0.203 F 
ATOM     84  C   UNL A   1      37.871  32.298  37.984  1.00  0.00     0.198 A 
ATOM     85  C   UNL A   1      39.313  34.077  37.264  1.00  0.00     0.198 A 
ATOM     86  F   UNL A   1      40.610  33.827  35.317  1.00  0.00    -0.203 F 
ATOM     87  F   UNL A   1      36.954  31.821  38.836  1.00  0.00    -0.200 F 
ATOM     88  C   UNL A   1      38.386  33.574  38.163  1.00  0.00     0.200 A 
ATOM     89  F   UNL A   1      39.820  35.305  37.442  1.00  0.00    -0.200 F 
ATOM     90  F   UNL A   1      37.978  34.323  39.197  1.00  0.00    -0.200 F 
ENDBRANCH  57  80
ENDBRANCH  31  32
ENDBRANCH  24  26
ENDBRANCH  23  24
ENDBRANCH  22  23
ENDBRANCH   1  22
TORSDOF 15
ENDMDL
MODEL 3
REMARK VINA RESULT:     -11.7      4.564     10.005
REMARK SMILES Cc1cscc1-c1ncc(C(=O)OCCOCCOC(=O)c2ccc(-c3c4nc(c(-c5c(F)c(F)c(F)c(F)c5F)c5ccc([nH]5)c(-c5c(F)c(F)c(F)c(F)c5F)c5nc(c(-c6c(F)c(F)c(F)c(F)c6F)c6ccc3[nH]6)C=C5)C=C4)cc2)c(=O)[nH]1
REMARK SMILES IDX 17 1 16 2 15 3 14 4 13 5 11 6 12 7 10 8 7 9 8 10 87 11 9 12
REMARK SMILES IDX 85 13 86 15 6 16 1 17 2 18 3 19 4 20 5 21 18 22 19 23 20 24
REMARK SMILES IDX 21 25 22 26 23 27 84 28 24 29 83 30 25 31 26 32 27 33 77 34
REMARK SMILES IDX 28 35 82 36 76 37 78 38 29 39 81 40 75 41 74 42 30 44 62 45
REMARK SMILES IDX 42 46 61 47 43 48 46 49 60 50 79 51 44 52 45 53 59 55 80 56
REMARK SMILES IDX 47 57 31 58 32 59 40 60 33 61 34 62 38 63 41 64 35 65 36 66
REMARK SMILES IDX 39 67 37 68 63 69 64 70 72 71 65 72 66 73 70 74 73 75 67 76
REMARK SMILES IDX 68 77 71 78 69 79 48 80 49 81 57 82 50 83 51 84 55 85 58 86
REMARK SMILES IDX 52 87 53 88 56 89 54 90
REMARK H PARENT 87 14 78 43 46 54
REMARK Flexibility Score: inf
ROOT
ATOM      1  C   UNL A   1      36.488  21.453  25.161  1.00  0.00     0.202 C 
ENDROOT
BRANCH   1   2
ATOM      2  O   UNL A   1      35.280  20.945  24.593  1.00  0.00    -0.374 OA
BRANCH   2   3
ATOM      3  C   UNL A   1      34.069  21.228  25.295  1.00  0.00     0.202 C 
BRANCH   3   4
ATOM      4  C   UNL A   1      33.084  22.129  24.547  1.00  0.00     0.261 C 
BRANCH   4   5
ATOM      5  O   UNL A   1      33.610  23.464  24.437  1.00  0.00    -0.459 OA
BRANCH   5   6
ATOM      6  C   UNL A   1      33.778  23.926  23.177  1.00  0.00     0.345 C 
ATOM      7  O   UNL A   1      34.437  23.385  22.299  1.00  0.00    -0.246 OA
BRANCH   6   8
ATOM      8  C   UNL A   1      32.947  25.113  22.929  1.00  0.00     0.143 A 
ATOM      9  C   UNL A   1      31.211  27.214  22.794  1.00  0.00     0.141 A 
ATOM     10  N   UNL A   1      31.582  26.814  23.965  1.00  0.00    -0.237 NA
ATOM     11  N   UNL A   1      31.708  26.701  21.628  1.00  0.00    -0.306 N 
ATOM     12  C   UNL A   1      32.437  25.740  24.000  1.00  0.00     0.135 A 
ATOM     13  C   UNL A   1      32.619  25.678  21.608  1.00  0.00     0.265 A 
ATOM     14  H   UNL A   1      31.401  27.080  20.773  1.00  0.00     0.171 HD
ATOM     15  O   UNL A   1      33.088  25.267  20.554  1.00  0.00    -0.269 OA
BRANCH   9  16
ATOM     16  C   UNL A   1      30.172  28.224  22.687  1.00  0.00     0.031 A 
ATOM     17  C   UNL A   1      28.220  26.959  23.868  1.00  0.00     0.046 C 
ATOM     18  C   UNL A   1      28.798  28.118  23.123  1.00  0.00    -0.029 A 
ATOM     19  C   UNL A   1      28.071  29.239  22.763  1.00  0.00     0.069 A 
ATOM     20  S   UNL A   1      29.007  30.406  21.943  1.00  0.00    -0.151 S 
ATOM     21  C   UNL A   1      30.401  29.429  22.045  1.00  0.00     0.077 A 
ENDBRANCH   9  16
ENDBRANCH   6   8
ENDBRANCH   5   6
ENDBRANCH   4   5
ENDBRANCH   3   4
ENDBRANCH   2   3
ENDBRANCH   1   2
BRANCH   1  22
ATOM     22  C   UNL A   1      37.648  20.455  25.247  1.00  0.00     0.261 C 
BRANCH  22  23
ATOM     23  O   UNL A   1      38.921  21.123  25.192  1.00  0.00    -0.460 OA
BRANCH  23  24
ATOM     24  C   UNL A   1      39.727  20.887  26.252  1.00  0.00     0.338 C 
ATOM     25  O   UNL A   1      40.224  19.816  26.579  1.00  0.00    -0.246 OA
BRANCH  24  26
ATOM     26  C   UNL A   1      40.086  22.150  26.923  1.00  0.00     0.060 A 
ATOM     27  C   UNL A   1      39.412  23.304  26.505  1.00  0.00     0.016 A 
ATOM     28  C   UNL A   1      41.108  22.232  27.874  1.00  0.00     0.016 A 
ATOM     29  C   UNL A   1      39.807  24.553  26.976  1.00  0.00     0.010 A 
ATOM     30  C   UNL A   1      41.507  23.489  28.345  1.00  0.00     0.010 A 
ATOM     31  C   UNL A   1      40.889  24.657  27.861  1.00  0.00    -0.014 A 
BRANCH  31  32
ATOM     32  C   UNL A   1      41.460  26.000  28.130  1.00  0.00     0.031 A 
ATOM     33  C   UNL A   1      42.833  26.326  27.609  1.00  0.00     0.074 A 
ATOM     34  C   UNL A   1      40.733  26.943  28.754  1.00  0.00     0.049 A 
ATOM     35  N   UNL A   1      43.493  27.456  27.653  1.00  0.00    -0.248 NA
ATOM     36  C   UNL A   1      43.559  25.231  26.947  1.00  0.00     0.031 C 
ATOM     37  C   UNL A   1      39.382  26.759  29.276  1.00  0.00     0.029 A 
ATOM     38  N   UNL A   1      41.033  28.253  29.040  1.00  0.00    -0.354 N 
ATOM     39  C   UNL A   1      44.705  27.209  27.021  1.00  0.00     0.074 A 
ATOM     40  C   UNL A   1      44.708  25.814  26.637  1.00  0.00     0.031 C 
ATOM     41  C   UNL A   1      38.964  27.917  29.816  1.00  0.00     0.029 A 
ATOM     42  C   UNL A   1      40.023  28.917  29.690  1.00  0.00     0.049 A 
ATOM     43  H   UNL A   1      41.890  28.674  28.802  1.00  0.00     0.167 HD
ATOM     44  C   UNL A   1      45.718  28.072  26.766  1.00  0.00     0.037 A 
ATOM     45  C   UNL A   1      39.963  30.188  30.131  1.00  0.00     0.037 A 
ATOM     46  C   UNL A   1      45.717  29.460  27.147  1.00  0.00     0.049 A 
ATOM     47  C   UNL A   1      41.124  31.115  29.882  1.00  0.00     0.074 A 
ATOM     48  C   UNL A   1      46.693  30.417  26.926  1.00  0.00     0.029 A 
ATOM     49  N   UNL A   1      44.689  30.088  27.834  1.00  0.00    -0.354 N 
ATOM     50  N   UNL A   1      42.249  30.883  29.251  1.00  0.00    -0.248 NA
ATOM     51  C   UNL A   1      40.999  32.487  30.396  1.00  0.00     0.031 C 
ATOM     52  C   UNL A   1      46.273  31.613  27.518  1.00  0.00     0.029 A 
ATOM     53  C   UNL A   1      45.015  31.415  28.063  1.00  0.00     0.049 A 
ATOM     54  H   UNL A   1      43.852  29.654  28.117  1.00  0.00     0.167 HD
ATOM     55  C   UNL A   1      42.951  32.083  29.263  1.00  0.00     0.074 A 
ATOM     56  C   UNL A   1      42.118  33.044  29.957  1.00  0.00     0.031 C 
ATOM     57  C   UNL A   1      44.171  32.363  28.743  1.00  0.00     0.037 A 
BRANCH  44  58
ATOM     58  C   UNL A   1      46.922  27.531  26.054  1.00  0.00     0.064 A 
ATOM     59  C   UNL A   1      47.035  27.584  24.656  1.00  0.00     0.173 A 
ATOM     60  C   UNL A   1      47.987  26.977  26.779  1.00  0.00     0.173 A 
ATOM     61  F   UNL A   1      46.037  28.092  23.918  1.00  0.00    -0.203 F 
ATOM     62  C   UNL A   1      48.160  27.079  24.009  1.00  0.00     0.198 A 
ATOM     63  C   UNL A   1      49.122  26.497  26.129  1.00  0.00     0.198 A 
ATOM     64  F   UNL A   1      47.931  26.904  28.117  1.00  0.00    -0.203 F 
ATOM     65  F   UNL A   1      48.227  27.100  22.671  1.00  0.00    -0.200 F 
ATOM     66  C   UNL A   1      49.204  26.542  24.747  1.00  0.00     0.200 A 
ATOM     67  F   UNL A   1      50.134  25.987  26.844  1.00  0.00    -0.200 F 
ATOM     68  F   UNL A   1      50.288  26.060  24.122  1.00  0.00    -0.200 F 
ENDBRANCH  44  58
BRANCH  45  69
ATOM     69  C   UNL A   1      38.751  30.668  30.841  1.00  0.00     0.064 A 
ATOM     70  C   UNL A   1      37.653  31.178  30.135  1.00  0.00     0.173 A 
ATOM     71  C   UNL A   1      38.669  30.636  32.241  1.00  0.00     0.173 A 
ATOM     72  F   UNL A   1      37.693  31.252  28.796  1.00  0.00    -0.203 F 
ATOM     73  C   UNL A   1      36.525  31.653  30.803  1.00  0.00     0.198 A 
ATOM     74  C   UNL A   1      37.532  31.088  32.907  1.00  0.00     0.198 A 
ATOM     75  F   UNL A   1      39.696  30.160  32.962  1.00  0.00    -0.203 F 
ATOM     76  F   UNL A   1      35.507  32.175  30.106  1.00  0.00    -0.200 F 
ATOM     77  C   UNL A   1      36.464  31.602  32.188  1.00  0.00     0.200 A 
ATOM     78  F   UNL A   1      37.473  31.029  34.244  1.00  0.00    -0.200 F 
ATOM     79  F   UNL A   1      35.379  32.057  32.829  1.00  0.00    -0.200 F 
ENDBRANCH  45  69
BRANCH  57  80
ATOM     80  C   UNL A   1      44.664  33.776  28.865  1.00  0.00     0.064 A 
ATOM     81  C   UNL A   1      45.480  34.183  29.930  1.00  0.00     0.173 A 
ATOM     82  C   UNL A   1      44.346  34.724  27.879  1.00  0.00     0.173 A 
ATOM     83  F   UNL A   1      45.802  33.318  30.903  1.00  0.00    -0.203 F 
ATOM     84  C   UNL A   1      45.938  35.496  30.019  1.00  0.00     0.198 A 
ATOM     85  C   UNL A   1      44.828  36.027  27.957  1.00  0.00     0.198 A 
ATOM     86  F   UNL A   1      43.576  34.382  26.836  1.00  0.00    -0.203 F 
ATOM     87  F   UNL A   1      46.678  35.876  31.069  1.00  0.00    -0.200 F 
ATOM     88  C   UNL A   1      45.618  36.414  29.029  1.00  0.00     0.200 A 
ATOM     89  F   UNL A   1      44.528  36.910  26.994  1.00  0.00    -0.200 F 
ATOM     90  F   UNL A   1      46.062  37.675  29.114  1.00  0.00    -0.200 F 
ENDBRANCH  57  80
ENDBRANCH  31  32
ENDBRANCH  24  26
ENDBRANCH  23  24
ENDBRANCH  22  23
ENDBRANCH   1  22
TORSDOF 15
ENDMDL
