MODEL 1
REMARK VINA RESULT:     -10.2      0.000      0.000
REMARK SMILES Cc1cc(C)n([C@@H](C(=O)OCCOCCOC(=O)c2ccc(-c3c4nc(c(-c5c(F)c(F)c(F)c(F)c5F)c5ccc([nH]5)c(-c5c(F)c(F)c(F)c(F)c5F)c5nc(c(-c6c(F)c(F)c(F)c(F)c6F)c6ccc3[nH]6)C=C5)C=C4)cc2)C(C)C)n1
REMARK SMILES IDX 14 1 13 2 12 3 11 4 10 5 8 6 9 7 7 8 6 9 1 10 2 11 3 12
REMARK SMILES IDX 85 13 4 14 5 15 82 16 83 17 84 18 15 19 16 20 17 21 18 22
REMARK SMILES IDX 19 23 20 24 81 25 21 26 80 27 22 28 23 29 24 30 74 31 25 32
REMARK SMILES IDX 79 33 73 34 75 35 26 36 78 37 72 38 71 39 27 41 59 42 39 43
REMARK SMILES IDX 58 44 40 45 43 46 57 47 76 48 41 49 42 50 56 52 77 53 44 54
REMARK SMILES IDX 28 55 29 56 37 57 30 58 31 59 35 60 38 61 32 62 33 63 36 64
REMARK SMILES IDX 34 65 60 66 61 67 69 68 62 69 63 70 67 71 70 72 64 73 65 74
REMARK SMILES IDX 68 75 66 76 45 77 46 78 54 79 47 80 48 81 52 82 55 83 49 84
REMARK SMILES IDX 50 85 53 86 51 87
REMARK H PARENT 75 40 43 51
REMARK Flexibility Score: inf
ROOT
ATOM      1  C   UNL A   1      34.188  34.118  29.698  1.00  0.00     0.202 C 
ENDROOT
BRANCH   1   2
ATOM      2  O   UNL A   1      35.115  33.706  30.695  1.00  0.00    -0.374 OA
BRANCH   2   3
ATOM      3  C   UNL A   1      34.680  32.794  31.699  1.00  0.00     0.202 C 
BRANCH   3   4
ATOM      4  C   UNL A   1      34.285  33.366  33.064  1.00  0.00     0.261 C 
BRANCH   4   5
ATOM      5  O   UNL A   1      35.259  33.130  34.103  1.00  0.00    -0.462 OA
BRANCH   5   6
ATOM      6  C   UNL A   1      36.359  33.929  34.047  1.00  0.00     0.331 C 
ATOM      7  O   UNL A   1      36.290  35.146  33.875  1.00  0.00    -0.250 OA
BRANCH   6   8
ATOM      8  C   UNL A   1      37.704  33.236  34.231  1.00  0.00     0.219 C 
BRANCH   8   9
ATOM      9  N   UNL A   1      38.696  33.521  33.175  1.00  0.00    -0.255 N 
ATOM     10  C   UNL A   1      38.972  34.820  29.871  1.00  0.00     0.069 C 
ATOM     11  C   UNL A   1      39.187  34.284  31.234  1.00  0.00     0.060 A 
ATOM     12  C   UNL A   1      40.375  34.314  31.979  1.00  0.00     0.048 A 
ATOM     13  N   UNL A   1      38.187  33.742  31.932  1.00  0.00    -0.177 NA
ATOM     14  C   UNL A   1      40.040  33.857  33.238  1.00  0.00     0.037 A 
ATOM     15  C   UNL A   1      40.930  33.853  34.425  1.00  0.00     0.066 C 
ENDBRANCH   8   9
BRANCH   8  16
ATOM     16  C   UNL A   1      37.617  31.745  34.684  1.00  0.00     0.019 C 
ATOM     17  C   UNL A   1      38.070  30.825  33.540  1.00  0.00     0.010 C 
ATOM     18  C   UNL A   1      38.436  31.395  35.932  1.00  0.00     0.010 C 
ENDBRANCH   8  16
ENDBRANCH   6   8
ENDBRANCH   5   6
ENDBRANCH   4   5
ENDBRANCH   3   4
ENDBRANCH   2   3
ENDBRANCH   1   2
BRANCH   1  19
ATOM     19  C   UNL A   1      34.597  33.962  28.239  1.00  0.00     0.261 C 
BRANCH  19  20
ATOM     20  O   UNL A   1      35.712  33.097  28.067  1.00  0.00    -0.460 OA
BRANCH  20  21
ATOM     21  C   UNL A   1      35.376  31.802  27.864  1.00  0.00     0.338 C 
ATOM     22  O   UNL A   1      34.312  31.372  27.458  1.00  0.00    -0.246 OA
BRANCH  21  23
ATOM     23  C   UNL A   1      36.424  30.957  28.444  1.00  0.00     0.060 A 
ATOM     24  C   UNL A   1      37.502  31.639  29.010  1.00  0.00     0.016 A 
ATOM     25  C   UNL A   1      36.466  29.576  28.191  1.00  0.00     0.016 A 
ATOM     26  C   UNL A   1      38.692  30.968  29.160  1.00  0.00     0.010 A 
ATOM     27  C   UNL A   1      37.662  28.906  28.336  1.00  0.00     0.010 A 
ATOM     28  C   UNL A   1      38.773  29.628  28.760  1.00  0.00    -0.014 A 
BRANCH  28  29
ATOM     29  C   UNL A   1      40.055  28.988  28.943  1.00  0.00     0.031 A 
ATOM     30  C   UNL A   1      40.426  28.836  30.366  1.00  0.00     0.074 A 
ATOM     31  C   UNL A   1      40.820  28.547  27.932  1.00  0.00     0.049 A 
ATOM     32  N   UNL A   1      41.402  29.402  30.993  1.00  0.00    -0.248 NA
ATOM     33  C   UNL A   1      39.509  28.072  31.226  1.00  0.00     0.031 C 
ATOM     34  C   UNL A   1      40.465  28.382  26.523  1.00  0.00     0.029 A 
ATOM     35  N   UNL A   1      42.087  28.062  27.998  1.00  0.00    -0.354 N 
ATOM     36  C   UNL A   1      41.324  28.936  32.298  1.00  0.00     0.074 A 
ATOM     37  C   UNL A   1      40.066  28.247  32.422  1.00  0.00     0.031 C 
ATOM     38  C   UNL A   1      41.416  27.635  25.918  1.00  0.00     0.029 A 
ATOM     39  C   UNL A   1      42.493  27.380  26.864  1.00  0.00     0.049 A 
ATOM     40  H   UNL A   1      42.667  28.183  28.784  1.00  0.00     0.167 HD
ATOM     41  C   UNL A   1      42.411  28.943  33.111  1.00  0.00     0.037 A 
ATOM     42  C   UNL A   1      43.591  26.593  26.764  1.00  0.00     0.037 A 
ATOM     43  C   UNL A   1      43.400  29.893  32.679  1.00  0.00     0.049 A 
ATOM     44  C   UNL A   1      44.519  26.966  27.866  1.00  0.00     0.074 A 
ATOM     45  C   UNL A   1      43.398  31.262  32.479  1.00  0.00     0.029 A 
ATOM     46  N   UNL A   1      44.515  29.430  32.026  1.00  0.00    -0.354 N 
ATOM     47  N   UNL A   1      45.170  28.093  27.924  1.00  0.00    -0.248 NA
ATOM     48  C   UNL A   1      44.398  26.253  29.130  1.00  0.00     0.031 C 
ATOM     49  C   UNL A   1      44.217  31.473  31.331  1.00  0.00     0.029 A 
ATOM     50  C   UNL A   1      44.701  30.229  30.927  1.00  0.00     0.049 A 
ATOM     51  H   UNL A   1      45.074  28.667  32.295  1.00  0.00     0.167 HD
ATOM     52  C   UNL A   1      45.159  28.439  29.267  1.00  0.00     0.074 A 
ATOM     53  C   UNL A   1      44.766  27.223  29.972  1.00  0.00     0.031 C 
ATOM     54  C   UNL A   1      45.195  29.747  29.660  1.00  0.00     0.037 A 
BRANCH  41  55
ATOM     55  C   UNL A   1      42.709  27.818  34.063  1.00  0.00     0.064 A 
ATOM     56  C   UNL A   1      43.207  26.602  33.565  1.00  0.00     0.173 A 
ATOM     57  C   UNL A   1      42.248  27.793  35.399  1.00  0.00     0.173 A 
ATOM     58  F   UNL A   1      43.630  26.507  32.296  1.00  0.00    -0.203 F 
ATOM     59  C   UNL A   1      43.189  25.435  34.333  1.00  0.00     0.198 A 
ATOM     60  C   UNL A   1      42.288  26.643  36.180  1.00  0.00     0.198 A 
ATOM     61  F   UNL A   1      41.634  28.842  35.960  1.00  0.00    -0.203 F 
ATOM     62  F   UNL A   1      43.557  24.271  33.780  1.00  0.00    -0.200 F 
ATOM     63  C   UNL A   1      42.730  25.456  35.638  1.00  0.00     0.200 A 
ATOM     64  F   UNL A   1      41.813  26.682  37.433  1.00  0.00    -0.200 F 
ATOM     65  F   UNL A   1      42.660  24.327  36.355  1.00  0.00    -0.200 F 
ENDBRANCH  41  55
BRANCH  42  66
ATOM     66  C   UNL A   1      43.744  25.342  25.987  1.00  0.00     0.064 A 
ATOM     67  C   UNL A   1      44.890  25.109  25.212  1.00  0.00     0.173 A 
ATOM     68  C   UNL A   1      42.898  24.235  26.202  1.00  0.00     0.173 A 
ATOM     69  F   UNL A   1      45.772  26.097  24.997  1.00  0.00    -0.203 F 
ATOM     70  C   UNL A   1      45.187  23.840  24.705  1.00  0.00     0.198 A 
ATOM     71  C   UNL A   1      43.188  22.973  25.686  1.00  0.00     0.198 A 
ATOM     72  F   UNL A   1      41.824  24.330  26.999  1.00  0.00    -0.203 F 
ATOM     73  F   UNL A   1      46.324  23.640  24.026  1.00  0.00    -0.200 F 
ATOM     74  C   UNL A   1      44.339  22.772  24.950  1.00  0.00     0.200 A 
ATOM     75  F   UNL A   1      42.376  21.942  25.961  1.00  0.00    -0.200 F 
ATOM     76  F   UNL A   1      44.652  21.543  24.516  1.00  0.00    -0.200 F 
ENDBRANCH  42  66
BRANCH  54  77
ATOM     77  C   UNL A   1      45.536  30.775  28.618  1.00  0.00     0.064 A 
ATOM     78  C   UNL A   1      44.605  31.318  27.715  1.00  0.00     0.173 A 
ATOM     79  C   UNL A   1      46.830  31.315  28.613  1.00  0.00     0.173 A 
ATOM     80  F   UNL A   1      43.322  30.936  27.733  1.00  0.00    -0.203 F 
ATOM     81  C   UNL A   1      44.973  32.310  26.807  1.00  0.00     0.198 A 
ATOM     82  C   UNL A   1      47.183  32.335  27.733  1.00  0.00     0.198 A 
ATOM     83  F   UNL A   1      47.745  30.880  29.493  1.00  0.00    -0.203 F 
ATOM     84  F   UNL A   1      44.074  32.792  25.938  1.00  0.00    -0.200 F 
ATOM     85  C   UNL A   1      46.260  32.820  26.821  1.00  0.00     0.200 A 
ATOM     86  F   UNL A   1      48.415  32.861  27.785  1.00  0.00    -0.200 F 
ATOM     87  F   UNL A   1      46.606  33.799  25.971  1.00  0.00    -0.200 F 
ENDBRANCH  54  77
ENDBRANCH  28  29
ENDBRANCH  21  23
ENDBRANCH  20  21
ENDBRANCH  19  20
ENDBRANCH   1  19
TORSDOF 16
ENDMDL
MODEL 2
REMARK VINA RESULT:     -10.0      5.298     10.944
REMARK SMILES Cc1cc(C)n([C@@H](C(=O)OCCOCCOC(=O)c2ccc(-c3c4nc(c(-c5c(F)c(F)c(F)c(F)c5F)c5ccc([nH]5)c(-c5c(F)c(F)c(F)c(F)c5F)c5nc(c(-c6c(F)c(F)c(F)c(F)c6F)c6ccc3[nH]6)C=C5)C=C4)cc2)C(C)C)n1
REMARK SMILES IDX 14 1 13 2 12 3 11 4 10 5 8 6 9 7 7 8 6 9 1 10 2 11 3 12
REMARK SMILES IDX 85 13 4 14 5 15 82 16 83 17 84 18 15 19 16 20 17 21 18 22
REMARK SMILES IDX 19 23 20 24 81 25 21 26 80 27 22 28 23 29 24 30 74 31 25 32
REMARK SMILES IDX 79 33 73 34 75 35 26 36 78 37 72 38 71 39 27 41 59 42 39 43
REMARK SMILES IDX 58 44 40 45 43 46 57 47 76 48 41 49 42 50 56 52 77 53 44 54
REMARK SMILES IDX 28 55 29 56 37 57 30 58 31 59 35 60 38 61 32 62 33 63 36 64
REMARK SMILES IDX 34 65 60 66 61 67 69 68 62 69 63 70 67 71 70 72 64 73 65 74
REMARK SMILES IDX 68 75 66 76 45 77 46 78 54 79 47 80 48 81 52 82 55 83 49 84
REMARK SMILES IDX 50 85 53 86 51 87
REMARK H PARENT 75 40 43 51
REMARK Flexibility Score: inf
ROOT
ATOM      1  C   UNL A   1      41.849  20.142  27.041  1.00  0.00     0.202 C 
ENDROOT
BRANCH   1   2
ATOM      2  O   UNL A   1      40.495  20.575  26.986  1.00  0.00    -0.374 OA
BRANCH   2   3
ATOM      3  C   UNL A   1      40.120  21.526  25.993  1.00  0.00     0.202 C 
BRANCH   3   4
ATOM      4  C   UNL A   1      38.671  22.021  25.984  1.00  0.00     0.261 C 
BRANCH   4   5
ATOM      5  O   UNL A   1      37.744  21.108  25.360  1.00  0.00    -0.462 OA
BRANCH   5   6
ATOM      6  C   UNL A   1      36.726  21.703  24.680  1.00  0.00     0.331 C 
ATOM      7  O   UNL A   1      36.880  22.236  23.581  1.00  0.00    -0.250 OA
BRANCH   6   8
ATOM      8  C   UNL A   1      35.355  21.659  25.346  1.00  0.00     0.219 C 
BRANCH   8   9
ATOM      9  N   UNL A   1      34.347  20.850  24.632  1.00  0.00    -0.255 N 
ATOM     10  C   UNL A   1      32.568  17.772  24.839  1.00  0.00     0.069 C 
ATOM     11  C   UNL A   1      33.106  19.110  24.498  1.00  0.00     0.060 A 
ATOM     12  C   UNL A   1      32.505  20.082  23.685  1.00  0.00     0.048 A 
ATOM     13  N   UNL A   1      34.253  19.549  25.017  1.00  0.00    -0.177 NA
ATOM     14  C   UNL A   1      33.291  21.210  23.807  1.00  0.00     0.037 A 
ATOM     15  C   UNL A   1      32.977  22.552  23.256  1.00  0.00     0.066 C 
ENDBRANCH   8   9
BRANCH   8  16
ATOM     16  C   UNL A   1      34.849  23.028  25.895  1.00  0.00     0.019 C 
ATOM     17  C   UNL A   1      34.339  22.858  27.334  1.00  0.00     0.010 C 
ATOM     18  C   UNL A   1      35.885  24.158  25.885  1.00  0.00     0.010 C 
ENDBRANCH   8  16
ENDBRANCH   6   8
ENDBRANCH   5   6
ENDBRANCH   4   5
ENDBRANCH   3   4
ENDBRANCH   2   3
ENDBRANCH   1   2
BRANCH   1  19
ATOM     19  C   UNL A   1      42.468  19.583  25.767  1.00  0.00     0.261 C 
BRANCH  19  20
ATOM     20  O   UNL A   1      43.886  19.681  25.751  1.00  0.00    -0.460 OA
BRANCH  20  21
ATOM     21  C   UNL A   1      44.377  20.371  24.697  1.00  0.00     0.338 C 
ATOM     22  O   UNL A   1      44.911  19.916  23.701  1.00  0.00    -0.246 OA
BRANCH  21  23
ATOM     23  C   UNL A   1      44.389  21.796  25.043  1.00  0.00     0.060 A 
ATOM     24  C   UNL A   1      45.144  22.135  26.167  1.00  0.00     0.016 A 
ATOM     25  C   UNL A   1      43.484  22.694  24.455  1.00  0.00     0.016 A 
ATOM     26  C   UNL A   1      44.861  23.316  26.810  1.00  0.00     0.010 A 
ATOM     27  C   UNL A   1      43.196  23.875  25.106  1.00  0.00     0.010 A 
ATOM     28  C   UNL A   1      43.845  24.139  26.308  1.00  0.00    -0.014 A 
BRANCH  28  29
ATOM     29  C   UNL A   1      43.599  25.361  27.037  1.00  0.00     0.031 A 
ATOM     30  C   UNL A   1      44.638  26.388  26.809  1.00  0.00     0.074 A 
ATOM     31  C   UNL A   1      42.526  25.560  27.818  1.00  0.00     0.049 A 
ATOM     32  N   UNL A   1      45.477  26.867  27.665  1.00  0.00    -0.248 NA
ATOM     33  C   UNL A   1      44.861  26.827  25.423  1.00  0.00     0.031 C 
ATOM     34  C   UNL A   1      41.306  24.760  27.915  1.00  0.00     0.029 A 
ATOM     35  N   UNL A   1      42.280  26.613  28.642  1.00  0.00    -0.354 N 
ATOM     36  C   UNL A   1      46.233  27.795  26.962  1.00  0.00     0.074 A 
ATOM     37  C   UNL A   1      45.917  27.624  25.568  1.00  0.00     0.031 C 
ATOM     38  C   UNL A   1      40.369  25.472  28.583  1.00  0.00     0.029 A 
ATOM     39  C   UNL A   1      40.965  26.712  29.057  1.00  0.00     0.049 A 
ATOM     40  H   UNL A   1      42.978  27.250  28.918  1.00  0.00     0.167 HD
ATOM     41  C   UNL A   1      46.881  28.802  27.604  1.00  0.00     0.037 A 
ATOM     42  C   UNL A   1      40.405  27.787  29.663  1.00  0.00     0.037 A 
ATOM     43  C   UNL A   1      47.110  28.494  28.990  1.00  0.00     0.049 A 
ATOM     44  C   UNL A   1      41.505  28.610  30.236  1.00  0.00     0.074 A 
ATOM     45  C   UNL A   1      47.781  27.485  29.655  1.00  0.00     0.029 A 
ATOM     46  N   UNL A   1      46.307  29.084  29.935  1.00  0.00    -0.354 N 
ATOM     47  N   UNL A   1      42.232  28.249  31.255  1.00  0.00    -0.248 NA
ATOM     48  C   UNL A   1      42.079  29.658  29.404  1.00  0.00     0.031 C 
ATOM     49  C   UNL A   1      46.994  27.211  30.812  1.00  0.00     0.029 A 
ATOM     50  C   UNL A   1      45.917  28.098  30.805  1.00  0.00     0.049 A 
ATOM     51  H   UNL A   1      46.057  30.034  29.978  1.00  0.00     0.167 HD
ATOM     52  C   UNL A   1      43.511  28.695  30.953  1.00  0.00     0.074 A 
ATOM     53  C   UNL A   1      43.335  29.643  29.857  1.00  0.00     0.031 C 
ATOM     54  C   UNL A   1      44.615  28.046  31.426  1.00  0.00     0.037 A 
BRANCH  41  55
ATOM     55  C   UNL A   1      46.955  30.195  27.044  1.00  0.00     0.064 A 
ATOM     56  C   UNL A   1      48.177  30.888  27.067  1.00  0.00     0.173 A 
ATOM     57  C   UNL A   1      45.810  30.974  26.759  1.00  0.00     0.173 A 
ATOM     58  F   UNL A   1      49.317  30.249  27.369  1.00  0.00    -0.203 F 
ATOM     59  C   UNL A   1      48.238  32.270  26.874  1.00  0.00     0.198 A 
ATOM     60  C   UNL A   1      45.883  32.340  26.508  1.00  0.00     0.198 A 
ATOM     61  F   UNL A   1      44.571  30.473  26.829  1.00  0.00    -0.203 F 
ATOM     62  F   UNL A   1      49.405  32.910  27.026  1.00  0.00    -0.200 F 
ATOM     63  C   UNL A   1      47.092  32.994  26.595  1.00  0.00     0.200 A 
ATOM     64  F   UNL A   1      44.756  33.026  26.266  1.00  0.00    -0.200 F 
ATOM     65  F   UNL A   1      47.142  34.326  26.467  1.00  0.00    -0.200 F 
ENDBRANCH  41  55
BRANCH  42  66
ATOM     66  C   UNL A   1      39.028  28.307  29.499  1.00  0.00     0.064 A 
ATOM     67  C   UNL A   1      38.210  28.545  30.614  1.00  0.00     0.173 A 
ATOM     68  C   UNL A   1      38.583  28.837  28.271  1.00  0.00     0.173 A 
ATOM     69  F   UNL A   1      38.582  28.116  31.829  1.00  0.00    -0.203 F 
ATOM     70  C   UNL A   1      37.030  29.291  30.511  1.00  0.00     0.198 A 
ATOM     71  C   UNL A   1      37.402  29.570  28.168  1.00  0.00     0.198 A 
ATOM     72  F   UNL A   1      39.333  28.740  27.164  1.00  0.00    -0.203 F 
ATOM     73  F   UNL A   1      36.309  29.555  31.609  1.00  0.00    -0.200 F 
ATOM     74  C   UNL A   1      36.633  29.809  29.290  1.00  0.00     0.200 A 
ATOM     75  F   UNL A   1      37.049  30.094  26.985  1.00  0.00    -0.200 F 
ATOM     76  F   UNL A   1      35.536  30.574  29.201  1.00  0.00    -0.200 F 
ENDBRANCH  42  66
BRANCH  54  77
ATOM     77  C   UNL A   1      44.409  27.023  32.507  1.00  0.00     0.064 A 
ATOM     78  C   UNL A   1      44.253  27.339  33.869  1.00  0.00     0.173 A 
ATOM     79  C   UNL A   1      44.248  25.682  32.134  1.00  0.00     0.173 A 
ATOM     80  F   UNL A   1      44.281  28.609  34.291  1.00  0.00    -0.203 F 
ATOM     81  C   UNL A   1      44.011  26.346  34.817  1.00  0.00     0.198 A 
ATOM     82  C   UNL A   1      43.966  24.699  33.079  1.00  0.00     0.198 A 
ATOM     83  F   UNL A   1      44.326  25.329  30.842  1.00  0.00    -0.203 F 
ATOM     84  F   UNL A   1      43.892  26.670  36.113  1.00  0.00    -0.200 F 
ATOM     85  C   UNL A   1      43.863  25.028  34.420  1.00  0.00     0.200 A 
ATOM     86  F   UNL A   1      43.772  23.432  32.683  1.00  0.00    -0.200 F 
ATOM     87  F   UNL A   1      43.595  24.077  35.327  1.00  0.00    -0.200 F 
ENDBRANCH  54  77
ENDBRANCH  28  29
ENDBRANCH  21  23
ENDBRANCH  20  21
ENDBRANCH  19  20
ENDBRANCH   1  19
TORSDOF 16
ENDMDL
MODEL 3
REMARK VINA RESULT:     -10.0      4.237     10.731
REMARK SMILES Cc1cc(C)n([C@@H](C(=O)OCCOCCOC(=O)c2ccc(-c3c4nc(c(-c5c(F)c(F)c(F)c(F)c5F)c5ccc([nH]5)c(-c5c(F)c(F)c(F)c(F)c5F)c5nc(c(-c6c(F)c(F)c(F)c(F)c6F)c6ccc3[nH]6)C=C5)C=C4)cc2)C(C)C)n1
REMARK SMILES IDX 14 1 13 2 12 3 11 4 10 5 8 6 9 7 7 8 6 9 1 10 2 11 3 12
REMARK SMILES IDX 85 13 4 14 5 15 82 16 83 17 84 18 15 19 16 20 17 21 18 22
REMARK SMILES IDX 19 23 20 24 81 25 21 26 80 27 22 28 23 29 24 30 74 31 25 32
REMARK SMILES IDX 79 33 73 34 75 35 26 36 78 37 72 38 71 39 27 41 59 42 39 43
REMARK SMILES IDX 58 44 40 45 43 46 57 47 76 48 41 49 42 50 56 52 77 53 44 54
REMARK SMILES IDX 28 55 29 56 37 57 30 58 31 59 35 60 38 61 32 62 33 63 36 64
REMARK SMILES IDX 34 65 60 66 61 67 69 68 62 69 63 70 67 71 70 72 64 73 65 74
REMARK SMILES IDX 68 75 66 76 45 77 46 78 54 79 47 80 48 81 52 82 55 83 49 84
REMARK SMILES IDX 50 85 53 86 51 87
REMARK H PARENT 75 40 43 51
REMARK Flexibility Score: inf
ROOT
ATOM      1  C   UNL A   1      42.550  19.860  26.247  1.00  0.00     0.202 C 
ENDROOT
BRANCH   1   2
ATOM      2  O   UNL A   1      43.015  20.884  25.376  1.00  0.00    -0.374 OA
BRANCH   2   3
ATOM      3  C   UNL A   1      44.035  21.765  25.839  1.00  0.00     0.202 C 
BRANCH   3   4
ATOM      4  C   UNL A   1      45.465  21.528  25.344  1.00  0.00     0.261 C 
BRANCH   4   5
ATOM      5  O   UNL A   1      46.400  22.552  25.743  1.00  0.00    -0.462 OA
BRANCH   5   6
ATOM      6  C   UNL A   1      46.426  23.649  24.937  1.00  0.00     0.331 C 
ATOM      7  O   UNL A   1      45.803  23.711  23.877  1.00  0.00    -0.250 OA
BRANCH   6   8
ATOM      8  C   UNL A   1      47.260  24.826  25.429  1.00  0.00     0.219 C 
BRANCH   8   9
ATOM      9  N   UNL A   1      47.116  25.128  26.866  1.00  0.00    -0.255 N 
ATOM     10  C   UNL A   1      44.807  24.863  29.565  1.00  0.00     0.069 C 
ATOM     11  C   UNL A   1      45.976  25.070  28.680  1.00  0.00     0.060 A 
ATOM     12  C   UNL A   1      47.318  25.202  29.065  1.00  0.00     0.048 A 
ATOM     13  N   UNL A   1      45.845  25.094  27.352  1.00  0.00    -0.177 NA
ATOM     14  C   UNL A   1      48.047  25.201  27.892  1.00  0.00     0.037 A 
ATOM     15  C   UNL A   1      49.527  25.162  27.790  1.00  0.00     0.066 C 
ENDBRANCH   8   9
BRANCH   8  16
ATOM     16  C   UNL A   1      47.267  26.065  24.481  1.00  0.00     0.019 C 
ATOM     17  C   UNL A   1      46.892  27.329  25.271  1.00  0.00     0.010 C 
ATOM     18  C   UNL A   1      48.595  26.328  23.762  1.00  0.00     0.010 C 
ENDBRANCH   8  16
ENDBRANCH   6   8
ENDBRANCH   5   6
ENDBRANCH   4   5
ENDBRANCH   3   4
ENDBRANCH   2   3
ENDBRANCH   1   2
BRANCH   1  19
ATOM     19  C   UNL A   1      41.165  20.022  26.860  1.00  0.00     0.261 C 
BRANCH  19  20
ATOM     20  O   UNL A   1      40.991  21.274  27.510  1.00  0.00    -0.460 OA
BRANCH  20  21
ATOM     21  C   UNL A   1      40.022  22.045  26.966  1.00  0.00     0.338 C 
ATOM     22  O   UNL A   1      39.059  21.672  26.320  1.00  0.00    -0.246 OA
BRANCH  21  23
ATOM     23  C   UNL A   1      40.437  23.448  27.065  1.00  0.00     0.060 A 
ATOM     24  C   UNL A   1      41.489  23.702  27.946  1.00  0.00     0.016 A 
ATOM     25  C   UNL A   1      39.648  24.478  26.530  1.00  0.00     0.016 A 
ATOM     26  C   UNL A   1      41.639  24.979  28.432  1.00  0.00     0.010 A 
ATOM     27  C   UNL A   1      39.795  25.757  27.023  1.00  0.00     0.010 A 
ATOM     28  C   UNL A   1      40.748  25.975  28.013  1.00  0.00    -0.014 A 
BRANCH  28  29
ATOM     29  C   UNL A   1      40.962  27.292  28.567  1.00  0.00     0.031 A 
ATOM     30  C   UNL A   1      42.191  27.939  28.058  1.00  0.00     0.074 A 
ATOM     31  C   UNL A   1      40.122  27.883  29.430  1.00  0.00     0.049 A 
ATOM     32  N   UNL A   1      43.253  28.249  28.722  1.00  0.00    -0.248 NA
ATOM     33  C   UNL A   1      42.301  28.131  26.604  1.00  0.00     0.031 C 
ATOM     34  C   UNL A   1      38.763  27.489  29.797  1.00  0.00     0.029 A 
ATOM     35  N   UNL A   1      40.306  29.050  30.104  1.00  0.00    -0.354 N 
ATOM     36  C   UNL A   1      44.111  28.830  27.798  1.00  0.00     0.074 A 
ATOM     37  C   UNL A   1      43.543  28.598  26.496  1.00  0.00     0.031 C 
ATOM     38  C   UNL A   1      38.173  28.515  30.454  1.00  0.00     0.029 A 
ATOM     39  C   UNL A   1      39.150  29.575  30.653  1.00  0.00     0.049 A 
ATOM     40  H   UNL A   1      41.185  29.484  30.192  1.00  0.00     0.167 HD
ATOM     41  C   UNL A   1      45.101  29.671  28.193  1.00  0.00     0.037 A 
ATOM     42  C   UNL A   1      39.007  30.829  31.147  1.00  0.00     0.037 A 
ATOM     43  C   UNL A   1      45.456  29.472  29.572  1.00  0.00     0.049 A 
ATOM     44  C   UNL A   1      40.365  31.356  31.449  1.00  0.00     0.074 A 
ATOM     45  C   UNL A   1      45.925  28.395  30.301  1.00  0.00     0.029 A 
ATOM     46  N   UNL A   1      45.004  30.375  30.503  1.00  0.00    -0.354 N 
ATOM     47  N   UNL A   1      41.120  30.919  32.417  1.00  0.00    -0.248 NA
ATOM     48  C   UNL A   1      41.062  32.088  30.400  1.00  0.00     0.031 C 
ATOM     49  C   UNL A   1      45.288  28.498  31.572  1.00  0.00     0.029 A 
ATOM     50  C   UNL A   1      44.505  29.652  31.557  1.00  0.00     0.049 A 
ATOM     51  H   UNL A   1      45.032  31.355  30.427  1.00  0.00     0.167 HD
ATOM     52  C   UNL A   1      42.407  30.937  31.897  1.00  0.00     0.074 A 
ATOM     53  C   UNL A   1      42.323  31.761  30.696  1.00  0.00     0.031 C 
ATOM     54  C   UNL A   1      43.355  30.053  32.330  1.00  0.00     0.037 A 
BRANCH  41  55
ATOM     55  C   UNL A   1      45.460  30.908  27.418  1.00  0.00     0.064 A 
ATOM     56  C   UNL A   1      46.804  31.158  27.093  1.00  0.00     0.173 A 
ATOM     57  C   UNL A   1      44.572  31.994  27.242  1.00  0.00     0.173 A 
ATOM     58  F   UNL A   1      47.734  30.207  27.265  1.00  0.00    -0.203 F 
ATOM     59  C   UNL A   1      47.234  32.420  26.678  1.00  0.00     0.198 A 
ATOM     60  C   UNL A   1      44.994  33.232  26.771  1.00  0.00     0.198 A 
ATOM     61  F   UNL A   1      43.291  31.938  27.629  1.00  0.00    -0.203 F 
ATOM     62  F   UNL A   1      48.541  32.650  26.498  1.00  0.00    -0.200 F 
ATOM     63  C   UNL A   1      46.329  33.456  26.517  1.00  0.00     0.200 A 
ATOM     64  F   UNL A   1      44.104  34.228  26.648  1.00  0.00    -0.200 F 
ATOM     65  F   UNL A   1      46.749  34.680  26.175  1.00  0.00    -0.200 F 
ENDBRANCH  41  55
BRANCH  42  66
ATOM     66  C   UNL A   1      37.815  31.704  31.070  1.00  0.00     0.064 A 
ATOM     67  C   UNL A   1      37.382  32.226  29.842  1.00  0.00     0.173 A 
ATOM     68  C   UNL A   1      36.920  31.825  32.153  1.00  0.00     0.173 A 
ATOM     69  F   UNL A   1      38.152  32.111  28.750  1.00  0.00    -0.203 F 
ATOM     70  C   UNL A   1      36.119  32.810  29.698  1.00  0.00     0.198 A 
ATOM     71  C   UNL A   1      35.667  32.419  32.012  1.00  0.00     0.198 A 
ATOM     72  F   UNL A   1      37.201  31.283  33.346  1.00  0.00    -0.203 F 
ATOM     73  F   UNL A   1      35.713  33.237  28.495  1.00  0.00    -0.200 F 
ATOM     74  C   UNL A   1      35.260  32.898  30.782  1.00  0.00     0.200 A 
ATOM     75  F   UNL A   1      34.833  32.464  33.061  1.00  0.00    -0.200 F 
ATOM     76  F   UNL A   1      34.028  33.403  30.632  1.00  0.00    -0.200 F 
ENDBRANCH  42  66
BRANCH  54  77
ATOM     77  C   UNL A   1      43.054  29.266  33.574  1.00  0.00     0.064 A 
ATOM     78  C   UNL A   1      43.396  29.687  34.872  1.00  0.00     0.173 A 
ATOM     79  C   UNL A   1      42.288  28.099  33.456  1.00  0.00     0.173 A 
ATOM     80  F   UNL A   1      44.030  30.848  35.077  1.00  0.00    -0.203 F 
ATOM     81  C   UNL A   1      43.041  28.936  35.992  1.00  0.00     0.198 A 
ATOM     82  C   UNL A   1      41.899  27.373  34.579  1.00  0.00     0.198 A 
ATOM     83  F   UNL A   1      41.880  27.681  32.248  1.00  0.00    -0.203 F 
ATOM     84  F   UNL A   1      43.402  29.344  37.217  1.00  0.00    -0.200 F 
ATOM     85  C   UNL A   1      42.289  27.782  35.843  1.00  0.00     0.200 A 
ATOM     86  F   UNL A   1      41.128  26.286  34.434  1.00  0.00    -0.200 F 
ATOM     87  F   UNL A   1      41.917  27.078  36.922  1.00  0.00    -0.200 F 
ENDBRANCH  54  77
ENDBRANCH  28  29
ENDBRANCH  21  23
ENDBRANCH  20  21
ENDBRANCH  19  20
ENDBRANCH   1  19
TORSDOF 16
ENDMDL
