MODEL 1
REMARK VINA RESULT:     -12.8      0.000      0.000
REMARK SMILES Cc1cc(C(=O)OCCOCCOC(=O)c2ccc(-c3c4nc(c(-c5c(F)c(F)c(F)c(F)c5F)c5ccc([nH]5)c(-c5c(F)c(F)c(F)c(F)c5F)c5nc(c(-c6c(F)c(F)c(F)c(F)c6F)c6ccc3[nH]6)C=C5)C=C4)cc2)ccc1-c1ccc(/C=N/NC(=O)c2cccc(N(C)C)c2)o1
REMARK SMILES IDX 8 1 7 2 5 3 6 4 4 5 1 6 2 7 3 8 81 9 80 10 79 11 82 12 83 13
REMARK SMILES IDX 100 14 84 15 85 16 86 17 87 18 88 19 89 20 90 22 91 23 92 24
REMARK SMILES IDX 99 25 93 26 95 27 94 28 96 29 97 30 98 31 9 32 10 33 11 34
REMARK SMILES IDX 12 35 13 36 14 37 15 38 16 39 17 40 78 41 18 42 77 43 19 44
REMARK SMILES IDX 20 45 21 46 71 47 22 48 76 49 70 50 72 51 23 52 75 53 69 54
REMARK SMILES IDX 68 55 24 57 56 58 36 59 55 60 37 61 40 62 54 63 73 64 38 65
REMARK SMILES IDX 39 66 53 68 74 69 41 70 25 71 26 72 34 73 27 74 28 75 32 76
REMARK SMILES IDX 35 77 29 78 30 79 33 80 31 81 57 82 58 83 66 84 59 85 60 86
REMARK SMILES IDX 64 87 67 88 61 89 62 90 65 91 63 92 42 93 43 94 51 95 44 96
REMARK SMILES IDX 45 97 49 98 52 99 46 100 47 101 50 102 48 103
REMARK H PARENT 88 21 72 56 40 67
REMARK Flexibility Score: inf
ROOT
ATOM      1  C   UNL A   1      33.054  36.371  29.000  1.00  0.00     0.261 C 
ENDROOT
BRANCH   1   2
ATOM      2  O   UNL A   1      32.994  35.043  28.460  1.00  0.00    -0.460 OA
BRANCH   2   3
ATOM      3  C   UNL A   1      34.101  34.245  28.477  1.00  0.00     0.338 C 
ATOM      4  O   UNL A   1      35.163  34.429  29.021  1.00  0.00    -0.246 OA
BRANCH   3   5
ATOM      5  C   UNL A   1      33.705  32.990  27.818  1.00  0.00     0.060 A 
ATOM      6  C   UNL A   1      35.142  29.499  27.652  1.00  0.00     0.045 C 
ATOM      7  C   UNL A   1      34.153  30.624  27.542  1.00  0.00    -0.039 A 
ATOM      8  C   UNL A   1      34.594  31.913  27.868  1.00  0.00     0.019 A 
ATOM      9  C   UNL A   1      32.802  30.451  27.185  1.00  0.00     0.020 A 
ATOM     10  C   UNL A   1      31.956  31.563  27.041  1.00  0.00     0.013 A 
ATOM     11  C   UNL A   1      32.408  32.832  27.333  1.00  0.00     0.016 A 
BRANCH   9  12
ATOM     12  C   UNL A   1      32.202  29.162  26.930  1.00  0.00     0.135 A 
ATOM     13  C   UNL A   1      31.565  28.199  27.679  1.00  0.00     0.051 A 
ATOM     14  O   UNL A   1      32.228  28.802  25.622  1.00  0.00    -0.455 OA
ATOM     15  C   UNL A   1      31.239  27.158  26.773  1.00  0.00     0.053 A 
ATOM     16  C   UNL A   1      31.675  27.570  25.530  1.00  0.00     0.147 A 
BRANCH  16  17
ATOM     17  C   UNL A   1      31.712  26.957  24.241  1.00  0.00     0.180 C 
ATOM     18  N   UNL A   1      32.790  27.019  23.534  1.00  0.00    -0.177 NA
BRANCH  18  19
ATOM     19  N   UNL A   1      32.758  26.492  22.282  1.00  0.00    -0.243 N 
ATOM     20  C   UNL A   1      33.135  25.257  21.788  1.00  0.00     0.271 C 
ATOM     21  H   UNL A   1      32.401  27.104  21.600  1.00  0.00     0.194 HD
ATOM     22  O   UNL A   1      33.177  25.123  20.561  1.00  0.00    -0.267 OA
BRANCH  20  23
ATOM     23  C   UNL A   1      33.462  24.073  22.639  1.00  0.00     0.043 A 
ATOM     24  C   UNL A   1      32.443  23.133  22.822  1.00  0.00     0.014 A 
ATOM     25  C   UNL A   1      34.678  23.896  23.323  1.00  0.00     0.039 A 
ATOM     26  C   UNL A   1      32.648  22.035  23.645  1.00  0.00     0.003 A 
ATOM     27  C   UNL A   1      34.948  22.759  24.123  1.00  0.00     0.037 A 
ATOM     28  C   UNL A   1      33.886  21.852  24.272  1.00  0.00     0.026 A 
BRANCH  27  29
ATOM     29  N   UNL A   1      36.181  22.570  24.738  1.00  0.00    -0.378 N 
ATOM     30  C   UNL A   1      37.079  21.459  24.433  1.00  0.00     0.143 C 
ATOM     31  C   UNL A   1      36.788  23.651  25.514  1.00  0.00     0.143 C 
ENDBRANCH  27  29
ENDBRANCH  20  23
ENDBRANCH  18  19
ENDBRANCH  16  17
ENDBRANCH   9  12
ENDBRANCH   3   5
ENDBRANCH   2   3
ENDBRANCH   1   2
BRANCH   1  32
ATOM     32  C   UNL A   1      32.620  36.391  30.429  1.00  0.00     0.202 C 
BRANCH  32  33
ATOM     33  O   UNL A   1      33.126  37.610  30.944  1.00  0.00    -0.374 OA
BRANCH  33  34
ATOM     34  C   UNL A   1      33.703  37.540  32.228  1.00  0.00     0.202 C 
BRANCH  34  35
ATOM     35  C   UNL A   1      33.147  36.376  33.054  1.00  0.00     0.261 C 
BRANCH  35  36
ATOM     36  O   UNL A   1      34.227  35.720  33.757  1.00  0.00    -0.460 OA
BRANCH  36  37
ATOM     37  C   UNL A   1      34.584  34.484  33.304  1.00  0.00     0.338 C 
ATOM     38  O   UNL A   1      33.808  33.589  33.014  1.00  0.00    -0.246 OA
BRANCH  37  39
ATOM     39  C   UNL A   1      36.053  34.281  33.493  1.00  0.00     0.060 A 
ATOM     40  C   UNL A   1      36.964  34.703  32.502  1.00  0.00     0.016 A 
ATOM     41  C   UNL A   1      36.465  33.380  34.469  1.00  0.00     0.016 A 
ATOM     42  C   UNL A   1      38.229  34.097  32.395  1.00  0.00     0.010 A 
ATOM     43  C   UNL A   1      37.652  32.707  34.285  1.00  0.00     0.010 A 
ATOM     44  C   UNL A   1      38.531  33.029  33.234  1.00  0.00    -0.014 A 
BRANCH  44  45
ATOM     45  C   UNL A   1      39.655  32.092  33.105  1.00  0.00     0.031 A 
ATOM     46  C   UNL A   1      39.483  30.958  32.166  1.00  0.00     0.074 A 
ATOM     47  C   UNL A   1      40.901  32.427  33.534  1.00  0.00     0.049 A 
ATOM     48  N   UNL A   1      40.378  30.061  31.966  1.00  0.00    -0.248 NA
ATOM     49  C   UNL A   1      38.269  30.703  31.388  1.00  0.00     0.031 C 
ATOM     50  C   UNL A   1      42.195  31.994  32.992  1.00  0.00     0.029 A 
ATOM     51  N   UNL A   1      41.291  33.309  34.553  1.00  0.00    -0.354 N 
ATOM     52  C   UNL A   1      40.030  29.347  30.847  1.00  0.00     0.074 A 
ATOM     53  C   UNL A   1      38.656  29.692  30.604  1.00  0.00     0.031 C 
ATOM     54  C   UNL A   1      43.187  32.354  33.827  1.00  0.00     0.029 A 
ATOM     55  C   UNL A   1      42.565  32.932  35.005  1.00  0.00     0.049 A 
ATOM     56  H   UNL A   1      40.760  34.064  34.894  1.00  0.00     0.167 HD
ATOM     57  C   UNL A   1      41.015  28.643  30.223  1.00  0.00     0.037 A 
ATOM     58  C   UNL A   1      42.753  32.585  36.305  1.00  0.00     0.037 A 
ATOM     59  C   UNL A   1      42.227  28.633  31.060  1.00  0.00     0.049 A 
ATOM     60  C   UNL A   1      43.076  31.124  36.323  1.00  0.00     0.074 A 
ATOM     61  C   UNL A   1      43.460  29.256  30.973  1.00  0.00     0.029 A 
ATOM     62  N   UNL A   1      42.125  28.156  32.371  1.00  0.00    -0.354 N 
ATOM     63  N   UNL A   1      42.704  30.319  35.363  1.00  0.00    -0.248 NA
ATOM     64  C   UNL A   1      43.956  30.484  37.293  1.00  0.00     0.031 C 
ATOM     65  C   UNL A   1      44.047  29.233  32.277  1.00  0.00     0.029 A 
ATOM     66  C   UNL A   1      43.195  28.563  33.146  1.00  0.00     0.049 A 
ATOM     67  H   UNL A   1      41.382  27.601  32.701  1.00  0.00     0.167 HD
ATOM     68  C   UNL A   1      43.369  29.143  35.488  1.00  0.00     0.074 A 
ATOM     69  C   UNL A   1      44.093  29.265  36.742  1.00  0.00     0.031 C 
ATOM     70  C   UNL A   1      43.303  28.160  34.547  1.00  0.00     0.037 A 
BRANCH  57  71
ATOM     71  C   UNL A   1      40.963  28.075  28.817  1.00  0.00     0.064 A 
ATOM     72  C   UNL A   1      40.253  26.880  28.569  1.00  0.00     0.173 A 
ATOM     73  C   UNL A   1      41.643  28.590  27.691  1.00  0.00     0.173 A 
ATOM     74  F   UNL A   1      39.577  26.259  29.545  1.00  0.00    -0.203 F 
ATOM     75  C   UNL A   1      40.220  26.265  27.309  1.00  0.00     0.198 A 
ATOM     76  C   UNL A   1      41.571  28.001  26.422  1.00  0.00     0.198 A 
ATOM     77  F   UNL A   1      42.452  29.649  27.765  1.00  0.00    -0.203 F 
ATOM     78  F   UNL A   1      39.564  25.108  27.150  1.00  0.00    -0.200 F 
ATOM     79  C   UNL A   1      40.868  26.834  26.232  1.00  0.00     0.200 A 
ATOM     80  F   UNL A   1      42.215  28.569  25.391  1.00  0.00    -0.200 F 
ATOM     81  F   UNL A   1      40.830  26.254  25.026  1.00  0.00    -0.200 F 
ENDBRANCH  57  71
BRANCH  58  82
ATOM     82  C   UNL A   1      41.901  33.413  37.213  1.00  0.00     0.064 A 
ATOM     83  C   UNL A   1      42.388  34.708  37.511  1.00  0.00     0.173 A 
ATOM     84  C   UNL A   1      40.514  33.219  37.309  1.00  0.00     0.173 A 
ATOM     85  F   UNL A   1      43.701  34.970  37.397  1.00  0.00    -0.203 F 
ATOM     86  C   UNL A   1      41.527  35.781  37.743  1.00  0.00     0.198 A 
ATOM     87  C   UNL A   1      39.653  34.303  37.533  1.00  0.00     0.198 A 
ATOM     88  F   UNL A   1      39.976  32.026  37.023  1.00  0.00    -0.203 F 
ATOM     89  F   UNL A   1      42.018  37.026  37.839  1.00  0.00    -0.200 F 
ATOM     90  C   UNL A   1      40.157  35.585  37.709  1.00  0.00     0.200 A 
ATOM     91  F   UNL A   1      38.325  34.129  37.462  1.00  0.00    -0.200 F 
ATOM     92  F   UNL A   1      39.329  36.640  37.751  1.00  0.00    -0.200 F 
ENDBRANCH  58  82
BRANCH  70  93
ATOM     93  C   UNL A   1      43.402  26.709  34.919  1.00  0.00     0.064 A 
ATOM     94  C   UNL A   1      42.271  25.885  35.069  1.00  0.00     0.173 A 
ATOM     95  C   UNL A   1      44.650  26.050  34.945  1.00  0.00     0.173 A 
ATOM     96  F   UNL A   1      41.026  26.355  34.910  1.00  0.00    -0.203 F 
ATOM     97  C   UNL A   1      42.382  24.523  35.332  1.00  0.00     0.198 A 
ATOM     98  C   UNL A   1      44.752  24.675  35.125  1.00  0.00     0.198 A 
ATOM     99  F   UNL A   1      45.802  26.708  34.755  1.00  0.00    -0.203 F 
ATOM    100  F   UNL A   1      41.274  23.798  35.536  1.00  0.00    -0.200 F 
ATOM    101  C   UNL A   1      43.621  23.916  35.348  1.00  0.00     0.200 A 
ATOM    102  F   UNL A   1      45.954  24.085  35.055  1.00  0.00    -0.200 F 
ATOM    103  F   UNL A   1      43.723  22.598  35.554  1.00  0.00    -0.200 F 
ENDBRANCH  70  93
ENDBRANCH  44  45
ENDBRANCH  37  39
ENDBRANCH  36  37
ENDBRANCH  35  36
ENDBRANCH  34  35
ENDBRANCH  33  34
ENDBRANCH  32  33
ENDBRANCH   1  32
TORSDOF 19
ENDMDL
MODEL 2
REMARK VINA RESULT:     -12.4      1.806      3.292
REMARK SMILES Cc1cc(C(=O)OCCOCCOC(=O)c2ccc(-c3c4nc(c(-c5c(F)c(F)c(F)c(F)c5F)c5ccc([nH]5)c(-c5c(F)c(F)c(F)c(F)c5F)c5nc(c(-c6c(F)c(F)c(F)c(F)c6F)c6ccc3[nH]6)C=C5)C=C4)cc2)ccc1-c1ccc(/C=N/NC(=O)c2cccc(N(C)C)c2)o1
REMARK SMILES IDX 8 1 7 2 5 3 6 4 4 5 1 6 2 7 3 8 81 9 80 10 79 11 82 12 83 13
REMARK SMILES IDX 100 14 84 15 85 16 86 17 87 18 88 19 89 20 90 22 91 23 92 24
REMARK SMILES IDX 99 25 93 26 95 27 94 28 96 29 97 30 98 31 9 32 10 33 11 34
REMARK SMILES IDX 12 35 13 36 14 37 15 38 16 39 17 40 78 41 18 42 77 43 19 44
REMARK SMILES IDX 20 45 21 46 71 47 22 48 76 49 70 50 72 51 23 52 75 53 69 54
REMARK SMILES IDX 68 55 24 57 56 58 36 59 55 60 37 61 40 62 54 63 73 64 38 65
REMARK SMILES IDX 39 66 53 68 74 69 41 70 25 71 26 72 34 73 27 74 28 75 32 76
REMARK SMILES IDX 35 77 29 78 30 79 33 80 31 81 57 82 58 83 66 84 59 85 60 86
REMARK SMILES IDX 64 87 67 88 61 89 62 90 65 91 63 92 42 93 43 94 51 95 44 96
REMARK SMILES IDX 45 97 49 98 52 99 46 100 47 101 50 102 48 103
REMARK H PARENT 88 21 72 56 40 67
REMARK Flexibility Score: inf
ROOT
ATOM      1  C   UNL A   1      33.934  31.810  28.028  1.00  0.00     0.261 C 
ENDROOT
BRANCH   1   2
ATOM      2  O   UNL A   1      33.670  30.806  27.036  1.00  0.00    -0.460 OA
BRANCH   2   3
ATOM      3  C   UNL A   1      32.386  30.517  26.677  1.00  0.00     0.338 C 
ATOM      4  O   UNL A   1      31.387  31.178  26.828  1.00  0.00    -0.246 OA
BRANCH   3   5
ATOM      5  C   UNL A   1      32.456  29.273  25.892  1.00  0.00     0.060 A 
ATOM      6  C   UNL A   1      29.970  27.230  23.911  1.00  0.00     0.045 C 
ATOM      7  C   UNL A   1      31.287  27.747  24.417  1.00  0.00    -0.039 A 
ATOM      8  C   UNL A   1      31.260  28.732  25.413  1.00  0.00     0.019 A 
ATOM      9  C   UNL A   1      32.536  27.342  23.911  1.00  0.00     0.020 A 
ATOM     10  C   UNL A   1      33.725  27.825  24.481  1.00  0.00     0.013 A 
ATOM     11  C   UNL A   1      33.690  28.770  25.485  1.00  0.00     0.016 A 
BRANCH   9  12
ATOM     12  C   UNL A   1      32.692  26.416  22.813  1.00  0.00     0.135 A 
ATOM     13  C   UNL A   1      32.752  26.505  21.442  1.00  0.00     0.051 A 
ATOM     14  O   UNL A   1      32.860  25.129  23.211  1.00  0.00    -0.455 OA
ATOM     15  C   UNL A   1      32.903  25.175  20.974  1.00  0.00     0.053 A 
ATOM     16  C   UNL A   1      32.953  24.369  22.094  1.00  0.00     0.147 A 
BRANCH  16  17
ATOM     17  C   UNL A   1      33.019  22.957  22.297  1.00  0.00     0.180 C 
ATOM     18  N   UNL A   1      31.993  22.330  22.768  1.00  0.00    -0.177 NA
BRANCH  18  19
ATOM     19  N   UNL A   1      32.123  21.002  23.018  1.00  0.00    -0.243 N 
ATOM     20  C   UNL A   1      32.947  20.298  23.877  1.00  0.00     0.271 C 
ATOM     21  H   UNL A   1      31.518  20.434  22.490  1.00  0.00     0.194 HD
ATOM     22  O   UNL A   1      32.985  19.071  23.751  1.00  0.00    -0.267 OA
BRANCH  20  23
ATOM     23  C   UNL A   1      33.763  20.923  24.961  1.00  0.00     0.043 A 
ATOM     24  C   UNL A   1      33.128  21.115  26.192  1.00  0.00     0.014 A 
ATOM     25  C   UNL A   1      35.077  21.398  24.796  1.00  0.00     0.039 A 
ATOM     26  C   UNL A   1      33.800  21.742  27.232  1.00  0.00     0.003 A 
ATOM     27  C   UNL A   1      35.817  21.987  25.849  1.00  0.00     0.037 A 
ATOM     28  C   UNL A   1      35.125  22.157  27.060  1.00  0.00     0.026 A 
BRANCH  27  29
ATOM     29  N   UNL A   1      37.137  22.391  25.682  1.00  0.00    -0.378 N 
ATOM     30  C   UNL A   1      37.640  23.705  26.080  1.00  0.00     0.143 C 
ATOM     31  C   UNL A   1      38.174  21.407  25.376  1.00  0.00     0.143 C 
ENDBRANCH  27  29
ENDBRANCH  20  23
ENDBRANCH  18  19
ENDBRANCH  16  17
ENDBRANCH   9  12
ENDBRANCH   3   5
ENDBRANCH   2   3
ENDBRANCH   1   2
BRANCH   1  32
ATOM     32  C   UNL A   1      33.569  33.169  27.526  1.00  0.00     0.202 C 
BRANCH  32  33
ATOM     33  O   UNL A   1      33.912  34.048  28.583  1.00  0.00    -0.374 OA
BRANCH  33  34
ATOM     34  C   UNL A   1      33.029  35.126  28.795  1.00  0.00     0.202 C 
BRANCH  34  35
ATOM     35  C   UNL A   1      33.169  35.726  30.197  1.00  0.00     0.261 C 
BRANCH  35  36
ATOM     36  O   UNL A   1      33.279  34.664  31.171  1.00  0.00    -0.460 OA
BRANCH  36  37
ATOM     37  C   UNL A   1      34.408  34.657  31.937  1.00  0.00     0.338 C 
ATOM     38  O   UNL A   1      34.796  35.584  32.629  1.00  0.00    -0.246 OA
BRANCH  37  39
ATOM     39  C   UNL A   1      35.252  33.476  31.584  1.00  0.00     0.060 A 
ATOM     40  C   UNL A   1      35.155  32.281  32.329  1.00  0.00     0.016 A 
ATOM     41  C   UNL A   1      36.352  33.684  30.758  1.00  0.00     0.016 A 
ATOM     42  C   UNL A   1      36.234  31.380  32.372  1.00  0.00     0.010 A 
ATOM     43  C   UNL A   1      37.447  32.863  30.900  1.00  0.00     0.010 A 
ATOM     44  C   UNL A   1      37.418  31.725  31.728  1.00  0.00    -0.014 A 
BRANCH  44  45
ATOM     45  C   UNL A   1      38.728  31.079  31.879  1.00  0.00     0.031 A 
ATOM     46  C   UNL A   1      39.007  29.908  31.015  1.00  0.00     0.074 A 
ATOM     47  C   UNL A   1      39.756  31.715  32.503  1.00  0.00     0.049 A 
ATOM     48  N   UNL A   1      40.104  29.244  31.052  1.00  0.00    -0.248 NA
ATOM     49  C   UNL A   1      38.059  29.346  30.050  1.00  0.00     0.031 C 
ATOM     50  C   UNL A   1      41.196  31.585  32.242  1.00  0.00     0.029 A 
ATOM     51  N   UNL A   1      39.728  32.696  33.504  1.00  0.00    -0.354 N 
ATOM     52  C   UNL A   1      40.155  28.431  29.948  1.00  0.00     0.074 A 
ATOM     53  C   UNL A   1      38.813  28.431  29.431  1.00  0.00     0.031 C 
ATOM     54  C   UNL A   1      41.896  32.198  33.215  1.00  0.00     0.029 A 
ATOM     55  C   UNL A   1      40.940  32.648  34.210  1.00  0.00     0.049 A 
ATOM     56  H   UNL A   1      38.982  33.314  33.683  1.00  0.00     0.167 HD
ATOM     57  C   UNL A   1      41.377  27.963  29.571  1.00  0.00     0.037 A 
ATOM     58  C   UNL A   1      40.942  32.398  35.545  1.00  0.00     0.037 A 
ATOM     59  C   UNL A   1      42.370  28.269  30.615  1.00  0.00     0.049 A 
ATOM     60  C   UNL A   1      41.580  31.057  35.736  1.00  0.00     0.074 A 
ATOM     61  C   UNL A   1      43.421  29.164  30.707  1.00  0.00     0.029 A 
ATOM     62  N   UNL A   1      42.124  27.823  31.918  1.00  0.00    -0.354 N 
ATOM     63  N   UNL A   1      41.596  30.156  34.788  1.00  0.00    -0.248 NA
ATOM     64  C   UNL A   1      42.374  30.677  36.897  1.00  0.00     0.031 C 
ATOM     65  C   UNL A   1      43.730  29.324  32.094  1.00  0.00     0.029 A 
ATOM     66  C   UNL A   1      42.899  28.498  32.841  1.00  0.00     0.049 A 
ATOM     67  H   UNL A   1      41.477  27.118  32.148  1.00  0.00     0.167 HD
ATOM     68  C   UNL A   1      42.473  29.177  35.123  1.00  0.00     0.074 A 
ATOM     69  C   UNL A   1      42.891  29.508  36.476  1.00  0.00     0.031 C 
ATOM     70  C   UNL A   1      42.819  28.177  34.266  1.00  0.00     0.037 A 
BRANCH  57  71
ATOM     71  C   UNL A   1      41.732  27.354  28.228  1.00  0.00     0.064 A 
ATOM     72  C   UNL A   1      42.117  25.997  28.151  1.00  0.00     0.173 A 
ATOM     73  C   UNL A   1      41.800  28.046  26.998  1.00  0.00     0.173 A 
ATOM     74  F   UNL A   1      42.126  25.217  29.241  1.00  0.00    -0.203 F 
ATOM     75  C   UNL A   1      42.522  25.390  26.954  1.00  0.00     0.198 A 
ATOM     76  C   UNL A   1      42.160  27.427  25.794  1.00  0.00     0.198 A 
ATOM     77  F   UNL A   1      41.580  29.359  26.902  1.00  0.00    -0.203 F 
ATOM     78  F   UNL A   1      42.917  24.110  26.958  1.00  0.00    -0.200 F 
ATOM     79  C   UNL A   1      42.529  26.102  25.773  1.00  0.00     0.200 A 
ATOM     80  F   UNL A   1      42.167  28.141  24.658  1.00  0.00    -0.200 F 
ATOM     81  F   UNL A   1      42.907  25.521  24.626  1.00  0.00    -0.200 F 
ENDBRANCH  57  71
BRANCH  58  82
ATOM     82  C   UNL A   1      39.763  33.028  36.215  1.00  0.00     0.064 A 
ATOM     83  C   UNL A   1      38.760  32.138  36.669  1.00  0.00     0.173 A 
ATOM     84  C   UNL A   1      39.855  34.267  36.868  1.00  0.00     0.173 A 
ATOM     85  F   UNL A   1      38.647  30.920  36.114  1.00  0.00    -0.203 F 
ATOM     86  C   UNL A   1      37.997  32.411  37.805  1.00  0.00     0.198 A 
ATOM     87  C   UNL A   1      39.092  34.531  38.014  1.00  0.00     0.198 A 
ATOM     88  F   UNL A   1      40.792  35.153  36.507  1.00  0.00    -0.203 F 
ATOM     89  F   UNL A   1      37.189  31.467  38.312  1.00  0.00    -0.200 F 
ATOM     90  C   UNL A   1      38.197  33.589  38.503  1.00  0.00     0.200 A 
ATOM     91  F   UNL A   1      39.308  35.651  38.719  1.00  0.00    -0.200 F 
ATOM     92  F   UNL A   1      37.598  33.774  39.690  1.00  0.00    -0.200 F 
ENDBRANCH  58  82
BRANCH  70  93
ATOM     93  C   UNL A   1      43.171  26.804  34.760  1.00  0.00     0.064 A 
ATOM     94  C   UNL A   1      42.197  25.848  35.102  1.00  0.00     0.173 A 
ATOM     95  C   UNL A   1      44.502  26.337  34.720  1.00  0.00     0.173 A 
ATOM     96  F   UNL A   1      40.885  26.115  35.028  1.00  0.00    -0.203 F 
ATOM     97  C   UNL A   1      42.537  24.552  35.480  1.00  0.00     0.198 A 
ATOM     98  C   UNL A   1      44.829  25.018  35.017  1.00  0.00     0.198 A 
ATOM     99  F   UNL A   1      45.519  27.129  34.352  1.00  0.00    -0.203 F 
ATOM    100  F   UNL A   1      41.575  23.704  35.864  1.00  0.00    -0.200 F 
ATOM    101  C   UNL A   1      43.851  24.134  35.426  1.00  0.00     0.200 A 
ATOM    102  F   UNL A   1      46.096  24.603  34.880  1.00  0.00    -0.200 F 
ATOM    103  F   UNL A   1      44.171  22.875  35.744  1.00  0.00    -0.200 F 
ENDBRANCH  70  93
ENDBRANCH  44  45
ENDBRANCH  37  39
ENDBRANCH  36  37
ENDBRANCH  35  36
ENDBRANCH  34  35
ENDBRANCH  33  34
ENDBRANCH  32  33
ENDBRANCH   1  32
TORSDOF 19
ENDMDL
MODEL 3
REMARK VINA RESULT:     -12.4      3.455      6.462
REMARK SMILES Cc1cc(C(=O)OCCOCCOC(=O)c2ccc(-c3c4nc(c(-c5c(F)c(F)c(F)c(F)c5F)c5ccc([nH]5)c(-c5c(F)c(F)c(F)c(F)c5F)c5nc(c(-c6c(F)c(F)c(F)c(F)c6F)c6ccc3[nH]6)C=C5)C=C4)cc2)ccc1-c1ccc(/C=N/NC(=O)c2cccc(N(C)C)c2)o1
REMARK SMILES IDX 8 1 7 2 5 3 6 4 4 5 1 6 2 7 3 8 81 9 80 10 79 11 82 12 83 13
REMARK SMILES IDX 100 14 84 15 85 16 86 17 87 18 88 19 89 20 90 22 91 23 92 24
REMARK SMILES IDX 99 25 93 26 95 27 94 28 96 29 97 30 98 31 9 32 10 33 11 34
REMARK SMILES IDX 12 35 13 36 14 37 15 38 16 39 17 40 78 41 18 42 77 43 19 44
REMARK SMILES IDX 20 45 21 46 71 47 22 48 76 49 70 50 72 51 23 52 75 53 69 54
REMARK SMILES IDX 68 55 24 57 56 58 36 59 55 60 37 61 40 62 54 63 73 64 38 65
REMARK SMILES IDX 39 66 53 68 74 69 41 70 25 71 26 72 34 73 27 74 28 75 32 76
REMARK SMILES IDX 35 77 29 78 30 79 33 80 31 81 57 82 58 83 66 84 59 85 60 86
REMARK SMILES IDX 64 87 67 88 61 89 62 90 65 91 63 92 42 93 43 94 51 95 44 96
REMARK SMILES IDX 45 97 49 98 52 99 46 100 47 101 50 102 48 103
REMARK H PARENT 88 21 72 56 40 67
REMARK Flexibility Score: inf
ROOT
ATOM      1  C   UNL A   1      30.811  29.324  24.055  1.00  0.00     0.261 C 
ENDROOT
BRANCH   1   2
ATOM      2  O   UNL A   1      31.447  28.048  23.891  1.00  0.00    -0.460 OA
BRANCH   2   3
ATOM      3  C   UNL A   1      30.762  26.900  24.165  1.00  0.00     0.338 C 
ATOM      4  O   UNL A   1      29.571  26.700  24.142  1.00  0.00    -0.246 OA
BRANCH   3   5
ATOM      5  C   UNL A   1      31.782  25.855  24.348  1.00  0.00     0.060 A 
ATOM      6  C   UNL A   1      33.390  23.278  22.099  1.00  0.00     0.045 C 
ATOM      7  C   UNL A   1      33.169  24.177  23.283  1.00  0.00    -0.039 A 
ATOM      8  C   UNL A   1      32.018  24.975  23.288  1.00  0.00     0.019 A 
ATOM      9  C   UNL A   1      34.075  24.303  24.354  1.00  0.00     0.020 A 
ATOM     10  C   UNL A   1      33.764  25.117  25.455  1.00  0.00     0.013 A 
ATOM     11  C   UNL A   1      32.612  25.873  25.467  1.00  0.00     0.016 A 
BRANCH   9  12
ATOM     12  C   UNL A   1      35.344  23.617  24.411  1.00  0.00     0.135 A 
ATOM     13  C   UNL A   1      35.986  22.653  23.668  1.00  0.00     0.051 A 
ATOM     14  O   UNL A   1      36.140  24.036  25.428  1.00  0.00    -0.455 OA
ATOM     15  C   UNL A   1      37.228  22.429  24.314  1.00  0.00     0.053 A 
ATOM     16  C   UNL A   1      37.269  23.291  25.391  1.00  0.00     0.147 A 
BRANCH  16  17
ATOM     17  C   UNL A   1      38.197  23.500  26.457  1.00  0.00     0.180 C 
ATOM     18  N   UNL A   1      39.262  22.773  26.530  1.00  0.00    -0.177 NA
BRANCH  18  19
ATOM     19  N   UNL A   1      40.077  22.951  27.601  1.00  0.00    -0.243 N 
ATOM     20  C   UNL A   1      41.446  22.828  27.753  1.00  0.00     0.271 C 
ATOM     21  H   UNL A   1      39.606  23.215  28.423  1.00  0.00     0.194 HD
ATOM     22  O   UNL A   1      41.897  22.860  28.902  1.00  0.00    -0.267 OA
BRANCH  20  23
ATOM     23  C   UNL A   1      42.410  22.693  26.620  1.00  0.00     0.043 A 
ATOM     24  C   UNL A   1      42.509  23.782  25.748  1.00  0.00     0.014 A 
ATOM     25  C   UNL A   1      43.144  21.527  26.333  1.00  0.00     0.039 A 
ATOM     26  C   UNL A   1      43.339  23.712  24.638  1.00  0.00     0.003 A 
ATOM     27  C   UNL A   1      44.047  21.438  25.246  1.00  0.00     0.037 A 
ATOM     28  C   UNL A   1      44.101  22.562  24.405  1.00  0.00     0.026 A 
BRANCH  27  29
ATOM     29  N   UNL A   1      44.812  20.299  25.018  1.00  0.00    -0.378 N 
ATOM     30  C   UNL A   1      44.248  19.005  24.641  1.00  0.00     0.143 C 
ATOM     31  C   UNL A   1      46.259  20.409  24.845  1.00  0.00     0.143 C 
ENDBRANCH  27  29
ENDBRANCH  20  23
ENDBRANCH  18  19
ENDBRANCH  16  17
ENDBRANCH   9  12
ENDBRANCH   3   5
ENDBRANCH   2   3
ENDBRANCH   1   2
BRANCH   1  32
ATOM     32  C   UNL A   1      31.413  30.082  25.193  1.00  0.00     0.202 C 
BRANCH  32  33
ATOM     33  O   UNL A   1      31.387  29.177  26.283  1.00  0.00    -0.374 OA
BRANCH  33  34
ATOM     34  C   UNL A   1      32.315  29.432  27.313  1.00  0.00     0.202 C 
BRANCH  34  35
ATOM     35  C   UNL A   1      33.762  29.225  26.857  1.00  0.00     0.261 C 
BRANCH  35  36
ATOM     36  O   UNL A   1      34.401  30.507  26.668  1.00  0.00    -0.460 OA
BRANCH  36  37
ATOM     37  C   UNL A   1      35.055  31.025  27.747  1.00  0.00     0.338 C 
ATOM     38  O   UNL A   1      34.948  32.171  28.153  1.00  0.00    -0.246 OA
BRANCH  37  39
ATOM     39  C   UNL A   1      36.134  30.088  28.183  1.00  0.00     0.060 A 
ATOM     40  C   UNL A   1      36.094  29.499  29.465  1.00  0.00     0.016 A 
ATOM     41  C   UNL A   1      37.323  30.082  27.460  1.00  0.00     0.016 A 
ATOM     42  C   UNL A   1      37.278  29.059  30.083  1.00  0.00     0.010 A 
ATOM     43  C   UNL A   1      38.491  29.764  28.116  1.00  0.00     0.010 A 
ATOM     44  C   UNL A   1      38.491  29.282  29.438  1.00  0.00    -0.014 A 
BRANCH  44  45
ATOM     45  C   UNL A   1      39.836  29.162  30.017  1.00  0.00     0.031 A 
ATOM     46  C   UNL A   1      40.669  28.026  29.557  1.00  0.00     0.074 A 
ATOM     47  C   UNL A   1      40.420  30.210  30.655  1.00  0.00     0.049 A 
ATOM     48  N   UNL A   1      41.855  27.796  29.988  1.00  0.00    -0.248 NA
ATOM     49  C   UNL A   1      40.231  27.014  28.592  1.00  0.00     0.031 C 
ATOM     50  C   UNL A   1      41.849  30.539  30.739  1.00  0.00     0.029 A 
ATOM     51  N   UNL A   1      39.832  31.281  31.345  1.00  0.00    -0.354 N 
ATOM     52  C   UNL A   1      42.443  26.871  29.162  1.00  0.00     0.074 A 
ATOM     53  C   UNL A   1      41.357  26.320  28.397  1.00  0.00     0.031 C 
ATOM     54  C   UNL A   1      42.043  31.515  31.646  1.00  0.00     0.029 A 
ATOM     55  C   UNL A   1      40.761  31.776  32.274  1.00  0.00     0.049 A 
ATOM     56  H   UNL A   1      38.922  31.625  31.202  1.00  0.00     0.167 HD
ATOM     57  C   UNL A   1      43.803  26.793  29.178  1.00  0.00     0.037 A 
ATOM     58  C   UNL A   1      40.464  31.778  33.600  1.00  0.00     0.037 A 
ATOM     59  C   UNL A   1      44.334  27.599  30.290  1.00  0.00     0.049 A 
ATOM     60  C   UNL A   1      41.382  30.793  34.253  1.00  0.00     0.074 A 
ATOM     61  C   UNL A   1      45.014  28.802  30.367  1.00  0.00     0.029 A 
ATOM     62  N   UNL A   1      43.875  27.330  31.584  1.00  0.00    -0.354 N 
ATOM     63  N   UNL A   1      41.920  29.802  33.592  1.00  0.00    -0.248 NA
ATOM     64  C   UNL A   1      41.896  30.916  35.611  1.00  0.00     0.031 C 
ATOM     65  C   UNL A   1      44.865  29.297  31.700  1.00  0.00     0.029 A 
ATOM     66  C   UNL A   1      44.134  28.380  32.445  1.00  0.00     0.049 A 
ATOM     67  H   UNL A   1      43.422  26.497  31.848  1.00  0.00     0.167 HD
ATOM     68  C   UNL A   1      42.913  29.258  34.339  1.00  0.00     0.074 A 
ATOM     69  C   UNL A   1      42.824  29.942  35.618  1.00  0.00     0.031 C 
ATOM     70  C   UNL A   1      43.757  28.304  33.856  1.00  0.00     0.037 A 
BRANCH  57  71
ATOM     71  C   UNL A   1      44.678  26.119  28.138  1.00  0.00     0.064 A 
ATOM     72  C   UNL A   1      45.067  26.829  26.981  1.00  0.00     0.173 A 
ATOM     73  C   UNL A   1      45.101  24.771  28.161  1.00  0.00     0.173 A 
ATOM     74  F   UNL A   1      44.721  28.112  26.805  1.00  0.00    -0.203 F 
ATOM     75  C   UNL A   1      45.818  26.246  25.951  1.00  0.00     0.198 A 
ATOM     76  C   UNL A   1      45.890  24.203  27.153  1.00  0.00     0.198 A 
ATOM     77  F   UNL A   1      44.731  23.921  29.121  1.00  0.00    -0.203 F 
ATOM     78  F   UNL A   1      46.118  26.963  24.859  1.00  0.00    -0.200 F 
ATOM     79  C   UNL A   1      46.242  24.937  26.044  1.00  0.00     0.200 A 
ATOM     80  F   UNL A   1      46.284  22.925  27.261  1.00  0.00    -0.200 F 
ATOM     81  F   UNL A   1      46.967  24.381  25.065  1.00  0.00    -0.200 F 
ENDBRANCH  57  71
BRANCH  58  82
ATOM     82  C   UNL A   1      39.016  32.071  33.828  1.00  0.00     0.064 A 
ATOM     83  C   UNL A   1      38.642  33.435  33.772  1.00  0.00     0.173 A 
ATOM     84  C   UNL A   1      38.015  31.127  33.548  1.00  0.00     0.173 A 
ATOM     85  F   UNL A   1      39.563  34.388  33.989  1.00  0.00    -0.203 F 
ATOM     86  C   UNL A   1      37.385  33.833  33.316  1.00  0.00     0.198 A 
ATOM     87  C   UNL A   1      36.757  31.534  33.081  1.00  0.00     0.198 A 
ATOM     88  F   UNL A   1      38.298  29.817  33.562  1.00  0.00    -0.203 F 
ATOM     89  F   UNL A   1      37.131  35.134  33.101  1.00  0.00    -0.200 F 
ATOM     90  C   UNL A   1      36.459  32.881  32.927  1.00  0.00     0.200 A 
ATOM     91  F   UNL A   1      35.870  30.619  32.665  1.00  0.00    -0.200 F 
ATOM     92  F   UNL A   1      35.323  33.260  32.321  1.00  0.00    -0.200 F 
ENDBRANCH  58  82
BRANCH  70  93
ATOM     93  C   UNL A   1      44.338  27.244  34.745  1.00  0.00     0.064 A 
ATOM     94  C   UNL A   1      43.673  26.034  35.019  1.00  0.00     0.173 A 
ATOM     95  C   UNL A   1      45.672  27.327  35.197  1.00  0.00     0.173 A 
ATOM     96  F   UNL A   1      42.461  25.763  34.515  1.00  0.00    -0.203 F 
ATOM     97  C   UNL A   1      44.260  25.027  35.778  1.00  0.00     0.198 A 
ATOM     98  C   UNL A   1      46.283  26.283  35.884  1.00  0.00     0.198 A 
ATOM     99  F   UNL A   1      46.437  28.400  34.951  1.00  0.00    -0.203 F 
ATOM    100  F   UNL A   1      43.555  23.925  36.068  1.00  0.00    -0.200 F 
ATOM    101  C   UNL A   1      45.568  25.146  36.200  1.00  0.00     0.200 A 
ATOM    102  F   UNL A   1      47.578  26.376  36.215  1.00  0.00    -0.200 F 
ATOM    103  F   UNL A   1      46.146  24.156  36.890  1.00  0.00    -0.200 F 
ENDBRANCH  70  93
ENDBRANCH  44  45
ENDBRANCH  37  39
ENDBRANCH  36  37
ENDBRANCH  35  36
ENDBRANCH  34  35
ENDBRANCH  33  34
ENDBRANCH  32  33
ENDBRANCH   1  32
TORSDOF 19
ENDMDL
