MODEL 1
REMARK VINA RESULT:     -10.5      0.000      0.000
REMARK SMILES CC[C@H](Oc1c(C)cc(Br)cc1N)C(=O)OCCOCCOC(=O)c1ccc(-c2c3nc(c(-c4c(F)c(F)c(F)c(F)c4F)c4ccc([nH]4)c(-c4c(F)c(F)c(F)c(F)c4F)c4nc(c(-c5c(F)c(F)c(F)c(F)c5F)c5ccc2[nH]5)C=C4)C=C3)cc1
REMARK SMILES IDX 18 1 17 2 16 3 14 4 15 5 3 6 2 7 1 8 4 9 5 10 6 11 12 12
REMARK SMILES IDX 7 13 8 14 11 15 9 16 10 17 13 18 19 21 20 22 21 23 22 24
REMARK SMILES IDX 23 25 24 26 25 27 26 28 87 29 27 30 86 31 28 32 29 33 30 34
REMARK SMILES IDX 80 35 31 36 85 37 79 38 81 39 32 40 84 41 78 42 77 43 33 45
REMARK SMILES IDX 65 46 45 47 64 48 46 49 49 50 63 51 82 52 47 53 48 54 62 56
REMARK SMILES IDX 83 57 50 58 34 59 35 60 43 61 36 62 37 63 41 64 44 65 38 66
REMARK SMILES IDX 39 67 42 68 40 69 66 70 67 71 75 72 68 73 69 74 73 75 76 76
REMARK SMILES IDX 70 77 71 78 74 79 72 80 51 81 52 82 60 83 53 84 54 85 58 86
REMARK SMILES IDX 61 87 55 88 56 89 59 90 57 91
REMARK H PARENT 13 19 13 20 81 44 49 55
REMARK Flexibility Score: inf
ROOT
ATOM      1  C   UNL A   1      32.313  29.446  25.967  1.00  0.00     0.202 C 
ENDROOT
BRANCH   1   2
ATOM      2  C   UNL A   1      33.489  28.470  26.080  1.00  0.00     0.261 C 
BRANCH   2   3
ATOM      3  O   UNL A   1      33.089  27.089  26.110  1.00  0.00    -0.461 OA
BRANCH   3   4
ATOM      4  C   UNL A   1      32.956  26.509  24.882  1.00  0.00     0.347 C 
ATOM      5  O   UNL A   1      33.869  26.378  24.071  1.00  0.00    -0.248 OA
BRANCH   4   6
ATOM      6  C   UNL A   1      31.521  26.061  24.564  1.00  0.00     0.282 C 
BRANCH   6   7
ATOM      7  C   UNL A   1      31.392  24.574  24.941  1.00  0.00     0.054 C 
ATOM      8  C   UNL A   1      31.211  24.253  26.415  1.00  0.00     0.008 C 
ENDBRANCH   6   7
BRANCH   6   9
ATOM      9  O   UNL A   1      31.119  26.419  23.246  1.00  0.00    -0.476 OA
BRANCH   9  10
ATOM     10  C   UNL A   1      30.314  27.513  23.015  1.00  0.00     0.146 A 
ATOM     11  C   UNL A   1      28.936  27.642  23.278  1.00  0.00    -0.006 A 
ATOM     12  C   UNL A   1      31.029  28.626  22.488  1.00  0.00     0.076 A 
ATOM     13  C   UNL A   1      28.080  26.632  23.989  1.00  0.00     0.048 C 
ATOM     14  C   UNL A   1      28.277  28.823  22.874  1.00  0.00     0.023 A 
ATOM     15  C   UNL A   1      30.344  29.782  22.097  1.00  0.00     0.045 A 
ATOM     16  C   UNL A   1      28.973  29.872  22.282  1.00  0.00     0.020 A 
ATOM     17  Br  UNL A   1      28.044  31.430  21.748  1.00  0.00    -0.051 Br
BRANCH  12  18
ATOM     18  N   UNL A   1      32.397  28.533  22.216  1.00  0.00    -0.396 N 
ATOM     19  H   UNL A   1      32.883  27.699  22.411  1.00  0.00     0.156 HD
ATOM     20  H   UNL A   1      32.876  29.302  21.830  1.00  0.00     0.156 HD
ENDBRANCH  12  18
ENDBRANCH   9  10
ENDBRANCH   6   9
ENDBRANCH   4   6
ENDBRANCH   3   4
ENDBRANCH   2   3
ENDBRANCH   1   2
BRANCH   1  21
ATOM     21  O   UNL A   1      32.285  30.547  26.867  1.00  0.00    -0.374 OA
BRANCH  21  22
ATOM     22  C   UNL A   1      31.513  31.692  26.502  1.00  0.00     0.202 C 
BRANCH  22  23
ATOM     23  C   UNL A   1      32.008  33.061  26.989  1.00  0.00     0.261 C 
BRANCH  23  24
ATOM     24  O   UNL A   1      32.954  32.953  28.073  1.00  0.00    -0.460 OA
BRANCH  24  25
ATOM     25  C   UNL A   1      34.053  33.733  27.949  1.00  0.00     0.338 C 
ATOM     26  O   UNL A   1      34.093  34.940  27.734  1.00  0.00    -0.246 OA
BRANCH  25  27
ATOM     27  C   UNL A   1      35.265  32.967  28.284  1.00  0.00     0.060 A 
ATOM     28  C   UNL A   1      35.114  31.617  28.624  1.00  0.00     0.016 A 
ATOM     29  C   UNL A   1      36.510  33.591  28.380  1.00  0.00     0.016 A 
ATOM     30  C   UNL A   1      36.203  30.893  29.101  1.00  0.00     0.010 A 
ATOM     31  C   UNL A   1      37.600  32.865  28.875  1.00  0.00     0.010 A 
ATOM     32  C   UNL A   1      37.442  31.525  29.270  1.00  0.00    -0.014 A 
BRANCH  32  33
ATOM     33  C   UNL A   1      38.521  30.823  30.006  1.00  0.00     0.031 A 
ATOM     34  C   UNL A   1      38.743  31.149  31.456  1.00  0.00     0.074 A 
ATOM     35  C   UNL A   1      39.257  29.873  29.405  1.00  0.00     0.049 A 
ATOM     36  N   UNL A   1      39.627  30.663  32.290  1.00  0.00    -0.248 NA
ATOM     37  C   UNL A   1      37.842  32.150  32.049  1.00  0.00     0.031 C 
ATOM     38  C   UNL A   1      39.099  29.433  28.021  1.00  0.00     0.029 A 
ATOM     39  N   UNL A   1      40.286  29.104  29.889  1.00  0.00    -0.354 N 
ATOM     40  C   UNL A   1      39.386  31.293  33.504  1.00  0.00     0.074 A 
ATOM     41  C   UNL A   1      38.295  32.221  33.293  1.00  0.00     0.031 C 
ATOM     42  C   UNL A   1      39.999  28.469  27.766  1.00  0.00     0.029 A 
ATOM     43  C   UNL A   1      40.816  28.246  28.958  1.00  0.00     0.049 A 
ATOM     44  H   UNL A   1      40.613  29.162  30.816  1.00  0.00     0.167 HD
ATOM     45  C   UNL A   1      40.008  31.104  34.690  1.00  0.00     0.037 A 
ATOM     46  C   UNL A   1      41.852  27.390  29.056  1.00  0.00     0.037 A 
ATOM     47  C   UNL A   1      41.095  30.186  34.899  1.00  0.00     0.049 A 
ATOM     48  C   UNL A   1      42.592  27.269  30.363  1.00  0.00     0.074 A 
ATOM     49  C   UNL A   1      41.792  29.925  36.066  1.00  0.00     0.029 A 
ATOM     50  N   UNL A   1      41.649  29.382  33.914  1.00  0.00    -0.354 N 
ATOM     51  N   UNL A   1      42.354  27.863  31.507  1.00  0.00    -0.248 NA
ATOM     52  C   UNL A   1      43.749  26.360  30.390  1.00  0.00     0.031 C 
ATOM     53  C   UNL A   1      42.795  28.996  35.777  1.00  0.00     0.029 A 
ATOM     54  C   UNL A   1      42.695  28.642  34.441  1.00  0.00     0.049 A 
ATOM     55  H   UNL A   1      41.342  29.343  32.979  1.00  0.00     0.167 HD
ATOM     56  C   UNL A   1      43.312  27.388  32.393  1.00  0.00     0.074 A 
ATOM     57  C   UNL A   1      44.130  26.445  31.658  1.00  0.00     0.031 C 
ATOM     58  C   UNL A   1      43.496  27.705  33.697  1.00  0.00     0.037 A 
BRANCH  45  59
ATOM     59  C   UNL A   1      39.537  31.916  35.861  1.00  0.00     0.064 A 
ATOM     60  C   UNL A   1      38.488  31.475  36.680  1.00  0.00     0.173 A 
ATOM     61  C   UNL A   1      40.179  33.116  36.200  1.00  0.00     0.173 A 
ATOM     62  F   UNL A   1      37.833  30.341  36.389  1.00  0.00    -0.203 F 
ATOM     63  C   UNL A   1      38.088  32.216  37.791  1.00  0.00     0.198 A 
ATOM     64  C   UNL A   1      39.793  33.840  37.325  1.00  0.00     0.198 A 
ATOM     65  F   UNL A   1      41.191  33.577  35.450  1.00  0.00    -0.203 F 
ATOM     66  F   UNL A   1      37.062  31.792  38.542  1.00  0.00    -0.200 F 
ATOM     67  C   UNL A   1      38.747  33.392  38.117  1.00  0.00     0.200 A 
ATOM     68  F   UNL A   1      40.438  34.970  37.645  1.00  0.00    -0.200 F 
ATOM     69  F   UNL A   1      38.370  34.095  39.193  1.00  0.00    -0.200 F 
ENDBRANCH  45  59
BRANCH  46  70
ATOM     70  C   UNL A   1      42.250  26.577  27.878  1.00  0.00     0.064 A 
ATOM     71  C   UNL A   1      41.662  25.329  27.632  1.00  0.00     0.173 A 
ATOM     72  C   UNL A   1      43.221  27.032  26.973  1.00  0.00     0.173 A 
ATOM     73  F   UNL A   1      40.749  24.840  28.483  1.00  0.00    -0.203 F 
ATOM     74  C   UNL A   1      42.035  24.564  26.528  1.00  0.00     0.198 A 
ATOM     75  C   UNL A   1      43.574  26.278  25.857  1.00  0.00     0.198 A 
ATOM     76  F   UNL A   1      43.817  28.218  27.168  1.00  0.00    -0.203 F 
ATOM     77  F   UNL A   1      41.481  23.360  26.333  1.00  0.00    -0.200 F 
ATOM     78  C   UNL A   1      42.984  25.043  25.637  1.00  0.00     0.200 A 
ATOM     79  F   UNL A   1      44.484  26.749  24.993  1.00  0.00    -0.200 F 
ATOM     80  F   UNL A   1      43.334  24.312  24.571  1.00  0.00    -0.200 F 
ENDBRANCH  46  70
BRANCH  58  81
ATOM     81  C   UNL A   1      44.616  27.023  34.429  1.00  0.00     0.064 A 
ATOM     82  C   UNL A   1      45.879  27.617  34.551  1.00  0.00     0.173 A 
ATOM     83  C   UNL A   1      44.395  25.801  35.085  1.00  0.00     0.173 A 
ATOM     84  F   UNL A   1      46.142  28.778  33.934  1.00  0.00    -0.203 F 
ATOM     85  C   UNL A   1      46.887  27.007  35.294  1.00  0.00     0.198 A 
ATOM     86  C   UNL A   1      45.396  25.208  35.848  1.00  0.00     0.198 A 
ATOM     87  F   UNL A   1      43.201  25.197  35.006  1.00  0.00    -0.203 F 
ATOM     88  F   UNL A   1      48.096  27.578  35.374  1.00  0.00    -0.200 F 
ATOM     89  C   UNL A   1      46.642  25.809  35.950  1.00  0.00     0.200 A 
ATOM     90  F   UNL A   1      45.153  24.059  36.494  1.00  0.00    -0.200 F 
ATOM     91  F   UNL A   1      47.608  25.233  36.679  1.00  0.00    -0.200 F 
ENDBRANCH  58  81
ENDBRANCH  32  33
ENDBRANCH  25  27
ENDBRANCH  24  25
ENDBRANCH  23  24
ENDBRANCH  22  23
ENDBRANCH  21  22
ENDBRANCH   1  21
TORSDOF 18
ENDMDL
MODEL 2
REMARK VINA RESULT:     -10.4      2.397      3.644
REMARK SMILES CC[C@H](Oc1c(C)cc(Br)cc1N)C(=O)OCCOCCOC(=O)c1ccc(-c2c3nc(c(-c4c(F)c(F)c(F)c(F)c4F)c4ccc([nH]4)c(-c4c(F)c(F)c(F)c(F)c4F)c4nc(c(-c5c(F)c(F)c(F)c(F)c5F)c5ccc2[nH]5)C=C4)C=C3)cc1
REMARK SMILES IDX 18 1 17 2 16 3 14 4 15 5 3 6 2 7 1 8 4 9 5 10 6 11 12 12
REMARK SMILES IDX 7 13 8 14 11 15 9 16 10 17 13 18 19 21 20 22 21 23 22 24
REMARK SMILES IDX 23 25 24 26 25 27 26 28 87 29 27 30 86 31 28 32 29 33 30 34
REMARK SMILES IDX 80 35 31 36 85 37 79 38 81 39 32 40 84 41 78 42 77 43 33 45
REMARK SMILES IDX 65 46 45 47 64 48 46 49 49 50 63 51 82 52 47 53 48 54 62 56
REMARK SMILES IDX 83 57 50 58 34 59 35 60 43 61 36 62 37 63 41 64 44 65 38 66
REMARK SMILES IDX 39 67 42 68 40 69 66 70 67 71 75 72 68 73 69 74 73 75 76 76
REMARK SMILES IDX 70 77 71 78 74 79 72 80 51 81 52 82 60 83 53 84 54 85 58 86
REMARK SMILES IDX 61 87 55 88 56 89 59 90 57 91
REMARK H PARENT 13 19 13 20 81 44 49 55
REMARK Flexibility Score: inf
ROOT
ATOM      1  C   UNL A   1      31.038  28.011  24.109  1.00  0.00     0.202 C 
ENDROOT
BRANCH   1   2
ATOM      2  C   UNL A   1      30.575  27.104  22.963  1.00  0.00     0.261 C 
BRANCH   2   3
ATOM      3  O   UNL A   1      30.906  25.718  23.157  1.00  0.00    -0.461 OA
BRANCH   3   4
ATOM      4  C   UNL A   1      32.111  25.343  22.640  1.00  0.00     0.347 C 
ATOM      5  O   UNL A   1      32.446  25.503  21.469  1.00  0.00    -0.248 OA
BRANCH   4   6
ATOM      6  C   UNL A   1      33.027  24.642  23.654  1.00  0.00     0.282 C 
BRANCH   6   7
ATOM      7  C   UNL A   1      33.980  25.697  24.246  1.00  0.00     0.054 C 
ATOM      8  C   UNL A   1      33.740  26.106  25.688  1.00  0.00     0.008 C 
ENDBRANCH   6   7
BRANCH   6   9
ATOM      9  O   UNL A   1      33.631  23.468  23.121  1.00  0.00    -0.476 OA
BRANCH   9  10
ATOM     10  C   UNL A   1      33.511  22.250  23.753  1.00  0.00     0.146 A 
ATOM     11  C   UNL A   1      34.197  21.800  24.899  1.00  0.00    -0.006 A 
ATOM     12  C   UNL A   1      32.530  21.410  23.155  1.00  0.00     0.076 A 
ATOM     13  C   UNL A   1      35.126  22.623  25.744  1.00  0.00     0.048 C 
ATOM     14  C   UNL A   1      33.994  20.471  25.330  1.00  0.00     0.023 A 
ATOM     15  C   UNL A   1      32.355  20.097  23.607  1.00  0.00     0.045 A 
ATOM     16  C   UNL A   1      33.093  19.631  24.685  1.00  0.00     0.020 A 
ATOM     17  Br  UNL A   1      32.864  17.856  25.294  1.00  0.00    -0.051 Br
BRANCH  12  18
ATOM     18  N   UNL A   1      31.829  21.826  22.018  1.00  0.00    -0.396 N 
ATOM     19  H   UNL A   1      31.591  22.774  21.906  1.00  0.00     0.156 HD
ATOM     20  H   UNL A   1      31.574  21.170  21.329  1.00  0.00     0.156 HD
ENDBRANCH  12  18
ENDBRANCH   9  10
ENDBRANCH   6   9
ENDBRANCH   4   6
ENDBRANCH   3   4
ENDBRANCH   2   3
ENDBRANCH   1   2
BRANCH   1  21
ATOM     21  O   UNL A   1      32.029  28.988  23.814  1.00  0.00    -0.374 OA
BRANCH  21  22
ATOM     22  C   UNL A   1      32.689  29.624  24.909  1.00  0.00     0.202 C 
BRANCH  22  23
ATOM     23  C   UNL A   1      31.807  30.251  25.996  1.00  0.00     0.261 C 
BRANCH  23  24
ATOM     24  O   UNL A   1      32.494  30.382  27.259  1.00  0.00    -0.460 OA
BRANCH  24  25
ATOM     25  C   UNL A   1      33.278  31.479  27.368  1.00  0.00     0.338 C 
ATOM     26  O   UNL A   1      32.932  32.654  27.309  1.00  0.00    -0.246 OA
BRANCH  25  27
ATOM     27  C   UNL A   1      34.646  31.094  27.754  1.00  0.00     0.060 A 
ATOM     28  C   UNL A   1      34.916  29.732  27.938  1.00  0.00     0.016 A 
ATOM     29  C   UNL A   1      35.612  32.058  28.048  1.00  0.00     0.016 A 
ATOM     30  C   UNL A   1      36.144  29.329  28.455  1.00  0.00     0.010 A 
ATOM     31  C   UNL A   1      36.840  31.652  28.583  1.00  0.00     0.010 A 
ATOM     32  C   UNL A   1      37.097  30.290  28.821  1.00  0.00    -0.014 A 
BRANCH  32  33
ATOM     33  C   UNL A   1      38.289  29.871  29.595  1.00  0.00     0.031 A 
ATOM     34  C   UNL A   1      38.489  30.423  30.979  1.00  0.00     0.074 A 
ATOM     35  C   UNL A   1      39.155  28.973  29.094  1.00  0.00     0.049 A 
ATOM     36  N   UNL A   1      39.457  30.200  31.831  1.00  0.00    -0.248 NA
ATOM     37  C   UNL A   1      37.454  31.345  31.473  1.00  0.00     0.031 C 
ATOM     38  C   UNL A   1      39.038  28.328  27.789  1.00  0.00     0.029 A 
ATOM     39  N   UNL A   1      40.303  28.447  29.631  1.00  0.00    -0.354 N 
ATOM     40  C   UNL A   1      39.145  30.945  32.960  1.00  0.00     0.074 A 
ATOM     41  C   UNL A   1      37.917  31.655  32.676  1.00  0.00     0.031 C 
ATOM     42  C   UNL A   1      40.074  27.489  27.625  1.00  0.00     0.029 A 
ATOM     43  C   UNL A   1      40.942  27.561  28.799  1.00  0.00     0.049 A 
ATOM     44  H   UNL A   1      40.636  28.682  30.527  1.00  0.00     0.167 HD
ATOM     45  C   UNL A   1      39.816  31.020  34.133  1.00  0.00     0.037 A 
ATOM     46  C   UNL A   1      42.103  26.898  28.964  1.00  0.00     0.037 A 
ATOM     47  C   UNL A   1      41.040  30.319  34.414  1.00  0.00     0.049 A 
ATOM     48  C   UNL A   1      42.881  27.074  30.242  1.00  0.00     0.074 A 
ATOM     49  C   UNL A   1      41.795  30.332  35.573  1.00  0.00     0.029 A 
ATOM     50  N   UNL A   1      41.692  29.483  33.520  1.00  0.00    -0.354 N 
ATOM     51  N   UNL A   1      42.577  27.775  31.306  1.00  0.00    -0.248 NA
ATOM     52  C   UNL A   1      44.169  26.367  30.339  1.00  0.00     0.031 C 
ATOM     53  C   UNL A   1      42.927  29.538  35.366  1.00  0.00     0.029 A 
ATOM     54  C   UNL A   1      42.854  28.993  34.094  1.00  0.00     0.049 A 
ATOM     55  H   UNL A   1      41.375  29.268  32.613  1.00  0.00     0.167 HD
ATOM     56  C   UNL A   1      43.618  27.580  32.205  1.00  0.00     0.074 A 
ATOM     57  C   UNL A   1      44.559  26.683  31.566  1.00  0.00     0.031 C 
ATOM     58  C   UNL A   1      43.778  28.098  33.447  1.00  0.00     0.037 A 
BRANCH  45  59
ATOM     59  C   UNL A   1      39.247  31.901  35.206  1.00  0.00     0.064 A 
ATOM     60  C   UNL A   1      38.465  31.377  36.244  1.00  0.00     0.173 A 
ATOM     61  C   UNL A   1      39.536  33.274  35.226  1.00  0.00     0.173 A 
ATOM     62  F   UNL A   1      38.150  30.073  36.260  1.00  0.00    -0.203 F 
ATOM     63  C   UNL A   1      37.980  32.198  37.259  1.00  0.00     0.198 A 
ATOM     64  C   UNL A   1      39.070  34.087  36.255  1.00  0.00     0.198 A 
ATOM     65  F   UNL A   1      40.283  33.822  34.257  1.00  0.00    -0.203 F 
ATOM     66  F   UNL A   1      37.208  31.682  38.225  1.00  0.00    -0.200 F 
ATOM     67  C   UNL A   1      38.290  33.550  37.269  1.00  0.00     0.200 A 
ATOM     68  F   UNL A   1      39.380  35.391  36.269  1.00  0.00    -0.200 F 
ATOM     69  F   UNL A   1      37.833  34.336  38.253  1.00  0.00    -0.200 F 
ENDBRANCH  45  59
BRANCH  46  70
ATOM     70  C   UNL A   1      42.599  26.002  27.887  1.00  0.00     0.064 A 
ATOM     71  C   UNL A   1      43.515  26.462  26.932  1.00  0.00     0.173 A 
ATOM     72  C   UNL A   1      42.171  24.669  27.795  1.00  0.00     0.173 A 
ATOM     73  F   UNL A   1      43.932  27.736  26.964  1.00  0.00    -0.203 F 
ATOM     74  C   UNL A   1      43.981  25.623  25.920  1.00  0.00     0.198 A 
ATOM     75  C   UNL A   1      42.656  23.825  26.798  1.00  0.00     0.198 A 
ATOM     76  F   UNL A   1      41.291  24.183  28.682  1.00  0.00    -0.203 F 
ATOM     77  F   UNL A   1      44.831  26.096  25.000  1.00  0.00    -0.200 F 
ATOM     78  C   UNL A   1      43.557  24.304  25.859  1.00  0.00     0.200 A 
ATOM     79  F   UNL A   1      42.252  22.548  26.749  1.00  0.00    -0.200 F 
ATOM     80  F   UNL A   1      44.013  23.496  24.893  1.00  0.00    -0.200 F 
ENDBRANCH  46  70
BRANCH  58  81
ATOM     81  C   UNL A   1      45.008  27.704  34.213  1.00  0.00     0.064 A 
ATOM     82  C   UNL A   1      46.174  28.481  34.174  1.00  0.00     0.173 A 
ATOM     83  C   UNL A   1      44.990  26.584  35.059  1.00  0.00     0.173 A 
ATOM     84  F   UNL A   1      46.244  29.554  33.373  1.00  0.00    -0.203 F 
ATOM     85  C   UNL A   1      47.283  28.144  34.947  1.00  0.00     0.198 A 
ATOM     86  C   UNL A   1      46.090  26.266  35.849  1.00  0.00     0.198 A 
ATOM     87  F   UNL A   1      43.894  25.814  35.139  1.00  0.00    -0.203 F 
ATOM     88  F   UNL A   1      48.398  28.883  34.872  1.00  0.00    -0.200 F 
ATOM     89  C   UNL A   1      47.237  27.044  35.790  1.00  0.00     0.200 A 
ATOM     90  F   UNL A   1      46.038  25.212  36.675  1.00  0.00    -0.200 F 
ATOM     91  F   UNL A   1      48.299  26.732  36.546  1.00  0.00    -0.200 F 
ENDBRANCH  58  81
ENDBRANCH  32  33
ENDBRANCH  25  27
ENDBRANCH  24  25
ENDBRANCH  23  24
ENDBRANCH  22  23
ENDBRANCH  21  22
ENDBRANCH   1  21
TORSDOF 18
ENDMDL
MODEL 3
REMARK VINA RESULT:     -10.4      4.424      9.670
REMARK SMILES CC[C@H](Oc1c(C)cc(Br)cc1N)C(=O)OCCOCCOC(=O)c1ccc(-c2c3nc(c(-c4c(F)c(F)c(F)c(F)c4F)c4ccc([nH]4)c(-c4c(F)c(F)c(F)c(F)c4F)c4nc(c(-c5c(F)c(F)c(F)c(F)c5F)c5ccc2[nH]5)C=C4)C=C3)cc1
REMARK SMILES IDX 18 1 17 2 16 3 14 4 15 5 3 6 2 7 1 8 4 9 5 10 6 11 12 12
REMARK SMILES IDX 7 13 8 14 11 15 9 16 10 17 13 18 19 21 20 22 21 23 22 24
REMARK SMILES IDX 23 25 24 26 25 27 26 28 87 29 27 30 86 31 28 32 29 33 30 34
REMARK SMILES IDX 80 35 31 36 85 37 79 38 81 39 32 40 84 41 78 42 77 43 33 45
REMARK SMILES IDX 65 46 45 47 64 48 46 49 49 50 63 51 82 52 47 53 48 54 62 56
REMARK SMILES IDX 83 57 50 58 34 59 35 60 43 61 36 62 37 63 41 64 44 65 38 66
REMARK SMILES IDX 39 67 42 68 40 69 66 70 67 71 75 72 68 73 69 74 73 75 76 76
REMARK SMILES IDX 70 77 71 78 74 79 72 80 51 81 52 82 60 83 53 84 54 85 58 86
REMARK SMILES IDX 61 87 55 88 56 89 59 90 57 91
REMARK H PARENT 13 19 13 20 81 44 49 55
REMARK Flexibility Score: inf
ROOT
ATOM      1  C   UNL A   1      33.463  21.581  25.800  1.00  0.00     0.202 C 
ENDROOT
BRANCH   1   2
ATOM      2  C   UNL A   1      33.390  23.112  25.839  1.00  0.00     0.261 C 
BRANCH   2   3
ATOM      3  O   UNL A   1      32.154  23.642  25.331  1.00  0.00    -0.461 OA
BRANCH   3   4
ATOM      4  C   UNL A   1      31.585  24.606  26.111  1.00  0.00     0.347 C 
ATOM      5  O   UNL A   1      31.080  24.403  27.211  1.00  0.00    -0.248 OA
BRANCH   4   6
ATOM      6  C   UNL A   1      31.586  26.000  25.466  1.00  0.00     0.282 C 
BRANCH   6   7
ATOM      7  C   UNL A   1      31.039  27.004  26.498  1.00  0.00     0.054 C 
ATOM      8  C   UNL A   1      32.039  27.960  27.123  1.00  0.00     0.008 C 
ENDBRANCH   6   7
BRANCH   6   9
ATOM      9  O   UNL A   1      30.967  26.008  24.184  1.00  0.00    -0.476 OA
BRANCH   9  10
ATOM     10  C   UNL A   1      30.435  27.161  23.652  1.00  0.00     0.146 A 
ATOM     11  C   UNL A   1      31.127  28.297  23.186  1.00  0.00    -0.006 A 
ATOM     12  C   UNL A   1      29.016  27.120  23.547  1.00  0.00     0.076 A 
ATOM     13  C   UNL A   1      32.618  28.427  23.064  1.00  0.00     0.048 C 
ATOM     14  C   UNL A   1      30.380  29.418  22.764  1.00  0.00     0.023 A 
ATOM     15  C   UNL A   1      28.306  28.250  23.125  1.00  0.00     0.045 A 
ATOM     16  C   UNL A   1      28.989  29.396  22.746  1.00  0.00     0.020 A 
ATOM     17  Br  UNL A   1      28.034  30.927  22.183  1.00  0.00    -0.051 Br
BRANCH  12  18
ATOM     18  N   UNL A   1      28.297  26.008  23.998  1.00  0.00    -0.396 N 
ATOM     19  H   UNL A   1      28.652  25.458  24.733  1.00  0.00     0.156 HD
ATOM     20  H   UNL A   1      27.436  25.775  23.581  1.00  0.00     0.156 HD
ENDBRANCH  12  18
ENDBRANCH   9  10
ENDBRANCH   6   9
ENDBRANCH   4   6
ENDBRANCH   3   4
ENDBRANCH   2   3
ENDBRANCH   1   2
BRANCH   1  21
ATOM     21  O   UNL A   1      34.303  20.990  24.816  1.00  0.00    -0.374 OA
BRANCH  21  22
ATOM     22  C   UNL A   1      35.605  21.544  24.625  1.00  0.00     0.202 C 
BRANCH  22  23
ATOM     23  C   UNL A   1      36.767  20.895  25.389  1.00  0.00     0.261 C 
BRANCH  23  24
ATOM     24  O   UNL A   1      38.050  21.432  25.004  1.00  0.00    -0.460 OA
BRANCH  24  25
ATOM     25  C   UNL A   1      39.052  21.190  25.880  1.00  0.00     0.338 C 
ATOM     26  O   UNL A   1      39.678  20.146  26.030  1.00  0.00    -0.246 OA
BRANCH  25  27
ATOM     27  C   UNL A   1      39.452  22.435  26.558  1.00  0.00     0.060 A 
ATOM     28  C   UNL A   1      38.866  23.632  26.127  1.00  0.00     0.016 A 
ATOM     29  C   UNL A   1      40.469  22.442  27.514  1.00  0.00     0.016 A 
ATOM     30  C   UNL A   1      39.325  24.850  26.625  1.00  0.00     0.010 A 
ATOM     31  C   UNL A   1      40.938  23.668  28.001  1.00  0.00     0.010 A 
ATOM     32  C   UNL A   1      40.393  24.876  27.531  1.00  0.00    -0.014 A 
BRANCH  32  33
ATOM     33  C   UNL A   1      41.033  26.172  27.861  1.00  0.00     0.031 A 
ATOM     34  C   UNL A   1      42.461  26.402  27.452  1.00  0.00     0.074 A 
ATOM     35  C   UNL A   1      40.338  27.147  28.470  1.00  0.00     0.049 A 
ATOM     36  N   UNL A   1      43.219  27.452  27.639  1.00  0.00    -0.248 NA
ATOM     37  C   UNL A   1      43.121  25.304  26.727  1.00  0.00     0.031 C 
ATOM     38  C   UNL A   1      38.935  27.061  28.866  1.00  0.00     0.029 A 
ATOM     39  N   UNL A   1      40.723  28.406  28.858  1.00  0.00    -0.354 N 
ATOM     40  C   UNL A   1      44.439  27.146  27.051  1.00  0.00     0.074 A 
ATOM     41  C   UNL A   1      44.334  25.800  26.529  1.00  0.00     0.031 C 
ATOM     42  C   UNL A   1      38.574  28.220  29.441  1.00  0.00     0.029 A 
ATOM     43  C   UNL A   1      39.728  29.118  29.482  1.00  0.00     0.049 A 
ATOM     44  H   UNL A   1      41.626  28.766  28.704  1.00  0.00     0.167 HD
ATOM     45  C   UNL A   1      45.542  27.922  26.943  1.00  0.00     0.037 A 
ATOM     46  C   UNL A   1      39.753  30.347  30.033  1.00  0.00     0.037 A 
ATOM     47  C   UNL A   1      45.648  29.258  27.465  1.00  0.00     0.049 A 
ATOM     48  C   UNL A   1      41.024  31.153  29.985  1.00  0.00     0.074 A 
ATOM     49  C   UNL A   1      46.726  30.124  27.407  1.00  0.00     0.029 A 
ATOM     50  N   UNL A   1      44.640  29.919  28.150  1.00  0.00    -0.354 N 
ATOM     51  N   UNL A   1      42.171  30.859  29.422  1.00  0.00    -0.248 NA
ATOM     52  C   UNL A   1      41.005  32.464  30.655  1.00  0.00     0.031 C 
ATOM     53  C   UNL A   1      46.385  31.292  28.094  1.00  0.00     0.029 A 
ATOM     54  C   UNL A   1      45.078  31.174  28.541  1.00  0.00     0.049 A 
ATOM     55  H   UNL A   1      43.744  29.551  28.330  1.00  0.00     0.167 HD
ATOM     56  C   UNL A   1      43.000  31.950  29.649  1.00  0.00     0.074 A 
ATOM     57  C   UNL A   1      42.222  32.920  30.391  1.00  0.00     0.031 C 
ATOM     58  C   UNL A   1      44.291  32.129  29.275  1.00  0.00     0.037 A 
BRANCH  45  59
ATOM     59  C   UNL A   1      46.735  27.344  26.240  1.00  0.00     0.064 A 
ATOM     60  C   UNL A   1      46.939  27.540  24.867  1.00  0.00     0.173 A 
ATOM     61  C   UNL A   1      47.711  26.637  26.957  1.00  0.00     0.173 A 
ATOM     62  F   UNL A   1      46.028  28.198  24.135  1.00  0.00    -0.203 F 
ATOM     63  C   UNL A   1      48.074  27.037  24.234  1.00  0.00     0.198 A 
ATOM     64  C   UNL A   1      48.854  26.156  26.327  1.00  0.00     0.198 A 
ATOM     65  F   UNL A   1      47.561  26.426  28.274  1.00  0.00    -0.203 F 
ATOM     66  F   UNL A   1      48.235  27.209  22.914  1.00  0.00    -0.200 F 
ATOM     67  C   UNL A   1      49.034  26.353  24.966  1.00  0.00     0.200 A 
ATOM     68  F   UNL A   1      49.786  25.506  27.037  1.00  0.00    -0.200 F 
ATOM     69  F   UNL A   1      50.130  25.882  24.357  1.00  0.00    -0.200 F 
ENDBRANCH  45  59
BRANCH  46  70
ATOM     70  C   UNL A   1      38.530  30.890  30.678  1.00  0.00     0.064 A 
ATOM     71  C   UNL A   1      38.352  30.813  32.066  1.00  0.00     0.173 A 
ATOM     72  C   UNL A   1      37.517  31.499  29.922  1.00  0.00     0.173 A 
ATOM     73  F   UNL A   1      39.280  30.216  32.827  1.00  0.00    -0.203 F 
ATOM     74  C   UNL A   1      37.204  31.321  32.673  1.00  0.00     0.198 A 
ATOM     75  C   UNL A   1      36.383  32.028  30.532  1.00  0.00     0.198 A 
ATOM     76  F   UNL A   1      37.637  31.591  28.589  1.00  0.00    -0.203 F 
ATOM     77  F   UNL A   1      37.044  31.207  33.998  1.00  0.00    -0.200 F 
ATOM     78  C   UNL A   1      36.225  31.935  31.907  1.00  0.00     0.200 A 
ATOM     79  F   UNL A   1      35.443  32.630  29.789  1.00  0.00    -0.200 F 
ATOM     80  F   UNL A   1      35.127  32.432  32.492  1.00  0.00    -0.200 F 
ENDBRANCH  46  70
BRANCH  58  81
ATOM     81  C   UNL A   1      44.950  33.427  29.646  1.00  0.00     0.064 A 
ATOM     82  C   UNL A   1      44.899  34.541  28.796  1.00  0.00     0.173 A 
ATOM     83  C   UNL A   1      45.565  33.579  30.898  1.00  0.00     0.173 A 
ATOM     84  F   UNL A   1      44.331  34.441  27.585  1.00  0.00    -0.203 F 
ATOM     85  C   UNL A   1      45.450  35.759  29.183  1.00  0.00     0.198 A 
ATOM     86  C   UNL A   1      46.092  34.805  31.291  1.00  0.00     0.198 A 
ATOM     87  F   UNL A   1      45.631  32.546  31.750  1.00  0.00    -0.203 F 
ATOM     88  F   UNL A   1      45.417  36.804  28.345  1.00  0.00    -0.200 F 
ATOM     89  C   UNL A   1      46.037  35.894  30.433  1.00  0.00     0.200 A 
ATOM     90  F   UNL A   1      46.644  34.938  32.505  1.00  0.00    -0.200 F 
ATOM     91  F   UNL A   1      46.552  37.073  30.810  1.00  0.00    -0.200 F 
ENDBRANCH  58  81
ENDBRANCH  32  33
ENDBRANCH  25  27
ENDBRANCH  24  25
ENDBRANCH  23  24
ENDBRANCH  22  23
ENDBRANCH  21  22
ENDBRANCH   1  21
TORSDOF 18
ENDMDL
