MODEL 1
REMARK VINA RESULT:     -11.8      0.000      0.000
REMARK SMILES COC(=O)C[C@H](c1ccc(C(=O)OCCOCCOC(=O)c2ccc(-c3c4nc(c(-c5c(F)c(F)c(F)c(F)c5F)c5ccc([nH]5)c(-c5c(F)c(F)c(F)c(F)c5F)c5nc(c(-c6c(F)c(F)c(F)c(F)c6F)c6ccc3[nH]6)C=C5)C=C4)cc2)cc1)c1c(O)n[nH]c1C
REMARK SMILES IDX 15 1 14 2 13 3 11 4 12 5 10 6 7 7 8 8 86 9 9 10 85 11 6 12
REMARK SMILES IDX 5 13 3 14 4 15 2 16 1 17 87 18 88 19 92 20 90 21 91 22 93 23
REMARK SMILES IDX 89 25 16 27 17 28 18 29 19 30 20 31 21 32 22 33 23 34 84 35
REMARK SMILES IDX 24 36 83 37 25 38 26 39 27 40 77 41 28 42 82 43 76 44 78 45
REMARK SMILES IDX 29 46 81 47 75 48 74 49 30 51 62 52 42 53 61 54 43 55 46 56
REMARK SMILES IDX 60 57 79 58 44 59 45 60 59 62 80 63 47 64 31 65 32 66 40 67
REMARK SMILES IDX 33 68 34 69 38 70 41 71 35 72 36 73 39 74 37 75 63 76 64 77
REMARK SMILES IDX 72 78 65 79 66 80 70 81 73 82 67 83 68 84 71 85 69 86 48 87
REMARK SMILES IDX 49 88 57 89 50 90 51 91 55 92 58 93 52 94 53 95 56 96 54 97
REMARK H PARENT 91 24 89 26 78 50 46 61
REMARK Flexibility Score: inf
ROOT
ATOM      1  C   UNL A   1      31.052  27.927  24.118  1.00  0.00     0.202 C 
ENDROOT
BRANCH   1   2
ATOM      2  C   UNL A   1      31.163  28.112  22.603  1.00  0.00     0.261 C 
BRANCH   2   3
ATOM      3  O   UNL A   1      31.187  26.841  21.936  1.00  0.00    -0.460 OA
BRANCH   3   4
ATOM      4  C   UNL A   1      32.394  26.229  21.946  1.00  0.00     0.338 C 
ATOM      5  O   UNL A   1      33.484  26.748  21.760  1.00  0.00    -0.246 OA
BRANCH   4   6
ATOM      6  C   UNL A   1      32.254  24.818  22.352  1.00  0.00     0.060 A 
ATOM      7  C   UNL A   1      32.153  22.329  23.615  1.00  0.00    -0.040 A 
ATOM      8  C   UNL A   1      31.110  23.255  23.795  1.00  0.00     0.005 A 
ATOM      9  C   UNL A   1      33.160  22.611  22.670  1.00  0.00     0.005 A 
ATOM     10  C   UNL A   1      31.172  24.501  23.181  1.00  0.00     0.016 A 
ATOM     11  C   UNL A   1      33.210  23.853  22.034  1.00  0.00     0.016 A 
BRANCH   7  12
ATOM     12  C   UNL A   1      32.358  21.175  24.598  1.00  0.00     0.068 C 
BRANCH  12  13
ATOM     13  C   UNL A   1      32.644  19.853  23.850  1.00  0.00     0.136 C 
BRANCH  13  14
ATOM     14  C   UNL A   1      32.863  18.623  24.707  1.00  0.00     0.306 C 
ATOM     15  O   UNL A   1      32.158  18.310  25.657  1.00  0.00    -0.252 OA
BRANCH  14  16
ATOM     16  O   UNL A   1      33.962  17.939  24.278  1.00  0.00    -0.469 OA
ATOM     17  C   UNL A   1      33.691  16.711  23.593  1.00  0.00     0.282 C 
ENDBRANCH  14  16
ENDBRANCH  13  14
ENDBRANCH  12  13
BRANCH  12  18
ATOM     18  C   UNL A   1      33.318  21.620  25.683  1.00  0.00     0.044 A 
ATOM     19  C   UNL A   1      32.973  22.139  26.953  1.00  0.00     0.234 A 
ATOM     20  C   UNL A   1      34.704  21.491  25.805  1.00  0.00     0.040 A 
ATOM     21  N   UNL A   1      33.984  22.398  27.763  1.00  0.00    -0.137 NA
ATOM     22  N   UNL A   1      35.038  22.013  27.032  1.00  0.00    -0.279 N 
ATOM     23  C   UNL A   1      35.769  20.913  24.948  1.00  0.00     0.066 C 
ATOM     24  H   UNL A   1      35.967  22.096  27.346  1.00  0.00     0.190 HD
BRANCH  19  25
ATOM     25  O   UNL A   1      31.778  22.383  27.484  1.00  0.00    -0.492 OA
ATOM     26  H   UNL A   1      31.052  21.828  27.279  1.00  0.00     0.295 HD
ENDBRANCH  19  25
ENDBRANCH  12  18
ENDBRANCH   7  12
ENDBRANCH   4   6
ENDBRANCH   3   4
ENDBRANCH   2   3
ENDBRANCH   1   2
BRANCH   1  27
ATOM     27  O   UNL A   1      32.237  28.179  24.873  1.00  0.00    -0.374 OA
BRANCH  27  28
ATOM     28  C   UNL A   1      32.670  29.535  24.986  1.00  0.00     0.202 C 
BRANCH  28  29
ATOM     29  C   UNL A   1      31.855  30.434  25.923  1.00  0.00     0.261 C 
BRANCH  29  30
ATOM     30  O   UNL A   1      32.491  30.585  27.204  1.00  0.00    -0.460 OA
BRANCH  30  31
ATOM     31  C   UNL A   1      33.256  31.694  27.333  1.00  0.00     0.338 C 
ATOM     32  O   UNL A   1      32.901  32.859  27.215  1.00  0.00    -0.246 OA
BRANCH  31  33
ATOM     33  C   UNL A   1      34.593  31.326  27.830  1.00  0.00     0.060 A 
ATOM     34  C   UNL A   1      34.820  29.978  28.130  1.00  0.00     0.016 A 
ATOM     35  C   UNL A   1      35.583  32.282  28.063  1.00  0.00     0.016 A 
ATOM     36  C   UNL A   1      36.020  29.584  28.717  1.00  0.00     0.010 A 
ATOM     37  C   UNL A   1      36.784  31.889  28.663  1.00  0.00     0.010 A 
ATOM     38  C   UNL A   1      36.991  30.547  29.025  1.00  0.00    -0.014 A 
BRANCH  38  39
ATOM     39  C   UNL A   1      38.148  30.164  29.867  1.00  0.00     0.031 A 
ATOM     40  C   UNL A   1      39.160  29.201  29.316  1.00  0.00     0.074 A 
ATOM     41  C   UNL A   1      38.315  30.694  31.091  1.00  0.00     0.049 A 
ATOM     42  N   UNL A   1      40.243  28.720  29.872  1.00  0.00    -0.248 NA
ATOM     43  C   UNL A   1      38.918  28.712  27.949  1.00  0.00     0.031 C 
ATOM     44  C   UNL A   1      37.425  31.668  31.716  1.00  0.00     0.029 A 
ATOM     45  N   UNL A   1      39.296  30.481  32.026  1.00  0.00    -0.354 N 
ATOM     46  C   UNL A   1      40.808  27.875  28.927  1.00  0.00     0.074 A 
ATOM     47  C   UNL A   1      39.934  27.881  27.775  1.00  0.00     0.031 C 
ATOM     48  C   UNL A   1      37.898  31.968  32.937  1.00  0.00     0.029 A 
ATOM     49  C   UNL A   1      39.108  31.186  33.187  1.00  0.00     0.049 A 
ATOM     50  H   UNL A   1      40.062  29.879  31.877  1.00  0.00     0.167 HD
ATOM     51  C   UNL A   1      41.959  27.165  29.010  1.00  0.00     0.037 A 
ATOM     52  C   UNL A   1      39.826  31.186  34.327  1.00  0.00     0.037 A 
ATOM     53  C   UNL A   1      42.826  27.157  30.159  1.00  0.00     0.049 A 
ATOM     54  C   UNL A   1      41.060  30.327  34.425  1.00  0.00     0.074 A 
ATOM     55  C   UNL A   1      44.024  26.487  30.333  1.00  0.00     0.029 A 
ATOM     56  N   UNL A   1      42.577  27.846  31.337  1.00  0.00    -0.354 N 
ATOM     57  N   UNL A   1      41.603  29.551  33.519  1.00  0.00    -0.248 NA
ATOM     58  C   UNL A   1      41.779  30.347  35.707  1.00  0.00     0.031 C 
ATOM     59  C   UNL A   1      44.476  26.734  31.635  1.00  0.00     0.029 A 
ATOM     60  C   UNL A   1      43.585  27.596  32.254  1.00  0.00     0.049 A 
ATOM     61  H   UNL A   1      41.800  28.428  31.497  1.00  0.00     0.167 HD
ATOM     62  C   UNL A   1      42.739  29.011  34.108  1.00  0.00     0.074 A 
ATOM     63  C   UNL A   1      42.812  29.556  35.448  1.00  0.00     0.031 C 
ATOM     64  C   UNL A   1      43.643  28.147  33.585  1.00  0.00     0.037 A 
BRANCH  51  65
ATOM     65  C   UNL A   1      42.326  26.314  27.829  1.00  0.00     0.064 A 
ATOM     66  C   UNL A   1      41.798  25.025  27.657  1.00  0.00     0.173 A 
ATOM     67  C   UNL A   1      43.212  26.797  26.855  1.00  0.00     0.173 A 
ATOM     68  F   UNL A   1      40.957  24.512  28.568  1.00  0.00    -0.203 F 
ATOM     69  C   UNL A   1      42.169  24.239  26.569  1.00  0.00     0.198 A 
ATOM     70  C   UNL A   1      43.559  26.019  25.754  1.00  0.00     0.198 A 
ATOM     71  F   UNL A   1      43.742  28.023  26.972  1.00  0.00    -0.203 F 
ATOM     72  F   UNL A   1      41.694  22.992  26.453  1.00  0.00    -0.200 F 
ATOM     73  C   UNL A   1      43.046  24.738  25.618  1.00  0.00     0.200 A 
ATOM     74  F   UNL A   1      44.400  26.506  24.831  1.00  0.00    -0.200 F 
ATOM     75  F   UNL A   1      43.404  23.979  24.572  1.00  0.00    -0.200 F 
ENDBRANCH  51  65
BRANCH  52  76
ATOM     76  C   UNL A   1      39.395  32.032  35.468  1.00  0.00     0.064 A 
ATOM     77  C   UNL A   1      39.815  33.365  35.576  1.00  0.00     0.173 A 
ATOM     78  C   UNL A   1      38.552  31.528  36.469  1.00  0.00     0.173 A 
ATOM     79  F   UNL A   1      40.642  33.882  34.656  1.00  0.00    -0.203 F 
ATOM     80  C   UNL A   1      39.415  34.159  36.648  1.00  0.00     0.198 A 
ATOM     81  C   UNL A   1      38.133  32.330  37.528  1.00  0.00     0.198 A 
ATOM     82  F   UNL A   1      38.127  30.258  36.412  1.00  0.00    -0.203 F 
ATOM     83  F   UNL A   1      39.857  35.420  36.747  1.00  0.00    -0.200 F 
ATOM     84  C   UNL A   1      38.568  33.645  37.619  1.00  0.00     0.200 A 
ATOM     85  F   UNL A   1      37.308  31.832  38.458  1.00  0.00    -0.200 F 
ATOM     86  F   UNL A   1      38.177  34.412  38.645  1.00  0.00    -0.200 F 
ENDBRANCH  52  76
BRANCH  64  87
ATOM     87  C   UNL A   1      44.805  27.757  34.450  1.00  0.00     0.064 A 
ATOM     88  C   UNL A   1      45.988  28.510  34.477  1.00  0.00     0.173 A 
ATOM     89  C   UNL A   1      44.719  26.639  35.295  1.00  0.00     0.173 A 
ATOM     90  F   UNL A   1      46.126  29.578  33.677  1.00  0.00    -0.203 F 
ATOM     91  C   UNL A   1      47.050  28.145  35.301  1.00  0.00     0.198 A 
ATOM     92  C   UNL A   1      45.772  26.293  36.137  1.00  0.00     0.198 A 
ATOM     93  F   UNL A   1      43.606  25.889  35.311  1.00  0.00    -0.203 F 
ATOM     94  F   UNL A   1      48.187  28.854  35.280  1.00  0.00    -0.200 F 
ATOM     95  C   UNL A   1      46.938  27.042  36.135  1.00  0.00     0.200 A 
ATOM     96  F   UNL A   1      45.656  25.235  36.950  1.00  0.00    -0.200 F 
ATOM     97  F   UNL A   1      47.959  26.696  36.933  1.00  0.00    -0.200 F 
ENDBRANCH  64  87
ENDBRANCH  38  39
ENDBRANCH  31  33
ENDBRANCH  30  31
ENDBRANCH  29  30
ENDBRANCH  28  29
ENDBRANCH  27  28
ENDBRANCH   1  27
TORSDOF 20
ENDMDL
MODEL 2
REMARK VINA RESULT:     -11.8      4.444      8.892
REMARK SMILES COC(=O)C[C@H](c1ccc(C(=O)OCCOCCOC(=O)c2ccc(-c3c4nc(c(-c5c(F)c(F)c(F)c(F)c5F)c5ccc([nH]5)c(-c5c(F)c(F)c(F)c(F)c5F)c5nc(c(-c6c(F)c(F)c(F)c(F)c6F)c6ccc3[nH]6)C=C5)C=C4)cc2)cc1)c1c(O)n[nH]c1C
REMARK SMILES IDX 15 1 14 2 13 3 11 4 12 5 10 6 7 7 8 8 86 9 9 10 85 11 6 12
REMARK SMILES IDX 5 13 3 14 4 15 2 16 1 17 87 18 88 19 92 20 90 21 91 22 93 23
REMARK SMILES IDX 89 25 16 27 17 28 18 29 19 30 20 31 21 32 22 33 23 34 84 35
REMARK SMILES IDX 24 36 83 37 25 38 26 39 27 40 77 41 28 42 82 43 76 44 78 45
REMARK SMILES IDX 29 46 81 47 75 48 74 49 30 51 62 52 42 53 61 54 43 55 46 56
REMARK SMILES IDX 60 57 79 58 44 59 45 60 59 62 80 63 47 64 31 65 32 66 40 67
REMARK SMILES IDX 33 68 34 69 38 70 41 71 35 72 36 73 39 74 37 75 63 76 64 77
REMARK SMILES IDX 72 78 65 79 66 80 70 81 73 82 67 83 68 84 71 85 69 86 48 87
REMARK SMILES IDX 49 88 57 89 50 90 51 91 55 92 58 93 52 94 53 95 56 96 54 97
REMARK H PARENT 91 24 89 26 78 50 46 61
REMARK Flexibility Score: inf
ROOT
ATOM      1  C   UNL A   1      34.478  33.279  28.790  1.00  0.00     0.202 C 
ENDROOT
BRANCH   1   2
ATOM      2  C   UNL A   1      34.375  31.761  28.625  1.00  0.00     0.261 C 
BRANCH   2   3
ATOM      3  O   UNL A   1      34.072  31.418  27.264  1.00  0.00    -0.460 OA
BRANCH   3   4
ATOM      4  C   UNL A   1      32.832  30.909  27.080  1.00  0.00     0.338 C 
ATOM      5  O   UNL A   1      31.794  31.535  26.928  1.00  0.00    -0.246 OA
BRANCH   4   6
ATOM      6  C   UNL A   1      32.891  29.441  26.946  1.00  0.00     0.060 A 
ATOM      7  C   UNL A   1      32.928  26.762  26.157  1.00  0.00    -0.040 A 
ATOM      8  C   UNL A   1      34.070  27.565  25.986  1.00  0.00     0.005 A 
ATOM      9  C   UNL A   1      31.830  27.282  26.872  1.00  0.00     0.005 A 
ATOM     10  C   UNL A   1      34.043  28.903  26.362  1.00  0.00     0.016 A 
ATOM     11  C   UNL A   1      31.811  28.620  27.271  1.00  0.00     0.016 A 
BRANCH   7  12
ATOM     12  C   UNL A   1      32.753  25.466  25.365  1.00  0.00     0.068 C 
BRANCH  12  13
ATOM     13  C   UNL A   1      33.523  25.525  24.026  1.00  0.00     0.136 C 
BRANCH  13  14
ATOM     14  C   UNL A   1      32.761  26.060  22.830  1.00  0.00     0.306 C 
ATOM     15  O   UNL A   1      31.642  26.552  22.889  1.00  0.00    -0.252 OA
BRANCH  14  16
ATOM     16  O   UNL A   1      33.495  25.894  21.692  1.00  0.00    -0.469 OA
ATOM     17  C   UNL A   1      32.760  25.440  20.551  1.00  0.00     0.282 C 
ENDBRANCH  14  16
ENDBRANCH  13  14
ENDBRANCH  12  13
BRANCH  12  18
ATOM     18  C   UNL A   1      32.991  24.289  26.291  1.00  0.00     0.044 A 
ATOM     19  C   UNL A   1      32.012  23.596  27.040  1.00  0.00     0.234 A 
ATOM     20  C   UNL A   1      34.122  23.501  26.517  1.00  0.00     0.040 A 
ATOM     21  N   UNL A   1      32.446  22.555  27.729  1.00  0.00    -0.137 NA
ATOM     22  N   UNL A   1      33.746  22.527  27.411  1.00  0.00    -0.279 N 
ATOM     23  C   UNL A   1      35.508  23.505  25.986  1.00  0.00     0.066 C 
ATOM     24  H   UNL A   1      34.375  21.868  27.784  1.00  0.00     0.190 HD
BRANCH  19  25
ATOM     25  O   UNL A   1      30.701  23.802  27.141  1.00  0.00    -0.492 OA
ATOM     26  H   UNL A   1      30.380  24.617  27.471  1.00  0.00     0.295 HD
ENDBRANCH  19  25
ENDBRANCH  12  18
ENDBRANCH   7  12
ENDBRANCH   4   6
ENDBRANCH   3   4
ENDBRANCH   2   3
ENDBRANCH   1   2
BRANCH   1  27
ATOM     27  O   UNL A   1      33.788  33.840  29.907  1.00  0.00    -0.374 OA
BRANCH  27  28
ATOM     28  C   UNL A   1      34.580  34.353  30.979  1.00  0.00     0.202 C 
BRANCH  28  29
ATOM     29  C   UNL A   1      34.449  33.633  32.326  1.00  0.00     0.261 C 
BRANCH  29  30
ATOM     30  O   UNL A   1      34.981  32.298  32.271  1.00  0.00    -0.460 OA
BRANCH  30  31
ATOM     31  C   UNL A   1      36.123  32.110  32.973  1.00  0.00     0.338 C 
ATOM     32  O   UNL A   1      36.319  32.364  34.153  1.00  0.00    -0.246 OA
BRANCH  31  33
ATOM     33  C   UNL A   1      37.098  31.367  32.157  1.00  0.00     0.060 A 
ATOM     34  C   UNL A   1      38.157  30.743  32.827  1.00  0.00     0.016 A 
ATOM     35  C   UNL A   1      37.022  31.335  30.763  1.00  0.00     0.016 A 
ATOM     36  C   UNL A   1      39.177  30.129  32.105  1.00  0.00     0.010 A 
ATOM     37  C   UNL A   1      38.052  30.728  30.037  1.00  0.00     0.010 A 
ATOM     38  C   UNL A   1      39.150  30.157  30.704  1.00  0.00    -0.014 A 
BRANCH  38  39
ATOM     39  C   UNL A   1      40.349  29.726  29.948  1.00  0.00     0.031 A 
ATOM     40  C   UNL A   1      41.464  30.709  29.733  1.00  0.00     0.074 A 
ATOM     41  C   UNL A   1      40.459  28.467  29.490  1.00  0.00     0.049 A 
ATOM     42  N   UNL A   1      42.599  30.557  29.098  1.00  0.00    -0.248 NA
ATOM     43  C   UNL A   1      41.273  32.048  30.313  1.00  0.00     0.031 C 
ATOM     44  C   UNL A   1      39.464  27.415  29.672  1.00  0.00     0.029 A 
ATOM     45  N   UNL A   1      41.464  27.866  28.774  1.00  0.00    -0.354 N 
ATOM     46  C   UNL A   1      43.254  31.776  29.202  1.00  0.00     0.074 A 
ATOM     47  C   UNL A   1      42.379  32.669  29.930  1.00  0.00     0.031 C 
ATOM     48  C   UNL A   1      39.906  26.292  29.079  1.00  0.00     0.029 A 
ATOM     49  C   UNL A   1      41.201  26.559  28.454  1.00  0.00     0.049 A 
ATOM     50  H   UNL A   1      42.293  28.329  28.516  1.00  0.00     0.167 HD
ATOM     51  C   UNL A   1      44.481  32.117  28.739  1.00  0.00     0.037 A 
ATOM     52  C   UNL A   1      41.919  25.683  27.725  1.00  0.00     0.037 A 
ATOM     53  C   UNL A   1      45.349  31.230  28.011  1.00  0.00     0.049 A 
ATOM     54  C   UNL A   1      43.246  26.110  27.152  1.00  0.00     0.074 A 
ATOM     55  C   UNL A   1      46.618  31.474  27.518  1.00  0.00     0.029 A 
ATOM     56  N   UNL A   1      45.027  29.926  27.662  1.00  0.00    -0.354 N 
ATOM     57  N   UNL A   1      43.872  27.255  27.277  1.00  0.00    -0.248 NA
ATOM     58  C   UNL A   1      43.964  25.119  26.339  1.00  0.00     0.031 C 
ATOM     59  C   UNL A   1      47.045  30.333  26.829  1.00  0.00     0.029 A 
ATOM     60  C   UNL A   1      46.062  29.361  26.935  1.00  0.00     0.049 A 
ATOM     61  H   UNL A   1      44.188  29.469  27.898  1.00  0.00     0.167 HD
ATOM     62  C   UNL A   1      45.067  27.116  26.582  1.00  0.00     0.074 A 
ATOM     63  C   UNL A   1      45.082  25.771  26.046  1.00  0.00     0.031 C 
ATOM     64  C   UNL A   1      46.063  28.019  26.409  1.00  0.00     0.037 A 
BRANCH  51  65
ATOM     65  C   UNL A   1      44.938  33.526  28.985  1.00  0.00     0.064 A 
ATOM     66  C   UNL A   1      45.679  33.872  30.125  1.00  0.00     0.173 A 
ATOM     67  C   UNL A   1      44.636  34.540  28.064  1.00  0.00     0.173 A 
ATOM     68  F   UNL A   1      45.982  32.941  31.042  1.00  0.00    -0.203 F 
ATOM     69  C   UNL A   1      46.073  35.189  30.350  1.00  0.00     0.198 A 
ATOM     70  C   UNL A   1      45.055  35.850  28.279  1.00  0.00     0.198 A 
ATOM     71  F   UNL A   1      43.933  34.261  26.957  1.00  0.00    -0.203 F 
ATOM     72  F   UNL A   1      46.733  35.507  31.472  1.00  0.00    -0.200 F 
ATOM     73  C   UNL A   1      45.763  36.175  29.426  1.00  0.00     0.200 A 
ATOM     74  F   UNL A   1      44.763  36.800  27.380  1.00  0.00    -0.200 F 
ATOM     75  F   UNL A   1      46.141  37.443  29.645  1.00  0.00    -0.200 F 
ENDBRANCH  51  65
BRANCH  52  76
ATOM     76  C   UNL A   1      41.399  24.312  27.498  1.00  0.00     0.064 A 
ATOM     77  C   UNL A   1      40.279  24.092  26.685  1.00  0.00     0.173 A 
ATOM     78  C   UNL A   1      42.013  23.195  28.084  1.00  0.00     0.173 A 
ATOM     79  F   UNL A   1      39.644  25.132  26.124  1.00  0.00    -0.203 F 
ATOM     80  C   UNL A   1      39.787  22.806  26.473  1.00  0.00     0.198 A 
ATOM     81  C   UNL A   1      41.535  21.907  27.852  1.00  0.00     0.198 A 
ATOM     82  F   UNL A   1      43.085  23.355  28.873  1.00  0.00    -0.203 F 
ATOM     83  F   UNL A   1      38.695  22.624  25.719  1.00  0.00    -0.200 F 
ATOM     84  C   UNL A   1      40.419  21.714  27.050  1.00  0.00     0.200 A 
ATOM     85  F   UNL A   1      42.154  20.856  28.404  1.00  0.00    -0.200 F 
ATOM     86  F   UNL A   1      39.950  20.476  26.840  1.00  0.00    -0.200 F 
ENDBRANCH  52  76
BRANCH  64  87
ATOM     87  C   UNL A   1      47.268  27.576  25.631  1.00  0.00     0.064 A 
ATOM     88  C   UNL A   1      48.360  26.958  26.256  1.00  0.00     0.173 A 
ATOM     89  C   UNL A   1      47.311  27.735  24.237  1.00  0.00     0.173 A 
ATOM     90  F   UNL A   1      48.373  26.797  27.588  1.00  0.00    -0.203 F 
ATOM     91  C   UNL A   1      49.462  26.535  25.517  1.00  0.00     0.198 A 
ATOM     92  C   UNL A   1      48.402  27.287  23.498  1.00  0.00     0.198 A 
ATOM     93  F   UNL A   1      46.289  28.316  23.591  1.00  0.00    -0.203 F 
ATOM     94  F   UNL A   1      50.513  25.984  26.139  1.00  0.00    -0.200 F 
ATOM     95  C   UNL A   1      49.478  26.693  24.138  1.00  0.00     0.200 A 
ATOM     96  F   UNL A   1      48.411  27.429  22.166  1.00  0.00    -0.200 F 
ATOM     97  F   UNL A   1      50.537  26.278  23.427  1.00  0.00    -0.200 F 
ENDBRANCH  64  87
ENDBRANCH  38  39
ENDBRANCH  31  33
ENDBRANCH  30  31
ENDBRANCH  29  30
ENDBRANCH  28  29
ENDBRANCH  27  28
ENDBRANCH   1  27
TORSDOF 20
ENDMDL
MODEL 3
REMARK VINA RESULT:     -11.7      3.361      8.334
REMARK SMILES COC(=O)C[C@H](c1ccc(C(=O)OCCOCCOC(=O)c2ccc(-c3c4nc(c(-c5c(F)c(F)c(F)c(F)c5F)c5ccc([nH]5)c(-c5c(F)c(F)c(F)c(F)c5F)c5nc(c(-c6c(F)c(F)c(F)c(F)c6F)c6ccc3[nH]6)C=C5)C=C4)cc2)cc1)c1c(O)n[nH]c1C
REMARK SMILES IDX 15 1 14 2 13 3 11 4 12 5 10 6 7 7 8 8 86 9 9 10 85 11 6 12
REMARK SMILES IDX 5 13 3 14 4 15 2 16 1 17 87 18 88 19 92 20 90 21 91 22 93 23
REMARK SMILES IDX 89 25 16 27 17 28 18 29 19 30 20 31 21 32 22 33 23 34 84 35
REMARK SMILES IDX 24 36 83 37 25 38 26 39 27 40 77 41 28 42 82 43 76 44 78 45
REMARK SMILES IDX 29 46 81 47 75 48 74 49 30 51 62 52 42 53 61 54 43 55 46 56
REMARK SMILES IDX 60 57 79 58 44 59 45 60 59 62 80 63 47 64 31 65 32 66 40 67
REMARK SMILES IDX 33 68 34 69 38 70 41 71 35 72 36 73 39 74 37 75 63 76 64 77
REMARK SMILES IDX 72 78 65 79 66 80 70 81 73 82 67 83 68 84 71 85 69 86 48 87
REMARK SMILES IDX 49 88 57 89 50 90 51 91 55 92 58 93 52 94 53 95 56 96 54 97
REMARK H PARENT 91 24 89 26 78 50 46 61
REMARK Flexibility Score: inf
ROOT
ATOM      1  C   UNL A   1      41.319  21.416  26.771  1.00  0.00     0.202 C 
ENDROOT
BRANCH   1   2
ATOM      2  C   UNL A   1      39.840  21.040  26.645  1.00  0.00     0.261 C 
BRANCH   2   3
ATOM      3  O   UNL A   1      39.168  21.924  25.734  1.00  0.00    -0.460 OA
BRANCH   3   4
ATOM      4  C   UNL A   1      38.090  21.382  25.124  1.00  0.00     0.338 C 
ATOM      5  O   UNL A   1      37.830  20.193  25.007  1.00  0.00    -0.246 OA
BRANCH   4   6
ATOM      6  C   UNL A   1      37.149  22.437  24.704  1.00  0.00     0.060 A 
ATOM      7  C   UNL A   1      34.987  24.114  24.143  1.00  0.00    -0.040 A 
ATOM      8  C   UNL A   1      35.560  24.104  25.428  1.00  0.00     0.005 A 
ATOM      9  C   UNL A   1      35.616  23.390  23.111  1.00  0.00     0.005 A 
ATOM     10  C   UNL A   1      36.623  23.255  25.710  1.00  0.00     0.016 A 
ATOM     11  C   UNL A   1      36.700  22.554  23.388  1.00  0.00     0.016 A 
BRANCH   7  12
ATOM     12  C   UNL A   1      33.577  24.659  23.915  1.00  0.00     0.068 C 
BRANCH  12  13
ATOM     13  C   UNL A   1      32.608  24.172  25.017  1.00  0.00     0.136 C 
BRANCH  13  14
ATOM     14  C   UNL A   1      31.862  22.882  24.743  1.00  0.00     0.306 C 
ATOM     15  O   UNL A   1      32.050  22.172  23.764  1.00  0.00    -0.252 OA
BRANCH  14  16
ATOM     16  O   UNL A   1      30.948  22.647  25.728  1.00  0.00    -0.469 OA
ATOM     17  C   UNL A   1      30.545  23.799  26.475  1.00  0.00     0.282 C 
ENDBRANCH  14  16
ENDBRANCH  13  14
ENDBRANCH  12  13
BRANCH  12  18
ATOM     18  C   UNL A   1      33.665  26.144  23.627  1.00  0.00     0.044 A 
ATOM     19  C   UNL A   1      33.551  26.765  22.361  1.00  0.00     0.234 A 
ATOM     20  C   UNL A   1      33.703  27.253  24.476  1.00  0.00     0.040 A 
ATOM     21  N   UNL A   1      33.595  28.086  22.363  1.00  0.00    -0.137 NA
ATOM     22  N   UNL A   1      33.709  28.364  23.666  1.00  0.00    -0.279 N 
ATOM     23  C   UNL A   1      33.699  27.428  25.950  1.00  0.00     0.066 C 
ATOM     24  H   UNL A   1      33.790  29.282  24.014  1.00  0.00     0.190 HD
BRANCH  19  25
ATOM     25  O   UNL A   1      33.372  26.231  21.155  1.00  0.00    -0.492 OA
ATOM     26  H   UNL A   1      32.589  25.754  20.967  1.00  0.00     0.295 HD
ENDBRANCH  19  25
ENDBRANCH  12  18
ENDBRANCH   7  12
ENDBRANCH   4   6
ENDBRANCH   3   4
ENDBRANCH   2   3
ENDBRANCH   1   2
BRANCH   1  27
ATOM     27  O   UNL A   1      42.073  21.427  25.559  1.00  0.00    -0.374 OA
BRANCH  27  28
ATOM     28  C   UNL A   1      43.488  21.587  25.665  1.00  0.00     0.202 C 
BRANCH  28  29
ATOM     29  C   UNL A   1      44.149  22.499  24.625  1.00  0.00     0.261 C 
BRANCH  29  30
ATOM     30  O   UNL A   1      43.491  23.775  24.539  1.00  0.00    -0.460 OA
BRANCH  30  31
ATOM     31  C   UNL A   1      44.208  24.819  25.016  1.00  0.00     0.338 C 
ATOM     32  O   UNL A   1      45.309  25.197  24.641  1.00  0.00    -0.246 OA
BRANCH  31  33
ATOM     33  C   UNL A   1      43.393  25.594  25.968  1.00  0.00     0.060 A 
ATOM     34  C   UNL A   1      43.659  26.964  26.077  1.00  0.00     0.016 A 
ATOM     35  C   UNL A   1      42.439  24.988  26.787  1.00  0.00     0.016 A 
ATOM     36  C   UNL A   1      43.011  27.727  27.044  1.00  0.00     0.010 A 
ATOM     37  C   UNL A   1      41.795  25.752  27.766  1.00  0.00     0.010 A 
ATOM     38  C   UNL A   1      42.106  27.114  27.922  1.00  0.00    -0.014 A 
BRANCH  38  39
ATOM     39  C   UNL A   1      41.611  27.870  29.096  1.00  0.00     0.031 A 
ATOM     40  C   UNL A   1      42.355  27.760  30.396  1.00  0.00     0.074 A 
ATOM     41  C   UNL A   1      40.536  28.670  28.997  1.00  0.00     0.049 A 
ATOM     42  N   UNL A   1      42.102  28.322  31.551  1.00  0.00    -0.248 NA
ATOM     43  C   UNL A   1      43.547  26.898  30.394  1.00  0.00     0.031 C 
ATOM     44  C   UNL A   1      39.759  28.890  27.781  1.00  0.00     0.029 A 
ATOM     45  N   UNL A   1      39.915  29.445  29.943  1.00  0.00    -0.354 N 
ATOM     46  C   UNL A   1      43.100  27.881  32.410  1.00  0.00     0.074 A 
ATOM     47  C   UNL A   1      43.943  26.981  31.655  1.00  0.00     0.031 C 
ATOM     48  C   UNL A   1      38.757  29.744  28.054  1.00  0.00     0.029 A 
ATOM     49  C   UNL A   1      38.809  30.106  29.470  1.00  0.00     0.049 A 
ATOM     50  H   UNL A   1      40.231  29.520  30.872  1.00  0.00     0.167 HD
ATOM     51  C   UNL A   1      43.299  28.208  33.710  1.00  0.00     0.037 A 
ATOM     52  C   UNL A   1      37.933  30.900  30.113  1.00  0.00     0.037 A 
ATOM     53  C   UNL A   1      42.457  29.101  34.461  1.00  0.00     0.049 A 
ATOM     54  C   UNL A   1      38.130  31.186  31.579  1.00  0.00     0.074 A 
ATOM     55  C   UNL A   1      42.587  29.512  35.775  1.00  0.00     0.029 A 
ATOM     56  N   UNL A   1      41.317  29.714  33.960  1.00  0.00    -0.354 N 
ATOM     57  N   UNL A   1      39.090  30.789  32.379  1.00  0.00    -0.248 NA
ATOM     58  C   UNL A   1      37.120  32.032  32.230  1.00  0.00     0.031 C 
ATOM     59  C   UNL A   1      41.498  30.335  36.085  1.00  0.00     0.029 A 
ATOM     60  C   UNL A   1      40.717  30.477  34.949  1.00  0.00     0.049 A 
ATOM     61  H   UNL A   1      40.984  29.621  33.039  1.00  0.00     0.167 HD
ATOM     62  C   UNL A   1      38.817  31.355  33.617  1.00  0.00     0.074 A 
ATOM     63  C   UNL A   1      37.605  32.133  33.461  1.00  0.00     0.031 C 
ATOM     64  C   UNL A   1      39.510  31.246  34.776  1.00  0.00     0.037 A 
BRANCH  51  65
ATOM     65  C   UNL A   1      44.463  27.565  34.406  1.00  0.00     0.064 A 
ATOM     66  C   UNL A   1      45.743  28.140  34.387  1.00  0.00     0.173 A 
ATOM     67  C   UNL A   1      44.294  26.362  35.107  1.00  0.00     0.173 A 
ATOM     68  F   UNL A   1      45.960  29.283  33.719  1.00  0.00    -0.203 F 
ATOM     69  C   UNL A   1      46.817  27.516  35.016  1.00  0.00     0.198 A 
ATOM     70  C   UNL A   1      45.364  25.755  35.758  1.00  0.00     0.198 A 
ATOM     71  F   UNL A   1      43.090  25.773  35.158  1.00  0.00    -0.203 F 
ATOM     72  F   UNL A   1      48.042  28.054  34.939  1.00  0.00    -0.200 F 
ATOM     73  C   UNL A   1      46.626  26.326  35.703  1.00  0.00     0.200 A 
ATOM     74  F   UNL A   1      45.175  24.611  36.430  1.00  0.00    -0.200 F 
ATOM     75  F   UNL A   1      47.662  25.726  36.307  1.00  0.00    -0.200 F 
ENDBRANCH  51  65
BRANCH  52  76
ATOM     76  C   UNL A   1      36.788  31.485  29.372  1.00  0.00     0.064 A 
ATOM     77  C   UNL A   1      36.745  32.854  29.074  1.00  0.00     0.173 A 
ATOM     78  C   UNL A   1      35.716  30.688  28.942  1.00  0.00     0.173 A 
ATOM     79  F   UNL A   1      37.734  33.659  29.487  1.00  0.00    -0.203 F 
ATOM     80  C   UNL A   1      35.670  33.405  28.381  1.00  0.00     0.198 A 
ATOM     81  C   UNL A   1      34.653  31.236  28.228  1.00  0.00     0.198 A 
ATOM     82  F   UNL A   1      35.710  29.373  29.206  1.00  0.00    -0.203 F 
ATOM     83  F   UNL A   1      35.636  34.722  28.139  1.00  0.00    -0.200 F 
ATOM     84  C   UNL A   1      34.628  32.595  27.952  1.00  0.00     0.200 A 
ATOM     85  F   UNL A   1      33.655  30.448  27.807  1.00  0.00    -0.200 F 
ATOM     86  F   UNL A   1      33.598  33.125  27.279  1.00  0.00    -0.200 F 
ENDBRANCH  52  76
BRANCH  64  87
ATOM     87  C   UNL A   1      38.993  32.006  35.963  1.00  0.00     0.064 A 
ATOM     88  C   UNL A   1      38.170  31.399  36.923  1.00  0.00     0.173 A 
ATOM     89  C   UNL A   1      39.360  33.345  36.164  1.00  0.00     0.173 A 
ATOM     90  F   UNL A   1      37.779  30.125  36.769  1.00  0.00    -0.203 F 
ATOM     91  C   UNL A   1      37.716  32.113  38.029  1.00  0.00     0.198 A 
ATOM     92  C   UNL A   1      38.926  34.048  37.285  1.00  0.00     0.198 A 
ATOM     93  F   UNL A   1      40.151  33.970  35.277  1.00  0.00    -0.203 F 
ATOM     94  F   UNL A   1      36.895  31.527  38.913  1.00  0.00    -0.200 F 
ATOM     95  C   UNL A   1      38.100  33.434  38.213  1.00  0.00     0.200 A 
ATOM     96  F   UNL A   1      39.308  35.319  37.466  1.00  0.00    -0.200 F 
ATOM     97  F   UNL A   1      37.667  34.117  39.282  1.00  0.00    -0.200 F 
ENDBRANCH  64  87
ENDBRANCH  38  39
ENDBRANCH  31  33
ENDBRANCH  30  31
ENDBRANCH  29  30
ENDBRANCH  28  29
ENDBRANCH  27  28
ENDBRANCH   1  27
TORSDOF 20
ENDMDL
