MODEL 1
REMARK VINA RESULT:     -11.7      0.000      0.000
REMARK SMILES Cc1nsc(NC(=O)c2ccc(N)cc2)c1C(=O)OCCOCCOC(=O)c1ccc(-c2c3nc(c(-c4c(F)c(F)c(F)c(F)c4F)c4ccc([nH]4)c(-c4c(F)c(F)c(F)c(F)c4F)c4nc(c(-c5c(F)c(F)c(F)c(F)c5F)c5ccc2[nH]5)C=C4)C=C3)cc1
REMARK SMILES IDX 21 1 20 2 19 3 17 4 18 5 16 6 1 7 2 8 3 9 4 10 5 11 6 12
REMARK SMILES IDX 7 13 8 15 9 16 10 17 15 18 11 19 14 20 12 21 13 22 22 25
REMARK SMILES IDX 23 26 24 27 25 28 26 29 27 30 28 31 29 32 90 33 30 34 89 35
REMARK SMILES IDX 31 36 32 37 33 38 83 39 34 40 88 41 82 42 84 43 35 44 87 45
REMARK SMILES IDX 81 46 80 47 36 49 68 50 48 51 67 52 49 53 52 54 66 55 85 56
REMARK SMILES IDX 50 57 51 58 65 60 86 61 53 62 37 63 38 64 46 65 39 66 40 67
REMARK SMILES IDX 44 68 47 69 41 70 42 71 45 72 43 73 69 74 70 75 78 76 71 77
REMARK SMILES IDX 72 78 76 79 79 80 73 81 74 82 77 83 75 84 54 85 55 86 63 87
REMARK SMILES IDX 56 88 57 89 61 90 64 91 58 92 59 93 62 94 60 95
REMARK H PARENT 6 14 13 23 13 24 84 48 52 59
REMARK Flexibility Score: inf
ROOT
ATOM      1  C   UNL A   1      35.081  20.794  25.380  1.00  0.00     0.202 C 
ENDROOT
BRANCH   1   2
ATOM      2  C   UNL A   1      33.768  20.801  26.166  1.00  0.00     0.261 C 
BRANCH   2   3
ATOM      3  O   UNL A   1      33.035  22.021  25.956  1.00  0.00    -0.460 OA
BRANCH   3   4
ATOM      4  C   UNL A   1      32.500  22.579  27.077  1.00  0.00     0.343 C 
ATOM      5  O   UNL A   1      32.783  22.249  28.224  1.00  0.00    -0.246 OA
BRANCH   4   6
ATOM      6  C   UNL A   1      31.746  23.782  26.780  1.00  0.00     0.117 A 
ATOM      7  C   UNL A   1      29.287  22.928  27.089  1.00  0.00     0.069 C 
ATOM      8  C   UNL A   1      30.315  23.948  26.744  1.00  0.00     0.068 A 
ATOM      9  N   UNL A   1      29.879  25.140  26.339  1.00  0.00    -0.195 NA
ATOM     10  S   UNL A   1      31.174  26.081  25.945  1.00  0.00    -0.017 S 
ATOM     11  C   UNL A   1      32.372  24.957  26.384  1.00  0.00     0.131 A 
BRANCH  11  12
ATOM     12  N   UNL A   1      33.733  25.161  26.188  1.00  0.00    -0.312 N 
ATOM     13  C   UNL A   1      34.511  25.007  25.064  1.00  0.00     0.256 C 
ATOM     14  H   UNL A   1      34.222  25.467  26.986  1.00  0.00     0.171 HD
ATOM     15  O   UNL A   1      35.718  24.804  25.167  1.00  0.00    -0.269 OA
BRANCH  13  16
ATOM     16  C   UNL A   1      33.927  25.175  23.721  1.00  0.00     0.040 A 
ATOM     17  C   UNL A   1      33.708  26.458  23.214  1.00  0.00     0.016 A 
ATOM     18  C   UNL A   1      33.590  24.048  22.972  1.00  0.00     0.016 A 
ATOM     19  C   UNL A   1      33.024  26.610  22.010  1.00  0.00     0.026 A 
ATOM     20  C   UNL A   1      32.919  24.215  21.759  1.00  0.00     0.026 A 
ATOM     21  C   UNL A   1      32.572  25.493  21.304  1.00  0.00     0.031 A 
BRANCH  21  22
ATOM     22  N   UNL A   1      31.898  25.654  20.105  1.00  0.00    -0.399 N 
ATOM     23  H   UNL A   1      30.915  25.596  20.082  1.00  0.00     0.156 HD
ATOM     24  H   UNL A   1      32.401  25.827  19.277  1.00  0.00     0.156 HD
ENDBRANCH  21  22
ENDBRANCH  13  16
ENDBRANCH  11  12
ENDBRANCH   4   6
ENDBRANCH   3   4
ENDBRANCH   2   3
ENDBRANCH   1   2
BRANCH   1  25
ATOM     25  O   UNL A   1      36.197  21.517  25.902  1.00  0.00    -0.374 OA
BRANCH  25  26
ATOM     26  C   UNL A   1      37.366  21.733  25.119  1.00  0.00     0.202 C 
BRANCH  26  27
ATOM     27  C   UNL A   1      38.731  21.644  25.787  1.00  0.00     0.261 C 
BRANCH  27  28
ATOM     28  O   UNL A   1      39.021  22.830  26.503  1.00  0.00    -0.460 OA
BRANCH  28  29
ATOM     29  C   UNL A   1      40.156  22.755  27.233  1.00  0.00     0.338 C 
ATOM     30  O   UNL A   1      40.457  21.908  28.054  1.00  0.00    -0.246 OA
BRANCH  29  31
ATOM     31  C   UNL A   1      40.947  23.965  26.976  1.00  0.00     0.060 A 
ATOM     32  C   UNL A   1      41.995  24.159  27.876  1.00  0.00     0.016 A 
ATOM     33  C   UNL A   1      40.338  25.019  26.279  1.00  0.00     0.016 A 
ATOM     34  C   UNL A   1      42.162  25.424  28.371  1.00  0.00     0.010 A 
ATOM     35  C   UNL A   1      40.489  26.277  26.790  1.00  0.00     0.010 A 
ATOM     36  C   UNL A   1      41.310  26.427  27.905  1.00  0.00    -0.014 A 
BRANCH  36  37
ATOM     37  C   UNL A   1      41.310  27.683  28.607  1.00  0.00     0.031 A 
ATOM     38  C   UNL A   1      42.460  28.528  28.248  1.00  0.00     0.074 A 
ATOM     39  C   UNL A   1      40.296  28.030  29.419  1.00  0.00     0.049 A 
ATOM     40  N   UNL A   1      43.422  28.912  29.016  1.00  0.00    -0.248 NA
ATOM     41  C   UNL A   1      42.666  28.817  26.820  1.00  0.00     0.031 C 
ATOM     42  C   UNL A   1      39.015  27.354  29.634  1.00  0.00     0.029 A 
ATOM     43  N   UNL A   1      40.174  29.163  30.153  1.00  0.00    -0.354 N 
ATOM     44  C   UNL A   1      44.277  29.638  28.199  1.00  0.00     0.074 A 
ATOM     45  C   UNL A   1      43.871  29.383  26.843  1.00  0.00     0.031 C 
ATOM     46  C   UNL A   1      38.167  28.207  30.256  1.00  0.00     0.029 A 
ATOM     47  C   UNL A   1      38.880  29.433  30.568  1.00  0.00     0.049 A 
ATOM     48  H   UNL A   1      40.938  29.744  30.372  1.00  0.00     0.167 HD
ATOM     49  C   UNL A   1      45.108  30.580  28.713  1.00  0.00     0.037 A 
ATOM     50  C   UNL A   1      38.449  30.643  31.003  1.00  0.00     0.037 A 
ATOM     51  C   UNL A   1      45.279  30.410  30.132  1.00  0.00     0.049 A 
ATOM     52  C   UNL A   1      39.659  31.413  31.420  1.00  0.00     0.074 A 
ATOM     53  C   UNL A   1      45.804  29.400  30.915  1.00  0.00     0.029 A 
ATOM     54  N   UNL A   1      44.519  31.185  30.975  1.00  0.00    -0.354 N 
ATOM     55  N   UNL A   1      40.390  31.094  32.456  1.00  0.00    -0.248 NA
ATOM     56  C   UNL A   1      40.340  32.215  30.409  1.00  0.00     0.031 C 
ATOM     57  C   UNL A   1      44.964  29.345  32.063  1.00  0.00     0.029 A 
ATOM     58  C   UNL A   1      44.011  30.357  31.946  1.00  0.00     0.049 A 
ATOM     59  H   UNL A   1      44.366  32.155  30.896  1.00  0.00     0.167 HD
ATOM     60  C   UNL A   1      41.703  31.285  32.043  1.00  0.00     0.074 A 
ATOM     61  C   UNL A   1      41.608  32.045  30.799  1.00  0.00     0.031 C 
ATOM     62  C   UNL A   1      42.727  30.556  32.578  1.00  0.00     0.037 A 
BRANCH  49  63
ATOM     63  C   UNL A   1      45.480  31.841  27.987  1.00  0.00     0.064 A 
ATOM     64  C   UNL A   1      46.825  32.059  27.641  1.00  0.00     0.173 A 
ATOM     65  C   UNL A   1      44.626  32.960  27.863  1.00  0.00     0.173 A 
ATOM     66  F   UNL A   1      47.725  31.070  27.740  1.00  0.00    -0.203 F 
ATOM     67  C   UNL A   1      47.291  33.322  27.268  1.00  0.00     0.198 A 
ATOM     68  C   UNL A   1      45.082  34.201  27.433  1.00  0.00     0.198 A 
ATOM     69  F   UNL A   1      43.347  32.934  28.259  1.00  0.00    -0.203 F 
ATOM     70  F   UNL A   1      48.601  33.513  27.067  1.00  0.00    -0.200 F 
ATOM     71  C   UNL A   1      46.419  34.392  27.167  1.00  0.00     0.200 A 
ATOM     72  F   UNL A   1      44.223  35.228  27.358  1.00  0.00    -0.200 F 
ATOM     73  F   UNL A   1      46.874  35.614  26.867  1.00  0.00    -0.200 F 
ENDBRANCH  49  63
BRANCH  50  74
ATOM     74  C   UNL A   1      37.132  31.272  30.730  1.00  0.00     0.064 A 
ATOM     75  C   UNL A   1      36.244  31.582  31.772  1.00  0.00     0.173 A 
ATOM     76  C   UNL A   1      36.813  31.808  29.464  1.00  0.00     0.173 A 
ATOM     77  F   UNL A   1      36.496  31.160  33.020  1.00  0.00    -0.203 F 
ATOM     78  C   UNL A   1      35.114  32.382  31.562  1.00  0.00     0.198 A 
ATOM     79  C   UNL A   1      35.679  32.594  29.253  1.00  0.00     0.198 A 
ATOM     80  F   UNL A   1      37.638  31.660  28.419  1.00  0.00    -0.203 F 
ATOM     81  F   UNL A   1      34.318  32.701  32.593  1.00  0.00    -0.200 F 
ATOM     82  C   UNL A   1      34.836  32.891  30.303  1.00  0.00     0.200 A 
ATOM     83  F   UNL A   1      35.447  33.108  28.037  1.00  0.00    -0.200 F 
ATOM     84  F   UNL A   1      33.784  33.698  30.112  1.00  0.00    -0.200 F 
ENDBRANCH  50  74
BRANCH  62  85
ATOM     85  C   UNL A   1      42.426  29.689  33.770  1.00  0.00     0.064 A 
ATOM     86  C   UNL A   1      41.922  28.379  33.671  1.00  0.00     0.173 A 
ATOM     87  C   UNL A   1      42.820  30.129  35.040  1.00  0.00     0.173 A 
ATOM     88  F   UNL A   1      41.633  27.843  32.480  1.00  0.00    -0.203 F 
ATOM     89  C   UNL A   1      41.775  27.570  34.796  1.00  0.00     0.198 A 
ATOM     90  C   UNL A   1      42.710  29.304  36.157  1.00  0.00     0.198 A 
ATOM     91  F   UNL A   1      43.370  31.345  35.188  1.00  0.00    -0.203 F 
ATOM     92  F   UNL A   1      41.284  26.329  34.670  1.00  0.00    -0.200 F 
ATOM     93  C   UNL A   1      42.178  28.031  36.037  1.00  0.00     0.200 A 
ATOM     94  F   UNL A   1      43.155  29.733  37.346  1.00  0.00    -0.200 F 
ATOM     95  F   UNL A   1      42.084  27.237  37.113  1.00  0.00    -0.200 F 
ENDBRANCH  62  85
ENDBRANCH  36  37
ENDBRANCH  29  31
ENDBRANCH  28  29
ENDBRANCH  27  28
ENDBRANCH  26  27
ENDBRANCH  25  26
ENDBRANCH   1  25
TORSDOF 17
ENDMDL
MODEL 2
REMARK VINA RESULT:     -11.5      1.760      2.496
REMARK SMILES Cc1nsc(NC(=O)c2ccc(N)cc2)c1C(=O)OCCOCCOC(=O)c1ccc(-c2c3nc(c(-c4c(F)c(F)c(F)c(F)c4F)c4ccc([nH]4)c(-c4c(F)c(F)c(F)c(F)c4F)c4nc(c(-c5c(F)c(F)c(F)c(F)c5F)c5ccc2[nH]5)C=C4)C=C3)cc1
REMARK SMILES IDX 21 1 20 2 19 3 17 4 18 5 16 6 1 7 2 8 3 9 4 10 5 11 6 12
REMARK SMILES IDX 7 13 8 15 9 16 10 17 15 18 11 19 14 20 12 21 13 22 22 25
REMARK SMILES IDX 23 26 24 27 25 28 26 29 27 30 28 31 29 32 90 33 30 34 89 35
REMARK SMILES IDX 31 36 32 37 33 38 83 39 34 40 88 41 82 42 84 43 35 44 87 45
REMARK SMILES IDX 81 46 80 47 36 49 68 50 48 51 67 52 49 53 52 54 66 55 85 56
REMARK SMILES IDX 50 57 51 58 65 60 86 61 53 62 37 63 38 64 46 65 39 66 40 67
REMARK SMILES IDX 44 68 47 69 41 70 42 71 45 72 43 73 69 74 70 75 78 76 71 77
REMARK SMILES IDX 72 78 76 79 79 80 73 81 74 82 77 83 75 84 54 85 55 86 63 87
REMARK SMILES IDX 56 88 57 89 61 90 64 91 58 92 59 93 62 94 60 95
REMARK H PARENT 6 14 13 23 13 24 84 48 52 59
REMARK Flexibility Score: inf
ROOT
ATOM      1  C   UNL A   1      35.685  23.315  26.221  1.00  0.00     0.202 C 
ENDROOT
BRANCH   1   2
ATOM      2  C   UNL A   1      34.183  23.026  26.189  1.00  0.00     0.261 C 
BRANCH   2   3
ATOM      3  O   UNL A   1      33.416  24.234  26.039  1.00  0.00    -0.460 OA
BRANCH   3   4
ATOM      4  C   UNL A   1      32.463  24.202  25.067  1.00  0.00     0.343 C 
ATOM      5  O   UNL A   1      31.327  23.762  25.218  1.00  0.00    -0.246 OA
BRANCH   4   6
ATOM      6  C   UNL A   1      32.846  24.976  23.901  1.00  0.00     0.117 A 
ATOM      7  C   UNL A   1      33.297  23.072  22.156  1.00  0.00     0.069 C 
ATOM      8  C   UNL A   1      33.256  24.490  22.608  1.00  0.00     0.068 A 
ATOM      9  N   UNL A   1      33.657  25.418  21.740  1.00  0.00    -0.195 NA
ATOM     10  S   UNL A   1      33.599  26.897  22.468  1.00  0.00    -0.017 S 
ATOM     11  C   UNL A   1      32.951  26.360  23.946  1.00  0.00     0.131 A 
BRANCH  11  12
ATOM     12  N   UNL A   1      32.750  27.184  25.047  1.00  0.00    -0.312 N 
ATOM     13  C   UNL A   1      32.003  28.331  25.185  1.00  0.00     0.256 C 
ATOM     14  H   UNL A   1      33.219  26.899  25.865  1.00  0.00     0.171 HD
ATOM     15  O   UNL A   1      32.278  29.150  26.059  1.00  0.00    -0.269 OA
BRANCH  13  16
ATOM     16  C   UNL A   1      30.809  28.552  24.350  1.00  0.00     0.040 A 
ATOM     17  C   UNL A   1      30.447  29.851  23.985  1.00  0.00     0.016 A 
ATOM     18  C   UNL A   1      30.046  27.460  23.938  1.00  0.00     0.016 A 
ATOM     19  C   UNL A   1      29.241  30.064  23.321  1.00  0.00     0.026 A 
ATOM     20  C   UNL A   1      28.847  27.686  23.259  1.00  0.00     0.026 A 
ATOM     21  C   UNL A   1      28.404  28.990  23.006  1.00  0.00     0.031 A 
BRANCH  21  22
ATOM     22  N   UNL A   1      27.210  29.211  22.341  1.00  0.00    -0.399 N 
ATOM     23  H   UNL A   1      27.142  29.023  21.377  1.00  0.00     0.156 HD
ATOM     24  H   UNL A   1      26.430  29.557  22.831  1.00  0.00     0.156 HD
ENDBRANCH  21  22
ENDBRANCH  13  16
ENDBRANCH  11  12
ENDBRANCH   4   6
ENDBRANCH   3   4
ENDBRANCH   2   3
ENDBRANCH   1   2
BRANCH   1  25
ATOM     25  O   UNL A   1      36.421  23.259  24.999  1.00  0.00    -0.374 OA
BRANCH  25  26
ATOM     26  C   UNL A   1      37.408  22.256  24.777  1.00  0.00     0.202 C 
BRANCH  26  27
ATOM     27  C   UNL A   1      38.420  21.959  25.874  1.00  0.00     0.261 C 
BRANCH  27  28
ATOM     28  O   UNL A   1      38.995  23.154  26.368  1.00  0.00    -0.460 OA
BRANCH  28  29
ATOM     29  C   UNL A   1      40.153  22.959  27.036  1.00  0.00     0.338 C 
ATOM     30  O   UNL A   1      40.445  22.025  27.761  1.00  0.00    -0.246 OA
BRANCH  29  31
ATOM     31  C   UNL A   1      40.991  24.152  26.857  1.00  0.00     0.060 A 
ATOM     32  C   UNL A   1      41.969  24.309  27.839  1.00  0.00     0.016 A 
ATOM     33  C   UNL A   1      40.465  25.228  26.129  1.00  0.00     0.016 A 
ATOM     34  C   UNL A   1      42.129  25.563  28.362  1.00  0.00     0.010 A 
ATOM     35  C   UNL A   1      40.607  26.476  26.666  1.00  0.00     0.010 A 
ATOM     36  C   UNL A   1      41.341  26.593  27.844  1.00  0.00    -0.014 A 
BRANCH  36  37
ATOM     37  C   UNL A   1      41.316  27.840  28.560  1.00  0.00     0.031 A 
ATOM     38  C   UNL A   1      42.461  28.703  28.226  1.00  0.00     0.074 A 
ATOM     39  C   UNL A   1      40.288  28.166  29.362  1.00  0.00     0.049 A 
ATOM     40  N   UNL A   1      43.408  29.089  29.011  1.00  0.00    -0.248 NA
ATOM     41  C   UNL A   1      42.683  29.011  26.804  1.00  0.00     0.031 C 
ATOM     42  C   UNL A   1      39.013  27.473  29.553  1.00  0.00     0.029 A 
ATOM     43  N   UNL A   1      40.143  29.289  30.107  1.00  0.00    -0.354 N 
ATOM     44  C   UNL A   1      44.265  29.835  28.213  1.00  0.00     0.074 A 
ATOM     45  C   UNL A   1      43.880  29.591  26.849  1.00  0.00     0.031 C 
ATOM     46  C   UNL A   1      38.146  28.309  30.173  1.00  0.00     0.029 A 
ATOM     47  C   UNL A   1      38.840  29.539  30.508  1.00  0.00     0.049 A 
ATOM     48  H   UNL A   1      40.897  29.877  30.343  1.00  0.00     0.167 HD
ATOM     49  C   UNL A   1      45.078  30.781  28.748  1.00  0.00     0.037 A 
ATOM     50  C   UNL A   1      38.390  30.739  30.951  1.00  0.00     0.037 A 
ATOM     51  C   UNL A   1      45.232  30.597  30.167  1.00  0.00     0.049 A 
ATOM     52  C   UNL A   1      39.585  31.518  31.393  1.00  0.00     0.074 A 
ATOM     53  C   UNL A   1      45.760  29.584  30.946  1.00  0.00     0.029 A 
ATOM     54  N   UNL A   1      44.452  31.354  31.009  1.00  0.00    -0.354 N 
ATOM     55  N   UNL A   1      40.306  31.197  32.435  1.00  0.00    -0.248 NA
ATOM     56  C   UNL A   1      40.269  32.340  30.400  1.00  0.00     0.031 C 
ATOM     57  C   UNL A   1      44.905  29.506  32.082  1.00  0.00     0.029 A 
ATOM     58  C   UNL A   1      43.942  30.509  31.964  1.00  0.00     0.049 A 
ATOM     59  H   UNL A   1      44.289  32.322  30.940  1.00  0.00     0.167 HD
ATOM     60  C   UNL A   1      41.621  31.408  32.041  1.00  0.00     0.074 A 
ATOM     61  C   UNL A   1      41.533  32.180  30.805  1.00  0.00     0.031 C 
ATOM     62  C   UNL A   1      42.648  30.685  32.581  1.00  0.00     0.037 A 
BRANCH  49  63
ATOM     63  C   UNL A   1      45.444  32.055  28.042  1.00  0.00     0.064 A 
ATOM     64  C   UNL A   1      44.431  32.979  27.732  1.00  0.00     0.173 A 
ATOM     65  C   UNL A   1      46.691  32.279  27.417  1.00  0.00     0.173 A 
ATOM     66  F   UNL A   1      43.203  32.848  28.256  1.00  0.00    -0.203 F 
ATOM     67  C   UNL A   1      44.634  34.008  26.809  1.00  0.00     0.198 A 
ATOM     68  C   UNL A   1      46.907  33.341  26.546  1.00  0.00     0.198 A 
ATOM     69  F   UNL A   1      47.714  31.424  27.530  1.00  0.00    -0.203 F 
ATOM     70  F   UNL A   1      43.608  34.790  26.451  1.00  0.00    -0.200 F 
ATOM     71  C   UNL A   1      45.871  34.186  26.215  1.00  0.00     0.200 A 
ATOM     72  F   UNL A   1      48.109  33.485  25.969  1.00  0.00    -0.200 F 
ATOM     73  F   UNL A   1      46.051  35.135  25.289  1.00  0.00    -0.200 F 
ENDBRANCH  49  63
BRANCH  50  74
ATOM     74  C   UNL A   1      37.069  31.356  30.668  1.00  0.00     0.064 A 
ATOM     75  C   UNL A   1      36.168  31.653  31.703  1.00  0.00     0.173 A 
ATOM     76  C   UNL A   1      36.756  31.893  29.401  1.00  0.00     0.173 A 
ATOM     77  F   UNL A   1      36.412  31.230  32.951  1.00  0.00    -0.203 F 
ATOM     78  C   UNL A   1      35.032  32.442  31.484  1.00  0.00     0.198 A 
ATOM     79  C   UNL A   1      35.616  32.668  29.181  1.00  0.00     0.198 A 
ATOM     80  F   UNL A   1      37.592  31.756  28.363  1.00  0.00    -0.203 F 
ATOM     81  F   UNL A   1      34.223  32.750  32.509  1.00  0.00    -0.200 F 
ATOM     82  C   UNL A   1      34.760  32.953  30.225  1.00  0.00     0.200 A 
ATOM     83  F   UNL A   1      35.390  33.184  27.965  1.00  0.00    -0.200 F 
ATOM     84  F   UNL A   1      33.702  33.750  30.027  1.00  0.00    -0.200 F 
ENDBRANCH  50  74
BRANCH  62  85
ATOM     85  C   UNL A   1      42.341  29.800  33.759  1.00  0.00     0.064 A 
ATOM     86  C   UNL A   1      41.847  28.489  33.640  1.00  0.00     0.173 A 
ATOM     87  C   UNL A   1      42.720  30.227  35.038  1.00  0.00     0.173 A 
ATOM     88  F   UNL A   1      41.574  27.965  32.439  1.00  0.00    -0.203 F 
ATOM     89  C   UNL A   1      41.696  27.664  34.753  1.00  0.00     0.198 A 
ATOM     90  C   UNL A   1      42.605  29.388  36.144  1.00  0.00     0.198 A 
ATOM     91  F   UNL A   1      43.259  31.445  35.207  1.00  0.00    -0.203 F 
ATOM     92  F   UNL A   1      41.215  26.421  34.607  1.00  0.00    -0.200 F 
ATOM     93  C   UNL A   1      42.083  28.113  36.003  1.00  0.00     0.200 A 
ATOM     94  F   UNL A   1      43.035  29.805  37.343  1.00  0.00    -0.200 F 
ATOM     95  F   UNL A   1      41.984  27.304  37.068  1.00  0.00    -0.200 F 
ENDBRANCH  62  85
ENDBRANCH  36  37
ENDBRANCH  29  31
ENDBRANCH  28  29
ENDBRANCH  27  28
ENDBRANCH  26  27
ENDBRANCH  25  26
ENDBRANCH   1  25
TORSDOF 17
ENDMDL
MODEL 3
REMARK VINA RESULT:     -11.4      3.172      8.151
REMARK SMILES Cc1nsc(NC(=O)c2ccc(N)cc2)c1C(=O)OCCOCCOC(=O)c1ccc(-c2c3nc(c(-c4c(F)c(F)c(F)c(F)c4F)c4ccc([nH]4)c(-c4c(F)c(F)c(F)c(F)c4F)c4nc(c(-c5c(F)c(F)c(F)c(F)c5F)c5ccc2[nH]5)C=C4)C=C3)cc1
REMARK SMILES IDX 21 1 20 2 19 3 17 4 18 5 16 6 1 7 2 8 3 9 4 10 5 11 6 12
REMARK SMILES IDX 7 13 8 15 9 16 10 17 15 18 11 19 14 20 12 21 13 22 22 25
REMARK SMILES IDX 23 26 24 27 25 28 26 29 27 30 28 31 29 32 90 33 30 34 89 35
REMARK SMILES IDX 31 36 32 37 33 38 83 39 34 40 88 41 82 42 84 43 35 44 87 45
REMARK SMILES IDX 81 46 80 47 36 49 68 50 48 51 67 52 49 53 52 54 66 55 85 56
REMARK SMILES IDX 50 57 51 58 65 60 86 61 53 62 37 63 38 64 46 65 39 66 40 67
REMARK SMILES IDX 44 68 47 69 41 70 42 71 45 72 43 73 69 74 70 75 78 76 71 77
REMARK SMILES IDX 72 78 76 79 79 80 73 81 74 82 77 83 75 84 54 85 55 86 63 87
REMARK SMILES IDX 56 88 57 89 61 90 64 91 58 92 59 93 62 94 60 95
REMARK H PARENT 6 14 13 23 13 24 84 48 52 59
REMARK Flexibility Score: inf
ROOT
ATOM      1  C   UNL A   1      33.345  27.434  26.251  1.00  0.00     0.202 C 
ENDROOT
BRANCH   1   2
ATOM      2  C   UNL A   1      31.934  26.923  25.955  1.00  0.00     0.261 C 
BRANCH   2   3
ATOM      3  O   UNL A   1      31.946  25.897  24.947  1.00  0.00    -0.460 OA
BRANCH   3   4
ATOM      4  C   UNL A   1      30.826  25.125  24.888  1.00  0.00     0.343 C 
ATOM      5  O   UNL A   1      29.697  25.550  24.659  1.00  0.00    -0.246 OA
BRANCH   4   6
ATOM      6  C   UNL A   1      31.139  23.709  24.870  1.00  0.00     0.117 A 
ATOM      7  C   UNL A   1      29.875  22.885  27.015  1.00  0.00     0.069 C 
ATOM      8  C   UNL A   1      30.756  22.703  25.828  1.00  0.00     0.068 A 
ATOM      9  N   UNL A   1      31.267  21.488  25.629  1.00  0.00    -0.195 NA
ATOM     10  S   UNL A   1      32.260  21.531  24.314  1.00  0.00    -0.017 S 
ATOM     11  C   UNL A   1      31.975  23.158  23.908  1.00  0.00     0.131 A 
BRANCH  11  12
ATOM     12  N   UNL A   1      32.635  23.826  22.884  1.00  0.00    -0.312 N 
ATOM     13  C   UNL A   1      33.882  24.406  22.847  1.00  0.00     0.256 C 
ATOM     14  H   UNL A   1      32.125  23.896  22.044  1.00  0.00     0.171 HD
ATOM     15  O   UNL A   1      34.125  25.307  22.048  1.00  0.00    -0.269 OA
BRANCH  13  16
ATOM     16  C   UNL A   1      34.970  23.895  23.699  1.00  0.00     0.040 A 
ATOM     17  C   UNL A   1      35.143  24.408  24.987  1.00  0.00     0.016 A 
ATOM     18  C   UNL A   1      35.824  22.908  23.207  1.00  0.00     0.016 A 
ATOM     19  C   UNL A   1      36.258  24.027  25.731  1.00  0.00     0.026 A 
ATOM     20  C   UNL A   1      36.928  22.524  23.969  1.00  0.00     0.026 A 
ATOM     21  C   UNL A   1      37.190  23.129  25.205  1.00  0.00     0.031 A 
BRANCH  21  22
ATOM     22  N   UNL A   1      38.292  22.752  25.954  1.00  0.00    -0.399 N 
ATOM     23  H   UNL A   1      38.191  22.558  26.913  1.00  0.00     0.156 HD
ATOM     24  H   UNL A   1      39.176  22.679  25.527  1.00  0.00     0.156 HD
ENDBRANCH  21  22
ENDBRANCH  13  16
ENDBRANCH  11  12
ENDBRANCH   4   6
ENDBRANCH   3   4
ENDBRANCH   2   3
ENDBRANCH   1   2
BRANCH   1  25
ATOM     25  O   UNL A   1      33.502  28.542  27.139  1.00  0.00    -0.374 OA
BRANCH  25  26
ATOM     26  C   UNL A   1      33.063  29.847  26.776  1.00  0.00     0.202 C 
BRANCH  26  27
ATOM     27  C   UNL A   1      33.836  31.055  27.283  1.00  0.00     0.261 C 
BRANCH  27  28
ATOM     28  O   UNL A   1      34.851  30.662  28.187  1.00  0.00    -0.460 OA
BRANCH  28  29
ATOM     29  C   UNL A   1      35.741  31.643  28.458  1.00  0.00     0.338 C 
ATOM     30  O   UNL A   1      35.930  32.670  27.831  1.00  0.00    -0.246 OA
BRANCH  29  31
ATOM     31  C   UNL A   1      36.571  31.209  29.589  1.00  0.00     0.060 A 
ATOM     32  C   UNL A   1      37.703  31.997  29.797  1.00  0.00     0.016 A 
ATOM     33  C   UNL A   1      36.494  29.868  29.991  1.00  0.00     0.016 A 
ATOM     34  C   UNL A   1      38.880  31.342  30.040  1.00  0.00     0.010 A 
ATOM     35  C   UNL A   1      37.672  29.211  30.211  1.00  0.00     0.010 A 
ATOM     36  C   UNL A   1      38.850  29.947  30.110  1.00  0.00    -0.014 A 
BRANCH  36  37
ATOM     37  C   UNL A   1      40.109  29.252  30.104  1.00  0.00     0.031 A 
ATOM     38  C   UNL A   1      40.693  29.133  31.449  1.00  0.00     0.074 A 
ATOM     39  C   UNL A   1      40.603  28.711  28.976  1.00  0.00     0.049 A 
ATOM     40  N   UNL A   1      41.793  29.652  31.876  1.00  0.00    -0.248 NA
ATOM     41  C   UNL A   1      39.857  28.528  32.498  1.00  0.00     0.031 C 
ATOM     42  C   UNL A   1      39.969  28.579  27.663  1.00  0.00     0.029 A 
ATOM     43  N   UNL A   1      41.776  28.050  28.820  1.00  0.00    -0.354 N 
ATOM     44  C   UNL A   1      41.873  29.297  33.215  1.00  0.00     0.074 A 
ATOM     45  C   UNL A   1      40.581  28.783  33.585  1.00  0.00     0.031 C 
ATOM     46  C   UNL A   1      40.668  27.684  26.925  1.00  0.00     0.029 A 
ATOM     47  C   UNL A   1      41.840  27.271  27.676  1.00  0.00     0.049 A 
ATOM     48  H   UNL A   1      42.519  28.117  29.464  1.00  0.00     0.167 HD
ATOM     49  C   UNL A   1      43.067  29.234  33.856  1.00  0.00     0.037 A 
ATOM     50  C   UNL A   1      42.738  26.274  27.475  1.00  0.00     0.037 A 
ATOM     51  C   UNL A   1      44.085  29.956  33.139  1.00  0.00     0.049 A 
ATOM     52  C   UNL A   1      43.878  26.519  28.407  1.00  0.00     0.074 A 
ATOM     53  C   UNL A   1      44.246  31.284  32.792  1.00  0.00     0.029 A 
ATOM     54  N   UNL A   1      44.932  29.246  32.321  1.00  0.00    -0.354 N 
ATOM     55  N   UNL A   1      44.697  27.531  28.289  1.00  0.00    -0.248 NA
ATOM     56  C   UNL A   1      43.801  25.940  29.744  1.00  0.00     0.031 C 
ATOM     57  C   UNL A   1      44.811  31.260  31.485  1.00  0.00     0.029 A 
ATOM     58  C   UNL A   1      45.017  29.927  31.131  1.00  0.00     0.049 A 
ATOM     59  H   UNL A   1      45.391  28.406  32.546  1.00  0.00     0.167 HD
ATOM     60  C   UNL A   1      44.910  27.975  29.589  1.00  0.00     0.074 A 
ATOM     61  C   UNL A   1      44.391  26.913  30.447  1.00  0.00     0.031 C 
ATOM     62  C   UNL A   1      45.205  29.283  29.851  1.00  0.00     0.037 A 
BRANCH  49  63
ATOM     63  C   UNL A   1      43.376  28.238  34.937  1.00  0.00     0.064 A 
ATOM     64  C   UNL A   1      43.789  28.705  36.198  1.00  0.00     0.173 A 
ATOM     65  C   UNL A   1      43.550  26.854  34.709  1.00  0.00     0.173 A 
ATOM     66  F   UNL A   1      43.687  30.005  36.512  1.00  0.00    -0.203 F 
ATOM     67  C   UNL A   1      44.395  27.859  37.130  1.00  0.00     0.198 A 
ATOM     68  C   UNL A   1      44.098  26.005  35.663  1.00  0.00     0.198 A 
ATOM     69  F   UNL A   1      43.306  26.288  33.521  1.00  0.00    -0.203 F 
ATOM     70  F   UNL A   1      44.885  28.369  38.267  1.00  0.00    -0.200 F 
ATOM     71  C   UNL A   1      44.552  26.512  36.860  1.00  0.00     0.200 A 
ATOM     72  F   UNL A   1      44.255  24.705  35.374  1.00  0.00    -0.200 F 
ATOM     73  F   UNL A   1      45.184  25.713  37.728  1.00  0.00    -0.200 F 
ENDBRANCH  49  63
BRANCH  50  74
ATOM     74  C   UNL A   1      42.489  24.970  26.809  1.00  0.00     0.064 A 
ATOM     75  C   UNL A   1      43.142  24.626  25.615  1.00  0.00     0.173 A 
ATOM     76  C   UNL A   1      41.788  23.929  27.455  1.00  0.00     0.173 A 
ATOM     77  F   UNL A   1      43.876  25.538  24.962  1.00  0.00    -0.203 F 
ATOM     78  C   UNL A   1      43.103  23.322  25.106  1.00  0.00     0.198 A 
ATOM     79  C   UNL A   1      41.739  22.633  26.939  1.00  0.00     0.198 A 
ATOM     80  F   UNL A   1      41.210  24.117  28.648  1.00  0.00    -0.203 F 
ATOM     81  F   UNL A   1      43.785  23.018  23.991  1.00  0.00    -0.200 F 
ATOM     82  C   UNL A   1      42.405  22.326  25.770  1.00  0.00     0.200 A 
ATOM     83  F   UNL A   1      41.090  21.675  27.615  1.00  0.00    -0.200 F 
ATOM     84  F   UNL A   1      42.410  21.068  25.311  1.00  0.00    -0.200 F 
ENDBRANCH  50  74
BRANCH  62  85
ATOM     85  C   UNL A   1      45.497  30.186  28.683  1.00  0.00     0.064 A 
ATOM     86  C   UNL A   1      44.505  30.883  27.972  1.00  0.00     0.173 A 
ATOM     87  C   UNL A   1      46.832  30.491  28.386  1.00  0.00     0.173 A 
ATOM     88  F   UNL A   1      43.210  30.736  28.276  1.00  0.00    -0.203 F 
ATOM     89  C   UNL A   1      44.833  31.803  26.978  1.00  0.00     0.198 A 
ATOM     90  C   UNL A   1      47.158  31.440  27.421  1.00  0.00     0.198 A 
ATOM     91  F   UNL A   1      47.823  29.908  29.077  1.00  0.00    -0.203 F 
ATOM     92  F   UNL A   1      43.863  32.446  26.311  1.00  0.00    -0.200 F 
ATOM     93  C   UNL A   1      46.161  32.087  26.710  1.00  0.00     0.200 A 
ATOM     94  F   UNL A   1      48.443  31.754  27.204  1.00  0.00    -0.200 F 
ATOM     95  F   UNL A   1      46.479  33.007  25.789  1.00  0.00    -0.200 F 
ENDBRANCH  62  85
ENDBRANCH  36  37
ENDBRANCH  29  31
ENDBRANCH  28  29
ENDBRANCH  27  28
ENDBRANCH  26  27
ENDBRANCH  25  26
ENDBRANCH   1  25
TORSDOF 17
ENDMDL
