MODEL 1
REMARK VINA RESULT:     -11.4      0.000      0.000
REMARK SMILES CCCC1CN(c2cc(C(=O)OCCOCCOC(=O)c3ccc(-c4c5nc(c(-c6c(F)c(F)c(F)c(F)c6F)c6ccc([nH]6)c(-c6c(F)c(F)c(F)c(F)c6F)c6nc(c(-c7c(F)c(F)c(F)c(F)c7F)c7ccc4[nH]7)C=C6)C=C5)cc3)ccc2C)C1
REMARK SMILES IDX 14 1 13 2 12 3 10 4 11 5 9 6 7 7 8 8 86 9 85 10 87 11 84 12
REMARK SMILES IDX 6 13 4 14 5 15 88 16 3 17 2 18 1 19 15 20 16 21 17 22 18 23
REMARK SMILES IDX 19 24 20 25 21 26 22 27 83 28 23 29 82 30 24 31 25 32 26 33
REMARK SMILES IDX 76 34 27 35 81 36 75 37 77 38 28 39 80 40 74 41 73 42 29 44
REMARK SMILES IDX 61 45 41 46 60 47 42 48 45 49 59 50 78 51 43 52 44 53 58 55
REMARK SMILES IDX 79 56 46 57 30 58 31 59 39 60 32 61 33 62 37 63 40 64 34 65
REMARK SMILES IDX 35 66 38 67 36 68 62 69 63 70 71 71 64 72 65 73 69 74 72 75
REMARK SMILES IDX 66 76 67 77 70 78 68 79 47 80 48 81 56 82 49 83 50 84 54 85
REMARK SMILES IDX 57 86 51 87 52 88 55 89 53 90
REMARK H PARENT 77 43 45 54
REMARK Flexibility Score: inf
ROOT
ATOM      1  C   UNL A   1      40.966  19.818  26.413  1.00  0.00     0.202 C 
ENDROOT
BRANCH   1   2
ATOM      2  C   UNL A   1      40.578  21.211  26.089  1.00  0.00     0.261 C 
BRANCH   2   3
ATOM      3  O   UNL A   1      39.187  21.433  26.369  1.00  0.00    -0.460 OA
BRANCH   3   4
ATOM      4  C   UNL A   1      38.478  22.536  26.012  1.00  0.00     0.338 C 
ATOM      5  O   UNL A   1      38.775  23.713  26.116  1.00  0.00    -0.246 OA
BRANCH   4   6
ATOM      6  C   UNL A   1      37.219  22.012  25.447  1.00  0.00     0.062 A 
ATOM      7  C   UNL A   1      34.819  22.326  25.209  1.00  0.00     0.040 A 
ATOM      8  C   UNL A   1      36.086  22.834  25.457  1.00  0.00     0.041 A 
ATOM      9  C   UNL A   1      34.700  20.969  24.878  1.00  0.00    -0.028 A 
ATOM     10  C   UNL A   1      35.859  20.171  24.752  1.00  0.00     0.006 A 
ATOM     11  C   UNL A   1      33.360  20.326  24.673  1.00  0.00     0.046 C 
ATOM     12  C   UNL A   1      37.122  20.689  25.034  1.00  0.00     0.016 A 
BRANCH   7  13
ATOM     13  N   UNL A   1      33.698  23.168  25.366  1.00  0.00    -0.371 N 
ATOM     14  C   UNL A   1      32.870  25.008  25.897  1.00  0.00     0.028 C 
ATOM     15  C   UNL A   1      33.317  23.740  26.631  1.00  0.00     0.122 C 
ATOM     16  C   UNL A   1      33.446  24.376  24.628  1.00  0.00     0.122 C 
BRANCH  14  17
ATOM     17  C   UNL A   1      31.425  25.501  25.862  1.00  0.00     0.007 C 
BRANCH  17  18
ATOM     18  C   UNL A   1      31.164  26.872  26.484  1.00  0.00    -0.003 C 
ATOM     19  C   UNL A   1      32.120  27.961  26.024  1.00  0.00     0.004 C 
ENDBRANCH  17  18
ENDBRANCH  14  17
ENDBRANCH   7  13
ENDBRANCH   4   6
ENDBRANCH   3   4
ENDBRANCH   2   3
ENDBRANCH   1   2
BRANCH   1  20
ATOM     20  O   UNL A   1      41.978  19.555  25.463  1.00  0.00    -0.374 OA
BRANCH  20  21
ATOM     21  C   UNL A   1      42.905  18.563  25.820  1.00  0.00     0.202 C 
BRANCH  21  22
ATOM     22  C   UNL A   1      44.263  18.829  25.171  1.00  0.00     0.261 C 
BRANCH  22  23
ATOM     23  O   UNL A   1      44.238  20.116  24.510  1.00  0.00    -0.460 OA
BRANCH  23  24
ATOM     24  C   UNL A   1      45.105  21.057  24.989  1.00  0.00     0.338 C 
ATOM     25  O   UNL A   1      46.252  20.839  25.343  1.00  0.00    -0.246 OA
BRANCH  24  26
ATOM     26  C   UNL A   1      44.373  22.324  25.296  1.00  0.00     0.060 A 
ATOM     27  C   UNL A   1      44.559  23.463  24.483  1.00  0.00     0.016 A 
ATOM     28  C   UNL A   1      43.803  22.460  26.558  1.00  0.00     0.016 A 
ATOM     29  C   UNL A   1      44.328  24.749  25.000  1.00  0.00     0.010 A 
ATOM     30  C   UNL A   1      43.703  23.723  27.100  1.00  0.00     0.010 A 
ATOM     31  C   UNL A   1      43.983  24.872  26.342  1.00  0.00    -0.014 A 
BRANCH  31  32
ATOM     32  C   UNL A   1      43.923  26.119  27.110  1.00  0.00     0.031 A 
ATOM     33  C   UNL A   1      42.617  26.804  27.168  1.00  0.00     0.074 A 
ATOM     34  C   UNL A   1      44.929  26.486  27.942  1.00  0.00     0.049 A 
ATOM     35  N   UNL A   1      42.454  28.017  27.566  1.00  0.00    -0.248 NA
ATOM     36  C   UNL A   1      41.373  26.202  26.691  1.00  0.00     0.031 C 
ATOM     37  C   UNL A   1      44.866  27.329  29.137  1.00  0.00     0.029 A 
ATOM     38  N   UNL A   1      46.277  26.116  27.901  1.00  0.00    -0.354 N 
ATOM     39  C   UNL A   1      41.104  28.200  27.761  1.00  0.00     0.074 A 
ATOM     40  C   UNL A   1      40.486  27.143  27.012  1.00  0.00     0.031 C 
ATOM     41  C   UNL A   1      46.115  27.628  29.545  1.00  0.00     0.029 A 
ATOM     42  C   UNL A   1      47.042  27.079  28.566  1.00  0.00     0.049 A 
ATOM     43  H   UNL A   1      46.632  25.304  27.473  1.00  0.00     0.167 HD
ATOM     44  C   UNL A   1      40.711  29.111  28.698  1.00  0.00     0.037 A 
ATOM     45  C   UNL A   1      48.045  27.717  27.908  1.00  0.00     0.037 A 
ATOM     46  C   UNL A   1      41.894  29.858  29.188  1.00  0.00     0.049 A 
ATOM     47  C   UNL A   1      47.594  29.132  27.731  1.00  0.00     0.074 A 
ATOM     48  C   UNL A   1      42.593  29.840  30.385  1.00  0.00     0.029 A 
ATOM     49  N   UNL A   1      42.739  30.498  28.268  1.00  0.00    -0.354 N 
ATOM     50  N   UNL A   1      46.328  29.460  27.697  1.00  0.00    -0.248 NA
ATOM     51  C   UNL A   1      48.487  30.282  27.763  1.00  0.00     0.031 C 
ATOM     52  C   UNL A   1      43.892  30.380  30.146  1.00  0.00     0.029 A 
ATOM     53  C   UNL A   1      43.987  30.755  28.812  1.00  0.00     0.049 A 
ATOM     54  H   UNL A   1      42.477  30.736  27.349  1.00  0.00     0.167 HD
ATOM     55  C   UNL A   1      46.221  30.801  27.859  1.00  0.00     0.074 A 
ATOM     56  C   UNL A   1      47.595  31.285  27.833  1.00  0.00     0.031 C 
ATOM     57  C   UNL A   1      45.032  31.438  28.049  1.00  0.00     0.037 A 
BRANCH  44  58
ATOM     58  C   UNL A   1      39.336  29.132  29.376  1.00  0.00     0.064 A 
ATOM     59  C   UNL A   1      38.207  29.620  28.680  1.00  0.00     0.173 A 
ATOM     60  C   UNL A   1      39.049  28.760  30.712  1.00  0.00     0.173 A 
ATOM     61  F   UNL A   1      38.285  29.975  27.391  1.00  0.00    -0.203 F 
ATOM     62  C   UNL A   1      36.943  29.763  29.274  1.00  0.00     0.198 A 
ATOM     63  C   UNL A   1      37.788  28.905  31.307  1.00  0.00     0.198 A 
ATOM     64  F   UNL A   1      39.951  28.216  31.525  1.00  0.00    -0.203 F 
ATOM     65  F   UNL A   1      35.922  30.253  28.556  1.00  0.00    -0.200 F 
ATOM     66  C   UNL A   1      36.734  29.413  30.591  1.00  0.00     0.200 A 
ATOM     67  F   UNL A   1      37.618  28.542  32.588  1.00  0.00    -0.200 F 
ATOM     68  F   UNL A   1      35.531  29.549  31.161  1.00  0.00    -0.200 F 
ENDBRANCH  44  58
BRANCH  45  69
ATOM     69  C   UNL A   1      48.795  26.821  26.977  1.00  0.00     0.064 A 
ATOM     70  C   UNL A   1      48.668  27.090  25.594  1.00  0.00     0.173 A 
ATOM     71  C   UNL A   1      49.921  26.082  27.373  1.00  0.00     0.173 A 
ATOM     72  F   UNL A   1      47.639  27.829  25.150  1.00  0.00    -0.203 F 
ATOM     73  C   UNL A   1      49.664  26.742  24.677  1.00  0.00     0.198 A 
ATOM     74  C   UNL A   1      50.929  25.755  26.454  1.00  0.00     0.198 A 
ATOM     75  F   UNL A   1      50.119  25.797  28.667  1.00  0.00    -0.203 F 
ATOM     76  F   UNL A   1      49.586  27.175  23.409  1.00  0.00    -0.200 F 
ATOM     77  C   UNL A   1      50.813  26.108  25.117  1.00  0.00     0.200 A 
ATOM     78  F   UNL A   1      52.070  25.194  26.885  1.00  0.00    -0.200 F 
ATOM     79  F   UNL A   1      51.849  25.947  24.279  1.00  0.00    -0.200 F 
ENDBRANCH  45  69
BRANCH  57  80
ATOM     80  C   UNL A   1      44.846  32.854  27.602  1.00  0.00     0.064 A 
ATOM     81  C   UNL A   1      44.234  33.181  26.376  1.00  0.00     0.173 A 
ATOM     82  C   UNL A   1      45.121  33.932  28.464  1.00  0.00     0.173 A 
ATOM     83  F   UNL A   1      43.779  32.236  25.540  1.00  0.00    -0.203 F 
ATOM     84  C   UNL A   1      44.025  34.499  25.990  1.00  0.00     0.198 A 
ATOM     85  C   UNL A   1      44.836  35.244  28.107  1.00  0.00     0.198 A 
ATOM     86  F   UNL A   1      45.636  33.743  29.688  1.00  0.00    -0.203 F 
ATOM     87  F   UNL A   1      43.514  34.758  24.780  1.00  0.00    -0.200 F 
ATOM     88  C   UNL A   1      44.320  35.530  26.858  1.00  0.00     0.200 A 
ATOM     89  F   UNL A   1      45.050  36.231  28.989  1.00  0.00    -0.200 F 
ATOM     90  F   UNL A   1      44.083  36.798  26.501  1.00  0.00    -0.200 F 
ENDBRANCH  57  80
ENDBRANCH  31  32
ENDBRANCH  24  26
ENDBRANCH  23  24
ENDBRANCH  22  23
ENDBRANCH  21  22
ENDBRANCH  20  21
ENDBRANCH   1  20
TORSDOF 17
ENDMDL
MODEL 2
REMARK VINA RESULT:     -10.8      4.431     10.203
REMARK SMILES CCCC1CN(c2cc(C(=O)OCCOCCOC(=O)c3ccc(-c4c5nc(c(-c6c(F)c(F)c(F)c(F)c6F)c6ccc([nH]6)c(-c6c(F)c(F)c(F)c(F)c6F)c6nc(c(-c7c(F)c(F)c(F)c(F)c7F)c7ccc4[nH]7)C=C6)C=C5)cc3)ccc2C)C1
REMARK SMILES IDX 14 1 13 2 12 3 10 4 11 5 9 6 7 7 8 8 86 9 85 10 87 11 84 12
REMARK SMILES IDX 6 13 4 14 5 15 88 16 3 17 2 18 1 19 15 20 16 21 17 22 18 23
REMARK SMILES IDX 19 24 20 25 21 26 22 27 83 28 23 29 82 30 24 31 25 32 26 33
REMARK SMILES IDX 76 34 27 35 81 36 75 37 77 38 28 39 80 40 74 41 73 42 29 44
REMARK SMILES IDX 61 45 41 46 60 47 42 48 45 49 59 50 78 51 43 52 44 53 58 55
REMARK SMILES IDX 79 56 46 57 30 58 31 59 39 60 32 61 33 62 37 63 40 64 34 65
REMARK SMILES IDX 35 66 38 67 36 68 62 69 63 70 71 71 64 72 65 73 69 74 72 75
REMARK SMILES IDX 66 76 67 77 70 78 68 79 47 80 48 81 56 82 49 83 50 84 54 85
REMARK SMILES IDX 57 86 51 87 52 88 55 89 53 90
REMARK H PARENT 77 43 45 54
REMARK Flexibility Score: inf
ROOT
ATOM      1  C   UNL A   1      31.380  28.784  24.357  1.00  0.00     0.202 C 
ENDROOT
BRANCH   1   2
ATOM      2  C   UNL A   1      32.694  28.816  23.670  1.00  0.00     0.261 C 
BRANCH   2   3
ATOM      3  O   UNL A   1      33.308  27.518  23.681  1.00  0.00    -0.460 OA
BRANCH   3   4
ATOM      4  C   UNL A   1      33.452  26.706  22.601  1.00  0.00     0.338 C 
ATOM      5  O   UNL A   1      33.730  26.992  21.450  1.00  0.00    -0.246 OA
BRANCH   4   6
ATOM      6  C   UNL A   1      33.195  25.345  23.111  1.00  0.00     0.062 A 
ATOM      7  C   UNL A   1      34.165  23.250  23.875  1.00  0.00     0.040 A 
ATOM      8  C   UNL A   1      34.264  24.614  23.641  1.00  0.00     0.041 A 
ATOM      9  C   UNL A   1      32.936  22.621  23.632  1.00  0.00    -0.028 A 
ATOM     10  C   UNL A   1      31.825  23.387  23.212  1.00  0.00     0.006 A 
ATOM     11  C   UNL A   1      32.769  21.138  23.786  1.00  0.00     0.046 C 
ATOM     12  C   UNL A   1      31.949  24.751  22.953  1.00  0.00     0.016 A 
BRANCH   7  13
ATOM     13  N   UNL A   1      35.313  22.536  24.278  1.00  0.00    -0.371 N 
ATOM     14  C   UNL A   1      37.247  22.501  25.060  1.00  0.00     0.028 C 
ATOM     15  C   UNL A   1      36.610  22.737  23.687  1.00  0.00     0.122 C 
ATOM     16  C   UNL A   1      35.824  22.457  25.621  1.00  0.00     0.122 C 
BRANCH  14  17
ATOM     17  C   UNL A   1      38.178  21.332  25.372  1.00  0.00     0.007 C 
BRANCH  17  18
ATOM     18  C   UNL A   1      39.457  21.671  26.135  1.00  0.00    -0.003 C 
ATOM     19  C   UNL A   1      40.352  20.475  26.423  1.00  0.00     0.004 C 
ENDBRANCH  17  18
ENDBRANCH  14  17
ENDBRANCH   7  13
ENDBRANCH   4   6
ENDBRANCH   3   4
ENDBRANCH   2   3
ENDBRANCH   1   2
BRANCH   1  20
ATOM     20  O   UNL A   1      31.415  29.964  25.134  1.00  0.00    -0.374 OA
BRANCH  20  21
ATOM     21  C   UNL A   1      31.801  29.799  26.474  1.00  0.00     0.202 C 
BRANCH  21  22
ATOM     22  C   UNL A   1      32.836  30.850  26.874  1.00  0.00     0.261 C 
BRANCH  22  23
ATOM     23  O   UNL A   1      33.678  30.322  27.927  1.00  0.00    -0.460 OA
BRANCH  23  24
ATOM     24  C   UNL A   1      34.596  29.383  27.552  1.00  0.00     0.338 C 
ATOM     25  O   UNL A   1      34.330  28.286  27.091  1.00  0.00    -0.246 OA
BRANCH  24  26
ATOM     26  C   UNL A   1      35.953  29.761  28.055  1.00  0.00     0.060 A 
ATOM     27  C   UNL A   1      36.970  30.119  27.143  1.00  0.00     0.016 A 
ATOM     28  C   UNL A   1      36.284  29.420  29.362  1.00  0.00     0.016 A 
ATOM     29  C   UNL A   1      38.322  29.974  27.496  1.00  0.00     0.010 A 
ATOM     30  C   UNL A   1      37.604  29.157  29.658  1.00  0.00     0.010 A 
ATOM     31  C   UNL A   1      38.629  29.407  28.729  1.00  0.00    -0.014 A 
BRANCH  31  32
ATOM     32  C   UNL A   1      39.955  28.972  29.176  1.00  0.00     0.031 A 
ATOM     33  C   UNL A   1      40.373  27.609  28.794  1.00  0.00     0.074 A 
ATOM     34  C   UNL A   1      40.857  29.852  29.675  1.00  0.00     0.049 A 
ATOM     35  N   UNL A   1      41.370  26.985  29.316  1.00  0.00    -0.248 NA
ATOM     36  C   UNL A   1      39.637  26.781  27.840  1.00  0.00     0.031 C 
ATOM     37  C   UNL A   1      42.319  29.767  29.670  1.00  0.00     0.029 A 
ATOM     38  N   UNL A   1      40.628  31.091  30.282  1.00  0.00    -0.354 N 
ATOM     39  C   UNL A   1      41.626  25.893  28.519  1.00  0.00     0.074 A 
ATOM     40  C   UNL A   1      40.417  25.703  27.770  1.00  0.00     0.031 C 
ATOM     41  C   UNL A   1      42.831  30.732  30.459  1.00  0.00     0.029 A 
ATOM     42  C   UNL A   1      41.716  31.418  31.096  1.00  0.00     0.049 A 
ATOM     43  H   UNL A   1      39.825  31.647  30.154  1.00  0.00     0.167 HD
ATOM     44  C   UNL A   1      42.907  25.426  28.467  1.00  0.00     0.037 A 
ATOM     45  C   UNL A   1      41.522  31.656  32.419  1.00  0.00     0.037 A 
ATOM     46  C   UNL A   1      43.734  26.135  29.473  1.00  0.00     0.049 A 
ATOM     47  C   UNL A   1      42.148  30.509  33.147  1.00  0.00     0.074 A 
ATOM     48  C   UNL A   1      44.728  27.096  29.372  1.00  0.00     0.029 A 
ATOM     49  N   UNL A   1      43.320  26.160  30.815  1.00  0.00    -0.354 N 
ATOM     50  N   UNL A   1      42.293  29.332  32.596  1.00  0.00    -0.248 NA
ATOM     51  C   UNL A   1      42.811  30.627  34.437  1.00  0.00     0.031 C 
ATOM     52  C   UNL A   1      44.832  27.758  30.632  1.00  0.00     0.029 A 
ATOM     53  C   UNL A   1      43.923  27.192  31.516  1.00  0.00     0.049 A 
ATOM     54  H   UNL A   1      42.681  25.523  31.209  1.00  0.00     0.167 HD
ATOM     55  C   UNL A   1      43.165  28.607  33.339  1.00  0.00     0.074 A 
ATOM     56  C   UNL A   1      43.416  29.429  34.515  1.00  0.00     0.031 C 
ATOM     57  C   UNL A   1      43.666  27.405  32.941  1.00  0.00     0.037 A 
BRANCH  44  58
ATOM     58  C   UNL A   1      43.479  24.561  27.337  1.00  0.00     0.064 A 
ATOM     59  C   UNL A   1      43.156  23.186  27.262  1.00  0.00     0.173 A 
ATOM     60  C   UNL A   1      44.391  24.974  26.337  1.00  0.00     0.173 A 
ATOM     61  F   UNL A   1      42.272  22.633  28.103  1.00  0.00    -0.203 F 
ATOM     62  C   UNL A   1      43.724  22.316  26.318  1.00  0.00     0.198 A 
ATOM     63  C   UNL A   1      44.961  24.106  25.396  1.00  0.00     0.198 A 
ATOM     64  F   UNL A   1      44.779  26.237  26.184  1.00  0.00    -0.203 F 
ATOM     65  F   UNL A   1      43.385  21.019  26.321  1.00  0.00    -0.200 F 
ATOM     66  C   UNL A   1      44.633  22.773  25.389  1.00  0.00     0.200 A 
ATOM     67  F   UNL A   1      45.833  24.588  24.497  1.00  0.00    -0.200 F 
ATOM     68  F   UNL A   1      45.178  21.946  24.488  1.00  0.00    -0.200 F 
ENDBRANCH  44  58
BRANCH  45  69
ATOM     69  C   UNL A   1      40.255  32.399  32.699  1.00  0.00     0.064 A 
ATOM     70  C   UNL A   1      39.147  31.630  33.122  1.00  0.00     0.173 A 
ATOM     71  C   UNL A   1      40.229  33.766  33.012  1.00  0.00     0.173 A 
ATOM     72  F   UNL A   1      39.127  30.307  32.895  1.00  0.00    -0.203 F 
ATOM     73  C   UNL A   1      38.127  32.171  33.911  1.00  0.00     0.198 A 
ATOM     74  C   UNL A   1      39.216  34.301  33.824  1.00  0.00     0.198 A 
ATOM     75  F   UNL A   1      41.247  34.560  32.656  1.00  0.00    -0.203 F 
ATOM     76  F   UNL A   1      37.192  31.365  34.440  1.00  0.00    -0.200 F 
ATOM     77  C   UNL A   1      38.185  33.500  34.294  1.00  0.00     0.200 A 
ATOM     78  F   UNL A   1      39.299  35.573  34.245  1.00  0.00    -0.200 F 
ATOM     79  F   UNL A   1      37.319  33.971  35.204  1.00  0.00    -0.200 F 
ENDBRANCH  45  69
BRANCH  57  80
ATOM     80  C   UNL A   1      44.069  26.376  33.949  1.00  0.00     0.064 A 
ATOM     81  C   UNL A   1      45.418  26.079  34.225  1.00  0.00     0.173 A 
ATOM     82  C   UNL A   1      43.118  25.775  34.795  1.00  0.00     0.173 A 
ATOM     83  F   UNL A   1      46.421  26.709  33.596  1.00  0.00    -0.203 F 
ATOM     84  C   UNL A   1      45.782  25.154  35.194  1.00  0.00     0.198 A 
ATOM     85  C   UNL A   1      43.492  24.911  35.817  1.00  0.00     0.198 A 
ATOM     86  F   UNL A   1      41.807  26.034  34.681  1.00  0.00    -0.203 F 
ATOM     87  F   UNL A   1      47.075  24.847  35.360  1.00  0.00    -0.200 F 
ATOM     88  C   UNL A   1      44.820  24.575  35.995  1.00  0.00     0.200 A 
ATOM     89  F   UNL A   1      42.557  24.418  36.641  1.00  0.00    -0.200 F 
ATOM     90  F   UNL A   1      45.174  23.712  36.955  1.00  0.00    -0.200 F 
ENDBRANCH  57  80
ENDBRANCH  31  32
ENDBRANCH  24  26
ENDBRANCH  23  24
ENDBRANCH  22  23
ENDBRANCH  21  22
ENDBRANCH  20  21
ENDBRANCH   1  20
TORSDOF 17
ENDMDL
MODEL 3
REMARK VINA RESULT:     -10.8      4.522     10.269
REMARK SMILES CCCC1CN(c2cc(C(=O)OCCOCCOC(=O)c3ccc(-c4c5nc(c(-c6c(F)c(F)c(F)c(F)c6F)c6ccc([nH]6)c(-c6c(F)c(F)c(F)c(F)c6F)c6nc(c(-c7c(F)c(F)c(F)c(F)c7F)c7ccc4[nH]7)C=C6)C=C5)cc3)ccc2C)C1
REMARK SMILES IDX 14 1 13 2 12 3 10 4 11 5 9 6 7 7 8 8 86 9 85 10 87 11 84 12
REMARK SMILES IDX 6 13 4 14 5 15 88 16 3 17 2 18 1 19 15 20 16 21 17 22 18 23
REMARK SMILES IDX 19 24 20 25 21 26 22 27 83 28 23 29 82 30 24 31 25 32 26 33
REMARK SMILES IDX 76 34 27 35 81 36 75 37 77 38 28 39 80 40 74 41 73 42 29 44
REMARK SMILES IDX 61 45 41 46 60 47 42 48 45 49 59 50 78 51 43 52 44 53 58 55
REMARK SMILES IDX 79 56 46 57 30 58 31 59 39 60 32 61 33 62 37 63 40 64 34 65
REMARK SMILES IDX 35 66 38 67 36 68 62 69 63 70 71 71 64 72 65 73 69 74 72 75
REMARK SMILES IDX 66 76 67 77 70 78 68 79 47 80 48 81 56 82 49 83 50 84 54 85
REMARK SMILES IDX 57 86 51 87 52 88 55 89 53 90
REMARK H PARENT 77 43 45 54
REMARK Flexibility Score: inf
ROOT
ATOM      1  C   UNL A   1      31.343  27.954  25.381  1.00  0.00     0.202 C 
ENDROOT
BRANCH   1   2
ATOM      2  C   UNL A   1      31.107  27.177  26.621  1.00  0.00     0.261 C 
BRANCH   2   3
ATOM      3  O   UNL A   1      32.037  26.087  26.726  1.00  0.00    -0.460 OA
BRANCH   3   4
ATOM      4  C   UNL A   1      31.761  24.786  26.446  1.00  0.00     0.338 C 
ATOM      5  O   UNL A   1      30.870  24.075  26.876  1.00  0.00    -0.246 OA
BRANCH   4   6
ATOM      6  C   UNL A   1      32.793  24.379  25.474  1.00  0.00     0.062 A 
ATOM      7  C   UNL A   1      33.903  22.528  24.352  1.00  0.00     0.040 A 
ATOM      8  C   UNL A   1      32.813  23.050  25.033  1.00  0.00     0.041 A 
ATOM      9  C   UNL A   1      34.971  23.384  24.049  1.00  0.00    -0.028 A 
ATOM     10  C   UNL A   1      34.894  24.752  24.391  1.00  0.00     0.006 A 
ATOM     11  C   UNL A   1      36.218  22.879  23.386  1.00  0.00     0.046 C 
ATOM     12  C   UNL A   1      33.805  25.256  25.102  1.00  0.00     0.016 A 
BRANCH   7  13
ATOM     13  N   UNL A   1      33.930  21.150  24.051  1.00  0.00    -0.371 N 
ATOM     14  C   UNL A   1      33.583  19.166  24.597  1.00  0.00     0.028 C 
ATOM     15  C   UNL A   1      34.696  20.196  24.811  1.00  0.00     0.122 C 
ATOM     16  C   UNL A   1      32.781  20.292  23.940  1.00  0.00     0.122 C 
BRANCH  14  17
ATOM     17  C   UNL A   1      33.770  17.868  23.815  1.00  0.00     0.007 C 
BRANCH  17  18
ATOM     18  C   UNL A   1      33.418  16.577  24.555  1.00  0.00    -0.003 C 
ATOM     19  C   UNL A   1      32.575  16.781  25.805  1.00  0.00     0.004 C 
ENDBRANCH  17  18
ENDBRANCH  14  17
ENDBRANCH   7  13
ENDBRANCH   4   6
ENDBRANCH   3   4
ENDBRANCH   2   3
ENDBRANCH   1   2
BRANCH   1  20
ATOM     20  O   UNL A   1      31.616  29.247  25.880  1.00  0.00    -0.374 OA
BRANCH  20  21
ATOM     21  C   UNL A   1      32.972  29.611  25.913  1.00  0.00     0.202 C 
BRANCH  21  22
ATOM     22  C   UNL A   1      33.355  30.156  27.289  1.00  0.00     0.261 C 
BRANCH  22  23
ATOM     23  O   UNL A   1      34.592  30.900  27.186  1.00  0.00    -0.460 OA
BRANCH  23  24
ATOM     24  C   UNL A   1      35.249  31.142  28.359  1.00  0.00     0.338 C 
ATOM     25  O   UNL A   1      35.159  32.167  29.015  1.00  0.00    -0.246 OA
BRANCH  24  26
ATOM     26  C   UNL A   1      36.311  30.112  28.577  1.00  0.00     0.060 A 
ATOM     27  C   UNL A   1      36.406  29.447  29.819  1.00  0.00     0.016 A 
ATOM     28  C   UNL A   1      37.383  30.082  27.691  1.00  0.00     0.016 A 
ATOM     29  C   UNL A   1      37.630  28.897  30.236  1.00  0.00     0.010 A 
ATOM     30  C   UNL A   1      38.608  29.657  28.157  1.00  0.00     0.010 A 
ATOM     31  C   UNL A   1      38.750  29.085  29.433  1.00  0.00    -0.014 A 
BRANCH  31  32
ATOM     32  C   UNL A   1      40.138  28.788  29.799  1.00  0.00     0.031 A 
ATOM     33  C   UNL A   1      40.730  27.563  29.228  1.00  0.00     0.074 A 
ATOM     34  C   UNL A   1      40.923  29.713  30.403  1.00  0.00     0.049 A 
ATOM     35  N   UNL A   1      41.821  27.024  29.646  1.00  0.00    -0.248 NA
ATOM     36  C   UNL A   1      40.087  26.774  28.177  1.00  0.00     0.031 C 
ATOM     37  C   UNL A   1      42.381  29.840  30.368  1.00  0.00     0.029 A 
ATOM     38  N   UNL A   1      40.542  30.813  31.178  1.00  0.00    -0.354 N 
ATOM     39  C   UNL A   1      42.203  26.097  28.703  1.00  0.00     0.074 A 
ATOM     40  C   UNL A   1      41.008  25.838  27.950  1.00  0.00     0.031 C 
ATOM     41  C   UNL A   1      42.778  30.753  31.276  1.00  0.00     0.029 A 
ATOM     42  C   UNL A   1      41.599  31.180  32.016  1.00  0.00     0.049 A 
ATOM     43  H   UNL A   1      39.666  31.261  31.138  1.00  0.00     0.167 HD
ATOM     44  C   UNL A   1      43.534  25.831  28.570  1.00  0.00     0.037 A 
ATOM     45  C   UNL A   1      41.416  31.207  33.361  1.00  0.00     0.037 A 
ATOM     46  C   UNL A   1      44.285  26.509  29.654  1.00  0.00     0.049 A 
ATOM     47  C   UNL A   1      42.220  30.074  33.916  1.00  0.00     0.074 A 
ATOM     48  C   UNL A   1      45.130  27.606  29.674  1.00  0.00     0.029 A 
ATOM     49  N   UNL A   1      43.916  26.293  30.991  1.00  0.00    -0.354 N 
ATOM     50  N   UNL A   1      42.511  29.015  33.206  1.00  0.00    -0.248 NA
ATOM     51  C   UNL A   1      42.901  30.111  35.202  1.00  0.00     0.031 C 
ATOM     52  C   UNL A   1      45.182  28.101  31.011  1.00  0.00     0.029 A 
ATOM     53  C   UNL A   1      44.390  27.297  31.821  1.00  0.00     0.049 A 
ATOM     54  H   UNL A   1      43.385  25.523  31.302  1.00  0.00     0.167 HD
ATOM     55  C   UNL A   1      43.500  28.329  33.831  1.00  0.00     0.074 A 
ATOM     56  C   UNL A   1      43.671  29.013  35.106  1.00  0.00     0.031 C 
ATOM     57  C   UNL A   1      44.152  27.276  33.265  1.00  0.00     0.037 A 
BRANCH  44  58
ATOM     58  C   UNL A   1      44.184  25.216  27.325  1.00  0.00     0.064 A 
ATOM     59  C   UNL A   1      44.071  23.829  27.075  1.00  0.00     0.173 A 
ATOM     60  C   UNL A   1      44.983  25.891  26.370  1.00  0.00     0.173 A 
ATOM     61  F   UNL A   1      43.316  23.042  27.852  1.00  0.00    -0.203 F 
ATOM     62  C   UNL A   1      44.727  23.186  26.013  1.00  0.00     0.198 A 
ATOM     63  C   UNL A   1      45.640  25.249  25.311  1.00  0.00     0.198 A 
ATOM     64  F   UNL A   1      45.168  27.208  26.379  1.00  0.00    -0.203 F 
ATOM     65  F   UNL A   1      44.588  21.862  25.850  1.00  0.00    -0.200 F 
ATOM     66  C   UNL A   1      45.518  23.894  25.134  1.00  0.00     0.200 A 
ATOM     67  F   UNL A   1      46.393  25.972  24.467  1.00  0.00    -0.200 F 
ATOM     68  F   UNL A   1      46.145  23.284  24.121  1.00  0.00    -0.200 F 
ENDBRANCH  44  58
BRANCH  45  69
ATOM     69  C   UNL A   1      40.068  31.716  33.757  1.00  0.00     0.064 A 
ATOM     70  C   UNL A   1      39.904  33.120  33.798  1.00  0.00     0.173 A 
ATOM     71  C   UNL A   1      38.899  30.949  33.633  1.00  0.00     0.173 A 
ATOM     72  F   UNL A   1      40.983  33.916  33.871  1.00  0.00    -0.203 F 
ATOM     73  C   UNL A   1      38.658  33.727  33.611  1.00  0.00     0.198 A 
ATOM     74  C   UNL A   1      37.654  31.561  33.422  1.00  0.00     0.198 A 
ATOM     75  F   UNL A   1      38.971  29.613  33.576  1.00  0.00    -0.203 F 
ATOM     76  F   UNL A   1      38.578  35.060  33.477  1.00  0.00    -0.200 F 
ATOM     77  C   UNL A   1      37.540  32.944  33.383  1.00  0.00     0.200 A 
ATOM     78  F   UNL A   1      36.578  30.809  33.143  1.00  0.00    -0.200 F 
ATOM     79  F   UNL A   1      36.386  33.520  33.012  1.00  0.00    -0.200 F 
ENDBRANCH  45  69
BRANCH  57  80
ATOM     80  C   UNL A   1      44.727  26.189  34.116  1.00  0.00     0.064 A 
ATOM     81  C   UNL A   1      43.966  25.081  34.537  1.00  0.00     0.173 A 
ATOM     82  C   UNL A   1      46.105  26.135  34.395  1.00  0.00     0.173 A 
ATOM     83  F   UNL A   1      42.677  24.939  34.193  1.00  0.00    -0.203 F 
ATOM     84  C   UNL A   1      44.521  24.054  35.290  1.00  0.00     0.198 A 
ATOM     85  C   UNL A   1      46.671  25.067  35.080  1.00  0.00     0.198 A 
ATOM     86  F   UNL A   1      46.947  27.095  33.983  1.00  0.00    -0.203 F 
ATOM     87  F   UNL A   1      43.735  23.065  35.735  1.00  0.00    -0.200 F 
ATOM     88  C   UNL A   1      45.874  24.043  35.555  1.00  0.00     0.200 A 
ATOM     89  F   UNL A   1      47.999  25.025  35.261  1.00  0.00    -0.200 F 
ATOM     90  F   UNL A   1      46.416  23.034  36.248  1.00  0.00    -0.200 F 
ENDBRANCH  57  80
ENDBRANCH  31  32
ENDBRANCH  24  26
ENDBRANCH  23  24
ENDBRANCH  22  23
ENDBRANCH  21  22
ENDBRANCH  20  21
ENDBRANCH   1  20
TORSDOF 17
ENDMDL
