MODEL 1
REMARK VINA RESULT:     -13.6      0.000      0.000
REMARK SMILES CC(=O)O[C@@H]1CC[C@@]23C(=O)O[C@]4(CC[C@]2(O)C1)[C@H]3CC[C@]1(C)[C@H](C(=O)OCCOCCOC(=O)c2ccc(-c3c5nc(c(-c6c(F)c(F)c(F)c(F)c6F)c6ccc([nH]6)c(-c6c(F)c(F)c(F)c(F)c6F)c6nc(c(-c7c(F)c(F)c(F)c(F)c7F)c7ccc3[nH]7)C=C6)C=C5)cc2)CC[C@@H]14
REMARK SMILES IDX 29 1 28 2 27 3 26 4 24 5 25 6 23 7 5 8 6 9 17 10 7 11 15 12
REMARK SMILES IDX 8 13 14 14 9 15 18 16 13 17 10 18 11 19 12 20 19 21 100 22
REMARK SMILES IDX 20 23 21 24 99 25 22 26 98 27 4 28 2 29 1 30 3 31 16 32
REMARK SMILES IDX 30 34 31 35 32 36 33 37 34 38 35 39 36 40 97 41 37 42 96 43
REMARK SMILES IDX 38 44 39 45 40 46 90 47 41 48 95 49 89 50 91 51 42 52 94 53
REMARK SMILES IDX 88 54 87 55 43 57 75 58 55 59 74 60 56 61 59 62 73 63 92 64
REMARK SMILES IDX 57 65 58 66 72 68 93 69 60 70 44 71 45 72 53 73 46 74 47 75
REMARK SMILES IDX 51 76 54 77 48 78 49 79 52 80 50 81 76 82 77 83 85 84 78 85
REMARK SMILES IDX 79 86 83 87 86 88 80 89 81 90 84 91 82 92 61 93 62 94 70 95
REMARK SMILES IDX 63 96 64 97 68 98 71 99 65 100 66 101 69 102 67 103
REMARK H PARENT 16 33 91 56 59 67
REMARK Flexibility Score: inf
ROOT
ATOM      1  O   UNL A   1      35.336  19.130  24.654  1.00  0.00    -0.374 OA
ENDROOT
BRANCH   1   2
ATOM      2  C   UNL A   1      33.952  19.026  24.972  1.00  0.00     0.202 C 
BRANCH   2   3
ATOM      3  C   UNL A   1      32.950  19.892  24.203  1.00  0.00     0.261 C 
BRANCH   3   4
ATOM      4  O   UNL A   1      31.812  20.265  24.994  1.00  0.00    -0.463 OA
BRANCH   4   5
ATOM      5  C   UNL A   1      31.768  21.573  25.341  1.00  0.00     0.309 C 
ATOM      6  O   UNL A   1      31.038  22.026  26.219  1.00  0.00    -0.252 OA
BRANCH   5   7
ATOM      7  C   UNL A   1      32.802  22.454  24.650  1.00  0.00     0.105 C 
ATOM      8  C   UNL A   1      32.274  30.084  26.882  1.00  0.00     0.179 C 
ATOM      9  C   UNL A   1      32.314  28.707  27.501  1.00  0.00     0.047 C 
ATOM     10  C   UNL A   1      31.465  30.066  25.584  1.00  0.00     0.081 C 
ATOM     11  C   UNL A   1      32.704  27.671  26.466  1.00  0.00     0.026 C 
ATOM     12  C   UNL A   1      31.755  28.929  24.575  1.00  0.00     0.085 C 
ATOM     13  C   UNL A   1      31.576  27.561  25.106  1.00  0.00     0.103 C 
ATOM     14  C   UNL A   1      33.255  28.790  24.016  1.00  0.00     0.041 C 
ATOM     15  C   UNL A   1      31.023  26.390  25.738  1.00  0.00     0.316 C 
ATOM     16  C   UNL A   1      31.752  26.604  23.674  1.00  0.00     0.054 C 
ATOM     17  C   UNL A   1      33.904  27.244  24.035  1.00  0.00     0.052 C 
ATOM     18  O   UNL A   1      30.056  26.193  26.433  1.00  0.00    -0.251 OA
ATOM     19  O   UNL A   1      32.138  25.556  25.502  1.00  0.00    -0.458 OA
ATOM     20  C   UNL A   1      32.908  25.978  24.285  1.00  0.00     0.120 C 
ATOM     21  C   UNL A   1      30.764  25.544  23.120  1.00  0.00     0.009 C 
ATOM     22  C   UNL A   1      33.536  24.686  23.831  1.00  0.00     0.040 C 
ATOM     23  C   UNL A   1      31.020  24.061  23.502  1.00  0.00     0.008 C 
ATOM     24  C   UNL A   1      32.499  23.551  23.550  1.00  0.00    -0.013 C 
ATOM     25  C   UNL A   1      34.428  24.166  24.984  1.00  0.00     0.009 C 
ATOM     26  C   UNL A   1      32.904  22.969  22.175  1.00  0.00     0.013 C 
ATOM     27  C   UNL A   1      33.569  23.182  25.752  1.00  0.00     0.016 C 
BRANCH   8  28
ATOM     28  O   UNL A   1      33.612  30.516  26.570  1.00  0.00    -0.462 OA
BRANCH  28  29
ATOM     29  C   UNL A   1      34.335  30.982  27.627  1.00  0.00     0.302 C 
ATOM     30  C   UNL A   1      35.626  30.231  27.741  1.00  0.00     0.139 C 
ATOM     31  O   UNL A   1      34.024  31.923  28.340  1.00  0.00    -0.253 OA
ENDBRANCH  28  29
ENDBRANCH   8  28
BRANCH  12  32
ATOM     32  O   UNL A   1      30.877  29.161  23.467  1.00  0.00    -0.389 OA
ATOM     33  H   UNL A   1      31.373  29.070  22.638  1.00  0.00     0.211 HD
ENDBRANCH  12  32
ENDBRANCH   5   7
ENDBRANCH   4   5
ENDBRANCH   3   4
ENDBRANCH   2   3
ENDBRANCH   1   2
BRANCH   1  34
ATOM     34  C   UNL A   1      36.034  20.323  25.002  1.00  0.00     0.202 C 
BRANCH  34  35
ATOM     35  C   UNL A   1      37.569  20.312  24.996  1.00  0.00     0.261 C 
BRANCH  35  36
ATOM     36  O   UNL A   1      38.156  21.541  25.454  1.00  0.00    -0.460 OA
BRANCH  36  37
ATOM     37  C   UNL A   1      39.314  21.372  26.136  1.00  0.00     0.338 C 
ATOM     38  O   UNL A   1      40.054  20.404  26.116  1.00  0.00    -0.246 OA
BRANCH  37  39
ATOM     39  C   UNL A   1      39.697  22.621  26.812  1.00  0.00     0.060 A 
ATOM     40  C   UNL A   1      39.051  23.794  26.402  1.00  0.00     0.016 A 
ATOM     41  C   UNL A   1      40.752  22.663  27.724  1.00  0.00     0.016 A 
ATOM     42  C   UNL A   1      39.501  25.027  26.856  1.00  0.00     0.010 A 
ATOM     43  C   UNL A   1      41.208  23.904  28.175  1.00  0.00     0.010 A 
ATOM     44  C   UNL A   1      40.613  25.090  27.705  1.00  0.00    -0.014 A 
BRANCH  44  45
ATOM     45  C   UNL A   1      41.240  26.405  27.964  1.00  0.00     0.031 A 
ATOM     46  C   UNL A   1      42.627  26.664  27.449  1.00  0.00     0.074 A 
ATOM     47  C   UNL A   1      40.557  27.366  28.606  1.00  0.00     0.049 A 
ATOM     48  N   UNL A   1      43.369  27.736  27.558  1.00  0.00    -0.248 NA
ATOM     49  C   UNL A   1      43.268  25.561  26.713  1.00  0.00     0.031 C 
ATOM     50  C   UNL A   1      39.195  27.231  29.115  1.00  0.00     0.029 A 
ATOM     51  N   UNL A   1      40.920  28.645  28.939  1.00  0.00    -0.354 N 
ATOM     52  C   UNL A   1      44.563  27.435  26.916  1.00  0.00     0.074 A 
ATOM     53  C   UNL A   1      44.462  26.069  26.450  1.00  0.00     0.031 C 
ATOM     54  C   UNL A   1      38.836  28.383  29.706  1.00  0.00     0.029 A 
ATOM     55  C   UNL A   1      39.957  29.321  29.642  1.00  0.00     0.049 A 
ATOM     56  H   UNL A   1      41.790  29.041  28.696  1.00  0.00     0.167 HD
ATOM     57  C   UNL A   1      45.641  28.232  26.727  1.00  0.00     0.037 A 
ATOM     58  C   UNL A   1      39.988  30.550  30.191  1.00  0.00     0.037 A 
ATOM     59  C   UNL A   1      45.728  29.591  27.193  1.00  0.00     0.049 A 
ATOM     60  C   UNL A   1      41.219  31.398  30.017  1.00  0.00     0.074 A 
ATOM     61  C   UNL A   1      46.758  30.498  27.029  1.00  0.00     0.029 A 
ATOM     62  N   UNL A   1      44.742  30.235  27.931  1.00  0.00    -0.354 N 
ATOM     63  N   UNL A   1      42.331  31.122  29.379  1.00  0.00    -0.248 NA
ATOM     64  C   UNL A   1      41.196  32.731  30.633  1.00  0.00     0.031 C 
ATOM     65  C   UNL A   1      46.425  31.667  27.721  1.00  0.00     0.029 A 
ATOM     66  C   UNL A   1      45.157  31.516  28.259  1.00  0.00     0.049 A 
ATOM     67  H   UNL A   1      43.876  29.839  28.183  1.00  0.00     0.167 HD
ATOM     68  C   UNL A   1      43.131  32.252  29.496  1.00  0.00     0.074 A 
ATOM     69  C   UNL A   1      42.367  33.223  30.252  1.00  0.00     0.031 C 
ATOM     70  C   UNL A   1      44.382  32.467  29.017  1.00  0.00     0.037 A 
BRANCH  57  71
ATOM     71  C   UNL A   1      46.826  27.639  26.018  1.00  0.00     0.064 A 
ATOM     72  C   UNL A   1      46.976  27.715  24.625  1.00  0.00     0.173 A 
ATOM     73  C   UNL A   1      47.836  26.993  26.749  1.00  0.00     0.173 A 
ATOM     74  F   UNL A   1      46.036  28.310  23.875  1.00  0.00    -0.203 F 
ATOM     75  C   UNL A   1      48.072  27.135  23.988  1.00  0.00     0.198 A 
ATOM     76  C   UNL A   1      48.946  26.444  26.112  1.00  0.00     0.198 A 
ATOM     77  F   UNL A   1      47.747  26.893  28.084  1.00  0.00    -0.203 F 
ATOM     78  F   UNL A   1      48.162  27.170  22.651  1.00  0.00    -0.200 F 
ATOM     79  C   UNL A   1      49.059  26.507  24.732  1.00  0.00     0.200 A 
ATOM     80  F   UNL A   1      49.904  25.849  26.835  1.00  0.00    -0.200 F 
ATOM     81  F   UNL A   1      50.112  25.952  24.119  1.00  0.00    -0.200 F 
ENDBRANCH  57  71
BRANCH  58  82
ATOM     82  C   UNL A   1      38.813  31.040  30.958  1.00  0.00     0.064 A 
ATOM     83  C   UNL A   1      37.816  31.810  30.345  1.00  0.00     0.173 A 
ATOM     84  C   UNL A   1      38.659  30.734  32.319  1.00  0.00     0.173 A 
ATOM     85  F   UNL A   1      37.931  32.147  29.052  1.00  0.00    -0.203 F 
ATOM     86  C   UNL A   1      36.713  32.263  31.066  1.00  0.00     0.198 A 
ATOM     87  C   UNL A   1      37.541  31.164  33.031  1.00  0.00     0.198 A 
ATOM     88  F   UNL A   1      39.587  30.002  32.952  1.00  0.00    -0.203 F 
ATOM     89  F   UNL A   1      35.793  33.031  30.466  1.00  0.00    -0.200 F 
ATOM     90  C   UNL A   1      36.573  31.933  32.406  1.00  0.00     0.200 A 
ATOM     91  F   UNL A   1      37.404  30.832  34.322  1.00  0.00    -0.200 F 
ATOM     92  F   UNL A   1      35.507  32.362  33.096  1.00  0.00    -0.200 F 
ENDBRANCH  58  82
BRANCH  70  93
ATOM     93  C   UNL A   1      44.993  33.817  29.272  1.00  0.00     0.064 A 
ATOM     94  C   UNL A   1      45.795  34.065  30.395  1.00  0.00     0.173 A 
ATOM     95  C   UNL A   1      44.808  34.863  28.354  1.00  0.00     0.173 A 
ATOM     96  F   UNL A   1      45.994  33.104  31.309  1.00  0.00    -0.203 F 
ATOM     97  C   UNL A   1      46.365  35.318  30.604  1.00  0.00     0.198 A 
ATOM     98  C   UNL A   1      45.407  36.104  28.548  1.00  0.00     0.198 A 
ATOM     99  F   UNL A   1      44.057  34.677  27.258  1.00  0.00    -0.203 F 
ATOM    100  F   UNL A   1      47.086  35.547  31.711  1.00  0.00    -0.200 F 
ATOM    101  C   UNL A   1      46.178  36.333  29.678  1.00  0.00     0.200 A 
ATOM    102  F   UNL A   1      45.240  37.077  27.643  1.00  0.00    -0.200 F 
ATOM    103  F   UNL A   1      46.735  37.535  29.877  1.00  0.00    -0.200 F 
ENDBRANCH  70  93
ENDBRANCH  44  45
ENDBRANCH  37  39
ENDBRANCH  36  37
ENDBRANCH  35  36
ENDBRANCH  34  35
ENDBRANCH   1  34
TORSDOF 17
ENDMDL
MODEL 2
REMARK VINA RESULT:     -13.5      3.727      9.619
REMARK SMILES CC(=O)O[C@@H]1CC[C@@]23C(=O)O[C@]4(CC[C@]2(O)C1)[C@H]3CC[C@]1(C)[C@H](C(=O)OCCOCCOC(=O)c2ccc(-c3c5nc(c(-c6c(F)c(F)c(F)c(F)c6F)c6ccc([nH]6)c(-c6c(F)c(F)c(F)c(F)c6F)c6nc(c(-c7c(F)c(F)c(F)c(F)c7F)c7ccc3[nH]7)C=C6)C=C5)cc2)CC[C@@H]14
REMARK SMILES IDX 29 1 28 2 27 3 26 4 24 5 25 6 23 7 5 8 6 9 17 10 7 11 15 12
REMARK SMILES IDX 8 13 14 14 9 15 18 16 13 17 10 18 11 19 12 20 19 21 100 22
REMARK SMILES IDX 20 23 21 24 99 25 22 26 98 27 4 28 2 29 1 30 3 31 16 32
REMARK SMILES IDX 30 34 31 35 32 36 33 37 34 38 35 39 36 40 97 41 37 42 96 43
REMARK SMILES IDX 38 44 39 45 40 46 90 47 41 48 95 49 89 50 91 51 42 52 94 53
REMARK SMILES IDX 88 54 87 55 43 57 75 58 55 59 74 60 56 61 59 62 73 63 92 64
REMARK SMILES IDX 57 65 58 66 72 68 93 69 60 70 44 71 45 72 53 73 46 74 47 75
REMARK SMILES IDX 51 76 54 77 48 78 49 79 52 80 50 81 76 82 77 83 85 84 78 85
REMARK SMILES IDX 79 86 83 87 86 88 80 89 81 90 84 91 82 92 61 93 62 94 70 95
REMARK SMILES IDX 63 96 64 97 68 98 71 99 65 100 66 101 69 102 67 103
REMARK H PARENT 16 33 91 56 59 67
REMARK Flexibility Score: inf
ROOT
ATOM      1  O   UNL A   1      30.268  30.895  24.407  1.00  0.00    -0.374 OA
ENDROOT
BRANCH   1   2
ATOM      2  C   UNL A   1      29.544  30.080  23.491  1.00  0.00     0.202 C 
BRANCH   2   3
ATOM      3  C   UNL A   1      30.303  29.398  22.348  1.00  0.00     0.261 C 
BRANCH   3   4
ATOM      4  O   UNL A   1      30.031  27.992  22.258  1.00  0.00    -0.463 OA
BRANCH   4   5
ATOM      5  C   UNL A   1      31.107  27.194  22.457  1.00  0.00     0.309 C 
ATOM      6  O   UNL A   1      31.857  26.815  21.561  1.00  0.00    -0.252 OA
BRANCH   5   7
ATOM      7  C   UNL A   1      31.419  26.893  23.919  1.00  0.00     0.105 C 
ATOM      8  C   UNL A   1      37.265  21.542  24.740  1.00  0.00     0.179 C 
ATOM      9  C   UNL A   1      36.965  22.806  23.969  1.00  0.00     0.047 C 
ATOM     10  C   UNL A   1      36.009  20.677  24.859  1.00  0.00     0.081 C 
ATOM     11  C   UNL A   1      35.720  23.478  24.514  1.00  0.00     0.026 C 
ATOM     12  C   UNL A   1      34.695  21.375  25.281  1.00  0.00     0.085 C 
ATOM     13  C   UNL A   1      34.262  22.480  24.398  1.00  0.00     0.103 C 
ATOM     14  C   UNL A   1      34.679  22.154  26.687  1.00  0.00     0.041 C 
ATOM     15  C   UNL A   1      33.898  23.255  23.239  1.00  0.00     0.316 C 
ATOM     16  C   UNL A   1      32.693  22.841  25.033  1.00  0.00     0.054 C 
ATOM     17  C   UNL A   1      34.027  23.698  26.662  1.00  0.00     0.052 C 
ATOM     18  O   UNL A   1      33.999  23.078  22.050  1.00  0.00    -0.251 OA
ATOM     19  O   UNL A   1      33.608  24.444  23.945  1.00  0.00    -0.458 OA
ATOM     20  C   UNL A   1      33.175  24.170  25.355  1.00  0.00     0.120 C 
ATOM     21  C   UNL A   1      31.352  22.902  24.255  1.00  0.00     0.009 C 
ATOM     22  C   UNL A   1      32.303  25.357  25.666  1.00  0.00     0.040 C 
ATOM     23  C   UNL A   1      30.883  24.293  23.748  1.00  0.00     0.008 C 
ATOM     24  C   UNL A   1      31.110  25.536  24.672  1.00  0.00    -0.013 C 
ATOM     25  C   UNL A   1      33.170  26.631  25.516  1.00  0.00     0.009 C 
ATOM     26  C   UNL A   1      29.870  25.762  25.570  1.00  0.00     0.013 C 
ATOM     27  C   UNL A   1      32.914  27.134  24.110  1.00  0.00     0.016 C 
BRANCH   8  28
ATOM     28  O   UNL A   1      37.708  21.875  26.069  1.00  0.00    -0.462 OA
BRANCH  28  29
ATOM     29  C   UNL A   1      39.021  22.220  26.175  1.00  0.00     0.302 C 
ATOM     30  C   UNL A   1      39.148  23.626  26.678  1.00  0.00     0.139 C 
ATOM     31  O   UNL A   1      39.969  21.478  25.968  1.00  0.00    -0.253 OA
ENDBRANCH  28  29
ENDBRANCH   8  28
BRANCH  12  32
ATOM     32  O   UNL A   1      33.703  20.343  25.323  1.00  0.00    -0.389 OA
ATOM     33  H   UNL A   1      33.927  19.708  26.022  1.00  0.00     0.211 HD
ENDBRANCH  12  32
ENDBRANCH   5   7
ENDBRANCH   4   5
ENDBRANCH   3   4
ENDBRANCH   2   3
ENDBRANCH   1   2
BRANCH   1  34
ATOM     34  C   UNL A   1      31.244  30.285  25.247  1.00  0.00     0.202 C 
BRANCH  34  35
ATOM     35  C   UNL A   1      31.677  31.012  26.529  1.00  0.00     0.261 C 
BRANCH  35  36
ATOM     36  O   UNL A   1      32.981  30.631  26.994  1.00  0.00    -0.460 OA
BRANCH  36  37
ATOM     37  C   UNL A   1      33.702  31.660  27.502  1.00  0.00     0.338 C 
ATOM     38  O   UNL A   1      33.303  32.773  27.797  1.00  0.00    -0.246 OA
BRANCH  37  39
ATOM     39  C   UNL A   1      35.062  31.215  27.839  1.00  0.00     0.060 A 
ATOM     40  C   UNL A   1      35.246  29.847  28.082  1.00  0.00     0.016 A 
ATOM     41  C   UNL A   1      36.099  32.126  28.044  1.00  0.00     0.016 A 
ATOM     42  C   UNL A   1      36.454  29.391  28.594  1.00  0.00     0.010 A 
ATOM     43  C   UNL A   1      37.310  31.667  28.566  1.00  0.00     0.010 A 
ATOM     44  C   UNL A   1      37.474  30.306  28.884  1.00  0.00    -0.014 A 
BRANCH  44  45
ATOM     45  C   UNL A   1      38.640  29.848  29.670  1.00  0.00     0.031 A 
ATOM     46  C   UNL A   1      38.830  30.370  31.065  1.00  0.00     0.074 A 
ATOM     47  C   UNL A   1      39.488  28.940  29.157  1.00  0.00     0.049 A 
ATOM     48  N   UNL A   1      39.775  30.108  31.932  1.00  0.00    -0.248 NA
ATOM     49  C   UNL A   1      37.816  31.322  31.550  1.00  0.00     0.031 C 
ATOM     50  C   UNL A   1      39.376  28.343  27.829  1.00  0.00     0.029 A 
ATOM     51  N   UNL A   1      40.609  28.366  29.696  1.00  0.00    -0.354 N 
ATOM     52  C   UNL A   1      39.477  30.867  33.055  1.00  0.00     0.074 A 
ATOM     53  C   UNL A   1      38.283  31.626  32.751  1.00  0.00     0.031 C 
ATOM     54  C   UNL A   1      40.396  27.488  27.650  1.00  0.00     0.029 A 
ATOM     55  C   UNL A   1      41.246  27.505  28.840  1.00  0.00     0.049 A 
ATOM     56  H   UNL A   1      40.927  28.553  30.610  1.00  0.00     0.167 HD
ATOM     57  C   UNL A   1      40.137  30.917  34.237  1.00  0.00     0.037 A 
ATOM     58  C   UNL A   1      42.399  26.825  28.994  1.00  0.00     0.037 A 
ATOM     59  C   UNL A   1      41.323  30.154  34.527  1.00  0.00     0.049 A 
ATOM     60  C   UNL A   1      43.146  26.940  30.295  1.00  0.00     0.074 A 
ATOM     61  C   UNL A   1      42.053  30.103  35.701  1.00  0.00     0.029 A 
ATOM     62  N   UNL A   1      41.959  29.313  33.623  1.00  0.00    -0.354 N 
ATOM     63  N   UNL A   1      42.842  27.631  31.368  1.00  0.00    -0.248 NA
ATOM     64  C   UNL A   1      44.395  26.175  30.410  1.00  0.00     0.031 C 
ATOM     65  C   UNL A   1      43.166  29.284  35.487  1.00  0.00     0.029 A 
ATOM     66  C   UNL A   1      43.095  28.768  34.203  1.00  0.00     0.049 A 
ATOM     67  H   UNL A   1      41.650  29.131  32.707  1.00  0.00     0.167 HD
ATOM     68  C   UNL A   1      43.844  27.367  32.292  1.00  0.00     0.074 A 
ATOM     69  C   UNL A   1      44.758  26.438  31.658  1.00  0.00     0.031 C 
ATOM     70  C   UNL A   1      43.994  27.847  33.552  1.00  0.00     0.037 A 
BRANCH  57  71
ATOM     71  C   UNL A   1      39.612  31.856  35.286  1.00  0.00     0.064 A 
ATOM     72  C   UNL A   1      38.674  31.450  36.247  1.00  0.00     0.173 A 
ATOM     73  C   UNL A   1      40.065  33.184  35.335  1.00  0.00     0.173 A 
ATOM     74  F   UNL A   1      38.197  30.196  36.239  1.00  0.00    -0.203 F 
ATOM     75  C   UNL A   1      38.183  32.347  37.195  1.00  0.00     0.198 A 
ATOM     76  C   UNL A   1      39.597  34.068  36.304  1.00  0.00     0.198 A 
ATOM     77  F   UNL A   1      40.964  33.626  34.443  1.00  0.00    -0.203 F 
ATOM     78  F   UNL A   1      37.245  31.951  38.065  1.00  0.00    -0.200 F 
ATOM     79  C   UNL A   1      38.650  33.652  37.227  1.00  0.00     0.200 A 
ATOM     80  F   UNL A   1      40.060  35.325  36.341  1.00  0.00    -0.200 F 
ATOM     81  F   UNL A   1      38.179  34.512  38.139  1.00  0.00    -0.200 F 
ENDBRANCH  57  71
BRANCH  58  82
ATOM     82  C   UNL A   1      42.908  25.984  27.880  1.00  0.00     0.064 A 
ATOM     83  C   UNL A   1      43.727  26.523  26.879  1.00  0.00     0.173 A 
ATOM     84  C   UNL A   1      42.595  24.618  27.804  1.00  0.00     0.173 A 
ATOM     85  F   UNL A   1      44.033  27.828  26.896  1.00  0.00    -0.203 F 
ATOM     86  C   UNL A   1      44.206  25.730  25.839  1.00  0.00     0.198 A 
ATOM     87  C   UNL A   1      43.100  23.820  26.779  1.00  0.00     0.198 A 
ATOM     88  F   UNL A   1      41.814  24.055  28.738  1.00  0.00    -0.203 F 
ATOM     89  F   UNL A   1      44.955  26.279  24.872  1.00  0.00    -0.200 F 
ATOM     90  C   UNL A   1      43.899  24.378  25.795  1.00  0.00     0.200 A 
ATOM     91  F   UNL A   1      42.811  22.512  26.748  1.00  0.00    -0.200 F 
ATOM     92  F   UNL A   1      44.369  23.615  24.798  1.00  0.00    -0.200 F 
ENDBRANCH  58  82
BRANCH  70  93
ATOM     93  C   UNL A   1      45.174  27.352  34.341  1.00  0.00     0.064 A 
ATOM     94  C   UNL A   1      45.109  26.181  35.111  1.00  0.00     0.173 A 
ATOM     95  C   UNL A   1      46.398  28.035  34.288  1.00  0.00     0.173 A 
ATOM     96  F   UNL A   1      43.959  25.498  35.206  1.00  0.00    -0.203 F 
ATOM     97  C   UNL A   1      46.219  25.731  35.822  1.00  0.00     0.198 A 
ATOM     98  C   UNL A   1      47.515  27.563  34.972  1.00  0.00     0.198 A 
ATOM     99  F   UNL A   1      46.518  29.156  33.559  1.00  0.00    -0.203 F 
ATOM    100  F   UNL A   1      46.119  24.639  36.593  1.00  0.00    -0.200 F 
ATOM    101  C   UNL A   1      47.422  26.416  35.746  1.00  0.00     0.200 A 
ATOM    102  F   UNL A   1      48.681  28.217  34.882  1.00  0.00    -0.200 F 
ATOM    103  F   UNL A   1      48.490  25.975  36.423  1.00  0.00    -0.200 F 
ENDBRANCH  70  93
ENDBRANCH  44  45
ENDBRANCH  37  39
ENDBRANCH  36  37
ENDBRANCH  35  36
ENDBRANCH  34  35
ENDBRANCH   1  34
TORSDOF 17
ENDMDL
MODEL 3
REMARK VINA RESULT:     -13.5      3.740      7.422
REMARK SMILES CC(=O)O[C@@H]1CC[C@@]23C(=O)O[C@]4(CC[C@]2(O)C1)[C@H]3CC[C@]1(C)[C@H](C(=O)OCCOCCOC(=O)c2ccc(-c3c5nc(c(-c6c(F)c(F)c(F)c(F)c6F)c6ccc([nH]6)c(-c6c(F)c(F)c(F)c(F)c6F)c6nc(c(-c7c(F)c(F)c(F)c(F)c7F)c7ccc3[nH]7)C=C6)C=C5)cc2)CC[C@@H]14
REMARK SMILES IDX 29 1 28 2 27 3 26 4 24 5 25 6 23 7 5 8 6 9 17 10 7 11 15 12
REMARK SMILES IDX 8 13 14 14 9 15 18 16 13 17 10 18 11 19 12 20 19 21 100 22
REMARK SMILES IDX 20 23 21 24 99 25 22 26 98 27 4 28 2 29 1 30 3 31 16 32
REMARK SMILES IDX 30 34 31 35 32 36 33 37 34 38 35 39 36 40 97 41 37 42 96 43
REMARK SMILES IDX 38 44 39 45 40 46 90 47 41 48 95 49 89 50 91 51 42 52 94 53
REMARK SMILES IDX 88 54 87 55 43 57 75 58 55 59 74 60 56 61 59 62 73 63 92 64
REMARK SMILES IDX 57 65 58 66 72 68 93 69 60 70 44 71 45 72 53 73 46 74 47 75
REMARK SMILES IDX 51 76 54 77 48 78 49 79 52 80 50 81 76 82 77 83 85 84 78 85
REMARK SMILES IDX 79 86 83 87 86 88 80 89 81 90 84 91 82 92 61 93 62 94 70 95
REMARK SMILES IDX 63 96 64 97 68 98 71 99 65 100 66 101 69 102 67 103
REMARK H PARENT 16 33 91 56 59 67
REMARK Flexibility Score: inf
ROOT
ATOM      1  O   UNL A   1      29.955  30.820  24.339  1.00  0.00    -0.374 OA
ENDROOT
BRANCH   1   2
ATOM      2  C   UNL A   1      29.386  30.149  23.220  1.00  0.00     0.202 C 
BRANCH   2   3
ATOM      3  C   UNL A   1      29.506  28.624  23.132  1.00  0.00     0.261 C 
BRANCH   3   4
ATOM      4  O   UNL A   1      30.272  28.189  21.999  1.00  0.00    -0.463 OA
BRANCH   4   5
ATOM      5  C   UNL A   1      31.081  27.128  22.235  1.00  0.00     0.309 C 
ATOM      6  O   UNL A   1      31.630  26.474  21.353  1.00  0.00    -0.252 OA
BRANCH   5   7
ATOM      7  C   UNL A   1      31.383  26.869  23.707  1.00  0.00     0.105 C 
ATOM      8  C   UNL A   1      37.134  21.448  24.718  1.00  0.00     0.179 C 
ATOM      9  C   UNL A   1      36.858  22.692  23.906  1.00  0.00     0.047 C 
ATOM     10  C   UNL A   1      35.863  20.609  24.861  1.00  0.00     0.081 C 
ATOM     11  C   UNL A   1      35.624  23.402  24.425  1.00  0.00     0.026 C 
ATOM     12  C   UNL A   1      34.560  21.343  25.256  1.00  0.00     0.085 C 
ATOM     13  C   UNL A   1      34.149  22.426  24.336  1.00  0.00     0.103 C 
ATOM     14  C   UNL A   1      34.554  22.166  26.636  1.00  0.00     0.041 C 
ATOM     15  C   UNL A   1      33.801  23.170  23.152  1.00  0.00     0.316 C 
ATOM     16  C   UNL A   1      32.585  22.834  24.954  1.00  0.00     0.054 C 
ATOM     17  C   UNL A   1      33.929  23.720  26.560  1.00  0.00     0.052 C 
ATOM     18  O   UNL A   1      33.902  22.953  21.970  1.00  0.00    -0.251 OA
ATOM     19  O   UNL A   1      33.530  24.385  23.818  1.00  0.00    -0.458 OA
ATOM     20  C   UNL A   1      33.088  24.164  25.235  1.00  0.00     0.120 C 
ATOM     21  C   UNL A   1      31.246  22.893  24.170  1.00  0.00     0.009 C 
ATOM     22  C   UNL A   1      32.236  25.376  25.505  1.00  0.00     0.040 C 
ATOM     23  C   UNL A   1      30.803  24.275  23.617  1.00  0.00     0.008 C 
ATOM     24  C   UNL A   1      31.049  25.543  24.502  1.00  0.00    -0.013 C 
ATOM     25  C   UNL A   1      33.125  26.629  25.317  1.00  0.00     0.009 C 
ATOM     26  C   UNL A   1      29.811  25.819  25.388  1.00  0.00     0.013 C 
ATOM     27  C   UNL A   1      32.882  27.091  23.895  1.00  0.00     0.016 C 
BRANCH   8  28
ATOM     28  O   UNL A   1      37.579  21.816  26.037  1.00  0.00    -0.462 OA
BRANCH  28  29
ATOM     29  C   UNL A   1      38.882  22.202  26.125  1.00  0.00     0.302 C 
ATOM     30  C   UNL A   1      38.969  23.637  26.548  1.00  0.00     0.139 C 
ATOM     31  O   UNL A   1      39.850  21.476  25.961  1.00  0.00    -0.253 OA
ENDBRANCH  28  29
ENDBRANCH   8  28
BRANCH  12  32
ATOM     32  O   UNL A   1      33.550  20.329  25.327  1.00  0.00    -0.389 OA
ATOM     33  H   UNL A   1      33.959  19.457  25.214  1.00  0.00     0.211 HD
ENDBRANCH  12  32
ENDBRANCH   5   7
ENDBRANCH   4   5
ENDBRANCH   3   4
ENDBRANCH   2   3
ENDBRANCH   1   2
BRANCH   1  34
ATOM     34  C   UNL A   1      31.102  30.256  24.968  1.00  0.00     0.202 C 
BRANCH  34  35
ATOM     35  C   UNL A   1      31.564  30.828  26.317  1.00  0.00     0.261 C 
BRANCH  35  36
ATOM     36  O   UNL A   1      32.968  30.656  26.565  1.00  0.00    -0.460 OA
BRANCH  36  37
ATOM     37  C   UNL A   1      33.527  31.671  27.267  1.00  0.00     0.338 C 
ATOM     38  O   UNL A   1      32.996  32.708  27.626  1.00  0.00    -0.246 OA
BRANCH  37  39
ATOM     39  C   UNL A   1      34.873  31.295  27.727  1.00  0.00     0.060 A 
ATOM     40  C   UNL A   1      35.096  29.942  28.013  1.00  0.00     0.016 A 
ATOM     41  C   UNL A   1      35.845  32.257  28.001  1.00  0.00     0.016 A 
ATOM     42  C   UNL A   1      36.275  29.551  28.634  1.00  0.00     0.010 A 
ATOM     43  C   UNL A   1      37.028  31.863  28.633  1.00  0.00     0.010 A 
ATOM     44  C   UNL A   1      37.224  30.517  28.991  1.00  0.00    -0.014 A 
BRANCH  44  45
ATOM     45  C   UNL A   1      38.339  30.126  29.882  1.00  0.00     0.031 A 
ATOM     46  C   UNL A   1      39.389  29.184  29.364  1.00  0.00     0.074 A 
ATOM     47  C   UNL A   1      38.435  30.648  31.116  1.00  0.00     0.049 A 
ATOM     48  N   UNL A   1      40.449  28.707  29.965  1.00  0.00    -0.248 NA
ATOM     49  C   UNL A   1      39.218  28.711  27.981  1.00  0.00     0.031 C 
ATOM     50  C   UNL A   1      37.491  31.596  31.702  1.00  0.00     0.029 A 
ATOM     51  N   UNL A   1      39.372  30.449  32.096  1.00  0.00    -0.354 N 
ATOM     52  C   UNL A   1      41.063  27.873  29.040  1.00  0.00     0.074 A 
ATOM     53  C   UNL A   1      40.241  27.881  27.849  1.00  0.00     0.031 C 
ATOM     54  C   UNL A   1      37.894  31.894  32.949  1.00  0.00     0.029 A 
ATOM     55  C   UNL A   1      39.104  31.131  33.254  1.00  0.00     0.049 A 
ATOM     56  H   UNL A   1      40.163  29.872  31.979  1.00  0.00     0.167 HD
ATOM     57  C   UNL A   1      42.214  27.173  29.173  1.00  0.00     0.037 A 
ATOM     58  C   UNL A   1      39.751  31.121  34.435  1.00  0.00     0.037 A 
ATOM     59  C   UNL A   1      43.025  27.177  30.362  1.00  0.00     0.049 A 
ATOM     60  C   UNL A   1      40.998  30.290  34.577  1.00  0.00     0.074 A 
ATOM     61  C   UNL A   1      44.225  26.531  30.593  1.00  0.00     0.029 A 
ATOM     62  N   UNL A   1      42.705  27.857  31.531  1.00  0.00    -0.354 N 
ATOM     63  N   UNL A   1      41.595  29.532  33.689  1.00  0.00    -0.248 NA
ATOM     64  C   UNL A   1      41.666  30.319  35.885  1.00  0.00     0.031 C 
ATOM     65  C   UNL A   1      44.599  26.766  31.920  1.00  0.00     0.029 A 
ATOM     66  C   UNL A   1      43.669  27.615  32.498  1.00  0.00     0.049 A 
ATOM     67  H   UNL A   1      41.912  28.427  31.654  1.00  0.00     0.167 HD
ATOM     68  C   UNL A   1      42.718  29.013  34.319  1.00  0.00     0.074 A 
ATOM     69  C   UNL A   1      42.728  29.558  35.662  1.00  0.00     0.031 C 
ATOM     70  C   UNL A   1      43.658  28.165  33.831  1.00  0.00     0.037 A 
BRANCH  57  71
ATOM     71  C   UNL A   1      42.642  26.317  28.014  1.00  0.00     0.064 A 
ATOM     72  C   UNL A   1      42.213  24.988  27.871  1.00  0.00     0.173 A 
ATOM     73  C   UNL A   1      43.487  26.841  27.023  1.00  0.00     0.173 A 
ATOM     74  F   UNL A   1      41.415  24.433  28.796  1.00  0.00    -0.203 F 
ATOM     75  C   UNL A   1      42.643  24.206  26.801  1.00  0.00     0.198 A 
ATOM     76  C   UNL A   1      43.888  26.066  25.937  1.00  0.00     0.198 A 
ATOM     77  F   UNL A   1      43.925  28.106  27.106  1.00  0.00    -0.203 F 
ATOM     78  F   UNL A   1      42.267  22.923  26.719  1.00  0.00    -0.200 F 
ATOM     79  C   UNL A   1      43.474  24.747  25.832  1.00  0.00     0.200 A 
ATOM     80  F   UNL A   1      44.680  26.596  24.995  1.00  0.00    -0.200 F 
ATOM     81  F   UNL A   1      43.885  23.995  24.803  1.00  0.00    -0.200 F 
ENDBRANCH  57  71
BRANCH  58  82
ATOM     82  C   UNL A   1      39.222  31.923  35.568  1.00  0.00     0.064 A 
ATOM     83  C   UNL A   1      38.367  31.356  36.522  1.00  0.00     0.173 A 
ATOM     84  C   UNL A   1      39.574  33.272  35.726  1.00  0.00     0.173 A 
ATOM     85  F   UNL A   1      37.983  30.076  36.400  1.00  0.00    -0.203 F 
ATOM     86  C   UNL A   1      37.875  32.109  37.585  1.00  0.00     0.198 A 
ATOM     87  C   UNL A   1      39.105  34.017  36.807  1.00  0.00     0.198 A 
ATOM     88  F   UNL A   1      40.388  33.862  34.839  1.00  0.00    -0.203 F 
ATOM     89  F   UNL A   1      37.027  31.554  38.462  1.00  0.00    -0.200 F 
ATOM     90  C   UNL A   1      38.252  33.437  37.731  1.00  0.00     0.200 A 
ATOM     91  F   UNL A   1      39.481  35.295  36.950  1.00  0.00    -0.200 F 
ATOM     92  F   UNL A   1      37.786  34.158  38.761  1.00  0.00    -0.200 F 
ENDBRANCH  58  82
BRANCH  70  93
ATOM     93  C   UNL A   1      44.794  27.798  34.744  1.00  0.00     0.064 A 
ATOM     94  C   UNL A   1      44.749  26.657  35.557  1.00  0.00     0.173 A 
ATOM     95  C   UNL A   1      45.962  28.576  34.771  1.00  0.00     0.173 A 
ATOM     96  F   UNL A   1      43.652  25.886  35.579  1.00  0.00    -0.203 F 
ATOM     97  C   UNL A   1      45.819  26.325  36.384  1.00  0.00     0.198 A 
ATOM     98  C   UNL A   1      47.043  28.223  35.573  1.00  0.00     0.198 A 
ATOM     99  F   UNL A   1      46.062  29.674  34.005  1.00  0.00    -0.203 F 
ATOM    100  F   UNL A   1      45.733  25.258  37.192  1.00  0.00    -0.200 F 
ATOM    101  C   UNL A   1      46.968  27.102  36.386  1.00  0.00     0.200 A 
ATOM    102  F   UNL A   1      48.158  28.966  35.558  1.00  0.00    -0.200 F 
ATOM    103  F   UNL A   1      47.999  26.776  37.176  1.00  0.00    -0.200 F 
ENDBRANCH  70  93
ENDBRANCH  44  45
ENDBRANCH  37  39
ENDBRANCH  36  37
ENDBRANCH  35  36
ENDBRANCH  34  35
ENDBRANCH   1  34
TORSDOF 17
ENDMDL
