MODEL 1
REMARK VINA RESULT:     -12.0      0.000      0.000
REMARK SMILES O=C(OCCOCCOC(=O)[C@@H]1CCCN(C(=O)c2ccc3ncsc3c2)C1)c1ccc(-c2c3nc(c(-c4c(F)c(F)c(F)c(F)c4F)c4ccc([nH]4)c(-c4c(F)c(F)c(F)c(F)c4F)c4nc(c(-c5c(F)c(F)c(F)c(F)c5F)c5ccc2[nH]5)C=C4)C=C3)cc1
REMARK SMILES IDX 6 1 5 2 4 3 3 4 2 5 1 6 29 7 30 8 91 9 31 10 90 11 32 12
REMARK SMILES IDX 33 13 34 14 84 15 35 16 89 17 83 18 85 19 36 20 88 21 82 22
REMARK SMILES IDX 81 23 37 25 69 26 49 27 68 28 50 29 53 30 67 31 86 32 51 33
REMARK SMILES IDX 52 34 66 36 87 37 54 38 38 39 39 40 47 41 40 42 41 43 45 44
REMARK SMILES IDX 48 45 42 46 43 47 46 48 44 49 70 50 71 51 79 52 72 53 73 54
REMARK SMILES IDX 77 55 80 56 74 57 75 58 78 59 76 60 55 61 56 62 64 63 57 64
REMARK SMILES IDX 58 65 62 66 65 67 59 68 60 69 63 70 61 71 7 72 8 73 9 74
REMARK SMILES IDX 10 75 11 76 12 77 13 78 28 79 14 80 16 81 15 82 17 83 18 84
REMARK SMILES IDX 19 85 20 86 27 87 21 88 26 89 22 90 25 91 23 92 24 93
REMARK H PARENT 85 24 53 35
REMARK Flexibility Score: inf
ROOT
ATOM      1  O   UNL A   1      31.358  27.339  27.317  1.00  0.00    -0.374 OA
ENDROOT
BRANCH   1   2
ATOM      2  C   UNL A   1      32.016  28.581  27.546  1.00  0.00     0.202 C 
BRANCH   2   3
ATOM      3  C   UNL A   1      31.754  29.687  26.517  1.00  0.00     0.261 C 
BRANCH   3   4
ATOM      4  O   UNL A   1      32.950  30.447  26.262  1.00  0.00    -0.460 OA
BRANCH   4   5
ATOM      5  C   UNL A   1      33.566  31.302  27.116  1.00  0.00     0.338 C 
ATOM      6  O   UNL A   1      33.047  32.379  27.390  1.00  0.00    -0.246 OA
BRANCH   5   7
ATOM      7  C   UNL A   1      34.834  30.931  27.797  1.00  0.00     0.060 A 
ATOM      8  C   UNL A   1      35.161  29.619  28.114  1.00  0.00     0.016 A 
ATOM      9  C   UNL A   1      35.762  31.934  28.101  1.00  0.00     0.016 A 
ATOM     10  C   UNL A   1      36.275  29.303  28.849  1.00  0.00     0.010 A 
ATOM     11  C   UNL A   1      36.953  31.613  28.764  1.00  0.00     0.010 A 
ATOM     12  C   UNL A   1      37.191  30.292  29.168  1.00  0.00    -0.014 A 
BRANCH  12  13
ATOM     13  C   UNL A   1      38.298  29.883  30.044  1.00  0.00     0.031 A 
ATOM     14  C   UNL A   1      39.420  29.103  29.439  1.00  0.00     0.074 A 
ATOM     15  C   UNL A   1      38.395  30.422  31.274  1.00  0.00     0.049 A 
ATOM     16  N   UNL A   1      40.486  28.608  30.005  1.00  0.00    -0.248 NA
ATOM     17  C   UNL A   1      39.348  28.868  27.986  1.00  0.00     0.031 C 
ATOM     18  C   UNL A   1      37.446  31.379  31.855  1.00  0.00     0.029 A 
ATOM     19  N   UNL A   1      39.373  30.311  32.224  1.00  0.00    -0.354 N 
ATOM     20  C   UNL A   1      41.163  27.935  28.999  1.00  0.00     0.074 A 
ATOM     21  C   UNL A   1      40.417  28.119  27.776  1.00  0.00     0.031 C 
ATOM     22  C   UNL A   1      37.923  31.817  33.028  1.00  0.00     0.029 A 
ATOM     23  C   UNL A   1      39.141  31.083  33.337  1.00  0.00     0.049 A 
ATOM     24  H   UNL A   1      40.164  29.736  32.121  1.00  0.00     0.167 HD
ATOM     25  C   UNL A   1      42.295  27.206  29.115  1.00  0.00     0.037 A 
ATOM     26  C   UNL A   1      39.822  31.140  34.496  1.00  0.00     0.037 A 
ATOM     27  C   UNL A   1      43.016  27.081  30.352  1.00  0.00     0.049 A 
ATOM     28  C   UNL A   1      41.022  30.243  34.630  1.00  0.00     0.074 A 
ATOM     29  C   UNL A   1      44.127  26.312  30.637  1.00  0.00     0.029 A 
ATOM     30  N   UNL A   1      42.687  27.763  31.519  1.00  0.00    -0.354 N 
ATOM     31  N   UNL A   1      41.590  29.481  33.724  1.00  0.00    -0.248 NA
ATOM     32  C   UNL A   1      41.655  30.186  35.950  1.00  0.00     0.031 C 
ATOM     33  C   UNL A   1      44.442  26.496  31.989  1.00  0.00     0.029 A 
ATOM     34  C   UNL A   1      43.568  27.428  32.529  1.00  0.00     0.049 A 
ATOM     35  H   UNL A   1      41.935  28.393  31.611  1.00  0.00     0.167 HD
ATOM     36  C   UNL A   1      42.660  28.868  34.358  1.00  0.00     0.074 A 
ATOM     37  C   UNL A   1      42.672  29.367  35.720  1.00  0.00     0.031 C 
ATOM     38  C   UNL A   1      43.550  27.969  33.866  1.00  0.00     0.037 A 
BRANCH  25  39
ATOM     39  C   UNL A   1      42.723  26.415  27.915  1.00  0.00     0.064 A 
ATOM     40  C   UNL A   1      43.656  26.897  26.986  1.00  0.00     0.173 A 
ATOM     41  C   UNL A   1      42.131  25.167  27.662  1.00  0.00     0.173 A 
ATOM     42  F   UNL A   1      44.222  28.100  27.162  1.00  0.00    -0.203 F 
ATOM     43  C   UNL A   1      43.954  26.175  25.831  1.00  0.00     0.198 A 
ATOM     44  C   UNL A   1      42.454  24.435  26.523  1.00  0.00     0.198 A 
ATOM     45  F   UNL A   1      41.222  24.665  28.511  1.00  0.00    -0.203 F 
ATOM     46  F   UNL A   1      44.794  26.688  24.920  1.00  0.00    -0.200 F 
ATOM     47  C   UNL A   1      43.356  24.944  25.602  1.00  0.00     0.200 A 
ATOM     48  F   UNL A   1      41.874  23.246  26.307  1.00  0.00    -0.200 F 
ATOM     49  F   UNL A   1      43.634  24.258  24.486  1.00  0.00    -0.200 F 
ENDBRANCH  25  39
BRANCH  26  50
ATOM     50  C   UNL A   1      39.345  31.992  35.620  1.00  0.00     0.064 A 
ATOM     51  C   UNL A   1      38.460  31.496  36.587  1.00  0.00     0.173 A 
ATOM     52  C   UNL A   1      39.742  33.334  35.736  1.00  0.00     0.173 A 
ATOM     53  F   UNL A   1      38.027  30.229  36.511  1.00  0.00    -0.203 F 
ATOM     54  C   UNL A   1      37.977  32.312  37.611  1.00  0.00     0.198 A 
ATOM     55  C   UNL A   1      39.290  34.138  36.781  1.00  0.00     0.198 A 
ATOM     56  F   UNL A   1      40.578  33.871  34.836  1.00  0.00    -0.203 F 
ATOM     57  F   UNL A   1      37.087  31.828  38.486  1.00  0.00    -0.200 F 
ATOM     58  C   UNL A   1      38.397  33.630  37.711  1.00  0.00     0.200 A 
ATOM     59  F   UNL A   1      39.710  35.406  36.878  1.00  0.00    -0.200 F 
ATOM     60  F   UNL A   1      37.932  34.414  38.693  1.00  0.00    -0.200 F 
ENDBRANCH  26  50
BRANCH  38  61
ATOM     61  C   UNL A   1      44.640  27.529  34.796  1.00  0.00     0.064 A 
ATOM     62  C   UNL A   1      45.845  28.234  34.909  1.00  0.00     0.173 A 
ATOM     63  C   UNL A   1      44.450  26.402  35.609  1.00  0.00     0.173 A 
ATOM     64  F   UNL A   1      46.076  29.309  34.140  1.00  0.00    -0.203 F 
ATOM     65  C   UNL A   1      46.840  27.806  35.783  1.00  0.00     0.198 A 
ATOM     66  C   UNL A   1      45.432  25.999  36.507  1.00  0.00     0.198 A 
ATOM     67  F   UNL A   1      43.309  25.701  35.539  1.00  0.00    -0.203 F 
ATOM     68  F   UNL A   1      48.007  28.460  35.837  1.00  0.00    -0.200 F 
ATOM     69  C   UNL A   1      46.628  26.695  36.587  1.00  0.00     0.200 A 
ATOM     70  F   UNL A   1      45.218  24.935  37.295  1.00  0.00    -0.200 F 
ATOM     71  F   UNL A   1      47.583  26.289  37.434  1.00  0.00    -0.200 F 
ENDBRANCH  38  61
ENDBRANCH  12  13
ENDBRANCH   5   7
ENDBRANCH   4   5
ENDBRANCH   3   4
ENDBRANCH   2   3
ENDBRANCH   1   2
BRANCH   1  72
ATOM     72  C   UNL A   1      32.145  26.359  26.646  1.00  0.00     0.202 C 
BRANCH  72  73
ATOM     73  C   UNL A   1      31.257  25.380  25.883  1.00  0.00     0.261 C 
BRANCH  73  74
ATOM     74  O   UNL A   1      32.032  24.670  24.893  1.00  0.00    -0.463 OA
BRANCH  74  75
ATOM     75  C   UNL A   1      31.514  24.713  23.631  1.00  0.00     0.310 C 
ATOM     76  O   UNL A   1      30.542  24.049  23.280  1.00  0.00    -0.252 OA
BRANCH  75  77
ATOM     77  C   UNL A   1      32.358  25.551  22.674  1.00  0.00     0.119 C 
ATOM     78  C   UNL A   1      33.660  26.186  23.201  1.00  0.00     0.019 C 
ATOM     79  C   UNL A   1      31.477  26.591  21.980  1.00  0.00     0.135 C 
ATOM     80  C   UNL A   1      33.616  27.655  23.656  1.00  0.00     0.022 C 
ATOM     81  N   UNL A   1      31.290  27.789  22.799  1.00  0.00    -0.338 N 
ATOM     82  C   UNL A   1      32.514  28.531  23.065  1.00  0.00     0.120 C 
BRANCH  81  83
ATOM     83  C   UNL A   1      29.994  28.124  23.199  1.00  0.00     0.253 C 
ATOM     84  O   UNL A   1      29.245  27.341  23.781  1.00  0.00    -0.269 OA
BRANCH  83  85
ATOM     85  C   UNL A   1      29.430  29.471  22.935  1.00  0.00     0.041 A 
ATOM     86  C   UNL A   1      29.502  30.482  23.893  1.00  0.00     0.016 A 
ATOM     87  C   UNL A   1      28.962  29.745  21.638  1.00  0.00     0.035 A 
ATOM     88  C   UNL A   1      29.032  31.768  23.598  1.00  0.00     0.030 A 
ATOM     89  C   UNL A   1      28.517  31.048  21.352  1.00  0.00     0.055 A 
ATOM     90  C   UNL A   1      28.524  32.060  22.315  1.00  0.00     0.081 A 
ATOM     91  S   UNL A   1      27.921  31.699  19.872  1.00  0.00    -0.122 S 
ATOM     92  N   UNL A   1      28.026  33.283  21.899  1.00  0.00    -0.245 NA
ATOM     93  C   UNL A   1      27.678  33.210  20.634  1.00  0.00     0.176 A 
ENDBRANCH  83  85
ENDBRANCH  81  83
ENDBRANCH  75  77
ENDBRANCH  74  75
ENDBRANCH  73  74
ENDBRANCH  72  73
ENDBRANCH   1  72
TORSDOF 16
ENDMDL
MODEL 2
REMARK VINA RESULT:     -11.9      4.506      9.761
REMARK SMILES O=C(OCCOCCOC(=O)[C@@H]1CCCN(C(=O)c2ccc3ncsc3c2)C1)c1ccc(-c2c3nc(c(-c4c(F)c(F)c(F)c(F)c4F)c4ccc([nH]4)c(-c4c(F)c(F)c(F)c(F)c4F)c4nc(c(-c5c(F)c(F)c(F)c(F)c5F)c5ccc2[nH]5)C=C4)C=C3)cc1
REMARK SMILES IDX 6 1 5 2 4 3 3 4 2 5 1 6 29 7 30 8 91 9 31 10 90 11 32 12
REMARK SMILES IDX 33 13 34 14 84 15 35 16 89 17 83 18 85 19 36 20 88 21 82 22
REMARK SMILES IDX 81 23 37 25 69 26 49 27 68 28 50 29 53 30 67 31 86 32 51 33
REMARK SMILES IDX 52 34 66 36 87 37 54 38 38 39 39 40 47 41 40 42 41 43 45 44
REMARK SMILES IDX 48 45 42 46 43 47 46 48 44 49 70 50 71 51 79 52 72 53 73 54
REMARK SMILES IDX 77 55 80 56 74 57 75 58 78 59 76 60 55 61 56 62 64 63 57 64
REMARK SMILES IDX 58 65 62 66 65 67 59 68 60 69 63 70 61 71 7 72 8 73 9 74
REMARK SMILES IDX 10 75 11 76 12 77 13 78 28 79 14 80 16 81 15 82 17 83 18 84
REMARK SMILES IDX 19 85 20 86 27 87 21 88 26 89 22 90 25 91 23 92 24 93
REMARK H PARENT 85 24 53 35
REMARK Flexibility Score: inf
ROOT
ATOM      1  O   UNL A   1      35.439  23.133  25.554  1.00  0.00    -0.374 OA
ENDROOT
BRANCH   1   2
ATOM      2  C   UNL A   1      35.815  22.511  24.330  1.00  0.00     0.202 C 
BRANCH   2   3
ATOM      3  C   UNL A   1      36.985  21.523  24.402  1.00  0.00     0.261 C 
BRANCH   3   4
ATOM      4  O   UNL A   1      37.502  21.435  25.743  1.00  0.00    -0.460 OA
BRANCH   4   5
ATOM      5  C   UNL A   1      38.805  21.487  26.116  1.00  0.00     0.338 C 
ATOM      6  O   UNL A   1      39.510  20.487  26.030  1.00  0.00    -0.246 OA
BRANCH   5   7
ATOM      7  C   UNL A   1      39.429  22.761  26.561  1.00  0.00     0.060 A 
ATOM      8  C   UNL A   1      38.980  24.005  26.139  1.00  0.00     0.016 A 
ATOM      9  C   UNL A   1      40.489  22.716  27.473  1.00  0.00     0.016 A 
ATOM     10  C   UNL A   1      39.639  25.164  26.460  1.00  0.00     0.010 A 
ATOM     11  C   UNL A   1      41.110  23.901  27.889  1.00  0.00     0.010 A 
ATOM     12  C   UNL A   1      40.700  25.128  27.350  1.00  0.00    -0.014 A 
BRANCH  12  13
ATOM     13  C   UNL A   1      41.411  26.399  27.554  1.00  0.00     0.031 A 
ATOM     14  C   UNL A   1      40.796  27.406  28.472  1.00  0.00     0.074 A 
ATOM     15  C   UNL A   1      42.681  26.517  27.124  1.00  0.00     0.049 A 
ATOM     16  N   UNL A   1      41.212  28.601  28.788  1.00  0.00    -0.248 NA
ATOM     17  C   UNL A   1      39.551  27.004  29.150  1.00  0.00     0.031 C 
ATOM     18  C   UNL A   1      43.432  25.476  26.411  1.00  0.00     0.029 A 
ATOM     19  N   UNL A   1      43.592  27.523  27.291  1.00  0.00    -0.354 N 
ATOM     20  C   UNL A   1      40.242  29.121  29.631  1.00  0.00     0.074 A 
ATOM     21  C   UNL A   1      39.236  28.102  29.817  1.00  0.00     0.031 C 
ATOM     22  C   UNL A   1      44.703  25.873  26.265  1.00  0.00     0.029 A 
ATOM     23  C   UNL A   1      44.825  27.236  26.758  1.00  0.00     0.049 A 
ATOM     24  H   UNL A   1      43.384  28.369  27.748  1.00  0.00     0.167 HD
ATOM     25  C   UNL A   1      40.198  30.360  30.170  1.00  0.00     0.037 A 
ATOM     26  C   UNL A   1      45.911  28.022  26.642  1.00  0.00     0.037 A 
ATOM     27  C   UNL A   1      41.244  31.329  29.978  1.00  0.00     0.049 A 
ATOM     28  C   UNL A   1      45.799  29.427  27.164  1.00  0.00     0.074 A 
ATOM     29  C   UNL A   1      41.296  32.644  30.392  1.00  0.00     0.029 A 
ATOM     30  N   UNL A   1      42.436  31.067  29.311  1.00  0.00    -0.354 N 
ATOM     31  N   UNL A   1      44.818  29.983  27.839  1.00  0.00    -0.248 NA
ATOM     32  C   UNL A   1      46.922  30.325  26.883  1.00  0.00     0.031 C 
ATOM     33  C   UNL A   1      42.502  33.191  29.937  1.00  0.00     0.029 A 
ATOM     34  C   UNL A   1      43.229  32.199  29.295  1.00  0.00     0.049 A 
ATOM     35  H   UNL A   1      42.679  30.201  28.909  1.00  0.00     0.167 HD
ATOM     36  C   UNL A   1      45.214  31.289  28.080  1.00  0.00     0.074 A 
ATOM     37  C   UNL A   1      46.534  31.433  27.498  1.00  0.00     0.031 C 
ATOM     38  C   UNL A   1      44.548  32.285  28.718  1.00  0.00     0.037 A 
BRANCH  25  39
ATOM     39  C   UNL A   1      38.942  30.746  30.893  1.00  0.00     0.064 A 
ATOM     40  C   UNL A   1      37.870  31.387  30.256  1.00  0.00     0.173 A 
ATOM     41  C   UNL A   1      38.843  30.521  32.275  1.00  0.00     0.173 A 
ATOM     42  F   UNL A   1      37.931  31.660  28.944  1.00  0.00    -0.203 F 
ATOM     43  C   UNL A   1      36.761  31.818  30.982  1.00  0.00     0.198 A 
ATOM     44  C   UNL A   1      37.721  30.926  32.991  1.00  0.00     0.198 A 
ATOM     45  F   UNL A   1      39.846  29.924  32.937  1.00  0.00    -0.203 F 
ATOM     46  F   UNL A   1      35.781  32.494  30.366  1.00  0.00    -0.200 F 
ATOM     47  C   UNL A   1      36.686  31.584  32.348  1.00  0.00     0.200 A 
ATOM     48  F   UNL A   1      37.652  30.697  34.310  1.00  0.00    -0.200 F 
ATOM     49  F   UNL A   1      35.625  32.011  33.046  1.00  0.00    -0.200 F 
ENDBRANCH  25  39
BRANCH  26  50
ATOM     50  C   UNL A   1      47.134  27.535  25.946  1.00  0.00     0.064 A 
ATOM     51  C   UNL A   1      47.318  27.732  24.570  1.00  0.00     0.173 A 
ATOM     52  C   UNL A   1      48.135  26.832  26.636  1.00  0.00     0.173 A 
ATOM     53  F   UNL A   1      46.382  28.374  23.855  1.00  0.00    -0.203 F 
ATOM     54  C   UNL A   1      48.442  27.232  23.912  1.00  0.00     0.198 A 
ATOM     55  C   UNL A   1      49.276  26.366  25.986  1.00  0.00     0.198 A 
ATOM     56  F   UNL A   1      48.012  26.601  27.951  1.00  0.00    -0.203 F 
ATOM     57  F   UNL A   1      48.563  27.385  22.587  1.00  0.00    -0.200 F 
ATOM     58  C   UNL A   1      49.423  26.556  24.622  1.00  0.00     0.200 A 
ATOM     59  F   UNL A   1      50.226  25.725  26.680  1.00  0.00    -0.200 F 
ATOM     60  F   UNL A   1      50.501  26.073  23.989  1.00  0.00    -0.200 F 
ENDBRANCH  26  50
BRANCH  38  61
ATOM     61  C   UNL A   1      45.274  33.587  28.869  1.00  0.00     0.064 A 
ATOM     62  C   UNL A   1      46.100  33.851  29.970  1.00  0.00     0.173 A 
ATOM     63  C   UNL A   1      45.165  34.567  27.871  1.00  0.00     0.173 A 
ATOM     64  F   UNL A   1      46.223  32.949  30.955  1.00  0.00    -0.203 F 
ATOM     65  C   UNL A   1      46.767  35.067  30.083  1.00  0.00     0.198 A 
ATOM     66  C   UNL A   1      45.861  35.766  27.970  1.00  0.00     0.198 A 
ATOM     67  F   UNL A   1      44.392  34.354  26.796  1.00  0.00    -0.203 F 
ATOM     68  F   UNL A   1      47.508  35.323  31.169  1.00  0.00    -0.200 F 
ATOM     69  C   UNL A   1      46.654  36.018  29.080  1.00  0.00     0.200 A 
ATOM     70  F   UNL A   1      45.763  36.677  26.992  1.00  0.00    -0.200 F 
ATOM     71  F   UNL A   1      47.303  37.185  29.186  1.00  0.00    -0.200 F 
ENDBRANCH  38  61
ENDBRANCH  12  13
ENDBRANCH   5   7
ENDBRANCH   4   5
ENDBRANCH   3   4
ENDBRANCH   2   3
ENDBRANCH   1   2
BRANCH   1  72
ATOM     72  C   UNL A   1      34.956  24.467  25.425  1.00  0.00     0.202 C 
BRANCH  72  73
ATOM     73  C   UNL A   1      34.584  24.772  23.976  1.00  0.00     0.261 C 
BRANCH  73  74
ATOM     74  O   UNL A   1      33.988  26.083  23.879  1.00  0.00    -0.463 OA
BRANCH  74  75
ATOM     75  C   UNL A   1      33.521  26.401  22.637  1.00  0.00     0.310 C 
ATOM     76  O   UNL A   1      33.687  25.687  21.652  1.00  0.00    -0.252 OA
BRANCH  75  77
ATOM     77  C   UNL A   1      32.910  27.799  22.576  1.00  0.00     0.119 C 
ATOM     78  C   UNL A   1      33.331  28.835  23.637  1.00  0.00     0.019 C 
ATOM     79  C   UNL A   1      31.387  27.696  22.476  1.00  0.00     0.135 C 
ATOM     80  C   UNL A   1      32.416  29.033  24.858  1.00  0.00     0.022 C 
ATOM     81  N   UNL A   1      30.760  27.525  23.786  1.00  0.00    -0.338 N 
ATOM     82  C   UNL A   1      30.948  28.648  24.693  1.00  0.00     0.120 C 
BRANCH  81  83
ATOM     83  C   UNL A   1      30.027  26.359  24.024  1.00  0.00     0.253 C 
ATOM     84  O   UNL A   1      28.807  26.289  23.878  1.00  0.00    -0.269 OA
BRANCH  83  85
ATOM     85  C   UNL A   1      30.688  25.113  24.482  1.00  0.00     0.041 A 
ATOM     86  C   UNL A   1      30.822  24.826  25.840  1.00  0.00     0.016 A 
ATOM     87  C   UNL A   1      31.036  24.158  23.511  1.00  0.00     0.035 A 
ATOM     88  C   UNL A   1      31.381  23.610  26.253  1.00  0.00     0.030 A 
ATOM     89  C   UNL A   1      31.574  22.933  23.943  1.00  0.00     0.055 A 
ATOM     90  C   UNL A   1      31.772  22.649  25.297  1.00  0.00     0.081 A 
ATOM     91  S   UNL A   1      32.064  21.566  23.015  1.00  0.00    -0.122 S 
ATOM     92  N   UNL A   1      32.339  21.416  25.571  1.00  0.00    -0.245 NA
ATOM     93  C   UNL A   1      32.537  20.762  24.449  1.00  0.00     0.176 A 
ENDBRANCH  83  85
ENDBRANCH  81  83
ENDBRANCH  75  77
ENDBRANCH  74  75
ENDBRANCH  73  74
ENDBRANCH  72  73
ENDBRANCH   1  72
TORSDOF 16
ENDMDL
MODEL 3
REMARK VINA RESULT:     -11.8      1.540      3.040
REMARK SMILES O=C(OCCOCCOC(=O)[C@@H]1CCCN(C(=O)c2ccc3ncsc3c2)C1)c1ccc(-c2c3nc(c(-c4c(F)c(F)c(F)c(F)c4F)c4ccc([nH]4)c(-c4c(F)c(F)c(F)c(F)c4F)c4nc(c(-c5c(F)c(F)c(F)c(F)c5F)c5ccc2[nH]5)C=C4)C=C3)cc1
REMARK SMILES IDX 6 1 5 2 4 3 3 4 2 5 1 6 29 7 30 8 91 9 31 10 90 11 32 12
REMARK SMILES IDX 33 13 34 14 84 15 35 16 89 17 83 18 85 19 36 20 88 21 82 22
REMARK SMILES IDX 81 23 37 25 69 26 49 27 68 28 50 29 53 30 67 31 86 32 51 33
REMARK SMILES IDX 52 34 66 36 87 37 54 38 38 39 39 40 47 41 40 42 41 43 45 44
REMARK SMILES IDX 48 45 42 46 43 47 46 48 44 49 70 50 71 51 79 52 72 53 73 54
REMARK SMILES IDX 77 55 80 56 74 57 75 58 78 59 76 60 55 61 56 62 64 63 57 64
REMARK SMILES IDX 58 65 62 66 65 67 59 68 60 69 63 70 61 71 7 72 8 73 9 74
REMARK SMILES IDX 10 75 11 76 12 77 13 78 28 79 14 80 16 81 15 82 17 83 18 84
REMARK SMILES IDX 19 85 20 86 27 87 21 88 26 89 22 90 25 91 23 92 24 93
REMARK H PARENT 85 24 53 35
REMARK Flexibility Score: inf
ROOT
ATOM      1  O   UNL A   1      31.590  27.430  26.760  1.00  0.00    -0.374 OA
ENDROOT
BRANCH   1   2
ATOM      2  C   UNL A   1      31.925  28.442  25.816  1.00  0.00     0.202 C 
BRANCH   2   3
ATOM      3  C   UNL A   1      31.734  29.891  26.278  1.00  0.00     0.261 C 
BRANCH   3   4
ATOM      4  O   UNL A   1      32.962  30.634  26.159  1.00  0.00    -0.460 OA
BRANCH   4   5
ATOM      5  C   UNL A   1      33.535  31.413  27.111  1.00  0.00     0.338 C 
ATOM      6  O   UNL A   1      32.980  32.443  27.479  1.00  0.00    -0.246 OA
BRANCH   5   7
ATOM      7  C   UNL A   1      34.797  31.006  27.781  1.00  0.00     0.060 A 
ATOM      8  C   UNL A   1      35.058  29.697  28.164  1.00  0.00     0.016 A 
ATOM      9  C   UNL A   1      35.788  31.969  28.007  1.00  0.00     0.016 A 
ATOM     10  C   UNL A   1      36.171  29.358  28.889  1.00  0.00     0.010 A 
ATOM     11  C   UNL A   1      36.977  31.617  28.659  1.00  0.00     0.010 A 
ATOM     12  C   UNL A   1      37.150  30.308  29.131  1.00  0.00    -0.014 A 
BRANCH  12  13
ATOM     13  C   UNL A   1      38.255  29.884  30.003  1.00  0.00     0.031 A 
ATOM     14  C   UNL A   1      39.379  29.115  29.386  1.00  0.00     0.074 A 
ATOM     15  C   UNL A   1      38.349  30.402  31.242  1.00  0.00     0.049 A 
ATOM     16  N   UNL A   1      40.443  28.610  29.947  1.00  0.00    -0.248 NA
ATOM     17  C   UNL A   1      39.310  28.905  27.929  1.00  0.00     0.031 C 
ATOM     18  C   UNL A   1      37.398  31.348  31.837  1.00  0.00     0.029 A 
ATOM     19  N   UNL A   1      39.324  30.275  32.192  1.00  0.00    -0.354 N 
ATOM     20  C   UNL A   1      41.122  27.954  28.931  1.00  0.00     0.074 A 
ATOM     21  C   UNL A   1      40.380  28.159  27.709  1.00  0.00     0.031 C 
ATOM     22  C   UNL A   1      37.873  31.766  33.018  1.00  0.00     0.029 A 
ATOM     23  C   UNL A   1      39.090  31.027  33.318  1.00  0.00     0.049 A 
ATOM     24  H   UNL A   1      40.116  29.701  32.081  1.00  0.00     0.167 HD
ATOM     25  C   UNL A   1      42.254  27.223  29.037  1.00  0.00     0.037 A 
ATOM     26  C   UNL A   1      39.768  31.064  34.479  1.00  0.00     0.037 A 
ATOM     27  C   UNL A   1      42.973  27.077  30.274  1.00  0.00     0.049 A 
ATOM     28  C   UNL A   1      40.967  30.165  34.601  1.00  0.00     0.074 A 
ATOM     29  C   UNL A   1      44.082  26.303  30.548  1.00  0.00     0.029 A 
ATOM     30  N   UNL A   1      42.640  27.739  31.451  1.00  0.00    -0.354 N 
ATOM     31  N   UNL A   1      41.538  29.419  33.683  1.00  0.00    -0.248 NA
ATOM     32  C   UNL A   1      41.598  30.085  35.921  1.00  0.00     0.031 C 
ATOM     33  C   UNL A   1      44.394  26.464  31.903  1.00  0.00     0.029 A 
ATOM     34  C   UNL A   1      43.519  27.386  32.457  1.00  0.00     0.049 A 
ATOM     35  H   UNL A   1      41.888  28.367  31.552  1.00  0.00     0.167 HD
ATOM     36  C   UNL A   1      42.606  28.795  34.308  1.00  0.00     0.074 A 
ATOM     37  C   UNL A   1      42.615  29.270  35.679  1.00  0.00     0.031 C 
ATOM     38  C   UNL A   1      43.497  27.905  33.803  1.00  0.00     0.037 A 
BRANCH  25  39
ATOM     39  C   UNL A   1      42.685  26.453  27.824  1.00  0.00     0.064 A 
ATOM     40  C   UNL A   1      42.255  25.143  27.569  1.00  0.00     0.173 A 
ATOM     41  C   UNL A   1      43.602  27.027  26.930  1.00  0.00     0.173 A 
ATOM     42  F   UNL A   1      41.408  24.535  28.413  1.00  0.00    -0.203 F 
ATOM     43  C   UNL A   1      42.755  24.425  26.483  1.00  0.00     0.198 A 
ATOM     44  C   UNL A   1      44.075  26.318  25.830  1.00  0.00     0.198 A 
ATOM     45  F   UNL A   1      44.057  28.273  27.134  1.00  0.00    -0.203 F 
ATOM     46  F   UNL A   1      42.386  23.149  26.300  1.00  0.00    -0.200 F 
ATOM     47  C   UNL A   1      43.661  25.014  25.614  1.00  0.00     0.200 A 
ATOM     48  F   UNL A   1      44.950  26.891  24.992  1.00  0.00    -0.200 F 
ATOM     49  F   UNL A   1      44.150  24.317  24.579  1.00  0.00    -0.200 F 
ENDBRANCH  25  39
BRANCH  26  50
ATOM     50  C   UNL A   1      39.288  31.897  35.616  1.00  0.00     0.064 A 
ATOM     51  C   UNL A   1      39.756  33.204  35.811  1.00  0.00     0.173 A 
ATOM     52  C   UNL A   1      38.370  31.394  36.553  1.00  0.00     0.173 A 
ATOM     53  F   UNL A   1      40.653  33.728  34.963  1.00  0.00    -0.203 F 
ATOM     54  C   UNL A   1      39.340  33.964  36.905  1.00  0.00     0.198 A 
ATOM     55  C   UNL A   1      37.926  32.167  37.623  1.00  0.00     0.198 A 
ATOM     56  F   UNL A   1      37.895  30.146  36.427  1.00  0.00    -0.203 F 
ATOM     57  F   UNL A   1      39.849  35.188  37.098  1.00  0.00    -0.200 F 
ATOM     58  C   UNL A   1      38.421  33.447  37.806  1.00  0.00     0.200 A 
ATOM     59  F   UNL A   1      37.028  31.666  38.482  1.00  0.00    -0.200 F 
ATOM     60  F   UNL A   1      38.024  34.177  38.857  1.00  0.00    -0.200 F 
ENDBRANCH  26  50
BRANCH  38  61
ATOM     61  C   UNL A   1      44.585  27.448  34.728  1.00  0.00     0.064 A 
ATOM     62  C   UNL A   1      45.812  28.119  34.814  1.00  0.00     0.173 A 
ATOM     63  C   UNL A   1      44.372  26.342  35.564  1.00  0.00     0.173 A 
ATOM     64  F   UNL A   1      46.065  29.173  34.024  1.00  0.00    -0.203 F 
ATOM     65  C   UNL A   1      46.804  27.677  35.684  1.00  0.00     0.198 A 
ATOM     66  C   UNL A   1      45.352  25.926  36.457  1.00  0.00     0.198 A 
ATOM     67  F   UNL A   1      43.210  25.674  35.520  1.00  0.00    -0.203 F 
ATOM     68  F   UNL A   1      47.991  28.296  35.713  1.00  0.00    -0.200 F 
ATOM     69  C   UNL A   1      46.570  26.587  36.510  1.00  0.00     0.200 A 
ATOM     70  F   UNL A   1      45.117  24.882  37.266  1.00  0.00    -0.200 F 
ATOM     71  F   UNL A   1      47.522  26.168  37.354  1.00  0.00    -0.200 F 
ENDBRANCH  38  61
ENDBRANCH  12  13
ENDBRANCH   5   7
ENDBRANCH   4   5
ENDBRANCH   3   4
ENDBRANCH   2   3
ENDBRANCH   1   2
BRANCH   1  72
ATOM     72  C   UNL A   1      32.165  26.153  26.500  1.00  0.00     0.202 C 
BRANCH  72  73
ATOM     73  C   UNL A   1      31.107  25.056  26.575  1.00  0.00     0.261 C 
BRANCH  73  74
ATOM     74  O   UNL A   1      31.638  23.895  27.251  1.00  0.00    -0.463 OA
BRANCH  74  75
ATOM     75  C   UNL A   1      31.632  22.754  26.503  1.00  0.00     0.310 C 
ATOM     76  O   UNL A   1      30.604  22.229  26.084  1.00  0.00    -0.252 OA
BRANCH  75  77
ATOM     77  C   UNL A   1      33.016  22.123  26.376  1.00  0.00     0.119 C 
ATOM     78  C   UNL A   1      34.239  22.921  26.871  1.00  0.00     0.019 C 
ATOM     79  C   UNL A   1      33.227  21.617  24.948  1.00  0.00     0.135 C 
ATOM     80  C   UNL A   1      35.054  23.713  25.834  1.00  0.00     0.022 C 
ATOM     81  N   UNL A   1      33.674  22.679  24.048  1.00  0.00    -0.338 N 
ATOM     82  C   UNL A   1      34.973  23.243  24.383  1.00  0.00     0.120 C 
BRANCH  81  83
ATOM     83  C   UNL A   1      32.862  23.013  22.960  1.00  0.00     0.253 C 
ATOM     84  O   UNL A   1      32.528  22.204  22.096  1.00  0.00    -0.269 OA
BRANCH  83  85
ATOM     85  C   UNL A   1      32.350  24.393  22.776  1.00  0.00     0.041 A 
ATOM     86  C   UNL A   1      32.969  25.279  21.895  1.00  0.00     0.016 A 
ATOM     87  C   UNL A   1      31.134  24.731  23.395  1.00  0.00     0.035 A 
ATOM     88  C   UNL A   1      32.427  26.552  21.677  1.00  0.00     0.030 A 
ATOM     89  C   UNL A   1      30.592  26.005  23.147  1.00  0.00     0.055 A 
ATOM     90  C   UNL A   1      31.227  26.930  22.315  1.00  0.00     0.081 A 
ATOM     91  S   UNL A   1      29.124  26.698  23.724  1.00  0.00    -0.122 S 
ATOM     92  N   UNL A   1      30.592  28.154  22.190  1.00  0.00    -0.245 NA
ATOM     93  C   UNL A   1      29.478  28.147  22.888  1.00  0.00     0.176 A 
ENDBRANCH  83  85
ENDBRANCH  81  83
ENDBRANCH  75  77
ENDBRANCH  74  75
ENDBRANCH  73  74
ENDBRANCH  72  73
ENDBRANCH   1  72
TORSDOF 16
ENDMDL
