MODEL 1
REMARK VINA RESULT:     -12.5      0.000      0.000
REMARK SMILES CN1C(=O)/C(=C\c2ccc(C(=O)Nc3ccc(O)cc3C(=O)OCCOCCOC(=O)c3ccc(-c4c5nc(c(-c6c(F)c(F)c(F)c(F)c6F)c6ccc([nH]6)c(-c6c(F)c(F)c(F)c(F)c6F)c6nc(c(-c7c(F)c(F)c(F)c(F)c7F)c7ccc4[nH]7)C=C6)C=C5)cc3)cc2)SC1=S
REMARK SMILES IDX 25 1 24 2 23 3 21 4 22 5 20 6 14 7 15 8 16 9 19 10 17 11
REMARK SMILES IDX 13 12 11 13 12 14 10 16 7 17 8 18 96 19 9 20 95 21 6 22 1 23
REMARK SMILES IDX 2 24 3 25 98 26 4 27 5 28 97 29 99 30 18 31 26 33 27 34
REMARK SMILES IDX 28 35 29 36 30 37 31 38 32 39 33 40 94 41 34 42 93 43 35 44
REMARK SMILES IDX 36 45 37 46 87 47 38 48 92 49 86 50 88 51 39 52 91 53 85 54
REMARK SMILES IDX 84 55 40 57 72 58 52 59 71 60 53 61 56 62 70 63 89 64 54 65
REMARK SMILES IDX 55 66 69 68 90 69 57 70 41 71 42 72 50 73 43 74 44 75 48 76
REMARK SMILES IDX 51 77 45 78 46 79 49 80 47 81 73 82 74 83 82 84 75 85 76 86
REMARK SMILES IDX 80 87 83 88 77 89 78 90 81 91 79 92 58 93 59 94 67 95 60 96
REMARK SMILES IDX 61 97 65 98 68 99 62 100 63 101 66 102 64 103
REMARK H PARENT 13 15 18 32 88 56 56 67
REMARK Flexibility Score: inf
ROOT
ATOM      1  C   UNL A   1      29.566  30.918  23.324  1.00  0.00     0.202 C 
ENDROOT
BRANCH   1   2
ATOM      2  C   UNL A   1      28.748  29.634  23.172  1.00  0.00     0.261 C 
BRANCH   2   3
ATOM      3  O   UNL A   1      29.355  28.632  22.338  1.00  0.00    -0.460 OA
BRANCH   3   4
ATOM      4  C   UNL A   1      29.728  27.512  23.007  1.00  0.00     0.340 C 
ATOM      5  O   UNL A   1      28.989  26.806  23.681  1.00  0.00    -0.246 OA
BRANCH   4   6
ATOM      6  C   UNL A   1      31.133  27.111  22.732  1.00  0.00     0.087 A 
ATOM      7  C   UNL A   1      32.285  27.452  23.474  1.00  0.00     0.056 A 
ATOM      8  C   UNL A   1      33.537  27.034  22.981  1.00  0.00     0.031 A 
ATOM      9  C   UNL A   1      33.643  26.209  21.859  1.00  0.00     0.048 A 
ATOM     10  C   UNL A   1      31.258  26.283  21.593  1.00  0.00     0.064 A 
ATOM     11  C   UNL A   1      32.499  25.821  21.185  1.00  0.00     0.116 A 
BRANCH   7  12
ATOM     12  N   UNL A   1      32.359  28.103  24.728  1.00  0.00    -0.321 N 
ATOM     13  C   UNL A   1      32.401  27.632  26.025  1.00  0.00     0.255 C 
ATOM     14  O   UNL A   1      32.304  28.424  26.962  1.00  0.00    -0.269 OA
ATOM     15  H   UNL A   1      32.387  29.084  24.663  1.00  0.00     0.170 HD
BRANCH  13  16
ATOM     16  C   UNL A   1      32.627  26.199  26.321  1.00  0.00     0.040 A 
ATOM     17  C   UNL A   1      32.861  23.417  26.401  1.00  0.00    -0.024 A 
ATOM     18  C   UNL A   1      31.662  24.030  26.782  1.00  0.00     0.009 A 
ATOM     19  C   UNL A   1      33.954  24.215  26.051  1.00  0.00     0.009 A 
ATOM     20  C   UNL A   1      31.544  25.421  26.743  1.00  0.00     0.014 A 
ATOM     21  C   UNL A   1      33.866  25.601  26.097  1.00  0.00     0.014 A 
BRANCH  17  22
ATOM     22  C   UNL A   1      32.940  21.957  26.316  1.00  0.00     0.029 C 
ATOM     23  C   UNL A   1      31.847  20.909  21.616  1.00  0.00     0.155 C 
ATOM     24  N   UNL A   1      32.164  20.623  23.006  1.00  0.00    -0.296 N 
ATOM     25  C   UNL A   1      32.212  21.684  23.889  1.00  0.00     0.265 C 
ATOM     26  C   UNL A   1      32.489  19.382  23.502  1.00  0.00     0.148 C 
ATOM     27  O   UNL A   1      31.956  22.835  23.587  1.00  0.00    -0.268 OA
ATOM     28  C   UNL A   1      32.646  21.214  25.240  1.00  0.00     0.081 C 
ATOM     29  S   UNL A   1      32.813  19.496  25.226  1.00  0.00    -0.054 SA
ATOM     30  S   UNL A   1      32.608  17.946  22.664  1.00  0.00    -0.052 S 
ENDBRANCH  17  22
ENDBRANCH  13  16
ENDBRANCH   7  12
BRANCH  11  31
ATOM     31  O   UNL A   1      32.630  24.978  20.124  1.00  0.00    -0.508 OA
ATOM     32  H   UNL A   1      33.183  25.213  19.404  1.00  0.00     0.293 HD
ENDBRANCH  11  31
ENDBRANCH   4   6
ENDBRANCH   3   4
ENDBRANCH   2   3
ENDBRANCH   1   2
BRANCH   1  33
ATOM     33  O   UNL A   1      29.740  31.466  24.622  1.00  0.00    -0.374 OA
BRANCH  33  34
ATOM     34  C   UNL A   1      30.905  31.118  25.363  1.00  0.00     0.202 C 
BRANCH  34  35
ATOM     35  C   UNL A   1      31.383  32.056  26.479  1.00  0.00     0.261 C 
BRANCH  35  36
ATOM     36  O   UNL A   1      32.520  31.576  27.220  1.00  0.00    -0.460 OA
BRANCH  36  37
ATOM     37  C   UNL A   1      33.394  32.543  27.592  1.00  0.00     0.338 C 
ATOM     38  O   UNL A   1      33.154  33.725  27.788  1.00  0.00    -0.246 OA
BRANCH  37  39
ATOM     39  C   UNL A   1      34.723  31.977  27.870  1.00  0.00     0.060 A 
ATOM     40  C   UNL A   1      34.826  30.592  28.052  1.00  0.00     0.016 A 
ATOM     41  C   UNL A   1      35.807  32.814  28.140  1.00  0.00     0.016 A 
ATOM     42  C   UNL A   1      36.003  30.042  28.557  1.00  0.00     0.010 A 
ATOM     43  C   UNL A   1      36.983  32.261  28.656  1.00  0.00     0.010 A 
ATOM     44  C   UNL A   1      37.071  30.880  28.906  1.00  0.00    -0.014 A 
BRANCH  44  45
ATOM     45  C   UNL A   1      38.212  30.329  29.675  1.00  0.00     0.031 A 
ATOM     46  C   UNL A   1      38.414  30.767  31.100  1.00  0.00     0.074 A 
ATOM     47  C   UNL A   1      39.045  29.434  29.118  1.00  0.00     0.049 A 
ATOM     48  N   UNL A   1      39.369  30.454  31.940  1.00  0.00    -0.248 NA
ATOM     49  C   UNL A   1      37.404  31.684  31.653  1.00  0.00     0.031 C 
ATOM     50  C   UNL A   1      38.931  28.907  27.762  1.00  0.00     0.029 A 
ATOM     51  N   UNL A   1      40.159  28.817  29.630  1.00  0.00    -0.354 N 
ATOM     52  C   UNL A   1      39.081  31.140  33.113  1.00  0.00     0.074 A 
ATOM     53  C   UNL A   1      37.876  31.905  32.872  1.00  0.00     0.031 C 
ATOM     54  C   UNL A   1      39.943  28.051  27.541  1.00  0.00     0.029 A 
ATOM     55  C   UNL A   1      40.793  27.998  28.729  1.00  0.00     0.049 A 
ATOM     56  H   UNL A   1      40.473  28.949  30.553  1.00  0.00     0.167 HD
ATOM     57  C   UNL A   1      39.756  31.128  34.286  1.00  0.00     0.037 A 
ATOM     58  C   UNL A   1      41.942  27.306  28.847  1.00  0.00     0.037 A 
ATOM     59  C   UNL A   1      40.952  30.363  34.525  1.00  0.00     0.049 A 
ATOM     60  C   UNL A   1      42.710  27.360  30.141  1.00  0.00     0.074 A 
ATOM     61  C   UNL A   1      41.700  30.267  35.687  1.00  0.00     0.029 A 
ATOM     62  N   UNL A   1      41.580  29.565  33.580  1.00  0.00    -0.354 N 
ATOM     63  N   UNL A   1      42.423  27.994  31.251  1.00  0.00    -0.248 NA
ATOM     64  C   UNL A   1      43.968  26.599  30.197  1.00  0.00     0.031 C 
ATOM     65  C   UNL A   1      42.804  29.448  35.430  1.00  0.00     0.029 A 
ATOM     66  C   UNL A   1      42.718  28.994  34.124  1.00  0.00     0.049 A 
ATOM     67  H   UNL A   1      41.262  29.424  32.659  1.00  0.00     0.167 HD
ATOM     68  C   UNL A   1      43.444  27.690  32.142  1.00  0.00     0.074 A 
ATOM     69  C   UNL A   1      44.354  26.804  31.448  1.00  0.00     0.031 C 
ATOM     70  C   UNL A   1      43.611  28.107  33.421  1.00  0.00     0.037 A 
BRANCH  57  71
ATOM     71  C   UNL A   1      39.232  31.989  35.398  1.00  0.00     0.064 A 
ATOM     72  C   UNL A   1      38.410  31.468  36.408  1.00  0.00     0.173 A 
ATOM     73  C   UNL A   1      39.588  33.343  35.474  1.00  0.00     0.173 A 
ATOM     74  F   UNL A   1      38.031  30.182  36.375  1.00  0.00    -0.203 F 
ATOM     75  C   UNL A   1      37.943  32.280  37.440  1.00  0.00     0.198 A 
ATOM     76  C   UNL A   1      39.142  34.146  36.521  1.00  0.00     0.198 A 
ATOM     77  F   UNL A   1      40.377  33.890  34.535  1.00  0.00    -0.203 F 
ATOM     78  F   UNL A   1      37.125  31.772  38.372  1.00  0.00    -0.200 F 
ATOM     79  C   UNL A   1      38.315  33.614  37.499  1.00  0.00     0.200 A 
ATOM     80  F   UNL A   1      39.511  35.432  36.583  1.00  0.00    -0.200 F 
ATOM     81  F   UNL A   1      37.871  34.392  38.497  1.00  0.00    -0.200 F 
ENDBRANCH  57  71
BRANCH  58  82
ATOM     82  C   UNL A   1      42.446  26.513  27.697  1.00  0.00     0.064 A 
ATOM     83  C   UNL A   1      43.380  27.051  26.802  1.00  0.00     0.173 A 
ATOM     84  C   UNL A   1      41.993  25.206  27.461  1.00  0.00     0.173 A 
ATOM     85  F   UNL A   1      43.820  28.307  26.969  1.00  0.00    -0.203 F 
ATOM     86  C   UNL A   1      43.833  26.316  25.707  1.00  0.00     0.198 A 
ATOM     87  C   UNL A   1      42.467  24.463  26.383  1.00  0.00     0.198 A 
ATOM     88  F   UNL A   1      41.092  24.649  28.284  1.00  0.00    -0.203 F 
ATOM     89  F   UNL A   1      44.693  26.870  24.842  1.00  0.00    -0.200 F 
ATOM     90  C   UNL A   1      43.382  25.022  25.503  1.00  0.00     0.200 A 
ATOM     91  F   UNL A   1      42.033  23.209  26.192  1.00  0.00    -0.200 F 
ATOM     92  F   UNL A   1      43.819  24.315  24.451  1.00  0.00    -0.200 F 
ENDBRANCH  58  82
BRANCH  70  93
ATOM     93  C   UNL A   1      44.805  27.585  34.167  1.00  0.00     0.064 A 
ATOM     94  C   UNL A   1      46.015  28.293  34.206  1.00  0.00     0.173 A 
ATOM     95  C   UNL A   1      44.722  26.383  34.886  1.00  0.00     0.173 A 
ATOM     96  F   UNL A   1      46.149  29.439  33.524  1.00  0.00    -0.203 F 
ATOM     97  C   UNL A   1      47.105  27.804  34.921  1.00  0.00     0.198 A 
ATOM     98  C   UNL A   1      45.806  25.911  35.622  1.00  0.00     0.198 A 
ATOM     99  F   UNL A   1      43.584  25.672  34.886  1.00  0.00    -0.203 F 
ATOM    100  F   UNL A   1      48.266  28.474  34.910  1.00  0.00    -0.200 F 
ATOM    101  C   UNL A   1      46.997  26.619  35.633  1.00  0.00     0.200 A 
ATOM    102  F   UNL A   1      45.695  24.773  36.320  1.00  0.00    -0.200 F 
ATOM    103  F   UNL A   1      48.047  26.153  36.326  1.00  0.00    -0.200 F 
ENDBRANCH  70  93
ENDBRANCH  44  45
ENDBRANCH  37  39
ENDBRANCH  36  37
ENDBRANCH  35  36
ENDBRANCH  34  35
ENDBRANCH  33  34
ENDBRANCH   1  33
TORSDOF 18
ENDMDL
MODEL 2
REMARK VINA RESULT:     -12.4      1.769      2.588
REMARK SMILES CN1C(=O)/C(=C\c2ccc(C(=O)Nc3ccc(O)cc3C(=O)OCCOCCOC(=O)c3ccc(-c4c5nc(c(-c6c(F)c(F)c(F)c(F)c6F)c6ccc([nH]6)c(-c6c(F)c(F)c(F)c(F)c6F)c6nc(c(-c7c(F)c(F)c(F)c(F)c7F)c7ccc4[nH]7)C=C6)C=C5)cc3)cc2)SC1=S
REMARK SMILES IDX 25 1 24 2 23 3 21 4 22 5 20 6 14 7 15 8 16 9 19 10 17 11
REMARK SMILES IDX 13 12 11 13 12 14 10 16 7 17 8 18 96 19 9 20 95 21 6 22 1 23
REMARK SMILES IDX 2 24 3 25 98 26 4 27 5 28 97 29 99 30 18 31 26 33 27 34
REMARK SMILES IDX 28 35 29 36 30 37 31 38 32 39 33 40 94 41 34 42 93 43 35 44
REMARK SMILES IDX 36 45 37 46 87 47 38 48 92 49 86 50 88 51 39 52 91 53 85 54
REMARK SMILES IDX 84 55 40 57 72 58 52 59 71 60 53 61 56 62 70 63 89 64 54 65
REMARK SMILES IDX 55 66 69 68 90 69 57 70 41 71 42 72 50 73 43 74 44 75 48 76
REMARK SMILES IDX 51 77 45 78 46 79 49 80 47 81 73 82 74 83 82 84 75 85 76 86
REMARK SMILES IDX 80 87 83 88 77 89 78 90 81 91 79 92 58 93 59 94 67 95 60 96
REMARK SMILES IDX 61 97 65 98 68 99 62 100 63 101 66 102 64 103
REMARK H PARENT 13 15 18 32 88 56 56 67
REMARK Flexibility Score: inf
ROOT
ATOM      1  C   UNL A   1      29.512  30.876  23.327  1.00  0.00     0.202 C 
ENDROOT
BRANCH   1   2
ATOM      2  C   UNL A   1      28.835  29.513  23.174  1.00  0.00     0.261 C 
BRANCH   2   3
ATOM      3  O   UNL A   1      29.688  28.474  22.661  1.00  0.00    -0.460 OA
BRANCH   3   4
ATOM      4  C   UNL A   1      29.859  27.433  23.512  1.00  0.00     0.340 C 
ATOM      5  O   UNL A   1      29.122  26.459  23.605  1.00  0.00    -0.246 OA
BRANCH   4   6
ATOM      6  C   UNL A   1      31.143  27.498  24.260  1.00  0.00     0.087 A 
ATOM      7  C   UNL A   1      31.447  26.895  25.500  1.00  0.00     0.056 A 
ATOM      8  C   UNL A   1      32.705  27.162  26.075  1.00  0.00     0.031 A 
ATOM      9  C   UNL A   1      33.677  27.902  25.396  1.00  0.00     0.048 A 
ATOM     10  C   UNL A   1      32.134  28.251  23.590  1.00  0.00     0.064 A 
ATOM     11  C   UNL A   1      33.391  28.423  24.147  1.00  0.00     0.116 A 
BRANCH   7  12
ATOM     12  N   UNL A   1      30.676  25.964  26.235  1.00  0.00    -0.321 N 
ATOM     13  C   UNL A   1      30.826  24.614  26.482  1.00  0.00     0.255 C 
ATOM     14  O   UNL A   1      29.916  23.992  27.030  1.00  0.00    -0.269 OA
ATOM     15  H   UNL A   1      29.874  26.355  26.652  1.00  0.00     0.170 HD
BRANCH  13  16
ATOM     16  C   UNL A   1      32.086  23.905  26.164  1.00  0.00     0.040 A 
ATOM     17  C   UNL A   1      34.165  22.138  25.568  1.00  0.00    -0.024 A 
ATOM     18  C   UNL A   1      33.823  22.392  26.901  1.00  0.00     0.009 A 
ATOM     19  C   UNL A   1      33.505  22.832  24.549  1.00  0.00     0.009 A 
ATOM     20  C   UNL A   1      32.783  23.275  27.200  1.00  0.00     0.014 A 
ATOM     21  C   UNL A   1      32.532  23.777  24.850  1.00  0.00     0.014 A 
BRANCH  17  22
ATOM     22  C   UNL A   1      35.165  21.115  25.252  1.00  0.00     0.029 C 
ATOM     23  C   UNL A   1      39.468  23.082  26.663  1.00  0.00     0.155 C 
ATOM     24  N   UNL A   1      38.589  22.090  26.068  1.00  0.00    -0.296 N 
ATOM     25  C   UNL A   1      37.252  22.410  25.930  1.00  0.00     0.265 C 
ATOM     26  C   UNL A   1      38.970  20.823  25.690  1.00  0.00     0.148 C 
ATOM     27  O   UNL A   1      36.775  23.490  26.230  1.00  0.00    -0.268 OA
ATOM     28  C   UNL A   1      36.492  21.241  25.394  1.00  0.00     0.081 C 
ATOM     29  S   UNL A   1      37.588  19.957  25.033  1.00  0.00    -0.054 SA
ATOM     30  S   UNL A   1      40.479  20.127  25.824  1.00  0.00    -0.052 S 
ENDBRANCH  17  22
ENDBRANCH  13  16
ENDBRANCH   7  12
BRANCH  11  31
ATOM     31  O   UNL A   1      34.373  29.098  23.489  1.00  0.00    -0.508 OA
ATOM     32  H   UNL A   1      35.215  28.702  23.371  1.00  0.00     0.293 HD
ENDBRANCH  11  31
ENDBRANCH   4   6
ENDBRANCH   3   4
ENDBRANCH   2   3
ENDBRANCH   1   2
BRANCH   1  33
ATOM     33  O   UNL A   1      29.763  31.370  24.635  1.00  0.00    -0.374 OA
BRANCH  33  34
ATOM     34  C   UNL A   1      30.909  30.902  25.336  1.00  0.00     0.202 C 
BRANCH  34  35
ATOM     35  C   UNL A   1      31.463  31.741  26.497  1.00  0.00     0.261 C 
BRANCH  35  36
ATOM     36  O   UNL A   1      32.697  31.252  27.054  1.00  0.00    -0.460 OA
BRANCH  36  37
ATOM     37  C   UNL A   1      33.510  32.218  27.546  1.00  0.00     0.338 C 
ATOM     38  O   UNL A   1      33.209  33.369  27.828  1.00  0.00    -0.246 OA
BRANCH  37  39
ATOM     39  C   UNL A   1      34.850  31.686  27.839  1.00  0.00     0.060 A 
ATOM     40  C   UNL A   1      34.973  30.314  28.092  1.00  0.00     0.016 A 
ATOM     41  C   UNL A   1      35.924  32.550  28.051  1.00  0.00     0.016 A 
ATOM     42  C   UNL A   1      36.163  29.806  28.613  1.00  0.00     0.010 A 
ATOM     43  C   UNL A   1      37.113  32.041  28.582  1.00  0.00     0.010 A 
ATOM     44  C   UNL A   1      37.223  30.676  28.904  1.00  0.00    -0.014 A 
BRANCH  44  45
ATOM     45  C   UNL A   1      38.380  30.182  29.688  1.00  0.00     0.031 A 
ATOM     46  C   UNL A   1      38.555  30.648  31.108  1.00  0.00     0.074 A 
ATOM     47  C   UNL A   1      39.251  29.312  29.150  1.00  0.00     0.049 A 
ATOM     48  N   UNL A   1      39.516  30.386  31.958  1.00  0.00    -0.248 NA
ATOM     49  C   UNL A   1      37.506  31.533  31.640  1.00  0.00     0.031 C 
ATOM     50  C   UNL A   1      39.166  28.761  27.801  1.00  0.00     0.029 A 
ATOM     51  N   UNL A   1      40.384  28.747  29.679  1.00  0.00    -0.354 N 
ATOM     52  C   UNL A   1      39.193  31.077  33.119  1.00  0.00     0.074 A 
ATOM     53  C   UNL A   1      37.961  31.791  32.859  1.00  0.00     0.031 C 
ATOM     54  C   UNL A   1      40.212  27.942  27.600  1.00  0.00     0.029 A 
ATOM     55  C   UNL A   1      41.056  27.940  28.794  1.00  0.00     0.049 A 
ATOM     56  H   UNL A   1      40.687  28.905  30.601  1.00  0.00     0.167 HD
ATOM     57  C   UNL A   1      39.861  31.109  34.296  1.00  0.00     0.037 A 
ATOM     58  C   UNL A   1      42.231  27.295  28.928  1.00  0.00     0.037 A 
ATOM     59  C   UNL A   1      41.085  30.396  34.554  1.00  0.00     0.049 A 
ATOM     60  C   UNL A   1      42.988  27.398  30.226  1.00  0.00     0.074 A 
ATOM     61  C   UNL A   1      41.827  30.346  35.722  1.00  0.00     0.029 A 
ATOM     62  N   UNL A   1      41.749  29.608  33.625  1.00  0.00    -0.354 N 
ATOM     63  N   UNL A   1      42.668  28.037  31.325  1.00  0.00    -0.248 NA
ATOM     64  C   UNL A   1      44.273  26.689  30.301  1.00  0.00     0.031 C 
ATOM     65  C   UNL A   1      42.965  29.568  35.484  1.00  0.00     0.029 A 
ATOM     66  C   UNL A   1      42.905  29.091  34.184  1.00  0.00     0.049 A 
ATOM     67  H   UNL A   1      41.443  29.442  32.704  1.00  0.00     0.167 HD
ATOM     68  C   UNL A   1      43.694  27.788  32.227  1.00  0.00     0.074 A 
ATOM     69  C   UNL A   1      44.643  26.928  31.551  1.00  0.00     0.031 C 
ATOM     70  C   UNL A   1      43.836  28.230  33.500  1.00  0.00     0.037 A 
BRANCH  57  71
ATOM     71  C   UNL A   1      39.297  31.965  35.392  1.00  0.00     0.064 A 
ATOM     72  C   UNL A   1      38.453  31.436  36.380  1.00  0.00     0.173 A 
ATOM     73  C   UNL A   1      39.634  33.324  35.475  1.00  0.00     0.173 A 
ATOM     74  F   UNL A   1      38.091  30.145  36.339  1.00  0.00    -0.203 F 
ATOM     75  C   UNL A   1      37.949  32.243  37.397  1.00  0.00     0.198 A 
ATOM     76  C   UNL A   1      39.149  34.122  36.507  1.00  0.00     0.198 A 
ATOM     77  F   UNL A   1      40.441  33.879  34.557  1.00  0.00    -0.203 F 
ATOM     78  F   UNL A   1      37.111  31.727  38.308  1.00  0.00    -0.200 F 
ATOM     79  C   UNL A   1      38.302  33.582  37.464  1.00  0.00     0.200 A 
ATOM     80  F   UNL A   1      39.500  35.413  36.577  1.00  0.00    -0.200 F 
ATOM     81  F   UNL A   1      37.822  34.356  38.448  1.00  0.00    -0.200 F 
ENDBRANCH  57  71
BRANCH  58  82
ATOM     82  C   UNL A   1      42.773  26.506  27.794  1.00  0.00     0.064 A 
ATOM     83  C   UNL A   1      43.560  27.109  26.804  1.00  0.00     0.173 A 
ATOM     84  C   UNL A   1      42.503  25.134  27.668  1.00  0.00     0.173 A 
ATOM     85  F   UNL A   1      43.821  28.423  26.866  1.00  0.00    -0.203 F 
ATOM     86  C   UNL A   1      44.048  26.374  25.725  1.00  0.00     0.198 A 
ATOM     87  C   UNL A   1      43.012  24.395  26.603  1.00  0.00     0.198 A 
ATOM     88  F   UNL A   1      41.746  24.512  28.584  1.00  0.00    -0.203 F 
ATOM     89  F   UNL A   1      44.762  26.984  24.770  1.00  0.00    -0.200 F 
ATOM     90  C   UNL A   1      43.779  25.017  25.629  1.00  0.00     0.200 A 
ATOM     91  F   UNL A   1      42.756  23.083  26.518  1.00  0.00    -0.200 F 
ATOM     92  F   UNL A   1      44.249  24.310  24.592  1.00  0.00    -0.200 F 
ENDBRANCH  58  82
BRANCH  70  93
ATOM     93  C   UNL A   1      45.045  27.766  34.261  1.00  0.00     0.064 A 
ATOM     94  C   UNL A   1      45.033  26.578  35.007  1.00  0.00     0.173 A 
ATOM     95  C   UNL A   1      46.242  28.496  34.204  1.00  0.00     0.173 A 
ATOM     96  F   UNL A   1      43.910  25.853  35.104  1.00  0.00    -0.203 F 
ATOM     97  C   UNL A   1      46.171  26.152  35.688  1.00  0.00     0.198 A 
ATOM     98  C   UNL A   1      47.385  28.051  34.864  1.00  0.00     0.198 A 
ATOM     99  F   UNL A   1      46.307  29.634  33.498  1.00  0.00    -0.203 F 
ATOM    100  F   UNL A   1      46.125  25.037  36.431  1.00  0.00    -0.200 F 
ATOM    101  C   UNL A   1      47.346  26.884  35.610  1.00  0.00     0.200 A 
ATOM    102  F   UNL A   1      48.523  28.753  34.776  1.00  0.00    -0.200 F 
ATOM    103  F   UNL A   1      48.441  26.467  36.261  1.00  0.00    -0.200 F 
ENDBRANCH  70  93
ENDBRANCH  44  45
ENDBRANCH  37  39
ENDBRANCH  36  37
ENDBRANCH  35  36
ENDBRANCH  34  35
ENDBRANCH  33  34
ENDBRANCH   1  33
TORSDOF 18
ENDMDL
MODEL 3
REMARK VINA RESULT:     -12.3      1.791      2.979
REMARK SMILES CN1C(=O)/C(=C\c2ccc(C(=O)Nc3ccc(O)cc3C(=O)OCCOCCOC(=O)c3ccc(-c4c5nc(c(-c6c(F)c(F)c(F)c(F)c6F)c6ccc([nH]6)c(-c6c(F)c(F)c(F)c(F)c6F)c6nc(c(-c7c(F)c(F)c(F)c(F)c7F)c7ccc4[nH]7)C=C6)C=C5)cc3)cc2)SC1=S
REMARK SMILES IDX 25 1 24 2 23 3 21 4 22 5 20 6 14 7 15 8 16 9 19 10 17 11
REMARK SMILES IDX 13 12 11 13 12 14 10 16 7 17 8 18 96 19 9 20 95 21 6 22 1 23
REMARK SMILES IDX 2 24 3 25 98 26 4 27 5 28 97 29 99 30 18 31 26 33 27 34
REMARK SMILES IDX 28 35 29 36 30 37 31 38 32 39 33 40 94 41 34 42 93 43 35 44
REMARK SMILES IDX 36 45 37 46 87 47 38 48 92 49 86 50 88 51 39 52 91 53 85 54
REMARK SMILES IDX 84 55 40 57 72 58 52 59 71 60 53 61 56 62 70 63 89 64 54 65
REMARK SMILES IDX 55 66 69 68 90 69 57 70 41 71 42 72 50 73 43 74 44 75 48 76
REMARK SMILES IDX 51 77 45 78 46 79 49 80 47 81 73 82 74 83 82 84 75 85 76 86
REMARK SMILES IDX 80 87 83 88 77 89 78 90 81 91 79 92 58 93 59 94 67 95 60 96
REMARK SMILES IDX 61 97 65 98 68 99 62 100 63 101 66 102 64 103
REMARK H PARENT 13 15 18 32 88 56 56 67
REMARK Flexibility Score: inf
ROOT
ATOM      1  C   UNL A   1      32.240  29.992  27.259  1.00  0.00     0.202 C 
ENDROOT
BRANCH   1   2
ATOM      2  C   UNL A   1      33.719  29.617  27.156  1.00  0.00     0.261 C 
BRANCH   2   3
ATOM      3  O   UNL A   1      34.061  28.843  25.993  1.00  0.00    -0.460 OA
BRANCH   3   4
ATOM      4  C   UNL A   1      33.437  27.641  25.929  1.00  0.00     0.340 C 
ATOM      5  O   UNL A   1      33.279  26.869  26.866  1.00  0.00    -0.246 OA
BRANCH   4   6
ATOM      6  C   UNL A   1      32.809  27.382  24.607  1.00  0.00     0.087 A 
ATOM      7  C   UNL A   1      31.556  26.782  24.353  1.00  0.00     0.056 A 
ATOM      8  C   UNL A   1      31.192  26.551  23.011  1.00  0.00     0.031 A 
ATOM      9  C   UNL A   1      31.982  27.004  21.951  1.00  0.00     0.048 A 
ATOM     10  C   UNL A   1      33.600  27.826  23.523  1.00  0.00     0.064 A 
ATOM     11  C   UNL A   1      33.172  27.658  22.215  1.00  0.00     0.116 A 
BRANCH   7  12
ATOM     12  N   UNL A   1      30.542  26.442  25.279  1.00  0.00    -0.321 N 
ATOM     13  C   UNL A   1      30.191  25.252  25.886  1.00  0.00     0.255 C 
ATOM     14  O   UNL A   1      29.153  25.191  26.544  1.00  0.00    -0.269 OA
ATOM     15  H   UNL A   1      29.977  27.202  25.544  1.00  0.00     0.170 HD
BRANCH  13  16
ATOM     16  C   UNL A   1      31.067  24.061  25.819  1.00  0.00     0.040 A 
ATOM     17  C   UNL A   1      33.084  22.152  25.533  1.00  0.00    -0.024 A 
ATOM     18  C   UNL A   1      32.286  22.495  24.437  1.00  0.00     0.009 A 
ATOM     19  C   UNL A   1      32.813  22.720  26.781  1.00  0.00     0.009 A 
ATOM     20  C   UNL A   1      31.276  23.450  24.578  1.00  0.00     0.014 A 
ATOM     21  C   UNL A   1      31.752  23.603  26.943  1.00  0.00     0.014 A 
BRANCH  17  22
ATOM     22  C   UNL A   1      34.225  21.250  25.352  1.00  0.00     0.029 C 
ATOM     23  C   UNL A   1      38.194  24.058  26.214  1.00  0.00     0.155 C 
ATOM     24  N   UNL A   1      37.470  22.855  25.837  1.00  0.00    -0.296 N 
ATOM     25  C   UNL A   1      36.097  22.943  25.706  1.00  0.00     0.265 C 
ATOM     26  C   UNL A   1      38.036  21.614  25.664  1.00  0.00     0.148 C 
ATOM     27  O   UNL A   1      35.463  23.974  25.837  1.00  0.00    -0.268 OA
ATOM     28  C   UNL A   1      35.519  21.597  25.412  1.00  0.00     0.081 C 
ATOM     29  S   UNL A   1      36.795  20.448  25.227  1.00  0.00    -0.054 SA
ATOM     30  S   UNL A   1      39.637  21.187  25.848  1.00  0.00    -0.052 S 
ENDBRANCH  17  22
ENDBRANCH  13  16
ENDBRANCH   7  12
BRANCH  11  31
ATOM     31  O   UNL A   1      33.896  28.130  21.164  1.00  0.00    -0.508 OA
ATOM     32  H   UNL A   1      34.035  29.053  21.068  1.00  0.00     0.293 HD
ENDBRANCH  11  31
ENDBRANCH   4   6
ENDBRANCH   3   4
ENDBRANCH   2   3
ENDBRANCH   1   2
BRANCH   1  33
ATOM     33  O   UNL A   1      31.677  30.829  26.259  1.00  0.00    -0.374 OA
BRANCH  33  34
ATOM     34  C   UNL A   1      31.381  32.182  26.586  1.00  0.00     0.202 C 
BRANCH  34  35
ATOM     35  C   UNL A   1      32.538  33.140  26.905  1.00  0.00     0.261 C 
BRANCH  35  36
ATOM     36  O   UNL A   1      32.405  33.846  28.152  1.00  0.00    -0.460 OA
BRANCH  36  37
ATOM     37  C   UNL A   1      33.525  34.497  28.547  1.00  0.00     0.338 C 
ATOM     38  O   UNL A   1      33.638  35.684  28.816  1.00  0.00    -0.246 OA
BRANCH  37  39
ATOM     39  C   UNL A   1      34.641  33.559  28.748  1.00  0.00     0.060 A 
ATOM     40  C   UNL A   1      34.383  32.364  29.431  1.00  0.00     0.016 A 
ATOM     41  C   UNL A   1      35.949  33.938  28.444  1.00  0.00     0.016 A 
ATOM     42  C   UNL A   1      35.441  31.565  29.861  1.00  0.00     0.010 A 
ATOM     43  C   UNL A   1      37.009  33.141  28.884  1.00  0.00     0.010 A 
ATOM     44  C   UNL A   1      36.761  31.974  29.630  1.00  0.00    -0.014 A 
BRANCH  44  45
ATOM     45  C   UNL A   1      37.875  31.266  30.304  1.00  0.00     0.031 A 
ATOM     46  C   UNL A   1      38.177  31.578  31.745  1.00  0.00     0.074 A 
ATOM     47  C   UNL A   1      38.595  30.339  29.649  1.00  0.00     0.049 A 
ATOM     48  N   UNL A   1      39.130  31.118  32.515  1.00  0.00    -0.248 NA
ATOM     49  C   UNL A   1      37.283  32.543  32.406  1.00  0.00     0.031 C 
ATOM     50  C   UNL A   1      38.375  29.926  28.266  1.00  0.00     0.029 A 
ATOM     51  N   UNL A   1      39.664  29.587  30.064  1.00  0.00    -0.354 N 
ATOM     52  C   UNL A   1      38.958  31.740  33.744  1.00  0.00     0.074 A 
ATOM     53  C   UNL A   1      37.824  32.630  33.614  1.00  0.00     0.031 C 
ATOM     54  C   UNL A   1      39.290  28.998  27.940  1.00  0.00     0.029 A 
ATOM     55  C   UNL A   1      40.179  28.779  29.080  1.00  0.00     0.049 A 
ATOM     56  H   UNL A   1      40.027  29.622  30.977  1.00  0.00     0.167 HD
ATOM     57  C   UNL A   1      39.677  31.580  34.881  1.00  0.00     0.037 A 
ATOM     58  C   UNL A   1      41.261  27.977  29.094  1.00  0.00     0.037 A 
ATOM     59  C   UNL A   1      40.803  30.693  35.009  1.00  0.00     0.049 A 
ATOM     60  C   UNL A   1      42.083  27.865  30.351  1.00  0.00     0.074 A 
ATOM     61  C   UNL A   1      41.585  30.444  36.125  1.00  0.00     0.029 A 
ATOM     62  N   UNL A   1      41.312  29.910  33.983  1.00  0.00    -0.354 N 
ATOM     63  N   UNL A   1      41.903  28.441  31.515  1.00  0.00    -0.248 NA
ATOM     64  C   UNL A   1      43.262  26.989  30.294  1.00  0.00     0.031 C 
ATOM     65  C   UNL A   1      42.594  29.547  35.760  1.00  0.00     0.029 A 
ATOM     66  C   UNL A   1      42.412  29.198  34.432  1.00  0.00     0.049 A 
ATOM     67  H   UNL A   1      40.945  29.867  33.070  1.00  0.00     0.167 HD
ATOM     68  C   UNL A   1      42.926  27.980  32.333  1.00  0.00     0.074 A 
ATOM     69  C   UNL A   1      43.718  27.066  31.537  1.00  0.00     0.031 C 
ATOM     70  C   UNL A   1      43.185  28.286  33.628  1.00  0.00     0.037 A 
BRANCH  57  71
ATOM     71  C   UNL A   1      39.285  32.403  36.072  1.00  0.00     0.064 A 
ATOM     72  C   UNL A   1      39.800  33.692  36.281  1.00  0.00     0.173 A 
ATOM     73  C   UNL A   1      38.352  31.912  36.998  1.00  0.00     0.173 A 
ATOM     74  F   UNL A   1      40.704  34.203  35.432  1.00  0.00    -0.203 F 
ATOM     75  C   UNL A   1      39.414  34.446  37.386  1.00  0.00     0.198 A 
ATOM     76  C   UNL A   1      37.949  32.679  38.087  1.00  0.00     0.198 A 
ATOM     77  F   UNL A   1      37.825  30.687  36.842  1.00  0.00    -0.203 F 
ATOM     78  F   UNL A   1      39.951  35.658  37.588  1.00  0.00    -0.200 F 
ATOM     79  C   UNL A   1      38.485  33.943  38.283  1.00  0.00     0.200 A 
ATOM     80  F   UNL A   1      37.042  32.196  38.947  1.00  0.00    -0.200 F 
ATOM     81  F   UNL A   1      38.109  34.674  39.343  1.00  0.00    -0.200 F 
ENDBRANCH  57  71
BRANCH  58  82
ATOM     82  C   UNL A   1      41.638  27.226  27.870  1.00  0.00     0.064 A 
ATOM     83  C   UNL A   1      41.344  25.862  27.740  1.00  0.00     0.173 A 
ATOM     84  C   UNL A   1      42.311  27.853  26.811  1.00  0.00     0.173 A 
ATOM     85  F   UNL A   1      40.727  25.213  28.739  1.00  0.00    -0.203 F 
ATOM     86  C   UNL A   1      41.721  25.150  26.602  1.00  0.00     0.198 A 
ATOM     87  C   UNL A   1      42.663  27.147  25.663  1.00  0.00     0.198 A 
ATOM     88  F   UNL A   1      42.622  29.155  26.890  1.00  0.00    -0.203 F 
ATOM     89  F   UNL A   1      41.467  23.837  26.523  1.00  0.00    -0.200 F 
ATOM     90  C   UNL A   1      42.374  25.795  25.563  1.00  0.00     0.200 A 
ATOM     91  F   UNL A   1      43.288  27.775  24.658  1.00  0.00    -0.200 F 
ATOM     92  F   UNL A   1      42.735  25.110  24.468  1.00  0.00    -0.200 F 
ENDBRANCH  58  82
BRANCH  70  93
ATOM     93  C   UNL A   1      44.353  27.602  34.278  1.00  0.00     0.064 A 
ATOM     94  C   UNL A   1      45.622  28.199  34.325  1.00  0.00     0.173 A 
ATOM     95  C   UNL A   1      44.188  26.355  34.900  1.00  0.00     0.173 A 
ATOM     96  F   UNL A   1      45.833  29.383  33.733  1.00  0.00    -0.203 F 
ATOM     97  C   UNL A   1      46.689  27.559  34.952  1.00  0.00     0.198 A 
ATOM     98  C   UNL A   1      45.251  25.732  35.549  1.00  0.00     0.198 A 
ATOM     99  F   UNL A   1      42.993  25.746  34.890  1.00  0.00    -0.203 F 
ATOM    100  F   UNL A   1      47.903  28.126  34.947  1.00  0.00    -0.200 F 
ATOM    101  C   UNL A   1      46.500  26.332  35.568  1.00  0.00     0.200 A 
ATOM    102  F   UNL A   1      45.064  24.552  36.156  1.00  0.00    -0.200 F 
ATOM    103  F   UNL A   1      47.528  25.721  36.177  1.00  0.00    -0.200 F 
ENDBRANCH  70  93
ENDBRANCH  44  45
ENDBRANCH  37  39
ENDBRANCH  36  37
ENDBRANCH  35  36
ENDBRANCH  34  35
ENDBRANCH  33  34
ENDBRANCH   1  33
TORSDOF 18
ENDMDL
