MODEL 1
REMARK VINA RESULT:     -11.6      0.000      0.000
REMARK SMILES Cc1cc(Br)c(C)c([C@@H]2[NH2+][C@H](C(=O)OCCOCCOC(=O)c3ccc(-c4c5nc(c(-c6c(F)c(F)c(F)c(F)c6F)c6ccc([nH]6)c(-c6c(F)c(F)c(F)c(F)c6F)c6nc(c(-c7c(F)c(F)c(F)c(F)c7F)c7ccc4[nH]7)C=C6)C=C5)cc3)CS2)c1O
REMARK SMILES IDX 17 1 16 2 15 3 14 4 12 5 13 6 11 7 9 8 10 9 87 10 86 13 8 14
REMARK SMILES IDX 1 15 2 16 3 17 88 18 4 19 5 20 6 21 7 22 89 23 18 25 19 26
REMARK SMILES IDX 20 27 21 28 22 29 23 30 24 31 85 32 25 33 84 34 26 35 27 36
REMARK SMILES IDX 28 37 78 38 29 39 83 40 77 41 79 42 30 43 82 44 76 45 75 46
REMARK SMILES IDX 31 48 63 49 43 50 62 51 44 52 47 53 61 54 80 55 45 56 46 57
REMARK SMILES IDX 60 59 81 60 48 61 32 62 33 63 41 64 34 65 35 66 39 67 42 68
REMARK SMILES IDX 36 69 37 70 40 71 38 72 64 73 65 74 73 75 66 76 67 77 71 78
REMARK SMILES IDX 74 79 68 80 69 81 72 82 70 83 49 84 50 85 58 86 51 87 52 88
REMARK SMILES IDX 56 89 59 90 53 91 54 92 57 93 55 94
REMARK H PARENT 10 11 10 12 89 24 79 47 47 58
REMARK Flexibility Score: inf
ROOT
ATOM      1  O   UNL A   1      40.971  21.078  25.682  1.00  0.00    -0.374 OA
ENDROOT
BRANCH   1   2
ATOM      2  C   UNL A   1      39.901  21.649  26.435  1.00  0.00     0.202 C 
BRANCH   2   3
ATOM      3  C   UNL A   1      38.533  21.625  25.751  1.00  0.00     0.261 C 
BRANCH   3   4
ATOM      4  O   UNL A   1      37.747  22.742  26.188  1.00  0.00    -0.459 OA
BRANCH   4   5
ATOM      5  C   UNL A   1      36.506  22.864  25.645  1.00  0.00     0.365 C 
ATOM      6  O   UNL A   1      36.209  23.717  24.814  1.00  0.00    -0.245 OA
BRANCH   5   7
ATOM      7  C   UNL A   1      35.513  21.793  26.123  1.00  0.00     0.304 C 
ATOM      8  C   UNL A   1      33.118  22.089  25.884  1.00  0.00     0.278 C 
ATOM      9  N   UNL A   1      34.272  22.325  26.762  1.00  0.00    -0.319 N 
ATOM     10  S   UNL A   1      33.445  20.678  24.819  1.00  0.00    -0.087 SA
ATOM     11  H   UNL A   1      34.121  21.852  27.654  1.00  0.00     0.348 HD
ATOM     12  H   UNL A   1      34.377  23.327  26.919  1.00  0.00     0.348 HD
ATOM     13  C   UNL A   1      35.233  20.793  25.001  1.00  0.00     0.153 C 
BRANCH   8  14
ATOM     14  C   UNL A   1      32.585  23.346  25.203  1.00  0.00     0.066 A 
ATOM     15  C   UNL A   1      30.297  26.328  26.071  1.00  0.00     0.048 C 
ATOM     16  C   UNL A   1      31.240  25.422  25.333  1.00  0.00    -0.008 A 
ATOM     17  C   UNL A   1      31.571  25.708  24.011  1.00  0.00     0.023 A 
ATOM     18  C   UNL A   1      31.786  24.272  25.917  1.00  0.00     0.128 A 
ATOM     19  C   UNL A   1      32.391  24.846  23.282  1.00  0.00     0.021 A 
ATOM     20  Br  UNL A   1      32.903  25.441  21.541  1.00  0.00    -0.051 Br
ATOM     21  C   UNL A   1      32.846  23.624  23.827  1.00  0.00    -0.023 A 
ATOM     22  C   UNL A   1      33.607  22.686  22.916  1.00  0.00     0.046 C 
BRANCH  18  23
ATOM     23  O   UNL A   1      31.561  24.065  27.251  1.00  0.00    -0.507 OA
ATOM     24  H   UNL A   1      30.684  24.019  27.576  1.00  0.00     0.293 HD
ENDBRANCH  18  23
ENDBRANCH   8  14
ENDBRANCH   5   7
ENDBRANCH   4   5
ENDBRANCH   3   4
ENDBRANCH   2   3
ENDBRANCH   1   2
BRANCH   1  25
ATOM     25  C   UNL A   1      42.263  21.056  26.289  1.00  0.00     0.202 C 
BRANCH  25  26
ATOM     26  C   UNL A   1      43.361  21.873  25.597  1.00  0.00     0.261 C 
BRANCH  26  27
ATOM     27  O   UNL A   1      42.872  23.030  24.893  1.00  0.00    -0.460 OA
BRANCH  27  28
ATOM     28  C   UNL A   1      43.638  24.140  25.006  1.00  0.00     0.338 C 
ATOM     29  O   UNL A   1      44.629  24.428  24.350  1.00  0.00    -0.246 OA
BRANCH  28  30
ATOM     30  C   UNL A   1      43.047  25.077  25.981  1.00  0.00     0.060 A 
ATOM     31  C   UNL A   1      41.998  24.685  26.809  1.00  0.00     0.016 A 
ATOM     32  C   UNL A   1      43.639  26.336  26.145  1.00  0.00     0.016 A 
ATOM     33  C   UNL A   1      41.558  25.557  27.812  1.00  0.00     0.010 A 
ATOM     34  C   UNL A   1      43.189  27.205  27.146  1.00  0.00     0.010 A 
ATOM     35  C   UNL A   1      42.141  26.826  27.994  1.00  0.00    -0.014 A 
BRANCH  35  36
ATOM     36  C   UNL A   1      41.702  27.687  29.130  1.00  0.00     0.031 A 
ATOM     37  C   UNL A   1      40.528  28.621  29.022  1.00  0.00     0.074 A 
ATOM     38  C   UNL A   1      42.364  27.614  30.302  1.00  0.00     0.049 A 
ATOM     39  N   UNL A   1      39.890  29.262  29.973  1.00  0.00    -0.248 NA
ATOM     40  C   UNL A   1      39.983  28.859  27.681  1.00  0.00     0.031 C 
ATOM     41  C   UNL A   1      43.553  26.797  30.546  1.00  0.00     0.029 A 
ATOM     42  N   UNL A   1      42.131  28.232  31.505  1.00  0.00    -0.354 N 
ATOM     43  C   UNL A   1      38.829  29.910  29.353  1.00  0.00     0.074 A 
ATOM     44  C   UNL A   1      38.941  29.640  27.938  1.00  0.00     0.031 C 
ATOM     45  C   UNL A   1      43.932  26.948  31.823  1.00  0.00     0.029 A 
ATOM     46  C   UNL A   1      43.032  27.891  32.482  1.00  0.00     0.049 A 
ATOM     47  H   UNL A   1      41.387  28.861  31.652  1.00  0.00     0.167 HD
ATOM     48  C   UNL A   1      37.844  30.650  29.915  1.00  0.00     0.037 A 
ATOM     49  C   UNL A   1      43.130  28.296  33.763  1.00  0.00     0.037 A 
ATOM     50  C   UNL A   1      37.788  31.020  31.303  1.00  0.00     0.049 A 
ATOM     51  C   UNL A   1      42.106  29.241  34.328  1.00  0.00     0.074 A 
ATOM     52  C   UNL A   1      36.823  31.767  31.959  1.00  0.00     0.029 A 
ATOM     53  N   UNL A   1      38.765  30.720  32.238  1.00  0.00    -0.354 N 
ATOM     54  N   UNL A   1      41.027  29.724  33.765  1.00  0.00    -0.248 NA
ATOM     55  C   UNL A   1      42.315  29.696  35.711  1.00  0.00     0.031 C 
ATOM     56  C   UNL A   1      37.256  31.985  33.270  1.00  0.00     0.029 A 
ATOM     57  C   UNL A   1      38.460  31.324  33.447  1.00  0.00     0.049 A 
ATOM     58  H   UNL A   1      39.558  30.161  32.069  1.00  0.00     0.167 HD
ATOM     59  C   UNL A   1      40.421  30.524  34.725  1.00  0.00     0.074 A 
ATOM     60  C   UNL A   1      41.241  30.447  35.915  1.00  0.00     0.031 C 
ATOM     61  C   UNL A   1      39.286  31.256  34.624  1.00  0.00     0.037 A 
BRANCH  48  62
ATOM     62  C   UNL A   1      36.726  31.124  29.036  1.00  0.00     0.064 A 
ATOM     63  C   UNL A   1      35.691  30.255  28.662  1.00  0.00     0.173 A 
ATOM     64  C   UNL A   1      36.615  32.476  28.680  1.00  0.00     0.173 A 
ATOM     65  F   UNL A   1      35.756  28.953  28.976  1.00  0.00    -0.203 F 
ATOM     66  C   UNL A   1      34.576  30.727  27.972  1.00  0.00     0.198 A 
ATOM     67  C   UNL A   1      35.493  32.946  28.001  1.00  0.00     0.198 A 
ATOM     68  F   UNL A   1      37.578  33.345  29.021  1.00  0.00    -0.203 F 
ATOM     69  F   UNL A   1      33.596  29.881  27.626  1.00  0.00    -0.200 F 
ATOM     70  C   UNL A   1      34.473  32.072  27.652  1.00  0.00     0.200 A 
ATOM     71  F   UNL A   1      35.390  34.248  27.700  1.00  0.00    -0.200 F 
ATOM     72  F   UNL A   1      33.390  32.529  27.010  1.00  0.00    -0.200 F 
ENDBRANCH  48  62
BRANCH  49  73
ATOM     73  C   UNL A   1      44.254  27.803  34.600  1.00  0.00     0.064 A 
ATOM     74  C   UNL A   1      44.154  26.604  35.318  1.00  0.00     0.173 A 
ATOM     75  C   UNL A   1      45.454  28.526  34.697  1.00  0.00     0.173 A 
ATOM     76  F   UNL A   1      43.018  25.892  35.277  1.00  0.00    -0.203 F 
ATOM     77  C   UNL A   1      45.208  26.152  36.109  1.00  0.00     0.198 A 
ATOM     78  C   UNL A   1      46.516  28.057  35.464  1.00  0.00     0.198 A 
ATOM     79  F   UNL A   1      45.597  29.681  34.031  1.00  0.00    -0.203 F 
ATOM     80  F   UNL A   1      45.073  25.022  36.816  1.00  0.00    -0.200 F 
ATOM     81  C   UNL A   1      46.390  26.874  36.175  1.00  0.00     0.200 A 
ATOM     82  F   UNL A   1      47.661  28.752  35.515  1.00  0.00    -0.200 F 
ATOM     83  F   UNL A   1      47.406  26.432  36.929  1.00  0.00    -0.200 F 
ENDBRANCH  49  73
BRANCH  61  84
ATOM     84  C   UNL A   1      38.857  32.049  35.824  1.00  0.00     0.064 A 
ATOM     85  C   UNL A   1      38.152  31.450  36.879  1.00  0.00     0.173 A 
ATOM     86  C   UNL A   1      39.216  33.399  35.955  1.00  0.00     0.173 A 
ATOM     87  F   UNL A   1      37.777  30.165  36.796  1.00  0.00    -0.203 F 
ATOM     88  C   UNL A   1      37.810  32.179  38.014  1.00  0.00     0.198 A 
ATOM     89  C   UNL A   1      38.894  34.118  37.104  1.00  0.00     0.198 A 
ATOM     90  F   UNL A   1      39.898  34.017  34.979  1.00  0.00    -0.203 F 
ATOM     91  F   UNL A   1      37.106  31.596  38.995  1.00  0.00    -0.200 F 
ATOM     92  C   UNL A   1      38.189  33.508  38.130  1.00  0.00     0.200 A 
ATOM     93  F   UNL A   1      39.276  35.396  37.221  1.00  0.00    -0.200 F 
ATOM     94  F   UNL A   1      37.872  34.203  39.232  1.00  0.00    -0.200 F 
ENDBRANCH  61  84
ENDBRANCH  35  36
ENDBRANCH  28  30
ENDBRANCH  27  28
ENDBRANCH  26  27
ENDBRANCH  25  26
ENDBRANCH   1  25
TORSDOF 16
ENDMDL
MODEL 2
REMARK VINA RESULT:     -11.4      3.277      8.858
REMARK SMILES Cc1cc(Br)c(C)c([C@@H]2[NH2+][C@H](C(=O)OCCOCCOC(=O)c3ccc(-c4c5nc(c(-c6c(F)c(F)c(F)c(F)c6F)c6ccc([nH]6)c(-c6c(F)c(F)c(F)c(F)c6F)c6nc(c(-c7c(F)c(F)c(F)c(F)c7F)c7ccc4[nH]7)C=C6)C=C5)cc3)CS2)c1O
REMARK SMILES IDX 17 1 16 2 15 3 14 4 12 5 13 6 11 7 9 8 10 9 87 10 86 13 8 14
REMARK SMILES IDX 1 15 2 16 3 17 88 18 4 19 5 20 6 21 7 22 89 23 18 25 19 26
REMARK SMILES IDX 20 27 21 28 22 29 23 30 24 31 85 32 25 33 84 34 26 35 27 36
REMARK SMILES IDX 28 37 78 38 29 39 83 40 77 41 79 42 30 43 82 44 76 45 75 46
REMARK SMILES IDX 31 48 63 49 43 50 62 51 44 52 47 53 61 54 80 55 45 56 46 57
REMARK SMILES IDX 60 59 81 60 48 61 32 62 33 63 41 64 34 65 35 66 39 67 42 68
REMARK SMILES IDX 36 69 37 70 40 71 38 72 64 73 65 74 73 75 66 76 67 77 71 78
REMARK SMILES IDX 74 79 68 80 69 81 72 82 70 83 49 84 50 85 58 86 51 87 52 88
REMARK SMILES IDX 56 89 59 90 53 91 54 92 57 93 55 94
REMARK H PARENT 10 11 10 12 89 24 79 47 47 58
REMARK Flexibility Score: inf
ROOT
ATOM      1  O   UNL A   1      33.865  30.953  27.832  1.00  0.00    -0.374 OA
ENDROOT
BRANCH   1   2
ATOM      2  C   UNL A   1      34.401  29.827  27.139  1.00  0.00     0.202 C 
BRANCH   2   3
ATOM      3  C   UNL A   1      33.597  28.532  27.273  1.00  0.00     0.261 C 
BRANCH   3   4
ATOM      4  O   UNL A   1      33.798  27.709  26.116  1.00  0.00    -0.459 OA
BRANCH   4   5
ATOM      5  C   UNL A   1      32.730  26.979  25.694  1.00  0.00     0.365 C 
ATOM      6  O   UNL A   1      31.786  26.676  26.417  1.00  0.00    -0.245 OA
BRANCH   5   7
ATOM      7  C   UNL A   1      32.779  26.613  24.202  1.00  0.00     0.304 C 
ATOM      8  C   UNL A   1      33.724  24.513  23.444  1.00  0.00     0.278 C 
ATOM      9  N   UNL A   1      34.026  25.914  23.766  1.00  0.00    -0.319 N 
ATOM     10  S   UNL A   1      31.997  24.357  22.970  1.00  0.00    -0.087 SA
ATOM     11  H   UNL A   1      34.402  26.378  22.939  1.00  0.00     0.348 HD
ATOM     12  H   UNL A   1      34.711  25.947  24.520  1.00  0.00     0.348 HD
ATOM     13  C   UNL A   1      31.502  25.879  23.795  1.00  0.00     0.153 C 
BRANCH   8  14
ATOM     14  C   UNL A   1      34.241  23.511  24.473  1.00  0.00     0.066 A 
ATOM     15  C   UNL A   1      33.257  22.228  27.975  1.00  0.00     0.048 C 
ATOM     16  C   UNL A   1      33.969  22.385  26.662  1.00  0.00    -0.008 A 
ATOM     17  C   UNL A   1      35.132  21.657  26.421  1.00  0.00     0.023 A 
ATOM     18  C   UNL A   1      33.522  23.265  25.668  1.00  0.00     0.128 A 
ATOM     19  C   UNL A   1      35.848  21.836  25.238  1.00  0.00     0.021 A 
ATOM     20  Br  UNL A   1      37.325  20.656  24.961  1.00  0.00    -0.051 Br
ATOM     21  C   UNL A   1      35.470  22.808  24.285  1.00  0.00    -0.023 A 
ATOM     22  C   UNL A   1      36.387  23.033  23.104  1.00  0.00     0.046 C 
BRANCH  18  23
ATOM     23  O   UNL A   1      32.315  23.880  25.855  1.00  0.00    -0.507 OA
ATOM     24  H   UNL A   1      32.139  24.333  26.655  1.00  0.00     0.293 HD
ENDBRANCH  18  23
ENDBRANCH   8  14
ENDBRANCH   5   7
ENDBRANCH   4   5
ENDBRANCH   3   4
ENDBRANCH   2   3
ENDBRANCH   1   2
BRANCH   1  25
ATOM     25  C   UNL A   1      32.731  31.600  27.255  1.00  0.00     0.202 C 
BRANCH  25  26
ATOM     26  C   UNL A   1      32.797  33.128  27.139  1.00  0.00     0.261 C 
BRANCH  26  27
ATOM     27  O   UNL A   1      32.196  33.824  28.247  1.00  0.00    -0.460 OA
BRANCH  27  28
ATOM     28  C   UNL A   1      32.912  34.866  28.731  1.00  0.00     0.338 C 
ATOM     29  O   UNL A   1      32.600  36.049  28.723  1.00  0.00    -0.246 OA
BRANCH  28  30
ATOM     30  C   UNL A   1      34.128  34.383  29.414  1.00  0.00     0.060 A 
ATOM     31  C   UNL A   1      34.046  33.681  30.613  1.00  0.00     0.016 A 
ATOM     32  C   UNL A   1      35.364  34.539  28.772  1.00  0.00     0.016 A 
ATOM     33  C   UNL A   1      35.209  33.124  31.158  1.00  0.00     0.010 A 
ATOM     34  C   UNL A   1      36.523  33.984  29.326  1.00  0.00     0.010 A 
ATOM     35  C   UNL A   1      36.461  33.268  30.528  1.00  0.00    -0.014 A 
BRANCH  35  36
ATOM     36  C   UNL A   1      37.659  32.583  31.095  1.00  0.00     0.031 A 
ATOM     37  C   UNL A   1      38.253  32.972  32.421  1.00  0.00     0.074 A 
ATOM     38  C   UNL A   1      38.219  31.567  30.409  1.00  0.00     0.049 A 
ATOM     39  N   UNL A   1      39.144  32.338  33.146  1.00  0.00    -0.248 NA
ATOM     40  C   UNL A   1      37.782  34.223  33.025  1.00  0.00     0.031 C 
ATOM     41  C   UNL A   1      37.790  31.109  29.087  1.00  0.00     0.029 A 
ATOM     42  N   UNL A   1      39.264  30.737  30.728  1.00  0.00    -0.354 N 
ATOM     43  C   UNL A   1      39.275  33.071  34.319  1.00  0.00     0.074 A 
ATOM     44  C   UNL A   1      38.424  34.232  34.187  1.00  0.00     0.031 C 
ATOM     45  C   UNL A   1      38.551  30.068  28.718  1.00  0.00     0.029 A 
ATOM     46  C   UNL A   1      39.538  29.802  29.762  1.00  0.00     0.049 A 
ATOM     47  H   UNL A   1      39.769  30.806  31.571  1.00  0.00     0.167 HD
ATOM     48  C   UNL A   1      40.026  32.795  35.411  1.00  0.00     0.037 A 
ATOM     49  C   UNL A   1      40.480  28.840  29.715  1.00  0.00     0.037 A 
ATOM     50  C   UNL A   1      40.962  31.708  35.508  1.00  0.00     0.049 A 
ATOM     51  C   UNL A   1      41.407  28.646  30.882  1.00  0.00     0.074 A 
ATOM     52  C   UNL A   1      41.764  31.352  36.579  1.00  0.00     0.029 A 
ATOM     53  N   UNL A   1      41.265  30.836  34.475  1.00  0.00    -0.354 N 
ATOM     54  N   UNL A   1      41.416  29.255  32.043  1.00  0.00    -0.248 NA
ATOM     55  C   UNL A   1      42.457  27.626  30.735  1.00  0.00     0.031 C 
ATOM     56  C   UNL A   1      42.607  30.315  36.169  1.00  0.00     0.029 A 
ATOM     57  C   UNL A   1      42.289  29.987  34.862  1.00  0.00     0.049 A 
ATOM     58  H   UNL A   1      40.819  30.820  33.597  1.00  0.00     0.167 HD
ATOM     59  C   UNL A   1      42.456  28.685  32.765  1.00  0.00     0.074 A 
ATOM     60  C   UNL A   1      43.045  27.667  31.922  1.00  0.00     0.031 C 
ATOM     61  C   UNL A   1      42.882  28.984  34.016  1.00  0.00     0.037 A 
BRANCH  48  62
ATOM     62  C   UNL A   1      39.880  33.679  36.613  1.00  0.00     0.064 A 
ATOM     63  C   UNL A   1      40.541  34.914  36.678  1.00  0.00     0.173 A 
ATOM     64  C   UNL A   1      38.977  33.359  37.637  1.00  0.00     0.173 A 
ATOM     65  F   UNL A   1      41.418  35.261  35.724  1.00  0.00    -0.203 F 
ATOM     66  C   UNL A   1      40.294  35.804  37.721  1.00  0.00     0.198 A 
ATOM     67  C   UNL A   1      38.723  34.256  38.671  1.00  0.00     0.198 A 
ATOM     68  F   UNL A   1      38.318  32.191  37.614  1.00  0.00    -0.203 F 
ATOM     69  F   UNL A   1      40.933  36.981  37.763  1.00  0.00    -0.200 F 
ATOM     70  C   UNL A   1      39.377  35.479  38.709  1.00  0.00     0.200 A 
ATOM     71  F   UNL A   1      37.830  33.945  39.621  1.00  0.00    -0.200 F 
ATOM     72  F   UNL A   1      39.121  36.345  39.700  1.00  0.00    -0.200 F 
ENDBRANCH  48  62
BRANCH  49  73
ATOM     73  C   UNL A   1      40.592  27.985  28.505  1.00  0.00     0.064 A 
ATOM     74  C   UNL A   1      39.951  26.742  28.433  1.00  0.00     0.173 A 
ATOM     75  C   UNL A   1      41.345  28.400  27.395  1.00  0.00     0.173 A 
ATOM     76  F   UNL A   1      39.242  26.292  29.478  1.00  0.00    -0.203 F 
ATOM     77  C   UNL A   1      40.067  25.941  27.299  1.00  0.00     0.198 A 
ATOM     78  C   UNL A   1      41.435  27.611  26.251  1.00  0.00     0.198 A 
ATOM     79  F   UNL A   1      41.979  29.582  27.418  1.00  0.00    -0.203 F 
ATOM     80  F   UNL A   1      39.477  24.738  27.268  1.00  0.00    -0.200 F 
ATOM     81  C   UNL A   1      40.802  26.379  26.207  1.00  0.00     0.200 A 
ATOM     82  F   UNL A   1      42.136  28.045  25.195  1.00  0.00    -0.200 F 
ATOM     83  F   UNL A   1      40.905  25.611  25.114  1.00  0.00    -0.200 F 
ENDBRANCH  49  73
BRANCH  61  84
ATOM     84  C   UNL A   1      44.049  28.213  34.559  1.00  0.00     0.064 A 
ATOM     85  C   UNL A   1      43.870  26.985  35.213  1.00  0.00     0.173 A 
ATOM     86  C   UNL A   1      45.361  28.669  34.361  1.00  0.00     0.173 A 
ATOM     87  F   UNL A   1      42.635  26.513  35.435  1.00  0.00    -0.203 F 
ATOM     88  C   UNL A   1      44.963  26.249  35.662  1.00  0.00     0.198 A 
ATOM     89  C   UNL A   1      46.453  27.916  34.788  1.00  0.00     0.198 A 
ATOM     90  F   UNL A   1      45.587  29.832  33.734  1.00  0.00    -0.203 F 
ATOM     91  F   UNL A   1      44.767  25.094  36.314  1.00  0.00    -0.200 F 
ATOM     92  C   UNL A   1      46.252  26.710  35.441  1.00  0.00     0.200 A 
ATOM     93  F   UNL A   1      47.697  28.355  34.559  1.00  0.00    -0.200 F 
ATOM     94  F   UNL A   1      47.303  25.990  35.860  1.00  0.00    -0.200 F 
ENDBRANCH  61  84
ENDBRANCH  35  36
ENDBRANCH  28  30
ENDBRANCH  27  28
ENDBRANCH  26  27
ENDBRANCH  25  26
ENDBRANCH   1  25
TORSDOF 16
ENDMDL
MODEL 3
REMARK VINA RESULT:     -11.4      3.316      8.350
REMARK SMILES Cc1cc(Br)c(C)c([C@@H]2[NH2+][C@H](C(=O)OCCOCCOC(=O)c3ccc(-c4c5nc(c(-c6c(F)c(F)c(F)c(F)c6F)c6ccc([nH]6)c(-c6c(F)c(F)c(F)c(F)c6F)c6nc(c(-c7c(F)c(F)c(F)c(F)c7F)c7ccc4[nH]7)C=C6)C=C5)cc3)CS2)c1O
REMARK SMILES IDX 17 1 16 2 15 3 14 4 12 5 13 6 11 7 9 8 10 9 87 10 86 13 8 14
REMARK SMILES IDX 1 15 2 16 3 17 88 18 4 19 5 20 6 21 7 22 89 23 18 25 19 26
REMARK SMILES IDX 20 27 21 28 22 29 23 30 24 31 85 32 25 33 84 34 26 35 27 36
REMARK SMILES IDX 28 37 78 38 29 39 83 40 77 41 79 42 30 43 82 44 76 45 75 46
REMARK SMILES IDX 31 48 63 49 43 50 62 51 44 52 47 53 61 54 80 55 45 56 46 57
REMARK SMILES IDX 60 59 81 60 48 61 32 62 33 63 41 64 34 65 35 66 39 67 42 68
REMARK SMILES IDX 36 69 37 70 40 71 38 72 64 73 65 74 73 75 66 76 67 77 71 78
REMARK SMILES IDX 74 79 68 80 69 81 72 82 70 83 49 84 50 85 58 86 51 87 52 88
REMARK SMILES IDX 56 89 59 90 53 91 54 92 57 93 55 94
REMARK H PARENT 10 11 10 12 89 24 79 47 47 58
REMARK Flexibility Score: inf
ROOT
ATOM      1  O   UNL A   1      32.534  30.920  26.864  1.00  0.00    -0.374 OA
ENDROOT
BRANCH   1   2
ATOM      2  C   UNL A   1      31.956  30.042  25.899  1.00  0.00     0.202 C 
BRANCH   2   3
ATOM      3  C   UNL A   1      32.938  29.425  24.902  1.00  0.00     0.261 C 
BRANCH   3   4
ATOM      4  O   UNL A   1      33.644  28.339  25.518  1.00  0.00    -0.459 OA
BRANCH   4   5
ATOM      5  C   UNL A   1      33.073  27.108  25.421  1.00  0.00     0.365 C 
ATOM      6  O   UNL A   1      32.666  26.470  26.388  1.00  0.00    -0.245 OA
BRANCH   5   7
ATOM      7  C   UNL A   1      32.924  26.606  23.976  1.00  0.00     0.304 C 
ATOM      8  C   UNL A   1      33.632  24.379  23.331  1.00  0.00     0.278 C 
ATOM      9  N   UNL A   1      34.062  25.775  23.478  1.00  0.00    -0.319 N 
ATOM     10  S   UNL A   1      31.855  24.315  23.066  1.00  0.00    -0.087 SA
ATOM     11  H   UNL A   1      34.370  26.132  22.573  1.00  0.00     0.348 HD
ATOM     12  H   UNL A   1      34.831  25.823  24.146  1.00  0.00     0.348 HD
ATOM     13  C   UNL A   1      31.562  25.940  23.786  1.00  0.00     0.153 C 
BRANCH   8  14
ATOM     14  C   UNL A   1      34.196  23.437  24.391  1.00  0.00     0.066 A 
ATOM     15  C   UNL A   1      33.263  22.205  27.925  1.00  0.00     0.048 C 
ATOM     16  C   UNL A   1      33.973  22.362  26.612  1.00  0.00    -0.008 A 
ATOM     17  C   UNL A   1      35.175  21.693  26.397  1.00  0.00     0.023 A 
ATOM     18  C   UNL A   1      33.485  23.187  25.590  1.00  0.00     0.128 A 
ATOM     19  C   UNL A   1      35.888  21.875  25.212  1.00  0.00     0.021 A 
ATOM     20  Br  UNL A   1      37.428  20.771  24.977  1.00  0.00    -0.051 Br
ATOM     21  C   UNL A   1      35.463  22.797  24.230  1.00  0.00    -0.023 A 
ATOM     22  C   UNL A   1      36.374  23.037  23.046  1.00  0.00     0.046 C 
BRANCH  18  23
ATOM     23  O   UNL A   1      32.244  23.740  25.753  1.00  0.00    -0.507 OA
ATOM     24  H   UNL A   1      32.153  24.561  26.194  1.00  0.00     0.293 HD
ENDBRANCH  18  23
ENDBRANCH   8  14
ENDBRANCH   5   7
ENDBRANCH   4   5
ENDBRANCH   3   4
ENDBRANCH   2   3
ENDBRANCH   1   2
BRANCH   1  25
ATOM     25  C   UNL A   1      32.043  32.259  26.911  1.00  0.00     0.202 C 
BRANCH  25  26
ATOM     26  C   UNL A   1      32.951  33.301  27.576  1.00  0.00     0.261 C 
BRANCH  26  27
ATOM     27  O   UNL A   1      32.237  34.390  28.191  1.00  0.00    -0.460 OA
BRANCH  27  28
ATOM     28  C   UNL A   1      33.015  35.362  28.723  1.00  0.00     0.338 C 
ATOM     29  O   UNL A   1      32.821  36.570  28.690  1.00  0.00    -0.246 OA
BRANCH  28  30
ATOM     30  C   UNL A   1      34.126  34.770  29.493  1.00  0.00     0.060 A 
ATOM     31  C   UNL A   1      33.924  34.274  30.778  1.00  0.00     0.016 A 
ATOM     32  C   UNL A   1      35.367  34.607  28.863  1.00  0.00     0.016 A 
ATOM     33  C   UNL A   1      34.968  33.598  31.421  1.00  0.00     0.010 A 
ATOM     34  C   UNL A   1      36.408  33.936  29.515  1.00  0.00     0.010 A 
ATOM     35  C   UNL A   1      36.222  33.422  30.804  1.00  0.00    -0.014 A 
BRANCH  35  36
ATOM     36  C   UNL A   1      37.278  32.620  31.488  1.00  0.00     0.031 A 
ATOM     37  C   UNL A   1      37.866  31.379  30.874  1.00  0.00     0.074 A 
ATOM     38  C   UNL A   1      37.739  33.029  32.686  1.00  0.00     0.049 A 
ATOM     39  N   UNL A   1      38.932  30.704  31.232  1.00  0.00    -0.248 NA
ATOM     40  C   UNL A   1      37.185  30.826  29.697  1.00  0.00     0.031 C 
ATOM     41  C   UNL A   1      37.232  34.180  33.433  1.00  0.00     0.029 A 
ATOM     42  N   UNL A   1      38.735  32.525  33.484  1.00  0.00    -0.354 N 
ATOM     43  C   UNL A   1      39.090  29.704  30.282  1.00  0.00     0.074 A 
ATOM     44  C   UNL A   1      37.977  29.815  29.366  1.00  0.00     0.031 C 
ATOM     45  C   UNL A   1      37.934  34.307  34.569  1.00  0.00     0.029 A 
ATOM     46  C   UNL A   1      38.921  33.233  34.645  1.00  0.00     0.049 A 
ATOM     47  H   UNL A   1      39.267  31.731  33.246  1.00  0.00     0.167 HD
ATOM     48  C   UNL A   1      40.078  28.785  30.174  1.00  0.00     0.037 A 
ATOM     49  C   UNL A   1      39.783  33.039  35.662  1.00  0.00     0.037 A 
ATOM     50  C   UNL A   1      41.125  28.591  31.141  1.00  0.00     0.049 A 
ATOM     51  C   UNL A   1      40.779  31.915  35.591  1.00  0.00     0.074 A 
ATOM     52  C   UNL A   1      42.171  27.684  31.111  1.00  0.00     0.029 A 
ATOM     53  N   UNL A   1      41.225  29.277  32.340  1.00  0.00    -0.354 N 
ATOM     54  N   UNL A   1      41.008  31.071  34.615  1.00  0.00    -0.248 NA
ATOM     55  C   UNL A   1      41.641  31.717  36.766  1.00  0.00     0.031 C 
ATOM     56  C   UNL A   1      42.857  27.768  32.326  1.00  0.00     0.029 A 
ATOM     57  C   UNL A   1      42.274  28.767  33.088  1.00  0.00     0.049 A 
ATOM     58  H   UNL A   1      40.639  30.018  32.620  1.00  0.00     0.167 HD
ATOM     59  C   UNL A   1      42.044  30.257  35.049  1.00  0.00     0.074 A 
ATOM     60  C   UNL A   1      42.416  30.717  36.369  1.00  0.00     0.031 C 
ATOM     61  C   UNL A   1      42.633  29.219  34.407  1.00  0.00     0.037 A 
BRANCH  48  62
ATOM     62  C   UNL A   1      40.095  27.900  28.964  1.00  0.00     0.064 A 
ATOM     63  C   UNL A   1      40.810  28.268  27.816  1.00  0.00     0.173 A 
ATOM     64  C   UNL A   1      39.511  26.625  28.998  1.00  0.00     0.173 A 
ATOM     65  F   UNL A   1      41.381  29.480  27.737  1.00  0.00    -0.203 F 
ATOM     66  C   UNL A   1      40.952  27.385  26.747  1.00  0.00     0.198 A 
ATOM     67  C   UNL A   1      39.665  25.741  27.933  1.00  0.00     0.198 A 
ATOM     68  F   UNL A   1      38.821  26.227  30.077  1.00  0.00    -0.203 F 
ATOM     69  F   UNL A   1      41.643  27.756  25.660  1.00  0.00    -0.200 F 
ATOM     70  C   UNL A   1      40.389  26.120  26.812  1.00  0.00     0.200 A 
ATOM     71  F   UNL A   1      39.129  24.514  28.000  1.00  0.00    -0.200 F 
ATOM     72  F   UNL A   1      40.546  25.262  25.794  1.00  0.00    -0.200 F 
ENDBRANCH  48  62
BRANCH  49  73
ATOM     73  C   UNL A   1      39.733  33.938  36.843  1.00  0.00     0.064 A 
ATOM     74  C   UNL A   1      38.951  33.625  37.962  1.00  0.00     0.173 A 
ATOM     75  C   UNL A   1      40.472  35.131  36.874  1.00  0.00     0.173 A 
ATOM     76  F   UNL A   1      38.208  32.508  37.969  1.00  0.00    -0.203 F 
ATOM     77  C   UNL A   1      38.901  34.477  39.063  1.00  0.00     0.198 A 
ATOM     78  C   UNL A   1      40.444  35.967  37.987  1.00  0.00     0.198 A 
ATOM     79  F   UNL A   1      41.234  35.476  35.825  1.00  0.00    -0.203 F 
ATOM     80  F   UNL A   1      38.115  34.174  40.105  1.00  0.00    -0.200 F 
ATOM     81  C   UNL A   1      39.653  35.642  39.078  1.00  0.00     0.200 A 
ATOM     82  F   UNL A   1      41.183  37.085  38.001  1.00  0.00    -0.200 F 
ATOM     83  F   UNL A   1      39.611  36.456  40.142  1.00  0.00    -0.200 F 
ENDBRANCH  49  73
BRANCH  61  84
ATOM     84  C   UNL A   1      43.736  28.492  35.118  1.00  0.00     0.064 A 
ATOM     85  C   UNL A   1      43.476  27.353  35.894  1.00  0.00     0.173 A 
ATOM     86  C   UNL A   1      45.072  28.893  34.964  1.00  0.00     0.173 A 
ATOM     87  F   UNL A   1      42.215  26.937  36.080  1.00  0.00    -0.203 F 
ATOM     88  C   UNL A   1      44.513  26.651  36.502  1.00  0.00     0.198 A 
ATOM     89  C   UNL A   1      46.108  28.172  35.552  1.00  0.00     0.198 A 
ATOM     90  F   UNL A   1      45.375  29.970  34.224  1.00  0.00    -0.203 F 
ATOM     91  F   UNL A   1      44.238  25.585  37.268  1.00  0.00    -0.200 F 
ATOM     92  C   UNL A   1      45.827  27.055  36.324  1.00  0.00     0.200 A 
ATOM     93  F   UNL A   1      47.378  28.554  35.364  1.00  0.00    -0.200 F 
ATOM     94  F   UNL A   1      46.825  26.367  36.897  1.00  0.00    -0.200 F 
ENDBRANCH  61  84
ENDBRANCH  35  36
ENDBRANCH  28  30
ENDBRANCH  27  28
ENDBRANCH  26  27
ENDBRANCH  25  26
ENDBRANCH   1  25
TORSDOF 16
ENDMDL
