MODEL 1
REMARK VINA RESULT:      -9.7      0.000      0.000
REMARK SMILES CC(C)N(CC(F)(F)F)C(=O)N(CC(=O)OCCOCCOC(=O)c1ccc(-c2c3nc(c(-c4c(F)c(F)c(F)c(F)c4F)c4ccc([nH]4)c(-c4c(F)c(F)c(F)c(F)c4F)c4nc(c(-c5c(F)c(F)c(F)c(F)c5F)c5ccc2[nH]5)C=C4)C=C3)cc1)C(C)(C)C
REMARK SMILES IDX 17 1 16 2 14 3 15 4 13 5 12 6 10 7 11 8 4 9 2 10 1 11 3 12
REMARK SMILES IDX 5 13 6 14 7 15 8 16 9 17 88 18 89 19 90 20 91 21 18 22 19 23
REMARK SMILES IDX 20 24 21 25 22 26 23 27 24 28 25 29 26 30 87 31 27 32 86 33
REMARK SMILES IDX 28 34 29 35 30 36 80 37 31 38 85 39 79 40 81 41 32 42 84 43
REMARK SMILES IDX 78 44 77 45 33 47 65 48 45 49 64 50 46 51 49 52 63 53 82 54
REMARK SMILES IDX 47 55 48 56 62 58 83 59 50 60 34 61 35 62 43 63 36 64 37 65
REMARK SMILES IDX 41 66 44 67 38 68 39 69 42 70 40 71 66 72 67 73 75 74 68 75
REMARK SMILES IDX 69 76 73 77 76 78 70 79 71 80 74 81 72 82 51 83 52 84 60 85
REMARK SMILES IDX 53 86 54 87 58 88 61 89 55 90 56 91 59 92 57 93
REMARK H PARENT 81 46 49 57
REMARK Flexibility Score: inf
ROOT
ATOM      1  C   UNL A   1      36.838  23.541  24.829  1.00  0.00     0.261 C 
ENDROOT
BRANCH   1   2
ATOM      2  O   UNL A   1      36.196  23.723  26.118  1.00  0.00    -0.462 OA
BRANCH   2   3
ATOM      3  C   UNL A   1      34.847  23.534  26.129  1.00  0.00     0.325 C 
ATOM      4  O   UNL A   1      34.246  22.925  27.009  1.00  0.00    -0.250 OA
BRANCH   3   5
ATOM      5  C   UNL A   1      34.089  24.193  24.962  1.00  0.00     0.244 C 
BRANCH   5   6
ATOM      6  N   UNL A   1      32.644  24.444  25.071  1.00  0.00    -0.309 N 
BRANCH   6   7
ATOM      7  C   UNL A   1      32.050  25.501  25.760  1.00  0.00     0.321 C 
ATOM      8  O   UNL A   1      31.437  25.254  26.805  1.00  0.00    -0.248 OA
BRANCH   7   9
ATOM      9  N   UNL A   1      32.041  26.818  25.315  1.00  0.00    -0.313 N 
BRANCH   9  10
ATOM     10  C   UNL A   1      32.672  27.077  23.982  1.00  0.00     0.081 C 
ATOM     11  C   UNL A   1      31.702  27.690  22.963  1.00  0.00     0.031 C 
ATOM     12  C   UNL A   1      33.984  27.869  24.062  1.00  0.00     0.031 C 
ENDBRANCH   9  10
BRANCH   9  13
ATOM     13  C   UNL A   1      31.222  27.955  25.800  1.00  0.00     0.237 C 
BRANCH  13  14
ATOM     14  C   UNL A   1      31.756  28.677  27.038  1.00  0.00     0.406 C 
ATOM     15  F   UNL A   1      33.066  28.442  27.254  1.00  0.00    -0.169 F 
ATOM     16  F   UNL A   1      31.607  30.016  26.895  1.00  0.00    -0.169 F 
ATOM     17  F   UNL A   1      31.078  28.315  28.149  1.00  0.00    -0.169 F 
ENDBRANCH  13  14
ENDBRANCH   9  13
ENDBRANCH   7   9
ENDBRANCH   6   7
BRANCH   6  18
ATOM     18  C   UNL A   1      31.717  23.597  24.194  1.00  0.00     0.037 C 
ATOM     19  C   UNL A   1      32.456  23.115  22.923  1.00  0.00     0.034 C 
ATOM     20  C   UNL A   1      31.168  22.386  24.993  1.00  0.00     0.034 C 
ATOM     21  C   UNL A   1      30.439  24.327  23.702  1.00  0.00     0.034 C 
ENDBRANCH   6  18
ENDBRANCH   5   6
ENDBRANCH   3   5
ENDBRANCH   2   3
ENDBRANCH   1   2
BRANCH   1  22
ATOM     22  C   UNL A   1      37.433  22.136  24.651  1.00  0.00     0.202 C 
BRANCH  22  23
ATOM     23  O   UNL A   1      37.870  21.485  25.850  1.00  0.00    -0.374 OA
BRANCH  23  24
ATOM     24  C   UNL A   1      39.268  21.238  25.951  1.00  0.00     0.202 C 
BRANCH  24  25
ATOM     25  C   UNL A   1      39.684  19.763  25.915  1.00  0.00     0.261 C 
BRANCH  25  26
ATOM     26  O   UNL A   1      40.777  19.487  26.806  1.00  0.00    -0.460 OA
BRANCH  26  27
ATOM     27  C   UNL A   1      41.988  19.429  26.208  1.00  0.00     0.338 C 
ATOM     28  O   UNL A   1      42.418  18.540  25.484  1.00  0.00    -0.246 OA
BRANCH  27  29
ATOM     29  C   UNL A   1      42.716  20.693  26.403  1.00  0.00     0.060 A 
ATOM     30  C   UNL A   1      42.654  21.271  27.676  1.00  0.00     0.016 A 
ATOM     31  C   UNL A   1      43.365  21.350  25.354  1.00  0.00     0.016 A 
ATOM     32  C   UNL A   1      43.190  22.537  27.892  1.00  0.00     0.010 A 
ATOM     33  C   UNL A   1      43.899  22.626  25.573  1.00  0.00     0.010 A 
ATOM     34  C   UNL A   1      43.780  23.239  26.833  1.00  0.00    -0.014 A 
BRANCH  34  35
ATOM     35  C   UNL A   1      44.155  24.659  27.039  1.00  0.00     0.031 A 
ATOM     36  C   UNL A   1      43.106  25.643  27.474  1.00  0.00     0.074 A 
ATOM     37  C   UNL A   1      45.431  25.054  26.897  1.00  0.00     0.049 A 
ATOM     38  N   UNL A   1      43.231  26.911  27.779  1.00  0.00    -0.248 NA
ATOM     39  C   UNL A   1      41.732  25.131  27.580  1.00  0.00     0.031 C 
ATOM     40  C   UNL A   1      46.537  24.190  26.494  1.00  0.00     0.029 A 
ATOM     41  N   UNL A   1      46.009  26.285  27.078  1.00  0.00    -0.354 N 
ATOM     42  C   UNL A   1      41.956  27.344  28.122  1.00  0.00     0.074 A 
ATOM     43  C   UNL A   1      41.066  26.215  27.949  1.00  0.00     0.031 C 
ATOM     44  C   UNL A   1      47.663  24.920  26.447  1.00  0.00     0.029 A 
ATOM     45  C   UNL A   1      47.352  26.305  26.801  1.00  0.00     0.049 A 
ATOM     46  H   UNL A   1      45.508  27.077  27.378  1.00  0.00     0.167 HD
ATOM     47  C   UNL A   1      41.567  28.567  28.553  1.00  0.00     0.037 A 
ATOM     48  C   UNL A   1      48.229  27.327  26.817  1.00  0.00     0.037 A 
ATOM     49  C   UNL A   1      42.453  29.691  28.714  1.00  0.00     0.049 A 
ATOM     50  C   UNL A   1      47.765  28.693  27.244  1.00  0.00     0.074 A 
ATOM     51  C   UNL A   1      42.166  30.958  29.190  1.00  0.00     0.029 A 
ATOM     52  N   UNL A   1      43.800  29.685  28.381  1.00  0.00    -0.354 N 
ATOM     53  N   UNL A   1      46.572  29.079  27.629  1.00  0.00    -0.248 NA
ATOM     54  C   UNL A   1      48.771  29.765  27.247  1.00  0.00     0.031 C 
ATOM     55  C   UNL A   1      43.327  31.735  29.093  1.00  0.00     0.029 A 
ATOM     56  C   UNL A   1      44.349  30.939  28.600  1.00  0.00     0.049 A 
ATOM     57  H   UNL A   1      44.293  28.905  28.036  1.00  0.00     0.167 HD
ATOM     58  C   UNL A   1      46.682  30.431  27.922  1.00  0.00     0.074 A 
ATOM     59  C   UNL A   1      48.065  30.796  27.694  1.00  0.00     0.031 C 
ATOM     60  C   UNL A   1      45.722  31.293  28.343  1.00  0.00     0.037 A 
BRANCH  47  61
ATOM     61  C   UNL A   1      40.109  28.755  28.857  1.00  0.00     0.064 A 
ATOM     62  C   UNL A   1      39.200  29.178  27.874  1.00  0.00     0.173 A 
ATOM     63  C   UNL A   1      39.614  28.509  30.146  1.00  0.00     0.173 A 
ATOM     64  F   UNL A   1      39.624  29.437  26.628  1.00  0.00    -0.203 F 
ATOM     65  C   UNL A   1      37.856  29.380  28.181  1.00  0.00     0.198 A 
ATOM     66  C   UNL A   1      38.265  28.687  30.442  1.00  0.00     0.198 A 
ATOM     67  F   UNL A   1      40.440  28.098  31.120  1.00  0.00    -0.203 F 
ATOM     68  F   UNL A   1      37.017  29.835  27.240  1.00  0.00    -0.200 F 
ATOM     69  C   UNL A   1      37.390  29.132  29.463  1.00  0.00     0.200 A 
ATOM     70  F   UNL A   1      37.814  28.437  31.679  1.00  0.00    -0.200 F 
ATOM     71  F   UNL A   1      36.098  29.332  29.758  1.00  0.00    -0.200 F 
ENDBRANCH  47  61
BRANCH  48  72
ATOM     72  C   UNL A   1      49.633  27.084  26.401  1.00  0.00     0.064 A 
ATOM     73  C   UNL A   1      50.012  27.138  25.053  1.00  0.00     0.173 A 
ATOM     74  C   UNL A   1      50.630  26.827  27.353  1.00  0.00     0.173 A 
ATOM     75  F   UNL A   1      49.090  27.356  24.106  1.00  0.00    -0.203 F 
ATOM     76  C   UNL A   1      51.340  26.947  24.675  1.00  0.00     0.198 A 
ATOM     77  C   UNL A   1      51.960  26.660  26.975  1.00  0.00     0.198 A 
ATOM     78  F   UNL A   1      50.314  26.763  28.655  1.00  0.00    -0.203 F 
ATOM     79  F   UNL A   1      51.675  26.981  23.378  1.00  0.00    -0.200 F 
ATOM     80  C   UNL A   1      52.313  26.717  25.636  1.00  0.00     0.200 A 
ATOM     81  F   UNL A   1      52.898  26.450  27.908  1.00  0.00    -0.200 F 
ATOM     82  F   UNL A   1      53.592  26.551  25.272  1.00  0.00    -0.200 F 
ENDBRANCH  48  72
BRANCH  60  83
ATOM     83  C   UNL A   1      46.132  32.720  28.567  1.00  0.00     0.064 A 
ATOM     84  C   UNL A   1      46.089  33.662  27.528  1.00  0.00     0.173 A 
ATOM     85  C   UNL A   1      46.527  33.161  29.838  1.00  0.00     0.173 A 
ATOM     86  F   UNL A   1      45.733  33.286  26.291  1.00  0.00    -0.203 F 
ATOM     87  C   UNL A   1      46.445  34.989  27.751  1.00  0.00     0.198 A 
ATOM     88  C   UNL A   1      46.857  34.494  30.064  1.00  0.00     0.198 A 
ATOM     89  F   UNL A   1      46.578  32.300  30.867  1.00  0.00    -0.203 F 
ATOM     90  F   UNL A   1      46.435  35.864  26.736  1.00  0.00    -0.200 F 
ATOM     91  C   UNL A   1      46.822  35.406  29.020  1.00  0.00     0.200 A 
ATOM     92  F   UNL A   1      47.211  34.898  31.293  1.00  0.00    -0.200 F 
ATOM     93  F   UNL A   1      47.158  36.686  29.234  1.00  0.00    -0.200 F 
ENDBRANCH  60  83
ENDBRANCH  34  35
ENDBRANCH  27  29
ENDBRANCH  26  27
ENDBRANCH  25  26
ENDBRANCH  24  25
ENDBRANCH  23  24
ENDBRANCH  22  23
ENDBRANCH   1  22
TORSDOF 21
ENDMDL
MODEL 2
REMARK VINA RESULT:      -9.6      5.776     10.162
REMARK SMILES CC(C)N(CC(F)(F)F)C(=O)N(CC(=O)OCCOCCOC(=O)c1ccc(-c2c3nc(c(-c4c(F)c(F)c(F)c(F)c4F)c4ccc([nH]4)c(-c4c(F)c(F)c(F)c(F)c4F)c4nc(c(-c5c(F)c(F)c(F)c(F)c5F)c5ccc2[nH]5)C=C4)C=C3)cc1)C(C)(C)C
REMARK SMILES IDX 17 1 16 2 14 3 15 4 13 5 12 6 10 7 11 8 4 9 2 10 1 11 3 12
REMARK SMILES IDX 5 13 6 14 7 15 8 16 9 17 88 18 89 19 90 20 91 21 18 22 19 23
REMARK SMILES IDX 20 24 21 25 22 26 23 27 24 28 25 29 26 30 87 31 27 32 86 33
REMARK SMILES IDX 28 34 29 35 30 36 80 37 31 38 85 39 79 40 81 41 32 42 84 43
REMARK SMILES IDX 78 44 77 45 33 47 65 48 45 49 64 50 46 51 49 52 63 53 82 54
REMARK SMILES IDX 47 55 48 56 62 58 83 59 50 60 34 61 35 62 43 63 36 64 37 65
REMARK SMILES IDX 41 66 44 67 38 68 39 69 42 70 40 71 66 72 67 73 75 74 68 75
REMARK SMILES IDX 69 76 73 77 76 78 70 79 71 80 74 81 72 82 51 83 52 84 60 85
REMARK SMILES IDX 53 86 54 87 58 88 61 89 55 90 56 91 59 92 57 93
REMARK H PARENT 81 46 49 57
REMARK Flexibility Score: inf
ROOT
ATOM      1  C   UNL A   1      33.317  28.222  26.931  1.00  0.00     0.261 C 
ENDROOT
BRANCH   1   2
ATOM      2  O   UNL A   1      32.617  27.126  26.286  1.00  0.00    -0.462 OA
BRANCH   2   3
ATOM      3  C   UNL A   1      33.367  26.381  25.427  1.00  0.00     0.325 C 
ATOM      4  O   UNL A   1      33.988  26.848  24.477  1.00  0.00    -0.250 OA
BRANCH   3   5
ATOM      5  C   UNL A   1      33.434  24.879  25.757  1.00  0.00     0.244 C 
BRANCH   5   6
ATOM      6  N   UNL A   1      33.255  23.882  24.690  1.00  0.00    -0.309 N 
BRANCH   6   7
ATOM      7  C   UNL A   1      34.277  23.209  24.022  1.00  0.00     0.321 C 
ATOM      8  O   UNL A   1      34.463  23.457  22.825  1.00  0.00    -0.248 OA
BRANCH   7   9
ATOM      9  N   UNL A   1      35.067  22.221  24.596  1.00  0.00    -0.313 N 
BRANCH   9  10
ATOM     10  C   UNL A   1      36.549  22.416  24.511  1.00  0.00     0.081 C 
ATOM     11  C   UNL A   1      37.033  23.685  25.226  1.00  0.00     0.031 C 
ATOM     12  C   UNL A   1      37.361  21.184  24.932  1.00  0.00     0.031 C 
ENDBRANCH   9  10
BRANCH   9  13
ATOM     13  C   UNL A   1      34.676  21.164  25.560  1.00  0.00     0.237 C 
BRANCH  13  14
ATOM     14  C   UNL A   1      34.039  19.913  24.954  1.00  0.00     0.406 C 
ATOM     15  F   UNL A   1      33.152  19.326  25.783  1.00  0.00    -0.169 F 
ATOM     16  F   UNL A   1      33.373  20.235  23.818  1.00  0.00    -0.169 F 
ATOM     17  F   UNL A   1      34.974  18.995  24.624  1.00  0.00    -0.169 F 
ENDBRANCH  13  14
ENDBRANCH   9  13
ENDBRANCH   7   9
ENDBRANCH   6   7
BRANCH   6  18
ATOM     18  C   UNL A   1      31.828  23.389  24.424  1.00  0.00     0.037 C 
ATOM     19  C   UNL A   1      31.769  22.574  23.110  1.00  0.00     0.034 C 
ATOM     20  C   UNL A   1      31.317  22.535  25.614  1.00  0.00     0.034 C 
ATOM     21  C   UNL A   1      30.765  24.511  24.287  1.00  0.00     0.034 C 
ENDBRANCH   6  18
ENDBRANCH   5   6
ENDBRANCH   3   5
ENDBRANCH   2   3
ENDBRANCH   1   2
BRANCH   1  22
ATOM     22  C   UNL A   1      32.404  29.420  27.231  1.00  0.00     0.202 C 
BRANCH  22  23
ATOM     23  O   UNL A   1      32.821  30.676  26.681  1.00  0.00    -0.374 OA
BRANCH  23  24
ATOM     24  C   UNL A   1      33.155  31.688  27.625  1.00  0.00     0.202 C 
BRANCH  24  25
ATOM     25  C   UNL A   1      32.720  33.111  27.252  1.00  0.00     0.261 C 
BRANCH  25  26
ATOM     26  O   UNL A   1      32.225  33.840  28.387  1.00  0.00    -0.460 OA
BRANCH  26  27
ATOM     27  C   UNL A   1      32.984  34.897  28.751  1.00  0.00     0.338 C 
ATOM     28  O   UNL A   1      32.729  36.084  28.596  1.00  0.00    -0.246 OA
BRANCH  27  29
ATOM     29  C   UNL A   1      34.141  34.447  29.542  1.00  0.00     0.060 A 
ATOM     30  C   UNL A   1      35.401  34.558  28.942  1.00  0.00     0.016 A 
ATOM     31  C   UNL A   1      34.001  33.848  30.796  1.00  0.00     0.016 A 
ATOM     32  C   UNL A   1      36.519  34.017  29.567  1.00  0.00     0.010 A 
ATOM     33  C   UNL A   1      35.127  33.299  31.422  1.00  0.00     0.010 A 
ATOM     34  C   UNL A   1      36.384  33.349  30.791  1.00  0.00    -0.014 A 
BRANCH  34  35
ATOM     35  C   UNL A   1      37.548  32.605  31.332  1.00  0.00     0.031 A 
ATOM     36  C   UNL A   1      38.100  32.976  32.679  1.00  0.00     0.074 A 
ATOM     37  C   UNL A   1      38.069  31.569  30.652  1.00  0.00     0.049 A 
ATOM     38  N   UNL A   1      39.061  32.413  33.367  1.00  0.00    -0.248 NA
ATOM     39  C   UNL A   1      37.486  34.137  33.340  1.00  0.00     0.031 C 
ATOM     40  C   UNL A   1      37.611  31.108  29.345  1.00  0.00     0.029 A 
ATOM     41  N   UNL A   1      39.098  30.721  30.972  1.00  0.00    -0.354 N 
ATOM     42  C   UNL A   1      39.161  33.143  34.544  1.00  0.00     0.074 A 
ATOM     43  C   UNL A   1      38.189  34.214  34.460  1.00  0.00     0.031 C 
ATOM     44  C   UNL A   1      38.364  30.063  28.966  1.00  0.00     0.029 A 
ATOM     45  C   UNL A   1      39.365  29.794  29.997  1.00  0.00     0.049 A 
ATOM     46  H   UNL A   1      39.596  30.772  31.819  1.00  0.00     0.167 HD
ATOM     47  C   UNL A   1      39.977  32.932  35.604  1.00  0.00     0.037 A 
ATOM     48  C   UNL A   1      40.320  28.845  29.937  1.00  0.00     0.037 A 
ATOM     49  C   UNL A   1      40.950  31.873  35.680  1.00  0.00     0.049 A 
ATOM     50  C   UNL A   1      41.257  28.663  31.100  1.00  0.00     0.074 A 
ATOM     51  C   UNL A   1      41.792  31.545  36.728  1.00  0.00     0.029 A 
ATOM     52  N   UNL A   1      41.223  30.979  34.654  1.00  0.00    -0.354 N 
ATOM     53  N   UNL A   1      41.301  29.316  32.237  1.00  0.00    -0.248 NA
ATOM     54  C   UNL A   1      42.272  27.606  30.976  1.00  0.00     0.031 C 
ATOM     55  C   UNL A   1      42.613  30.489  36.315  1.00  0.00     0.029 A 
ATOM     56  C   UNL A   1      42.251  30.127  35.027  1.00  0.00     0.049 A 
ATOM     57  H   UNL A   1      40.757  30.956  33.787  1.00  0.00     0.167 HD
ATOM     58  C   UNL A   1      42.341  28.752  32.963  1.00  0.00     0.074 A 
ATOM     59  C   UNL A   1      42.887  27.685  32.149  1.00  0.00     0.031 C 
ATOM     60  C   UNL A   1      42.801  29.087  34.194  1.00  0.00     0.037 A 
BRANCH  47  61
ATOM     61  C   UNL A   1      39.868  33.888  36.755  1.00  0.00     0.064 A 
ATOM     62  C   UNL A   1      40.611  35.078  36.800  1.00  0.00     0.173 A 
ATOM     63  C   UNL A   1      39.008  33.612  37.828  1.00  0.00     0.173 A 
ATOM     64  F   UNL A   1      41.456  35.384  35.803  1.00  0.00    -0.203 F 
ATOM     65  C   UNL A   1      40.523  35.938  37.891  1.00  0.00     0.198 A 
ATOM     66  C   UNL A   1      38.903  34.488  38.907  1.00  0.00     0.198 A 
ATOM     67  F   UNL A   1      38.271  32.491  37.833  1.00  0.00    -0.203 F 
ATOM     68  F   UNL A   1      41.283  37.042  37.937  1.00  0.00    -0.200 F 
ATOM     69  C   UNL A   1      39.668  35.643  38.942  1.00  0.00     0.200 A 
ATOM     70  F   UNL A   1      38.068  34.206  39.917  1.00  0.00    -0.200 F 
ATOM     71  F   UNL A   1      39.588  36.469  39.995  1.00  0.00    -0.200 F 
ENDBRANCH  47  61
BRANCH  48  72
ATOM     72  C   UNL A   1      40.432  28.007  28.717  1.00  0.00     0.064 A 
ATOM     73  C   UNL A   1      41.218  28.408  27.629  1.00  0.00     0.173 A 
ATOM     74  C   UNL A   1      39.780  26.769  28.634  1.00  0.00     0.173 A 
ATOM     75  F   UNL A   1      41.841  29.595  27.653  1.00  0.00    -0.203 F 
ATOM     76  C   UNL A   1      41.349  27.597  26.503  1.00  0.00     0.198 A 
ATOM     77  C   UNL A   1      39.931  25.949  27.518  1.00  0.00     0.198 A 
ATOM     78  F   UNL A   1      39.013  26.343  29.649  1.00  0.00    -0.203 F 
ATOM     79  F   UNL A   1      42.089  28.011  25.465  1.00  0.00    -0.200 F 
ATOM     80  C   UNL A   1      40.714  26.365  26.452  1.00  0.00     0.200 A 
ATOM     81  F   UNL A   1      39.324  24.755  27.479  1.00  0.00    -0.200 F 
ATOM     82  F   UNL A   1      40.855  25.579  25.376  1.00  0.00    -0.200 F 
ENDBRANCH  48  72
BRANCH  60  83
ATOM     83  C   UNL A   1      43.965  28.304  34.729  1.00  0.00     0.064 A 
ATOM     84  C   UNL A   1      43.773  27.151  35.506  1.00  0.00     0.173 A 
ATOM     85  C   UNL A   1      45.282  28.682  34.428  1.00  0.00     0.173 A 
ATOM     86  F   UNL A   1      42.533  26.758  35.834  1.00  0.00    -0.203 F 
ATOM     87  C   UNL A   1      44.857  26.416  35.975  1.00  0.00     0.198 A 
ATOM     88  C   UNL A   1      46.364  27.929  34.877  1.00  0.00     0.198 A 
ATOM     89  F   UNL A   1      45.519  29.773  33.684  1.00  0.00    -0.203 F 
ATOM     90  F   UNL A   1      44.652  25.340  36.748  1.00  0.00    -0.200 F 
ATOM     91  C   UNL A   1      46.152  26.801  35.655  1.00  0.00     0.200 A 
ATOM     92  F   UNL A   1      47.613  28.296  34.558  1.00  0.00    -0.200 F 
ATOM     93  F   UNL A   1      47.194  26.088  36.102  1.00  0.00    -0.200 F 
ENDBRANCH  60  83
ENDBRANCH  34  35
ENDBRANCH  27  29
ENDBRANCH  26  27
ENDBRANCH  25  26
ENDBRANCH  24  25
ENDBRANCH  23  24
ENDBRANCH  22  23
ENDBRANCH   1  22
TORSDOF 21
ENDMDL
MODEL 3
REMARK VINA RESULT:      -9.5      0.814      2.155
REMARK SMILES CC(C)N(CC(F)(F)F)C(=O)N(CC(=O)OCCOCCOC(=O)c1ccc(-c2c3nc(c(-c4c(F)c(F)c(F)c(F)c4F)c4ccc([nH]4)c(-c4c(F)c(F)c(F)c(F)c4F)c4nc(c(-c5c(F)c(F)c(F)c(F)c5F)c5ccc2[nH]5)C=C4)C=C3)cc1)C(C)(C)C
REMARK SMILES IDX 17 1 16 2 14 3 15 4 13 5 12 6 10 7 11 8 4 9 2 10 1 11 3 12
REMARK SMILES IDX 5 13 6 14 7 15 8 16 9 17 88 18 89 19 90 20 91 21 18 22 19 23
REMARK SMILES IDX 20 24 21 25 22 26 23 27 24 28 25 29 26 30 87 31 27 32 86 33
REMARK SMILES IDX 28 34 29 35 30 36 80 37 31 38 85 39 79 40 81 41 32 42 84 43
REMARK SMILES IDX 78 44 77 45 33 47 65 48 45 49 64 50 46 51 49 52 63 53 82 54
REMARK SMILES IDX 47 55 48 56 62 58 83 59 50 60 34 61 35 62 43 63 36 64 37 65
REMARK SMILES IDX 41 66 44 67 38 68 39 69 42 70 40 71 66 72 67 73 75 74 68 75
REMARK SMILES IDX 69 76 73 77 76 78 70 79 71 80 74 81 72 82 51 83 52 84 60 85
REMARK SMILES IDX 53 86 54 87 58 88 61 89 55 90 56 91 59 92 57 93
REMARK H PARENT 81 46 49 57
REMARK Flexibility Score: inf
ROOT
ATOM      1  C   UNL A   1      36.537  23.652  24.500  1.00  0.00     0.261 C 
ENDROOT
BRANCH   1   2
ATOM      2  O   UNL A   1      35.854  24.153  25.678  1.00  0.00    -0.462 OA
BRANCH   2   3
ATOM      3  C   UNL A   1      34.666  23.551  25.963  1.00  0.00     0.325 C 
ATOM      4  O   UNL A   1      34.345  23.161  27.082  1.00  0.00    -0.250 OA
BRANCH   3   5
ATOM      5  C   UNL A   1      33.696  23.430  24.773  1.00  0.00     0.244 C 
BRANCH   5   6
ATOM      6  N   UNL A   1      32.734  24.507  24.495  1.00  0.00    -0.309 N 
BRANCH   6   7
ATOM      7  C   UNL A   1      33.037  25.747  23.935  1.00  0.00     0.321 C 
ATOM      8  O   UNL A   1      33.770  25.783  22.940  1.00  0.00    -0.248 OA
BRANCH   7   9
ATOM      9  N   UNL A   1      32.622  26.965  24.461  1.00  0.00    -0.313 N 
BRANCH   9  10
ATOM     10  C   UNL A   1      31.842  27.858  23.547  1.00  0.00     0.081 C 
ATOM     11  C   UNL A   1      30.675  28.569  24.246  1.00  0.00     0.031 C 
ATOM     12  C   UNL A   1      32.711  28.842  22.753  1.00  0.00     0.031 C 
ENDBRANCH   9  10
BRANCH   9  13
ATOM     13  C   UNL A   1      32.550  27.385  25.882  1.00  0.00     0.237 C 
BRANCH  13  14
ATOM     14  C   UNL A   1      33.748  28.181  26.401  1.00  0.00     0.406 C 
ATOM     15  F   UNL A   1      34.872  27.439  26.478  1.00  0.00    -0.169 F 
ATOM     16  F   UNL A   1      34.011  29.220  25.572  1.00  0.00    -0.169 F 
ATOM     17  F   UNL A   1      33.504  28.696  27.625  1.00  0.00    -0.169 F 
ENDBRANCH  13  14
ENDBRANCH   9  13
ENDBRANCH   7   9
ENDBRANCH   6   7
BRANCH   6  18
ATOM     18  C   UNL A   1      31.246  24.174  24.644  1.00  0.00     0.037 C 
ATOM     19  C   UNL A   1      30.457  24.622  23.391  1.00  0.00     0.034 C 
ATOM     20  C   UNL A   1      31.050  22.654  24.891  1.00  0.00     0.034 C 
ATOM     21  C   UNL A   1      30.547  24.841  25.858  1.00  0.00     0.034 C 
ENDBRANCH   6  18
ENDBRANCH   5   6
ENDBRANCH   3   5
ENDBRANCH   2   3
ENDBRANCH   1   2
BRANCH   1  22
ATOM     22  C   UNL A   1      36.904  22.164  24.609  1.00  0.00     0.202 C 
BRANCH  22  23
ATOM     23  O   UNL A   1      37.536  21.765  25.832  1.00  0.00    -0.374 OA
BRANCH  23  24
ATOM     24  C   UNL A   1      38.934  21.510  25.756  1.00  0.00     0.202 C 
BRANCH  24  25
ATOM     25  C   UNL A   1      39.334  20.034  25.638  1.00  0.00     0.261 C 
BRANCH  25  26
ATOM     26  O   UNL A   1      40.225  19.630  26.690  1.00  0.00    -0.460 OA
BRANCH  26  27
ATOM     27  C   UNL A   1      41.508  19.451  26.303  1.00  0.00     0.338 C 
ATOM     28  O   UNL A   1      41.991  18.464  25.764  1.00  0.00    -0.246 OA
BRANCH  27  29
ATOM     29  C   UNL A   1      42.269  20.701  26.461  1.00  0.00     0.060 A 
ATOM     30  C   UNL A   1      42.291  21.272  27.739  1.00  0.00     0.016 A 
ATOM     31  C   UNL A   1      42.869  21.352  25.381  1.00  0.00     0.016 A 
ATOM     32  C   UNL A   1      42.863  22.525  27.931  1.00  0.00     0.010 A 
ATOM     33  C   UNL A   1      43.439  22.616  25.575  1.00  0.00     0.010 A 
ATOM     34  C   UNL A   1      43.404  23.224  26.843  1.00  0.00    -0.014 A 
BRANCH  34  35
ATOM     35  C   UNL A   1      43.816  24.635  27.034  1.00  0.00     0.031 A 
ATOM     36  C   UNL A   1      42.802  25.645  27.491  1.00  0.00     0.074 A 
ATOM     37  C   UNL A   1      45.098  25.000  26.860  1.00  0.00     0.049 A 
ATOM     38  N   UNL A   1      42.964  26.910  27.788  1.00  0.00    -0.248 NA
ATOM     39  C   UNL A   1      41.420  25.165  27.632  1.00  0.00     0.031 C 
ATOM     40  C   UNL A   1      46.173  24.108  26.433  1.00  0.00     0.029 A 
ATOM     41  N   UNL A   1      45.709  26.217  27.022  1.00  0.00    -0.354 N 
ATOM     42  C   UNL A   1      41.708  27.374  28.161  1.00  0.00     0.074 A 
ATOM     43  C   UNL A   1      40.788  26.265  28.014  1.00  0.00     0.031 C 
ATOM     44  C   UNL A   1      47.314  24.812  26.355  1.00  0.00     0.029 A 
ATOM     45  C   UNL A   1      47.044  26.204  26.712  1.00  0.00     0.049 A 
ATOM     46  H   UNL A   1      45.234  27.022  27.331  1.00  0.00     0.167 HD
ATOM     47  C   UNL A   1      41.359  28.607  28.597  1.00  0.00     0.037 A 
ATOM     48  C   UNL A   1      47.945  27.206  26.703  1.00  0.00     0.037 A 
ATOM     49  C   UNL A   1      42.274  29.710  28.732  1.00  0.00     0.049 A 
ATOM     50  C   UNL A   1      47.524  28.584  27.136  1.00  0.00     0.074 A 
ATOM     51  C   UNL A   1      42.029  30.986  29.211  1.00  0.00     0.029 A 
ATOM     52  N   UNL A   1      43.612  29.672  28.366  1.00  0.00    -0.354 N 
ATOM     53  N   UNL A   1      46.350  28.999  27.549  1.00  0.00    -0.248 NA
ATOM     54  C   UNL A   1      48.555  29.632  27.110  1.00  0.00     0.031 C 
ATOM     55  C   UNL A   1      43.205  31.735  29.082  1.00  0.00     0.029 A 
ATOM     56  C   UNL A   1      44.195  30.914  28.567  1.00  0.00     0.049 A 
ATOM     57  H   UNL A   1      44.078  28.880  28.013  1.00  0.00     0.167 HD
ATOM     58  C   UNL A   1      46.498  30.349  27.834  1.00  0.00     0.074 A 
ATOM     59  C   UNL A   1      47.884  30.681  27.571  1.00  0.00     0.031 C 
ATOM     60  C   UNL A   1      45.570  31.234  28.275  1.00  0.00     0.037 A 
BRANCH  47  61
ATOM     61  C   UNL A   1      39.914  28.830  28.935  1.00  0.00     0.064 A 
ATOM     62  C   UNL A   1      39.422  28.639  30.236  1.00  0.00     0.173 A 
ATOM     63  C   UNL A   1      39.008  29.243  27.946  1.00  0.00     0.173 A 
ATOM     64  F   UNL A   1      40.244  28.235  31.216  1.00  0.00    -0.203 F 
ATOM     65  C   UNL A   1      38.071  28.818  30.525  1.00  0.00     0.198 A 
ATOM     66  C   UNL A   1      37.663  29.446  28.245  1.00  0.00     0.198 A 
ATOM     67  F   UNL A   1      39.427  29.445  26.688  1.00  0.00    -0.203 F 
ATOM     68  F   UNL A   1      37.615  28.577  31.762  1.00  0.00    -0.200 F 
ATOM     69  C   UNL A   1      37.194  29.223  29.531  1.00  0.00     0.200 A 
ATOM     70  F   UNL A   1      36.819  29.848  27.285  1.00  0.00    -0.200 F 
ATOM     71  F   UNL A   1      35.894  29.390  29.809  1.00  0.00    -0.200 F 
ENDBRANCH  47  61
BRANCH  48  72
ATOM     72  C   UNL A   1      49.332  26.929  26.253  1.00  0.00     0.064 A 
ATOM     73  C   UNL A   1      50.319  26.507  27.154  1.00  0.00     0.173 A 
ATOM     74  C   UNL A   1      49.686  27.046  24.902  1.00  0.00     0.173 A 
ATOM     75  F   UNL A   1      50.034  26.404  28.460  1.00  0.00    -0.203 F 
ATOM     76  C   UNL A   1      51.609  26.211  26.717  1.00  0.00     0.198 A 
ATOM     77  C   UNL A   1      50.969  26.728  24.463  1.00  0.00     0.198 A 
ATOM     78  F   UNL A   1      48.776  27.449  24.001  1.00  0.00    -0.203 F 
ATOM     79  F   UNL A   1      52.542  25.831  27.600  1.00  0.00    -0.200 F 
ATOM     80  C   UNL A   1      51.929  26.313  25.371  1.00  0.00     0.200 A 
ATOM     81  F   UNL A   1      51.270  26.816  23.160  1.00  0.00    -0.200 F 
ATOM     82  F   UNL A   1      53.165  26.011  24.950  1.00  0.00    -0.200 F 
ENDBRANCH  48  72
BRANCH  60  83
ATOM     83  C   UNL A   1      46.018  32.652  28.484  1.00  0.00     0.064 A 
ATOM     84  C   UNL A   1      46.577  33.069  29.701  1.00  0.00     0.173 A 
ATOM     85  C   UNL A   1      45.930  33.591  27.446  1.00  0.00     0.173 A 
ATOM     86  F   UNL A   1      46.668  32.212  30.730  1.00  0.00    -0.203 F 
ATOM     87  C   UNL A   1      47.013  34.378  29.877  1.00  0.00     0.198 A 
ATOM     88  C   UNL A   1      46.392  34.894  27.616  1.00  0.00     0.198 A 
ATOM     89  F   UNL A   1      45.409  33.242  26.259  1.00  0.00    -0.203 F 
ATOM     90  F   UNL A   1      47.508  34.765  31.061  1.00  0.00    -0.200 F 
ATOM     91  C   UNL A   1      46.928  35.288  28.833  1.00  0.00     0.200 A 
ATOM     92  F   UNL A   1      46.318  35.768  26.603  1.00  0.00    -0.200 F 
ATOM     93  F   UNL A   1      47.355  36.547  29.001  1.00  0.00    -0.200 F 
ENDBRANCH  60  83
ENDBRANCH  34  35
ENDBRANCH  27  29
ENDBRANCH  26  27
ENDBRANCH  25  26
ENDBRANCH  24  25
ENDBRANCH  23  24
ENDBRANCH  22  23
ENDBRANCH   1  22
TORSDOF 21
ENDMDL
