MODEL 1
REMARK VINA RESULT:     -13.3      0.000      0.000
REMARK SMILES CC1(C)[C@H](O)CC[C@@]2(C)[C@H]3Cc4c(oc(C(=O)OCCOCCOC(=O)c5ccc(-c6c7nc(c(-c8c(F)c(F)c(F)c(F)c8F)c8ccc([nH]8)c(-c8c(F)c(F)c(F)c(F)c8F)c8nc(c(-c9c(F)c(F)c(F)c(F)c9F)c9ccc6[nH]9)C=C8)C=C7)cc5)cc4=O)O[C@@]3(C)CC[C@@H]12
REMARK SMILES IDX 22 1 21 2 20 3 19 4 18 5 16 6 17 7 15 8 1 9 2 10 3 11 4 12
REMARK SMILES IDX 98 13 6 14 8 15 97 16 7 17 9 18 10 19 96 20 94 21 11 22
REMARK SMILES IDX 95 23 93 24 12 25 13 26 91 27 14 28 90 29 92 30 5 31 23 33
REMARK SMILES IDX 24 34 25 35 26 36 27 37 28 38 89 39 29 40 88 41 30 42 31 43
REMARK SMILES IDX 32 44 82 45 33 46 87 47 81 48 83 49 34 50 86 51 80 52 79 53
REMARK SMILES IDX 35 55 67 56 47 57 66 58 48 59 51 60 65 61 84 62 49 63 50 64
REMARK SMILES IDX 64 66 85 67 52 68 36 69 37 70 45 71 38 72 39 73 43 74 46 75
REMARK SMILES IDX 40 76 41 77 44 78 42 79 68 80 69 81 77 82 70 83 71 84 75 85
REMARK SMILES IDX 78 86 72 87 73 88 76 89 74 90 53 91 54 92 62 93 55 94 56 95
REMARK SMILES IDX 60 96 63 97 57 98 58 99 61 100 59 101
REMARK H PARENT 5 32 83 54 51 65
REMARK Flexibility Score: inf
ROOT
ATOM      1  C   UNL A   1      37.771  19.709  24.981  1.00  0.00     0.202 C 
ENDROOT
BRANCH   1   2
ATOM      2  O   UNL A   1      37.477  21.100  24.828  1.00  0.00    -0.374 OA
BRANCH   2   3
ATOM      3  C   UNL A   1      36.273  21.570  25.431  1.00  0.00     0.202 C 
BRANCH   3   4
ATOM      4  C   UNL A   1      34.988  21.359  24.618  1.00  0.00     0.261 C 
BRANCH   4   5
ATOM      5  O   UNL A   1      34.089  20.492  25.315  1.00  0.00    -0.457 OA
BRANCH   5   6
ATOM      6  C   UNL A   1      32.777  20.420  24.921  1.00  0.00     0.374 C 
ATOM      7  O   UNL A   1      32.128  19.407  24.775  1.00  0.00    -0.242 OA
BRANCH   6   8
ATOM      8  C   UNL A   1      32.238  21.823  24.865  1.00  0.00     0.219 A 
ATOM      9  C   UNL A   1      32.303  30.776  26.601  1.00  0.00     0.014 C 
ATOM     10  C   UNL A   1      32.952  29.460  26.076  1.00  0.00    -0.006 C 
ATOM     11  C   UNL A   1      34.490  29.718  26.268  1.00  0.00     0.014 C 
ATOM     12  C   UNL A   1      32.651  28.340  27.257  1.00  0.00     0.120 C 
ATOM     13  C   UNL A   1      32.428  29.040  24.299  1.00  0.00     0.004 C 
ATOM     14  C   UNL A   1      31.199  28.000  27.214  1.00  0.00     0.033 C 
ATOM     15  C   UNL A   1      32.222  27.631  24.769  1.00  0.00    -0.022 C 
ATOM     16  C   UNL A   1      31.262  28.793  23.086  1.00  0.00     0.009 C 
ATOM     17  C   UNL A   1      30.941  28.050  25.743  1.00  0.00     0.010 C 
ATOM     18  C   UNL A   1      33.829  27.471  24.533  1.00  0.00     0.012 C 
ATOM     19  C   UNL A   1      31.890  26.237  24.248  1.00  0.00     0.044 C 
ATOM     20  C   UNL A   1      30.737  27.319  22.502  1.00  0.00     0.049 C 
ATOM     21  C   UNL A   1      31.666  26.073  22.764  1.00  0.00     0.113 C 
ATOM     22  C   UNL A   1      30.687  25.592  24.980  1.00  0.00     0.055 C 
ATOM     23  C   UNL A   1      32.810  26.207  21.741  1.00  0.00     0.057 C 
ATOM     24  O   UNL A   1      31.235  24.639  22.543  1.00  0.00    -0.458 OA
ATOM     25  C   UNL A   1      30.885  24.171  24.841  1.00  0.00     0.081 A 
ATOM     26  C   UNL A   1      31.325  23.731  23.666  1.00  0.00     0.292 A 
ATOM     27  C   UNL A   1      30.986  23.439  26.098  1.00  0.00     0.192 A 
ATOM     28  O   UNL A   1      31.943  22.456  23.619  1.00  0.00    -0.418 OA
ATOM     29  C   UNL A   1      31.873  22.305  26.066  1.00  0.00     0.107 A 
ATOM     30  O   UNL A   1      30.399  23.754  27.124  1.00  0.00    -0.289 OA
BRANCH  12  31
ATOM     31  O   UNL A   1      33.326  27.084  27.144  1.00  0.00    -0.393 OA
ATOM     32  H   UNL A   1      34.074  27.172  26.533  1.00  0.00     0.210 HD
ENDBRANCH  12  31
ENDBRANCH   6   8
ENDBRANCH   5   6
ENDBRANCH   4   5
ENDBRANCH   3   4
ENDBRANCH   2   3
ENDBRANCH   1   2
BRANCH   1  33
ATOM     33  C   UNL A   1      39.105  19.350  25.640  1.00  0.00     0.261 C 
BRANCH  33  34
ATOM     34  O   UNL A   1      39.950  20.506  25.777  1.00  0.00    -0.460 OA
BRANCH  34  35
ATOM     35  C   UNL A   1      40.790  20.477  26.838  1.00  0.00     0.338 C 
ATOM     36  O   UNL A   1      41.413  19.531  27.273  1.00  0.00    -0.246 OA
BRANCH  35  37
ATOM     37  C   UNL A   1      40.983  21.851  27.332  1.00  0.00     0.060 A 
ATOM     38  C   UNL A   1      40.342  22.889  26.647  1.00  0.00     0.016 A 
ATOM     39  C   UNL A   1      41.858  22.121  28.386  1.00  0.00     0.016 A 
ATOM     40  C   UNL A   1      40.602  24.212  26.991  1.00  0.00     0.010 A 
ATOM     41  C   UNL A   1      42.130  23.451  28.720  1.00  0.00     0.010 A 
ATOM     42  C   UNL A   1      41.530  24.500  28.001  1.00  0.00    -0.014 A 
BRANCH  42  43
ATOM     43  C   UNL A   1      41.996  25.895  28.176  1.00  0.00     0.031 A 
ATOM     44  C   UNL A   1      43.337  26.282  27.617  1.00  0.00     0.074 A 
ATOM     45  C   UNL A   1      41.215  26.813  28.772  1.00  0.00     0.049 A 
ATOM     46  N   UNL A   1      43.937  27.445  27.629  1.00  0.00    -0.248 NA
ATOM     47  C   UNL A   1      44.102  25.217  26.948  1.00  0.00     0.031 C 
ATOM     48  C   UNL A   1      39.881  26.563  29.309  1.00  0.00     0.029 A 
ATOM     49  N   UNL A   1      41.435  28.146  29.016  1.00  0.00    -0.354 N 
ATOM     50  C   UNL A   1      45.137  27.254  26.959  1.00  0.00     0.074 A 
ATOM     51  C   UNL A   1      45.208  25.855  26.597  1.00  0.00     0.031 C 
ATOM     52  C   UNL A   1      39.394  27.709  29.818  1.00  0.00     0.029 A 
ATOM     53  C   UNL A   1      40.395  28.765  29.664  1.00  0.00     0.049 A 
ATOM     54  H   UNL A   1      42.259  28.614  28.752  1.00  0.00     0.167 HD
ATOM     55  C   UNL A   1      46.083  28.170  26.650  1.00  0.00     0.037 A 
ATOM     56  C   UNL A   1      40.273  30.038  30.091  1.00  0.00     0.037 A 
ATOM     57  C   UNL A   1      46.013  29.559  27.019  1.00  0.00     0.049 A 
ATOM     58  C   UNL A   1      41.395  31.012  29.835  1.00  0.00     0.074 A 
ATOM     59  C   UNL A   1      46.923  30.566  26.753  1.00  0.00     0.029 A 
ATOM     60  N   UNL A   1      44.975  30.134  27.736  1.00  0.00    -0.354 N 
ATOM     61  N   UNL A   1      42.512  30.835  29.171  1.00  0.00    -0.248 NA
ATOM     62  C   UNL A   1      41.240  32.367  30.388  1.00  0.00     0.031 C 
ATOM     63  C   UNL A   1      46.463  31.738  27.357  1.00  0.00     0.029 A 
ATOM     64  C   UNL A   1      45.237  31.477  27.949  1.00  0.00     0.049 A 
ATOM     65  H   UNL A   1      44.171  29.658  28.047  1.00  0.00     0.167 HD
ATOM     66  C   UNL A   1      43.175  32.054  29.199  1.00  0.00     0.074 A 
ATOM     67  C   UNL A   1      42.330  32.972  29.934  1.00  0.00     0.031 C 
ATOM     68  C   UNL A   1      44.378  32.383  28.668  1.00  0.00     0.037 A 
BRANCH  55  69
ATOM     69  C   UNL A   1      47.277  27.709  25.868  1.00  0.00     0.064 A 
ATOM     70  C   UNL A   1      47.267  27.696  24.465  1.00  0.00     0.173 A 
ATOM     71  C   UNL A   1      48.467  27.354  26.520  1.00  0.00     0.173 A 
ATOM     72  F   UNL A   1      46.150  28.015  23.795  1.00  0.00    -0.203 F 
ATOM     73  C   UNL A   1      48.402  27.333  23.745  1.00  0.00     0.198 A 
ATOM     74  C   UNL A   1      49.608  27.022  25.797  1.00  0.00     0.198 A 
ATOM     75  F   UNL A   1      48.530  27.357  27.860  1.00  0.00    -0.203 F 
ATOM     76  F   UNL A   1      48.361  27.298  22.405  1.00  0.00    -0.200 F 
ATOM     77  C   UNL A   1      49.574  27.008  24.411  1.00  0.00     0.200 A 
ATOM     78  F   UNL A   1      50.745  26.724  26.441  1.00  0.00    -0.200 F 
ATOM     79  F   UNL A   1      50.672  26.682  23.715  1.00  0.00    -0.200 F 
ENDBRANCH  55  69
BRANCH  56  80
ATOM     80  C   UNL A   1      39.034  30.474  30.787  1.00  0.00     0.064 A 
ATOM     81  C   UNL A   1      37.924  30.927  30.061  1.00  0.00     0.173 A 
ATOM     82  C   UNL A   1      38.935  30.459  32.186  1.00  0.00     0.173 A 
ATOM     83  F   UNL A   1      37.977  30.984  28.723  1.00  0.00    -0.203 F 
ATOM     84  C   UNL A   1      36.767  31.360  30.708  1.00  0.00     0.198 A 
ATOM     85  C   UNL A   1      37.768  30.865  32.831  1.00  0.00     0.198 A 
ATOM     86  F   UNL A   1      39.970  30.040  32.930  1.00  0.00    -0.203 F 
ATOM     87  F   UNL A   1      35.738  31.829  29.990  1.00  0.00    -0.200 F 
ATOM     88  C   UNL A   1      36.687  31.322  32.092  1.00  0.00     0.200 A 
ATOM     89  F   UNL A   1      37.690  30.815  34.168  1.00  0.00    -0.200 F 
ATOM     90  F   UNL A   1      35.573  31.732  32.712  1.00  0.00    -0.200 F 
ENDBRANCH  56  80
BRANCH  68  91
ATOM     91  C   UNL A   1      44.862  33.796  28.833  1.00  0.00     0.064 A 
ATOM     92  C   UNL A   1      45.694  34.163  29.900  1.00  0.00     0.173 A 
ATOM     93  C   UNL A   1      44.584  34.761  27.852  1.00  0.00     0.173 A 
ATOM     94  F   UNL A   1      45.980  33.279  30.868  1.00  0.00    -0.203 F 
ATOM     95  C   UNL A   1      46.227  35.447  29.981  1.00  0.00     0.198 A 
ATOM     96  C   UNL A   1      45.145  36.033  27.920  1.00  0.00     0.198 A 
ATOM     97  F   UNL A   1      43.803  34.457  26.805  1.00  0.00    -0.203 F 
ATOM     98  F   UNL A   1      47.001  35.784  31.022  1.00  0.00    -0.200 F 
ATOM     99  C   UNL A   1      45.964  36.376  28.986  1.00  0.00     0.200 A 
ATOM    100  F   UNL A   1      44.907  36.923  26.947  1.00  0.00    -0.200 F 
ATOM    101  F   UNL A   1      46.502  37.601  29.051  1.00  0.00    -0.200 F 
ENDBRANCH  68  91
ENDBRANCH  42  43
ENDBRANCH  35  37
ENDBRANCH  34  35
ENDBRANCH  33  34
ENDBRANCH   1  33
TORSDOF 15
ENDMDL
MODEL 2
REMARK VINA RESULT:     -13.2      4.180     10.187
REMARK SMILES CC1(C)[C@H](O)CC[C@@]2(C)[C@H]3Cc4c(oc(C(=O)OCCOCCOC(=O)c5ccc(-c6c7nc(c(-c8c(F)c(F)c(F)c(F)c8F)c8ccc([nH]8)c(-c8c(F)c(F)c(F)c(F)c8F)c8nc(c(-c9c(F)c(F)c(F)c(F)c9F)c9ccc6[nH]9)C=C8)C=C7)cc5)cc4=O)O[C@@]3(C)CC[C@@H]12
REMARK SMILES IDX 22 1 21 2 20 3 19 4 18 5 16 6 17 7 15 8 1 9 2 10 3 11 4 12
REMARK SMILES IDX 98 13 6 14 8 15 97 16 7 17 9 18 10 19 96 20 94 21 11 22
REMARK SMILES IDX 95 23 93 24 12 25 13 26 91 27 14 28 90 29 92 30 5 31 23 33
REMARK SMILES IDX 24 34 25 35 26 36 27 37 28 38 89 39 29 40 88 41 30 42 31 43
REMARK SMILES IDX 32 44 82 45 33 46 87 47 81 48 83 49 34 50 86 51 80 52 79 53
REMARK SMILES IDX 35 55 67 56 47 57 66 58 48 59 51 60 65 61 84 62 49 63 50 64
REMARK SMILES IDX 64 66 85 67 52 68 36 69 37 70 45 71 38 72 39 73 43 74 46 75
REMARK SMILES IDX 40 76 41 77 44 78 42 79 68 80 69 81 77 82 70 83 71 84 75 85
REMARK SMILES IDX 78 86 72 87 73 88 76 89 74 90 53 91 54 92 62 93 55 94 56 95
REMARK SMILES IDX 60 96 63 97 57 98 58 99 61 100 59 101
REMARK H PARENT 5 32 83 54 51 65
REMARK Flexibility Score: inf
ROOT
ATOM      1  C   UNL A   1      31.406  31.670  26.529  1.00  0.00     0.202 C 
ENDROOT
BRANCH   1   2
ATOM      2  O   UNL A   1      32.383  30.627  26.559  1.00  0.00    -0.374 OA
BRANCH   2   3
ATOM      3  C   UNL A   1      32.516  29.840  25.377  1.00  0.00     0.202 C 
BRANCH   3   4
ATOM      4  C   UNL A   1      31.219  29.231  24.825  1.00  0.00     0.261 C 
BRANCH   4   5
ATOM      5  O   UNL A   1      31.234  29.231  23.394  1.00  0.00    -0.457 OA
BRANCH   5   6
ATOM      6  C   UNL A   1      30.442  28.344  22.710  1.00  0.00     0.374 C 
ATOM      7  O   UNL A   1      29.500  28.623  22.001  1.00  0.00    -0.242 OA
BRANCH   6   8
ATOM      8  C   UNL A   1      31.050  26.976  22.862  1.00  0.00     0.219 A 
ATOM      9  C   UNL A   1      37.612  21.054  25.111  1.00  0.00     0.014 C 
ATOM     10  C   UNL A   1      36.657  22.248  25.415  1.00  0.00    -0.006 C 
ATOM     11  C   UNL A   1      37.443  23.067  26.501  1.00  0.00     0.014 C 
ATOM     12  C   UNL A   1      36.783  23.236  24.093  1.00  0.00     0.120 C 
ATOM     13  C   UNL A   1      34.920  21.684  25.940  1.00  0.00     0.004 C 
ATOM     14  C   UNL A   1      36.088  22.576  22.951  1.00  0.00     0.033 C 
ATOM     15  C   UNL A   1      34.379  22.724  25.004  1.00  0.00    -0.022 C 
ATOM     16  C   UNL A   1      33.500  20.774  25.731  1.00  0.00     0.009 C 
ATOM     17  C   UNL A   1      34.940  21.929  23.655  1.00  0.00     0.010 C 
ATOM     18  C   UNL A   1      34.623  23.758  26.243  1.00  0.00     0.012 C 
ATOM     19  C   UNL A   1      33.067  23.371  24.570  1.00  0.00     0.044 C 
ATOM     20  C   UNL A   1      32.033  21.340  25.167  1.00  0.00     0.049 C 
ATOM     21  C   UNL A   1      31.794  22.896  25.230  1.00  0.00     0.113 C 
ATOM     22  C   UNL A   1      32.849  23.321  23.038  1.00  0.00     0.055 C 
ATOM     23  C   UNL A   1      31.477  23.192  26.709  1.00  0.00     0.057 C 
ATOM     24  O   UNL A   1      30.652  23.603  24.534  1.00  0.00    -0.458 OA
ATOM     25  C   UNL A   1      31.977  24.432  22.750  1.00  0.00     0.081 A 
ATOM     26  C   UNL A   1      30.985  24.661  23.605  1.00  0.00     0.292 A 
ATOM     27  C   UNL A   1      32.516  25.410  21.814  1.00  0.00     0.192 A 
ATOM     28  O   UNL A   1      30.399  25.953  23.618  1.00  0.00    -0.418 OA
ATOM     29  C   UNL A   1      32.110  26.769  22.061  1.00  0.00     0.107 A 
ATOM     30  O   UNL A   1      33.277  25.134  20.897  1.00  0.00    -0.289 OA
BRANCH  12  31
ATOM     31  O   UNL A   1      36.179  24.529  24.192  1.00  0.00    -0.393 OA
ATOM     32  H   UNL A   1      35.681  24.591  25.022  1.00  0.00     0.210 HD
ENDBRANCH  12  31
ENDBRANCH   6   8
ENDBRANCH   5   6
ENDBRANCH   4   5
ENDBRANCH   3   4
ENDBRANCH   2   3
ENDBRANCH   1   2
BRANCH   1  33
ATOM     33  C   UNL A   1      31.891  33.085  26.853  1.00  0.00     0.261 C 
BRANCH  33  34
ATOM     34  O   UNL A   1      32.682  33.105  28.055  1.00  0.00    -0.460 OA
BRANCH  34  35
ATOM     35  C   UNL A   1      33.760  33.923  28.015  1.00  0.00     0.338 C 
ATOM     36  O   UNL A   1      33.780  35.128  27.872  1.00  0.00    -0.246 OA
BRANCH  35  37
ATOM     37  C   UNL A   1      34.965  33.141  28.339  1.00  0.00     0.060 A 
ATOM     38  C   UNL A   1      34.791  31.830  28.797  1.00  0.00     0.016 A 
ATOM     39  C   UNL A   1      36.235  33.720  28.290  1.00  0.00     0.016 A 
ATOM     40  C   UNL A   1      35.888  31.100  29.244  1.00  0.00     0.010 A 
ATOM     41  C   UNL A   1      37.334  32.991  28.755  1.00  0.00     0.010 A 
ATOM     42  C   UNL A   1      37.158  31.692  29.265  1.00  0.00    -0.014 A 
BRANCH  42  43
ATOM     43  C   UNL A   1      38.260  31.012  29.985  1.00  0.00     0.031 A 
ATOM     44  C   UNL A   1      38.499  31.356  31.428  1.00  0.00     0.074 A 
ATOM     45  C   UNL A   1      38.996  30.065  29.379  1.00  0.00     0.049 A 
ATOM     46  N   UNL A   1      39.384  30.873  32.261  1.00  0.00    -0.248 NA
ATOM     47  C   UNL A   1      37.615  32.378  32.014  1.00  0.00     0.031 C 
ATOM     48  C   UNL A   1      38.824  29.617  27.999  1.00  0.00     0.029 A 
ATOM     49  N   UNL A   1      40.035  29.303  29.855  1.00  0.00    -0.354 N 
ATOM     50  C   UNL A   1      39.155  31.518  33.468  1.00  0.00     0.074 A 
ATOM     51  C   UNL A   1      38.083  32.465  33.250  1.00  0.00     0.031 C 
ATOM     52  C   UNL A   1      39.725  28.652  27.739  1.00  0.00     0.029 A 
ATOM     53  C   UNL A   1      40.552  28.435  28.926  1.00  0.00     0.049 A 
ATOM     54  H   UNL A   1      40.376  29.373  30.775  1.00  0.00     0.167 HD
ATOM     55  C   UNL A   1      39.767  31.320  34.658  1.00  0.00     0.037 A 
ATOM     56  C   UNL A   1      41.582  27.571  29.024  1.00  0.00     0.037 A 
ATOM     57  C   UNL A   1      40.839  30.383  34.868  1.00  0.00     0.049 A 
ATOM     58  C   UNL A   1      42.323  27.453  30.333  1.00  0.00     0.074 A 
ATOM     59  C   UNL A   1      41.525  30.111  36.037  1.00  0.00     0.029 A 
ATOM     60  N   UNL A   1      41.382  29.571  33.884  1.00  0.00    -0.354 N 
ATOM     61  N   UNL A   1      42.079  28.040  31.479  1.00  0.00    -0.248 NA
ATOM     62  C   UNL A   1      43.484  26.550  30.361  1.00  0.00     0.031 C 
ATOM     63  C   UNL A   1      42.519  29.174  35.750  1.00  0.00     0.029 A 
ATOM     64  C   UNL A   1      42.416  28.818  34.414  1.00  0.00     0.049 A 
ATOM     65  H   UNL A   1      41.077  29.534  32.949  1.00  0.00     0.167 HD
ATOM     66  C   UNL A   1      43.031  27.559  32.368  1.00  0.00     0.074 A 
ATOM     67  C   UNL A   1      43.851  26.618  31.634  1.00  0.00     0.031 C 
ATOM     68  C   UNL A   1      43.212  27.872  33.675  1.00  0.00     0.037 A 
BRANCH  55  69
ATOM     69  C   UNL A   1      39.293  32.122  35.833  1.00  0.00     0.064 A 
ATOM     70  C   UNL A   1      38.345  31.609  36.729  1.00  0.00     0.173 A 
ATOM     71  C   UNL A   1      39.847  33.381  36.111  1.00  0.00     0.173 A 
ATOM     72  F   UNL A   1      37.776  30.416  36.502  1.00  0.00    -0.203 F 
ATOM     73  C   UNL A   1      37.961  32.330  37.856  1.00  0.00     0.198 A 
ATOM     74  C   UNL A   1      39.483  34.086  37.255  1.00  0.00     0.198 A 
ATOM     75  F   UNL A   1      40.762  33.914  35.288  1.00  0.00    -0.203 F 
ATOM     76  F   UNL A   1      37.031  31.833  38.684  1.00  0.00    -0.200 F 
ATOM     77  C   UNL A   1      38.539  33.562  38.124  1.00  0.00     0.200 A 
ATOM     78  F   UNL A   1      40.055  35.269  37.521  1.00  0.00    -0.200 F 
ATOM     79  F   UNL A   1      38.185  34.245  39.222  1.00  0.00    -0.200 F 
ENDBRANCH  55  69
BRANCH  56  80
ATOM     80  C   UNL A   1      41.963  26.731  27.858  1.00  0.00     0.064 A 
ATOM     81  C   UNL A   1      41.344  25.495  27.631  1.00  0.00     0.173 A 
ATOM     82  C   UNL A   1      42.957  27.138  26.956  1.00  0.00     0.173 A 
ATOM     83  F   UNL A   1      40.406  25.050  28.478  1.00  0.00    -0.203 F 
ATOM     84  C   UNL A   1      41.713  24.691  26.552  1.00  0.00     0.198 A 
ATOM     85  C   UNL A   1      43.305  26.347  25.862  1.00  0.00     0.198 A 
ATOM     86  F   UNL A   1      43.585  28.310  27.130  1.00  0.00    -0.203 F 
ATOM     87  F   UNL A   1      41.136  23.494  26.384  1.00  0.00    -0.200 F 
ATOM     88  C   UNL A   1      42.689  25.121  25.665  1.00  0.00     0.200 A 
ATOM     89  F   UNL A   1      44.239  26.772  25.000  1.00  0.00    -0.200 F 
ATOM     90  F   UNL A   1      43.038  24.352  24.626  1.00  0.00    -0.200 F 
ENDBRANCH  56  80
BRANCH  68  91
ATOM     91  C   UNL A   1      44.323  27.186  34.419  1.00  0.00     0.064 A 
ATOM     92  C   UNL A   1      45.581  27.786  34.569  1.00  0.00     0.173 A 
ATOM     93  C   UNL A   1      44.089  25.972  35.084  1.00  0.00     0.173 A 
ATOM     94  F   UNL A   1      45.857  28.941  33.945  1.00  0.00    -0.203 F 
ATOM     95  C   UNL A   1      46.566  27.193  35.354  1.00  0.00     0.198 A 
ATOM     96  C   UNL A   1      45.065  25.399  35.893  1.00  0.00     0.198 A 
ATOM     97  F   UNL A   1      42.898  25.363  34.982  1.00  0.00    -0.203 F 
ATOM     98  F   UNL A   1      47.770  27.771  35.465  1.00  0.00    -0.200 F 
ATOM     99  C   UNL A   1      46.304  26.008  36.026  1.00  0.00     0.200 A 
ATOM    100  F   UNL A   1      44.803  24.266  36.559  1.00  0.00    -0.200 F 
ATOM    101  F   UNL A   1      47.243  25.455  36.806  1.00  0.00    -0.200 F 
ENDBRANCH  68  91
ENDBRANCH  42  43
ENDBRANCH  35  37
ENDBRANCH  34  35
ENDBRANCH  33  34
ENDBRANCH   1  33
TORSDOF 15
ENDMDL
MODEL 3
REMARK VINA RESULT:     -13.1      0.331      1.553
REMARK SMILES CC1(C)[C@H](O)CC[C@@]2(C)[C@H]3Cc4c(oc(C(=O)OCCOCCOC(=O)c5ccc(-c6c7nc(c(-c8c(F)c(F)c(F)c(F)c8F)c8ccc([nH]8)c(-c8c(F)c(F)c(F)c(F)c8F)c8nc(c(-c9c(F)c(F)c(F)c(F)c9F)c9ccc6[nH]9)C=C8)C=C7)cc5)cc4=O)O[C@@]3(C)CC[C@@H]12
REMARK SMILES IDX 22 1 21 2 20 3 19 4 18 5 16 6 17 7 15 8 1 9 2 10 3 11 4 12
REMARK SMILES IDX 98 13 6 14 8 15 97 16 7 17 9 18 10 19 96 20 94 21 11 22
REMARK SMILES IDX 95 23 93 24 12 25 13 26 91 27 14 28 90 29 92 30 5 31 23 33
REMARK SMILES IDX 24 34 25 35 26 36 27 37 28 38 89 39 29 40 88 41 30 42 31 43
REMARK SMILES IDX 32 44 82 45 33 46 87 47 81 48 83 49 34 50 86 51 80 52 79 53
REMARK SMILES IDX 35 55 67 56 47 57 66 58 48 59 51 60 65 61 84 62 49 63 50 64
REMARK SMILES IDX 64 66 85 67 52 68 36 69 37 70 45 71 38 72 39 73 43 74 46 75
REMARK SMILES IDX 40 76 41 77 44 78 42 79 68 80 69 81 77 82 70 83 71 84 75 85
REMARK SMILES IDX 78 86 72 87 73 88 76 89 74 90 53 91 54 92 62 93 55 94 56 95
REMARK SMILES IDX 60 96 63 97 57 98 58 99 61 100 59 101
REMARK H PARENT 5 32 83 54 51 65
REMARK Flexibility Score: inf
ROOT
ATOM      1  C   UNL A   1      37.729  19.985  24.839  1.00  0.00     0.202 C 
ENDROOT
BRANCH   1   2
ATOM      2  O   UNL A   1      37.449  21.371  25.046  1.00  0.00    -0.374 OA
BRANCH   2   3
ATOM      3  C   UNL A   1      36.155  21.693  25.554  1.00  0.00     0.202 C 
BRANCH   3   4
ATOM      4  C   UNL A   1      34.967  21.299  24.665  1.00  0.00     0.261 C 
BRANCH   4   5
ATOM      5  O   UNL A   1      34.134  20.346  25.333  1.00  0.00    -0.457 OA
BRANCH   5   6
ATOM      6  C   UNL A   1      32.804  20.265  25.007  1.00  0.00     0.374 C 
ATOM      7  O   UNL A   1      32.151  19.248  24.914  1.00  0.00    -0.242 OA
BRANCH   6   8
ATOM      8  C   UNL A   1      32.260  21.666  24.949  1.00  0.00     0.219 A 
ATOM      9  C   UNL A   1      32.378  30.648  26.525  1.00  0.00     0.014 C 
ATOM     10  C   UNL A   1      33.008  29.324  25.996  1.00  0.00    -0.006 C 
ATOM     11  C   UNL A   1      34.551  29.588  26.119  1.00  0.00     0.014 C 
ATOM     12  C   UNL A   1      32.758  28.225  27.208  1.00  0.00     0.120 C 
ATOM     13  C   UNL A   1      32.410  28.873  24.250  1.00  0.00     0.004 C 
ATOM     14  C   UNL A   1      31.307  27.881  27.232  1.00  0.00     0.033 C 
ATOM     15  C   UNL A   1      32.228  27.471  24.753  1.00  0.00    -0.022 C 
ATOM     16  C   UNL A   1      31.196  28.602  23.092  1.00  0.00     0.009 C 
ATOM     17  C   UNL A   1      30.987  27.906  25.772  1.00  0.00     0.010 C 
ATOM     18  C   UNL A   1      33.824  27.310  24.453  1.00  0.00     0.012 C 
ATOM     19  C   UNL A   1      31.877  26.068  24.271  1.00  0.00     0.044 C 
ATOM     20  C   UNL A   1      30.649  27.118  22.556  1.00  0.00     0.049 C 
ATOM     21  C   UNL A   1      31.591  25.878  22.800  1.00  0.00     0.113 C 
ATOM     22  C   UNL A   1      30.707  25.434  25.063  1.00  0.00     0.055 C 
ATOM     23  C   UNL A   1      32.692  25.995  21.728  1.00  0.00     0.057 C 
ATOM     24  O   UNL A   1      31.155  24.440  22.622  1.00  0.00    -0.458 OA
ATOM     25  C   UNL A   1      30.903  24.011  24.941  1.00  0.00     0.081 A 
ATOM     26  C   UNL A   1      31.294  23.552  23.756  1.00  0.00     0.292 A 
ATOM     27  C   UNL A   1      31.058  23.302  26.205  1.00  0.00     0.192 A 
ATOM     28  O   UNL A   1      31.912  22.277  23.705  1.00  0.00    -0.418 OA
ATOM     29  C   UNL A   1      31.944  22.168  26.155  1.00  0.00     0.107 A 
ATOM     30  O   UNL A   1      30.513  23.634  27.249  1.00  0.00    -0.289 OA
BRANCH  12  31
ATOM     31  O   UNL A   1      33.431  26.967  27.089  1.00  0.00    -0.393 OA
ATOM     32  H   UNL A   1      33.750  26.688  27.962  1.00  0.00     0.210 HD
ENDBRANCH  12  31
ENDBRANCH   6   8
ENDBRANCH   5   6
ENDBRANCH   4   5
ENDBRANCH   3   4
ENDBRANCH   2   3
ENDBRANCH   1   2
BRANCH   1  33
ATOM     33  C   UNL A   1      39.060  19.458  25.380  1.00  0.00     0.261 C 
BRANCH  33  34
ATOM     34  O   UNL A   1      39.484  20.196  26.540  1.00  0.00    -0.460 OA
BRANCH  34  35
ATOM     35  C   UNL A   1      40.803  20.497  26.575  1.00  0.00     0.338 C 
ATOM     36  O   UNL A   1      41.730  19.847  26.140  1.00  0.00    -0.246 OA
BRANCH  35  37
ATOM     37  C   UNL A   1      40.967  21.864  27.098  1.00  0.00     0.060 A 
ATOM     38  C   UNL A   1      40.349  22.910  26.403  1.00  0.00     0.016 A 
ATOM     39  C   UNL A   1      41.796  22.123  28.192  1.00  0.00     0.016 A 
ATOM     40  C   UNL A   1      40.586  24.228  26.779  1.00  0.00     0.010 A 
ATOM     41  C   UNL A   1      42.046  23.448  28.558  1.00  0.00     0.010 A 
ATOM     42  C   UNL A   1      41.469  24.506  27.831  1.00  0.00    -0.014 A 
BRANCH  42  43
ATOM     43  C   UNL A   1      41.919  25.900  28.047  1.00  0.00     0.031 A 
ATOM     44  C   UNL A   1      43.277  26.305  27.546  1.00  0.00     0.074 A 
ATOM     45  C   UNL A   1      41.110  26.803  28.629  1.00  0.00     0.049 A 
ATOM     46  N   UNL A   1      43.868  27.471  27.601  1.00  0.00    -0.248 NA
ATOM     47  C   UNL A   1      44.074  25.256  26.887  1.00  0.00     0.031 C 
ATOM     48  C   UNL A   1      39.758  26.535  29.112  1.00  0.00     0.029 A 
ATOM     49  N   UNL A   1      41.311  28.133  28.905  1.00  0.00    -0.354 N 
ATOM     50  C   UNL A   1      45.094  27.300  26.973  1.00  0.00     0.074 A 
ATOM     51  C   UNL A   1      45.188  25.908  26.590  1.00  0.00     0.031 C 
ATOM     52  C   UNL A   1      39.245  27.669  29.622  1.00  0.00     0.029 A 
ATOM     53  C   UNL A   1      40.244  28.734  29.524  1.00  0.00     0.049 A 
ATOM     54  H   UNL A   1      42.142  28.610  28.679  1.00  0.00     0.167 HD
ATOM     55  C   UNL A   1      46.044  28.227  26.715  1.00  0.00     0.037 A 
ATOM     56  C   UNL A   1      40.098  29.998  29.968  1.00  0.00     0.037 A 
ATOM     57  C   UNL A   1      45.951  29.609  27.105  1.00  0.00     0.049 A 
ATOM     58  C   UNL A   1      41.222  30.984  29.771  1.00  0.00     0.074 A 
ATOM     59  C   UNL A   1      46.864  30.625  26.891  1.00  0.00     0.029 A 
ATOM     60  N   UNL A   1      44.883  30.164  27.793  1.00  0.00    -0.354 N 
ATOM     61  N   UNL A   1      42.364  30.825  29.146  1.00  0.00    -0.248 NA
ATOM     62  C   UNL A   1      41.037  32.327  30.341  1.00  0.00     0.031 C 
ATOM     63  C   UNL A   1      46.374  31.784  27.497  1.00  0.00     0.029 A 
ATOM     64  C   UNL A   1      45.129  31.505  28.039  1.00  0.00     0.049 A 
ATOM     65  H   UNL A   1      44.071  29.678  28.066  1.00  0.00     0.167 HD
ATOM     66  C   UNL A   1      43.017  32.048  29.221  1.00  0.00     0.074 A 
ATOM     67  C   UNL A   1      42.140  32.947  29.939  1.00  0.00     0.031 C 
ATOM     68  C   UNL A   1      44.237  32.392  28.740  1.00  0.00     0.037 A 
BRANCH  55  69
ATOM     69  C   UNL A   1      47.270  27.787  25.970  1.00  0.00     0.064 A 
ATOM     70  C   UNL A   1      48.400  27.308  26.648  1.00  0.00     0.173 A 
ATOM     71  C   UNL A   1      47.287  27.769  24.568  1.00  0.00     0.173 A 
ATOM     72  F   UNL A   1      48.438  27.315  27.989  1.00  0.00    -0.203 F 
ATOM     73  C   UNL A   1      49.507  26.836  25.949  1.00  0.00     0.198 A 
ATOM     74  C   UNL A   1      48.384  27.268  23.872  1.00  0.00     0.198 A 
ATOM     75  F   UNL A   1      46.229  28.211  23.872  1.00  0.00    -0.203 F 
ATOM     76  F   UNL A   1      50.589  26.410  26.617  1.00  0.00    -0.200 F 
ATOM     77  C   UNL A   1      49.494  26.805  24.562  1.00  0.00     0.200 A 
ATOM     78  F   UNL A   1      48.362  27.224  22.533  1.00  0.00    -0.200 F 
ATOM     79  F   UNL A   1      50.551  26.329  23.891  1.00  0.00    -0.200 F 
ENDBRANCH  55  69
BRANCH  56  80
ATOM     80  C   UNL A   1      38.830  30.414  30.624  1.00  0.00     0.064 A 
ATOM     81  C   UNL A   1      37.723  30.809  29.862  1.00  0.00     0.173 A 
ATOM     82  C   UNL A   1      38.702  30.439  32.021  1.00  0.00     0.173 A 
ATOM     83  F   UNL A   1      37.803  30.827  28.524  1.00  0.00    -0.203 F 
ATOM     84  C   UNL A   1      36.539  31.223  30.471  1.00  0.00     0.198 A 
ATOM     85  C   UNL A   1      37.508  30.825  32.629  1.00  0.00     0.198 A 
ATOM     86  F   UNL A   1      39.733  30.076  32.798  1.00  0.00    -0.203 F 
ATOM     87  F   UNL A   1      35.510  31.637  29.718  1.00  0.00    -0.200 F 
ATOM     88  C   UNL A   1      36.430  31.225  31.853  1.00  0.00     0.200 A 
ATOM     89  F   UNL A   1      37.403  30.813  33.964  1.00  0.00    -0.200 F 
ATOM     90  F   UNL A   1      35.290  31.616  32.438  1.00  0.00    -0.200 F 
ENDBRANCH  56  80
BRANCH  68  91
ATOM     91  C   UNL A   1      44.705  33.806  28.948  1.00  0.00     0.064 A 
ATOM     92  C   UNL A   1      44.359  34.828  28.054  1.00  0.00     0.173 A 
ATOM     93  C   UNL A   1      45.408  34.157  30.111  1.00  0.00     0.173 A 
ATOM     94  F   UNL A   1      43.698  34.541  26.923  1.00  0.00    -0.203 F 
ATOM     95  C   UNL A   1      44.703  36.152  28.315  1.00  0.00     0.198 A 
ATOM     96  C   UNL A   1      45.722  35.486  30.384  1.00  0.00     0.198 A 
ATOM     97  F   UNL A   1      45.753  33.218  31.004  1.00  0.00    -0.203 F 
ATOM     98  F   UNL A   1      44.383  37.111  27.435  1.00  0.00    -0.200 F 
ATOM     99  C   UNL A   1      45.371  36.482  29.485  1.00  0.00     0.200 A 
ATOM    100  F   UNL A   1      46.347  35.805  31.525  1.00  0.00    -0.200 F 
ATOM    101  F   UNL A   1      45.674  37.760  29.748  1.00  0.00    -0.200 F 
ENDBRANCH  68  91
ENDBRANCH  42  43
ENDBRANCH  35  37
ENDBRANCH  34  35
ENDBRANCH  33  34
ENDBRANCH   1  33
TORSDOF 15
ENDMDL
