MODEL 1
REMARK VINA RESULT:     -12.0      0.000      0.000
REMARK SMILES CC[NH+]1CC[NH+]([C@@H]2CC(=O)N(c3ccc(C(=O)OCCOCCOC(=O)c4ccc(-c5c6nc(c(-c7c(F)c(F)c(F)c(F)c7F)c7ccc([nH]7)c(-c7c(F)c(F)c(F)c(F)c7F)c7nc(c(-c8c(F)c(F)c(F)c(F)c8F)c8ccc5[nH]8)C=C7)C=C6)cc4)cc3)C2=O)CC1
REMARK SMILES IDX 20 1 19 2 18 3 16 4 17 5 15 6 12 7 13 8 91 9 14 10 90 11
REMARK SMILES IDX 11 12 7 13 8 14 92 15 9 16 93 17 10 18 6 19 3 20 4 21 95 22
REMARK SMILES IDX 5 24 94 25 2 27 1 28 21 29 22 30 23 31 24 32 25 33 26 34
REMARK SMILES IDX 27 35 28 36 89 37 29 38 88 39 30 40 31 41 32 42 82 43 33 44
REMARK SMILES IDX 87 45 81 46 83 47 34 48 86 49 80 50 79 51 35 53 67 54 47 55
REMARK SMILES IDX 66 56 48 57 51 58 65 59 84 60 49 61 50 62 64 64 85 65 52 66
REMARK SMILES IDX 36 67 37 68 45 69 38 70 39 71 43 72 46 73 40 74 41 75 44 76
REMARK SMILES IDX 42 77 68 78 69 79 77 80 70 81 71 82 75 83 78 84 72 85 73 86
REMARK SMILES IDX 76 87 74 88 53 89 54 90 62 91 55 92 56 93 60 94 63 95 57 96
REMARK SMILES IDX 58 97 61 98 59 99
REMARK H PARENT 3 23 6 26 83 52 51 63
REMARK Flexibility Score: inf
ROOT
ATOM      1  C   UNL A   1      33.001  35.206  30.789  1.00  0.00     0.202 C 
ENDROOT
BRANCH   1   2
ATOM      2  C   UNL A   1      33.343  35.500  29.325  1.00  0.00     0.261 C 
BRANCH   2   3
ATOM      3  O   UNL A   1      33.013  34.389  28.479  1.00  0.00    -0.460 OA
BRANCH   3   4
ATOM      4  C   UNL A   1      34.021  33.507  28.281  1.00  0.00     0.338 C 
ATOM      5  O   UNL A   1      35.173  33.602  28.680  1.00  0.00    -0.246 OA
BRANCH   4   6
ATOM      6  C   UNL A   1      33.494  32.282  27.648  1.00  0.00     0.060 A 
ATOM      7  C   UNL A   1      32.337  29.980  26.522  1.00  0.00     0.052 A 
ATOM      8  C   UNL A   1      31.621  31.185  26.574  1.00  0.00     0.028 A 
ATOM      9  C   UNL A   1      33.667  29.972  26.974  1.00  0.00     0.028 A 
ATOM     10  C   UNL A   1      32.185  32.320  27.157  1.00  0.00     0.018 A 
ATOM     11  C   UNL A   1      34.253  31.120  27.517  1.00  0.00     0.018 A 
BRANCH   7  12
ATOM     12  N   UNL A   1      31.687  28.784  26.125  1.00  0.00    -0.245 N 
ATOM     13  C   UNL A   1      30.945  26.545  26.165  1.00  0.00     0.285 C 
ATOM     14  C   UNL A   1      30.907  27.067  24.738  1.00  0.00     0.176 C 
ATOM     15  C   UNL A   1      31.329  27.770  26.988  1.00  0.00     0.292 C 
ATOM     16  C   UNL A   1      31.434  28.462  24.815  1.00  0.00     0.240 C 
ATOM     17  O   UNL A   1      31.301  27.811  28.213  1.00  0.00    -0.267 OA
ATOM     18  O   UNL A   1      31.634  29.133  23.811  1.00  0.00    -0.274 OA
BRANCH  13  19
ATOM     19  N   UNL A   1      31.780  25.376  26.508  1.00  0.00    -0.315 N 
ATOM     20  N   UNL A   1      32.442  23.313  24.400  1.00  0.00    -0.326 N 
ATOM     21  C   UNL A   1      31.134  23.342  25.086  1.00  0.00     0.324 C 
ATOM     22  C   UNL A   1      33.110  24.625  24.482  1.00  0.00     0.324 C 
ATOM     23  H   UNL A   1      32.256  23.107  23.419  1.00  0.00     0.348 HD
ATOM     24  C   UNL A   1      31.089  24.079  26.450  1.00  0.00     0.325 C 
ATOM     25  C   UNL A   1      33.104  25.273  25.880  1.00  0.00     0.325 C 
ATOM     26  H   UNL A   1      31.966  25.599  27.486  1.00  0.00     0.349 HD
BRANCH  20  27
ATOM     27  C   UNL A   1      33.316  22.238  24.890  1.00  0.00     0.259 C 
ATOM     28  C   UNL A   1      34.751  22.417  24.404  1.00  0.00     0.071 C 
ENDBRANCH  20  27
ENDBRANCH  13  19
ENDBRANCH   7  12
ENDBRANCH   4   6
ENDBRANCH   3   4
ENDBRANCH   2   3
ENDBRANCH   1   2
BRANCH   1  29
ATOM     29  O   UNL A   1      33.700  35.957  31.779  1.00  0.00    -0.374 OA
BRANCH  29  30
ATOM     30  C   UNL A   1      34.623  35.253  32.613  1.00  0.00     0.202 C 
BRANCH  30  31
ATOM     31  C   UNL A   1      34.323  33.775  32.891  1.00  0.00     0.261 C 
BRANCH  31  32
ATOM     32  O   UNL A   1      35.241  32.897  32.213  1.00  0.00    -0.460 OA
BRANCH  32  33
ATOM     33  C   UNL A   1      36.238  32.412  32.990  1.00  0.00     0.338 C 
ATOM     34  O   UNL A   1      36.309  32.431  34.209  1.00  0.00    -0.246 OA
BRANCH  33  35
ATOM     35  C   UNL A   1      37.199  31.665  32.159  1.00  0.00     0.060 A 
ATOM     36  C   UNL A   1      38.149  30.875  32.820  1.00  0.00     0.016 A 
ATOM     37  C   UNL A   1      37.222  31.793  30.769  1.00  0.00     0.016 A 
ATOM     38  C   UNL A   1      39.158  30.246  32.095  1.00  0.00     0.010 A 
ATOM     39  C   UNL A   1      38.242  31.167  30.044  1.00  0.00     0.010 A 
ATOM     40  C   UNL A   1      39.234  30.421  30.707  1.00  0.00    -0.014 A 
BRANCH  40  41
ATOM     41  C   UNL A   1      40.426  29.937  29.971  1.00  0.00     0.031 A 
ATOM     42  C   UNL A   1      41.571  30.882  29.733  1.00  0.00     0.074 A 
ATOM     43  C   UNL A   1      40.498  28.665  29.541  1.00  0.00     0.049 A 
ATOM     44  N   UNL A   1      42.687  30.688  29.078  1.00  0.00    -0.248 NA
ATOM     45  C   UNL A   1      41.437  32.229  30.310  1.00  0.00     0.031 C 
ATOM     46  C   UNL A   1      39.471  27.646  29.745  1.00  0.00     0.029 A 
ATOM     47  N   UNL A   1      41.480  28.018  28.834  1.00  0.00    -0.354 N 
ATOM     48  C   UNL A   1      43.382  31.888  29.155  1.00  0.00     0.074 A 
ATOM     49  C   UNL A   1      42.550  32.813  29.893  1.00  0.00     0.031 C 
ATOM     50  C   UNL A   1      39.871  26.501  29.167  1.00  0.00     0.029 A 
ATOM     51  C   UNL A   1      41.165  26.719  28.522  1.00  0.00     0.049 A 
ATOM     52  H   UNL A   1      42.329  28.444  28.575  1.00  0.00     0.167 HD
ATOM     53  C   UNL A   1      44.609  32.186  28.663  1.00  0.00     0.037 A 
ATOM     54  C   UNL A   1      41.836  25.818  27.778  1.00  0.00     0.037 A 
ATOM     55  C   UNL A   1      45.434  31.261  27.932  1.00  0.00     0.049 A 
ATOM     56  C   UNL A   1      43.166  26.197  27.181  1.00  0.00     0.074 A 
ATOM     57  C   UNL A   1      46.702  31.459  27.413  1.00  0.00     0.029 A 
ATOM     58  N   UNL A   1      45.070  29.962  27.610  1.00  0.00    -0.354 N 
ATOM     59  N   UNL A   1      43.831  27.323  27.282  1.00  0.00    -0.248 NA
ATOM     60  C   UNL A   1      43.842  25.175  26.368  1.00  0.00     0.031 C 
ATOM     61  C   UNL A   1      47.080  30.301  26.726  1.00  0.00     0.029 A 
ATOM     62  C   UNL A   1      46.075  29.358  26.871  1.00  0.00     0.049 A 
ATOM     63  H   UNL A   1      44.221  29.532  27.867  1.00  0.00     0.167 HD
ATOM     64  C   UNL A   1      45.012  27.137  26.575  1.00  0.00     0.074 A 
ATOM     65  C   UNL A   1      44.980  25.783  26.061  1.00  0.00     0.031 C 
ATOM     66  C   UNL A   1      46.033  28.006  26.372  1.00  0.00     0.037 A 
BRANCH  53  67
ATOM     67  C   UNL A   1      45.121  33.582  28.875  1.00  0.00     0.064 A 
ATOM     68  C   UNL A   1      45.909  33.922  29.986  1.00  0.00     0.173 A 
ATOM     69  C   UNL A   1      44.851  34.586  27.932  1.00  0.00     0.173 A 
ATOM     70  F   UNL A   1      46.186  33.003  30.923  1.00  0.00    -0.203 F 
ATOM     71  C   UNL A   1      46.381  35.220  30.160  1.00  0.00     0.198 A 
ATOM     72  C   UNL A   1      45.352  35.875  28.093  1.00  0.00     0.198 A 
ATOM     73  F   UNL A   1      44.108  34.315  26.849  1.00  0.00    -0.203 F 
ATOM     74  F   UNL A   1      47.089  35.534  31.254  1.00  0.00    -0.200 F 
ATOM     75  C   UNL A   1      46.109  36.194  29.210  1.00  0.00     0.200 A 
ATOM     76  F   UNL A   1      45.099  36.810  27.167  1.00  0.00    -0.200 F 
ATOM     77  F   UNL A   1      46.572  37.440  29.374  1.00  0.00    -0.200 F 
ENDBRANCH  53  67
BRANCH  54  78
ATOM     78  C   UNL A   1      41.255  24.469  27.546  1.00  0.00     0.064 A 
ATOM     79  C   UNL A   1      41.814  23.328  28.139  1.00  0.00     0.173 A 
ATOM     80  C   UNL A   1      40.143  24.290  26.710  1.00  0.00     0.173 A 
ATOM     81  F   UNL A   1      42.894  23.443  28.926  1.00  0.00    -0.203 F 
ATOM     82  C   UNL A   1      41.293  22.059  27.891  1.00  0.00     0.198 A 
ATOM     83  C   UNL A   1      39.605  23.025  26.486  1.00  0.00     0.198 A 
ATOM     84  F   UNL A   1      39.572  25.349  26.116  1.00  0.00    -0.203 F 
ATOM     85  F   UNL A   1      41.877  20.981  28.431  1.00  0.00    -0.200 F 
ATOM     86  C   UNL A   1      40.186  21.909  27.070  1.00  0.00     0.200 A 
ATOM     87  F   UNL A   1      38.527  22.887  25.703  1.00  0.00    -0.200 F 
ATOM     88  F   UNL A   1      39.684  20.690  26.833  1.00  0.00    -0.200 F 
ENDBRANCH  54  78
BRANCH  66  89
ATOM     89  C   UNL A   1      47.221  27.511  25.596  1.00  0.00     0.064 A 
ATOM     90  C   UNL A   1      47.347  27.731  24.216  1.00  0.00     0.173 A 
ATOM     91  C   UNL A   1      48.267  26.843  26.251  1.00  0.00     0.173 A 
ATOM     92  F   UNL A   1      46.369  28.351  23.538  1.00  0.00    -0.203 F 
ATOM     93  C   UNL A   1      48.462  27.275  23.518  1.00  0.00     0.198 A 
ATOM     94  C   UNL A   1      49.396  26.419  25.556  1.00  0.00     0.198 A 
ATOM     95  F   UNL A   1      48.201  26.615  27.572  1.00  0.00    -0.203 F 
ATOM     96  F   UNL A   1      48.537  27.451  22.191  1.00  0.00    -0.200 F 
ATOM     97  C   UNL A   1      49.489  26.627  24.189  1.00  0.00     0.200 A 
ATOM     98  F   UNL A   1      50.394  25.808  26.210  1.00  0.00    -0.200 F 
ATOM     99  F   UNL A   1      50.565  26.198  23.517  1.00  0.00    -0.200 F 
ENDBRANCH  66  89
ENDBRANCH  40  41
ENDBRANCH  33  35
ENDBRANCH  32  33
ENDBRANCH  31  32
ENDBRANCH  30  31
ENDBRANCH  29  30
ENDBRANCH   1  29
TORSDOF 17
ENDMDL
MODEL 2
REMARK VINA RESULT:     -11.9      5.526     10.984
REMARK SMILES CC[NH+]1CC[NH+]([C@@H]2CC(=O)N(c3ccc(C(=O)OCCOCCOC(=O)c4ccc(-c5c6nc(c(-c7c(F)c(F)c(F)c(F)c7F)c7ccc([nH]7)c(-c7c(F)c(F)c(F)c(F)c7F)c7nc(c(-c8c(F)c(F)c(F)c(F)c8F)c8ccc5[nH]8)C=C7)C=C6)cc4)cc3)C2=O)CC1
REMARK SMILES IDX 20 1 19 2 18 3 16 4 17 5 15 6 12 7 13 8 91 9 14 10 90 11
REMARK SMILES IDX 11 12 7 13 8 14 92 15 9 16 93 17 10 18 6 19 3 20 4 21 95 22
REMARK SMILES IDX 5 24 94 25 2 27 1 28 21 29 22 30 23 31 24 32 25 33 26 34
REMARK SMILES IDX 27 35 28 36 89 37 29 38 88 39 30 40 31 41 32 42 82 43 33 44
REMARK SMILES IDX 87 45 81 46 83 47 34 48 86 49 80 50 79 51 35 53 67 54 47 55
REMARK SMILES IDX 66 56 48 57 51 58 65 59 84 60 49 61 50 62 64 64 85 65 52 66
REMARK SMILES IDX 36 67 37 68 45 69 38 70 39 71 43 72 46 73 40 74 41 75 44 76
REMARK SMILES IDX 42 77 68 78 69 79 77 80 70 81 71 82 75 83 78 84 72 85 73 86
REMARK SMILES IDX 76 87 74 88 53 89 54 90 62 91 55 92 56 93 60 94 63 95 57 96
REMARK SMILES IDX 58 97 61 98 59 99
REMARK H PARENT 3 23 6 26 83 52 51 63
REMARK Flexibility Score: inf
ROOT
ATOM      1  C   UNL A   1      42.349  19.104  26.042  1.00  0.00     0.202 C 
ENDROOT
BRANCH   1   2
ATOM      2  C   UNL A   1      41.194  19.595  26.920  1.00  0.00     0.261 C 
BRANCH   2   3
ATOM      3  O   UNL A   1      40.131  20.140  26.125  1.00  0.00    -0.460 OA
BRANCH   3   4
ATOM      4  C   UNL A   1      39.937  21.472  26.274  1.00  0.00     0.338 C 
ATOM      5  O   UNL A   1      40.762  22.302  26.628  1.00  0.00    -0.246 OA
BRANCH   4   6
ATOM      6  C   UNL A   1      38.601  21.839  25.766  1.00  0.00     0.060 A 
ATOM      7  C   UNL A   1      36.029  22.629  24.946  1.00  0.00     0.052 A 
ATOM      8  C   UNL A   1      36.898  23.548  25.553  1.00  0.00     0.028 A 
ATOM      9  C   UNL A   1      36.502  21.331  24.689  1.00  0.00     0.028 A 
ATOM     10  C   UNL A   1      38.163  23.149  25.985  1.00  0.00     0.018 A 
ATOM     11  C   UNL A   1      37.787  20.939  25.078  1.00  0.00     0.018 A 
BRANCH   7  12
ATOM     12  N   UNL A   1      34.677  22.981  24.706  1.00  0.00    -0.245 N 
ATOM     13  C   UNL A   1      32.792  23.996  23.714  1.00  0.00     0.285 C 
ATOM     14  C   UNL A   1      32.458  23.588  25.139  1.00  0.00     0.176 C 
ATOM     15  C   UNL A   1      34.195  23.437  23.497  1.00  0.00     0.292 C 
ATOM     16  C   UNL A   1      33.718  23.004  25.687  1.00  0.00     0.240 C 
ATOM     17  O   UNL A   1      34.761  23.405  22.410  1.00  0.00    -0.267 OA
ATOM     18  O   UNL A   1      33.818  22.669  26.861  1.00  0.00    -0.274 OA
BRANCH  13  19
ATOM     19  N   UNL A   1      32.702  25.412  23.305  1.00  0.00    -0.315 N 
ATOM     20  N   UNL A   1      30.875  27.307  24.791  1.00  0.00    -0.326 N 
ATOM     21  C   UNL A   1      30.365  26.355  23.783  1.00  0.00     0.324 C 
ATOM     22  C   UNL A   1      32.183  26.872  25.315  1.00  0.00     0.324 C 
ATOM     23  H   UNL A   1      30.205  27.309  25.560  1.00  0.00     0.348 HD
ATOM     24  C   UNL A   1      31.399  25.820  22.758  1.00  0.00     0.325 C 
ATOM     25  C   UNL A   1      33.197  26.428  24.243  1.00  0.00     0.325 C 
ATOM     26  H   UNL A   1      33.381  25.399  22.545  1.00  0.00     0.349 HD
BRANCH  20  27
ATOM     27  C   UNL A   1      30.933  28.687  24.289  1.00  0.00     0.259 C 
ATOM     28  C   UNL A   1      31.669  29.606  25.261  1.00  0.00     0.071 C 
ENDBRANCH  20  27
ENDBRANCH  13  19
ENDBRANCH   7  12
ENDBRANCH   4   6
ENDBRANCH   3   4
ENDBRANCH   2   3
ENDBRANCH   1   2
BRANCH   1  29
ATOM     29  O   UNL A   1      42.790  19.979  25.005  1.00  0.00    -0.374 OA
BRANCH  29  30
ATOM     30  C   UNL A   1      44.098  20.541  25.128  1.00  0.00     0.202 C 
BRANCH  30  31
ATOM     31  C   UNL A   1      44.209  21.901  25.827  1.00  0.00     0.261 C 
BRANCH  31  32
ATOM     32  O   UNL A   1      43.696  22.974  25.017  1.00  0.00    -0.460 OA
BRANCH  32  33
ATOM     33  C   UNL A   1      44.331  24.158  25.177  1.00  0.00     0.338 C 
ATOM     34  O   UNL A   1      45.306  24.570  24.565  1.00  0.00    -0.246 OA
BRANCH  33  35
ATOM     35  C   UNL A   1      43.569  25.013  26.104  1.00  0.00     0.060 A 
ATOM     36  C   UNL A   1      43.848  26.385  26.098  1.00  0.00     0.016 A 
ATOM     37  C   UNL A   1      42.656  24.477  27.013  1.00  0.00     0.016 A 
ATOM     38  C   UNL A   1      43.250  27.224  27.036  1.00  0.00     0.010 A 
ATOM     39  C   UNL A   1      42.062  25.318  27.960  1.00  0.00     0.010 A 
ATOM     40  C   UNL A   1      42.383  26.688  27.997  1.00  0.00    -0.014 A 
BRANCH  40  41
ATOM     41  C   UNL A   1      41.924  27.536  29.123  1.00  0.00     0.031 A 
ATOM     42  C   UNL A   1      42.687  27.507  30.418  1.00  0.00     0.074 A 
ATOM     43  C   UNL A   1      40.854  28.339  28.986  1.00  0.00     0.049 A 
ATOM     44  N   UNL A   1      42.440  28.128  31.544  1.00  0.00    -0.248 NA
ATOM     45  C   UNL A   1      43.890  26.661  30.449  1.00  0.00     0.031 C 
ATOM     46  C   UNL A   1      40.058  28.482  27.770  1.00  0.00     0.029 A 
ATOM     47  N   UNL A   1      40.250  29.180  29.887  1.00  0.00    -0.354 N 
ATOM     48  C   UNL A   1      43.449  27.741  32.416  1.00  0.00     0.074 A 
ATOM     49  C   UNL A   1      44.293  26.808  31.702  1.00  0.00     0.031 C 
ATOM     50  C   UNL A   1      39.061  29.353  28.002  1.00  0.00     0.029 A 
ATOM     51  C   UNL A   1      39.129  29.798  29.392  1.00  0.00     0.049 A 
ATOM     52  H   UNL A   1      40.588  29.325  30.800  1.00  0.00     0.167 HD
ATOM     53  C   UNL A   1      43.657  28.138  33.696  1.00  0.00     0.037 A 
ATOM     54  C   UNL A   1      38.246  30.612  30.003  1.00  0.00     0.037 A 
ATOM     55  C   UNL A   1      42.816  29.070  34.400  1.00  0.00     0.049 A 
ATOM     56  C   UNL A   1      38.460  30.982  31.448  1.00  0.00     0.074 A 
ATOM     57  C   UNL A   1      42.956  29.553  35.690  1.00  0.00     0.029 A 
ATOM     58  N   UNL A   1      41.672  29.653  33.877  1.00  0.00    -0.354 N 
ATOM     59  N   UNL A   1      39.430  30.635  32.259  1.00  0.00    -0.248 NA
ATOM     60  C   UNL A   1      37.453  31.861  32.063  1.00  0.00     0.031 C 
ATOM     61  C   UNL A   1      41.864  30.383  35.966  1.00  0.00     0.029 A 
ATOM     62  C   UNL A   1      41.079  30.468  34.828  1.00  0.00     0.049 A 
ATOM     63  H   UNL A   1      41.331  29.509  32.964  1.00  0.00     0.167 HD
ATOM     64  C   UNL A   1      39.171  31.275  33.465  1.00  0.00     0.074 A 
ATOM     65  C   UNL A   1      37.957  32.043  33.275  1.00  0.00     0.031 C 
ATOM     66  C   UNL A   1      39.875  31.234  34.623  1.00  0.00     0.037 A 
BRANCH  53  67
ATOM     67  C   UNL A   1      44.826  27.542  34.426  1.00  0.00     0.064 A 
ATOM     68  C   UNL A   1      46.110  28.104  34.353  1.00  0.00     0.173 A 
ATOM     69  C   UNL A   1      44.651  26.412  35.240  1.00  0.00     0.173 A 
ATOM     70  F   UNL A   1      46.334  29.177  33.580  1.00  0.00    -0.203 F 
ATOM     71  C   UNL A   1      47.180  27.541  35.044  1.00  0.00     0.198 A 
ATOM     72  C   UNL A   1      45.715  25.871  35.955  1.00  0.00     0.198 A 
ATOM     73  F   UNL A   1      43.444  25.838  35.350  1.00  0.00    -0.203 F 
ATOM     74  F   UNL A   1      48.407  28.065  34.921  1.00  0.00    -0.200 F 
ATOM     75  C   UNL A   1      46.980  26.429  35.851  1.00  0.00     0.200 A 
ATOM     76  F   UNL A   1      45.518  24.806  36.744  1.00  0.00    -0.200 F 
ATOM     77  F   UNL A   1      48.008  25.894  36.523  1.00  0.00    -0.200 F 
ENDBRANCH  53  67
BRANCH  54  78
ATOM     78  C   UNL A   1      37.069  31.125  29.253  1.00  0.00     0.064 A 
ATOM     79  C   UNL A   1      35.979  30.294  28.960  1.00  0.00     0.173 A 
ATOM     80  C   UNL A   1      37.019  32.451  28.798  1.00  0.00     0.173 A 
ATOM     81  F   UNL A   1      35.990  29.011  29.352  1.00  0.00    -0.203 F 
ATOM     82  C   UNL A   1      34.893  30.764  28.224  1.00  0.00     0.198 A 
ATOM     83  C   UNL A   1      35.919  32.928  28.088  1.00  0.00     0.198 A 
ATOM     84  F   UNL A   1      38.037  33.287  29.050  1.00  0.00    -0.203 F 
ATOM     85  F   UNL A   1      33.887  29.934  27.914  1.00  0.00    -0.200 F 
ATOM     86  C   UNL A   1      34.861  32.082  27.794  1.00  0.00     0.200 A 
ATOM     87  F   UNL A   1      35.887  34.206  27.687  1.00  0.00    -0.200 F 
ATOM     88  F   UNL A   1      33.816  32.534  27.088  1.00  0.00    -0.200 F 
ENDBRANCH  54  78
BRANCH  66  89
ATOM     89  C   UNL A   1      39.377  32.074  35.766  1.00  0.00     0.064 A 
ATOM     90  C   UNL A   1      39.779  33.407  35.933  1.00  0.00     0.173 A 
ATOM     91  C   UNL A   1      38.454  31.547  36.682  1.00  0.00     0.173 A 
ATOM     92  F   UNL A   1      40.670  33.956  35.094  1.00  0.00    -0.203 F 
ATOM     93  C   UNL A   1      39.295  34.173  36.992  1.00  0.00     0.198 A 
ATOM     94  C   UNL A   1      37.947  32.324  37.719  1.00  0.00     0.198 A 
ATOM     95  F   UNL A   1      38.030  30.279  36.563  1.00  0.00    -0.203 F 
ATOM     96  F   UNL A   1      39.732  35.428  37.162  1.00  0.00    -0.200 F 
ATOM     97  C   UNL A   1      38.374  33.634  37.878  1.00  0.00     0.200 A 
ATOM     98  F   UNL A   1      37.045  31.807  38.564  1.00  0.00    -0.200 F 
ATOM     99  F   UNL A   1      37.904  34.374  38.891  1.00  0.00    -0.200 F 
ENDBRANCH  66  89
ENDBRANCH  40  41
ENDBRANCH  33  35
ENDBRANCH  32  33
ENDBRANCH  31  32
ENDBRANCH  30  31
ENDBRANCH  29  30
ENDBRANCH   1  29
TORSDOF 17
ENDMDL
MODEL 3
REMARK VINA RESULT:     -11.9      4.426      8.888
REMARK SMILES CC[NH+]1CC[NH+]([C@@H]2CC(=O)N(c3ccc(C(=O)OCCOCCOC(=O)c4ccc(-c5c6nc(c(-c7c(F)c(F)c(F)c(F)c7F)c7ccc([nH]7)c(-c7c(F)c(F)c(F)c(F)c7F)c7nc(c(-c8c(F)c(F)c(F)c(F)c8F)c8ccc5[nH]8)C=C7)C=C6)cc4)cc3)C2=O)CC1
REMARK SMILES IDX 20 1 19 2 18 3 16 4 17 5 15 6 12 7 13 8 91 9 14 10 90 11
REMARK SMILES IDX 11 12 7 13 8 14 92 15 9 16 93 17 10 18 6 19 3 20 4 21 95 22
REMARK SMILES IDX 5 24 94 25 2 27 1 28 21 29 22 30 23 31 24 32 25 33 26 34
REMARK SMILES IDX 27 35 28 36 89 37 29 38 88 39 30 40 31 41 32 42 82 43 33 44
REMARK SMILES IDX 87 45 81 46 83 47 34 48 86 49 80 50 79 51 35 53 67 54 47 55
REMARK SMILES IDX 66 56 48 57 51 58 65 59 84 60 49 61 50 62 64 64 85 65 52 66
REMARK SMILES IDX 36 67 37 68 45 69 38 70 39 71 43 72 46 73 40 74 41 75 44 76
REMARK SMILES IDX 42 77 68 78 69 79 77 80 70 81 71 82 75 83 78 84 72 85 73 86
REMARK SMILES IDX 76 87 74 88 53 89 54 90 62 91 55 92 56 93 60 94 63 95 57 96
REMARK SMILES IDX 58 97 61 98 59 99
REMARK H PARENT 3 23 6 26 83 52 51 63
REMARK Flexibility Score: inf
ROOT
ATOM      1  C   UNL A   1      29.394  32.188  23.627  1.00  0.00     0.202 C 
ENDROOT
BRANCH   1   2
ATOM      2  C   UNL A   1      28.151  31.713  22.869  1.00  0.00     0.261 C 
BRANCH   2   3
ATOM      3  O   UNL A   1      28.415  30.504  22.143  1.00  0.00    -0.460 OA
BRANCH   3   4
ATOM      4  C   UNL A   1      28.099  29.365  22.803  1.00  0.00     0.338 C 
ATOM      5  O   UNL A   1      26.981  28.977  23.111  1.00  0.00    -0.246 OA
BRANCH   4   6
ATOM      6  C   UNL A   1      29.305  28.528  22.958  1.00  0.00     0.060 A 
ATOM      7  C   UNL A   1      31.540  26.882  23.408  1.00  0.00     0.052 A 
ATOM      8  C   UNL A   1      30.247  26.422  23.695  1.00  0.00     0.028 A 
ATOM      9  C   UNL A   1      31.684  28.152  22.822  1.00  0.00     0.028 A 
ATOM     10  C   UNL A   1      29.140  27.249  23.497  1.00  0.00     0.018 A 
ATOM     11  C   UNL A   1      30.574  28.966  22.579  1.00  0.00     0.018 A 
BRANCH   7  12
ATOM     12  N   UNL A   1      32.669  26.124  23.809  1.00  0.00    -0.245 N 
ATOM     13  C   UNL A   1      34.406  24.528  23.744  1.00  0.00     0.285 C 
ATOM     14  C   UNL A   1      34.115  24.903  25.188  1.00  0.00     0.176 C 
ATOM     15  C   UNL A   1      33.516  25.470  22.939  1.00  0.00     0.292 C 
ATOM     16  C   UNL A   1      32.982  25.873  25.122  1.00  0.00     0.240 C 
ATOM     17  O   UNL A   1      33.582  25.605  21.722  1.00  0.00    -0.267 OA
ATOM     18  O   UNL A   1      32.432  26.293  26.132  1.00  0.00    -0.274 OA
BRANCH  13  19
ATOM     19  N   UNL A   1      34.262  23.128  23.294  1.00  0.00    -0.315 N 
ATOM     20  N   UNL A   1      32.720  21.146  24.976  1.00  0.00    -0.326 N 
ATOM     21  C   UNL A   1      34.108  21.536  25.298  1.00  0.00     0.324 C 
ATOM     22  C   UNL A   1      32.069  22.162  24.129  1.00  0.00     0.324 C 
ATOM     23  H   UNL A   1      32.215  21.094  25.861  1.00  0.00     0.348 HD
ATOM     24  C   UNL A   1      34.942  22.132  24.135  1.00  0.00     0.325 C 
ATOM     25  C   UNL A   1      32.915  22.659  22.942  1.00  0.00     0.325 C 
ATOM     26  H   UNL A   1      34.760  23.197  22.407  1.00  0.00     0.349 HD
BRANCH  20  27
ATOM     27  C   UNL A   1      32.632  19.810  24.370  1.00  0.00     0.259 C 
ATOM     28  C   UNL A   1      32.883  18.711  25.399  1.00  0.00     0.071 C 
ENDBRANCH  20  27
ENDBRANCH  13  19
ENDBRANCH   7  12
ENDBRANCH   4   6
ENDBRANCH   3   4
ENDBRANCH   2   3
ENDBRANCH   1   2
BRANCH   1  29
ATOM     29  O   UNL A   1      29.573  31.690  24.952  1.00  0.00    -0.374 OA
BRANCH  29  30
ATOM     30  C   UNL A   1      30.901  31.348  25.355  1.00  0.00     0.202 C 
BRANCH  30  31
ATOM     31  C   UNL A   1      31.413  31.962  26.663  1.00  0.00     0.261 C 
BRANCH  31  32
ATOM     32  O   UNL A   1      32.797  31.651  26.906  1.00  0.00    -0.460 OA
BRANCH  32  33
ATOM     33  C   UNL A   1      33.499  32.634  27.518  1.00  0.00     0.338 C 
ATOM     34  O   UNL A   1      33.124  33.768  27.774  1.00  0.00    -0.246 OA
BRANCH  33  35
ATOM     35  C   UNL A   1      34.775  32.096  28.021  1.00  0.00     0.060 A 
ATOM     36  C   UNL A   1      34.789  30.769  28.467  1.00  0.00     0.016 A 
ATOM     37  C   UNL A   1      35.916  32.895  28.127  1.00  0.00     0.016 A 
ATOM     38  C   UNL A   1      35.932  30.246  29.067  1.00  0.00     0.010 A 
ATOM     39  C   UNL A   1      37.061  32.370  28.736  1.00  0.00     0.010 A 
ATOM     40  C   UNL A   1      37.061  31.056  29.241  1.00  0.00    -0.014 A 
BRANCH  40  41
ATOM     41  C   UNL A   1      38.190  30.572  30.071  1.00  0.00     0.031 A 
ATOM     42  C   UNL A   1      39.152  29.576  29.486  1.00  0.00     0.074 A 
ATOM     43  C   UNL A   1      38.369  31.032  31.321  1.00  0.00     0.049 A 
ATOM     44  N   UNL A   1      40.179  28.985  30.043  1.00  0.00    -0.248 NA
ATOM     45  C   UNL A   1      38.924  29.192  28.085  1.00  0.00     0.031 C 
ATOM     46  C   UNL A   1      37.527  32.027  31.983  1.00  0.00     0.029 A 
ATOM     47  N   UNL A   1      39.317  30.714  32.261  1.00  0.00    -0.354 N 
ATOM     48  C   UNL A   1      40.712  28.155  29.065  1.00  0.00     0.074 A 
ATOM     49  C   UNL A   1      39.878  28.293  27.891  1.00  0.00     0.031 C 
ATOM     50  C   UNL A   1      37.990  32.230  33.228  1.00  0.00     0.029 A 
ATOM     51  C   UNL A   1      39.138  31.355  33.461  1.00  0.00     0.049 A 
ATOM     52  H   UNL A   1      40.056  30.085  32.091  1.00  0.00     0.167 HD
ATOM     53  C   UNL A   1      41.805  27.357  29.139  1.00  0.00     0.037 A 
ATOM     54  C   UNL A   1      39.810  31.229  34.622  1.00  0.00     0.037 A 
ATOM     55  C   UNL A   1      42.633  27.226  30.309  1.00  0.00     0.049 A 
ATOM     56  C   UNL A   1      40.978  30.281  34.699  1.00  0.00     0.074 A 
ATOM     57  C   UNL A   1      43.775  26.462  30.476  1.00  0.00     0.029 A 
ATOM     58  N   UNL A   1      42.403  27.869  31.516  1.00  0.00    -0.354 N 
ATOM     59  N   UNL A   1      41.494  29.521  33.764  1.00  0.00    -0.248 NA
ATOM     60  C   UNL A   1      41.662  30.177  35.997  1.00  0.00     0.031 C 
ATOM     61  C   UNL A   1      44.202  26.597  31.801  1.00  0.00     0.029 A 
ATOM     62  C   UNL A   1      43.364  27.495  32.442  1.00  0.00     0.049 A 
ATOM     63  H   UNL A   1      41.665  28.498  31.690  1.00  0.00     0.167 HD
ATOM     64  C   UNL A   1      42.576  28.874  34.347  1.00  0.00     0.074 A 
ATOM     65  C   UNL A   1      42.652  29.342  35.716  1.00  0.00     0.031 C 
ATOM     66  C   UNL A   1      43.432  27.976  33.799  1.00  0.00     0.037 A 
BRANCH  53  67
ATOM     67  C   UNL A   1      42.151  26.540  27.927  1.00  0.00     0.064 A 
ATOM     68  C   UNL A   1      43.123  26.958  27.005  1.00  0.00     0.173 A 
ATOM     69  C   UNL A   1      41.526  25.304  27.704  1.00  0.00     0.173 A 
ATOM     70  F   UNL A   1      43.742  28.137  27.165  1.00  0.00    -0.203 F 
ATOM     71  C   UNL A   1      43.436  26.182  25.892  1.00  0.00     0.198 A 
ATOM     72  C   UNL A   1      41.863  24.515  26.608  1.00  0.00     0.198 A 
ATOM     73  F   UNL A   1      40.593  24.854  28.557  1.00  0.00    -0.203 F 
ATOM     74  F   UNL A   1      44.332  26.624  24.998  1.00  0.00    -0.200 F 
ATOM     75  C   UNL A   1      42.811  24.958  25.698  1.00  0.00     0.200 A 
ATOM     76  F   UNL A   1      41.269  23.328  26.430  1.00  0.00    -0.200 F 
ATOM     77  F   UNL A   1      43.120  24.209  24.631  1.00  0.00    -0.200 F 
ENDBRANCH  53  67
BRANCH  54  78
ATOM     78  C   UNL A   1      39.387  32.014  35.812  1.00  0.00     0.064 A 
ATOM     79  C   UNL A   1      38.405  31.530  36.687  1.00  0.00     0.173 A 
ATOM     80  C   UNL A   1      39.943  33.273  36.087  1.00  0.00     0.173 A 
ATOM     81  F   UNL A   1      37.826  30.343  36.452  1.00  0.00    -0.203 F 
ATOM     82  C   UNL A   1      37.981  32.282  37.781  1.00  0.00     0.198 A 
ATOM     83  C   UNL A   1      39.540  34.011  37.198  1.00  0.00     0.198 A 
ATOM     84  F   UNL A   1      40.884  33.783  35.280  1.00  0.00    -0.203 F 
ATOM     85  F   UNL A   1      37.005  31.817  38.573  1.00  0.00    -0.200 F 
ATOM     86  C   UNL A   1      38.553  33.519  38.040  1.00  0.00     0.200 A 
ATOM     87  F   UNL A   1      40.105  35.198  37.451  1.00  0.00    -0.200 F 
ATOM     88  F   UNL A   1      38.147  34.241  39.092  1.00  0.00    -0.200 F 
ENDBRANCH  54  78
BRANCH  66  89
ATOM     89  C   UNL A   1      44.552  27.470  34.664  1.00  0.00     0.064 A 
ATOM     90  C   UNL A   1      44.429  26.295  35.421  1.00  0.00     0.173 A 
ATOM     91  C   UNL A   1      45.780  28.149  34.703  1.00  0.00     0.173 A 
ATOM     92  F   UNL A   1      43.273  25.615  35.431  1.00  0.00    -0.203 F 
ATOM     93  C   UNL A   1      45.484  25.835  36.206  1.00  0.00     0.198 A 
ATOM     94  C   UNL A   1      46.843  27.669  35.461  1.00  0.00     0.198 A 
ATOM     95  F   UNL A   1      45.953  29.273  33.991  1.00  0.00    -0.203 F 
ATOM     96  F   UNL A   1      45.327  24.739  36.961  1.00  0.00    -0.200 F 
ATOM     97  C   UNL A   1      46.692  26.517  36.219  1.00  0.00     0.200 A 
ATOM     98  F   UNL A   1      48.015  28.320  35.459  1.00  0.00    -0.200 F 
ATOM     99  F   UNL A   1      47.709  26.069  36.967  1.00  0.00    -0.200 F 
ENDBRANCH  66  89
ENDBRANCH  40  41
ENDBRANCH  33  35
ENDBRANCH  32  33
ENDBRANCH  31  32
ENDBRANCH  30  31
ENDBRANCH  29  30
ENDBRANCH   1  29
TORSDOF 17
ENDMDL
