MODEL 1
REMARK VINA RESULT:     -10.9      0.000      0.000
REMARK SMILES CC[C@H]1CCC[C@H](O[C@@H]2CC[C@]([NH2+]C(C)C)(C(=O)OCCOCCOC(=O)c3ccc(-c4c5nc(c(-c6c(F)c(F)c(F)c(F)c6F)c6ccc([nH]6)c(-c6c(F)c(F)c(F)c(F)c6F)c6nc(c(-c7c(F)c(F)c(F)c(F)c7F)c7ccc4[nH]7)C=C6)C=C5)cc3)C2)C1
REMARK SMILES IDX 21 1 20 2 19 3 17 4 18 5 12 6 9 7 10 8 91 9 11 10 8 11 7 12
REMARK SMILES IDX 3 13 4 14 92 15 5 16 6 17 2 18 1 19 13 20 14 23 15 24 16 25
REMARK SMILES IDX 22 26 23 27 24 28 25 29 26 30 27 31 28 32 29 33 90 34 30 35
REMARK SMILES IDX 89 36 31 37 32 38 33 39 83 40 34 41 88 42 82 43 84 44 35 45
REMARK SMILES IDX 87 46 81 47 80 48 36 50 68 51 48 52 67 53 49 54 52 55 66 56
REMARK SMILES IDX 85 57 50 58 51 59 65 61 86 62 53 63 37 64 38 65 46 66 39 67
REMARK SMILES IDX 40 68 44 69 47 70 41 71 42 72 45 73 43 74 69 75 70 76 78 77
REMARK SMILES IDX 71 78 72 79 76 80 79 81 73 82 74 83 77 84 75 85 54 86 55 87
REMARK SMILES IDX 63 88 56 89 57 90 61 91 64 92 58 93 59 94 62 95 60 96
REMARK H PARENT 13 21 13 22 84 49 52 60
REMARK Flexibility Score: inf
ROOT
ATOM      1  C   UNL A   1      37.131  22.230  24.706  1.00  0.00     0.202 C 
ENDROOT
BRANCH   1   2
ATOM      2  C   UNL A   1      35.689  22.120  24.197  1.00  0.00     0.261 C 
BRANCH   2   3
ATOM      3  O   UNL A   1      34.752  22.079  25.290  1.00  0.00    -0.459 OA
BRANCH   3   4
ATOM      4  C   UNL A   1      33.502  21.628  24.997  1.00  0.00     0.368 C 
ATOM      5  O   UNL A   1      33.222  20.463  24.732  1.00  0.00    -0.245 OA
BRANCH   4   6
ATOM      6  C   UNL A   1      32.434  22.752  25.034  1.00  0.00     0.197 C 
ATOM      7  C   UNL A   1      31.482  24.681  26.103  1.00  0.00     0.125 C 
ATOM      8  C   UNL A   1      30.557  23.521  26.477  1.00  0.00     0.039 C 
ATOM      9  C   UNL A   1      32.816  24.003  25.835  1.00  0.00     0.113 C 
ATOM     10  C   UNL A   1      31.201  22.269  25.847  1.00  0.00     0.084 C 
BRANCH   7  11
ATOM     11  O   UNL A   1      31.434  25.834  26.924  1.00  0.00    -0.375 OA
BRANCH  11  12
ATOM     12  C   UNL A   1      31.878  27.133  26.549  1.00  0.00     0.118 C 
ATOM     13  C   UNL A   1      33.767  28.575  25.535  1.00  0.00    -0.009 C 
ATOM     14  C   UNL A   1      33.487  29.593  26.657  1.00  0.00     0.004 C 
ATOM     15  C   UNL A   1      33.293  27.171  25.949  1.00  0.00     0.035 C 
ATOM     16  C   UNL A   1      32.038  29.576  27.135  1.00  0.00     0.003 C 
ATOM     17  C   UNL A   1      31.645  28.188  27.626  1.00  0.00     0.032 C 
BRANCH  13  18
ATOM     18  C   UNL A   1      33.209  29.056  24.185  1.00  0.00     0.000 C 
ATOM     19  C   UNL A   1      34.026  28.581  22.990  1.00  0.00     0.004 C 
ENDBRANCH  13  18
ENDBRANCH  11  12
ENDBRANCH   7  11
BRANCH   6  20
ATOM     20  N   UNL A   1      31.964  23.015  23.648  1.00  0.00    -0.330 N 
ATOM     21  H   UNL A   1      31.007  23.363  23.704  1.00  0.00     0.347 HD
ATOM     22  H   UNL A   1      32.055  22.129  23.152  1.00  0.00     0.347 HD
BRANCH  20  23
ATOM     23  C   UNL A   1      32.751  23.987  22.877  1.00  0.00     0.176 C 
ATOM     24  C   UNL A   1      33.278  23.324  21.603  1.00  0.00     0.075 C 
ATOM     25  C   UNL A   1      31.851  25.167  22.501  1.00  0.00     0.075 C 
ENDBRANCH  20  23
ENDBRANCH   6  20
ENDBRANCH   4   6
ENDBRANCH   3   4
ENDBRANCH   2   3
ENDBRANCH   1   2
BRANCH   1  26
ATOM     26  O   UNL A   1      37.542  21.171  25.573  1.00  0.00    -0.374 OA
BRANCH  26  27
ATOM     27  C   UNL A   1      38.953  21.034  25.751  1.00  0.00     0.202 C 
BRANCH  27  28
ATOM     28  C   UNL A   1      39.486  19.601  25.690  1.00  0.00     0.261 C 
BRANCH  28  29
ATOM     29  O   UNL A   1      40.496  19.384  26.688  1.00  0.00    -0.460 OA
BRANCH  29  30
ATOM     30  C   UNL A   1      41.754  19.341  26.199  1.00  0.00     0.338 C 
ATOM     31  O   UNL A   1      42.269  18.439  25.550  1.00  0.00    -0.246 OA
BRANCH  30  32
ATOM     32  C   UNL A   1      42.431  20.628  26.425  1.00  0.00     0.060 A 
ATOM     33  C   UNL A   1      42.464  21.105  27.740  1.00  0.00     0.016 A 
ATOM     34  C   UNL A   1      42.953  21.391  25.376  1.00  0.00     0.016 A 
ATOM     35  C   UNL A   1      42.953  22.380  28.005  1.00  0.00     0.010 A 
ATOM     36  C   UNL A   1      43.444  22.673  25.645  1.00  0.00     0.010 A 
ATOM     37  C   UNL A   1      43.404  23.188  26.953  1.00  0.00    -0.014 A 
BRANCH  37  38
ATOM     38  C   UNL A   1      43.679  24.620  27.211  1.00  0.00     0.031 A 
ATOM     39  C   UNL A   1      45.057  25.157  26.939  1.00  0.00     0.074 A 
ATOM     40  C   UNL A   1      42.702  25.441  27.632  1.00  0.00     0.049 A 
ATOM     41  N   UNL A   1      45.520  26.373  27.085  1.00  0.00    -0.248 NA
ATOM     42  C   UNL A   1      46.047  24.194  26.431  1.00  0.00     0.031 C 
ATOM     43  C   UNL A   1      41.319  25.042  27.889  1.00  0.00     0.029 A 
ATOM     44  N   UNL A   1      42.725  26.783  27.917  1.00  0.00    -0.354 N 
ATOM     45  C   UNL A   1      46.852  26.318  26.697  1.00  0.00     0.074 A 
ATOM     46  C   UNL A   1      47.134  24.945  26.335  1.00  0.00     0.031 C 
ATOM     47  C   UNL A   1      40.625  26.119  28.295  1.00  0.00     0.029 A 
ATOM     48  C   UNL A   1      41.521  27.272  28.354  1.00  0.00     0.049 A 
ATOM     49  H   UNL A   1      43.530  27.341  27.816  1.00  0.00     0.167 HD
ATOM     50  C   UNL A   1      47.756  27.325  26.636  1.00  0.00     0.037 A 
ATOM     51  C   UNL A   1      41.187  28.510  28.770  1.00  0.00     0.037 A 
ATOM     52  C   UNL A   1      47.470  28.691  26.987  1.00  0.00     0.049 A 
ATOM     53  C   UNL A   1      42.231  29.597  28.758  1.00  0.00     0.074 A 
ATOM     54  C   UNL A   1      48.306  29.790  26.930  1.00  0.00     0.029 A 
ATOM     55  N   UNL A   1      46.248  29.141  27.468  1.00  0.00    -0.354 N 
ATOM     56  N   UNL A   1      43.478  29.545  28.358  1.00  0.00    -0.248 NA
ATOM     57  C   UNL A   1      41.817  30.917  29.256  1.00  0.00     0.031 C 
ATOM     58  C   UNL A   1      47.609  30.896  27.429  1.00  0.00     0.029 A 
ATOM     59  C   UNL A   1      46.320  30.497  27.744  1.00  0.00     0.049 A 
ATOM     60  H   UNL A   1      45.449  28.579  27.596  1.00  0.00     0.167 HD
ATOM     61  C   UNL A   1      43.988  30.826  28.525  1.00  0.00     0.074 A 
ATOM     62  C   UNL A   1      42.911  31.636  29.053  1.00  0.00     0.031 C 
ATOM     63  C   UNL A   1      45.235  31.289  28.262  1.00  0.00     0.037 A 
BRANCH  50  64
ATOM     64  C   UNL A   1      49.151  26.981  26.202  1.00  0.00     0.064 A 
ATOM     65  C   UNL A   1      50.124  26.546  27.113  1.00  0.00     0.173 A 
ATOM     66  C   UNL A   1      49.507  27.057  24.846  1.00  0.00     0.173 A 
ATOM     67  F   UNL A   1      49.837  26.470  28.421  1.00  0.00    -0.203 F 
ATOM     68  C   UNL A   1      51.411  26.224  26.686  1.00  0.00     0.198 A 
ATOM     69  C   UNL A   1      50.785  26.707  24.421  1.00  0.00     0.198 A 
ATOM     70  F   UNL A   1      48.613  27.464  23.933  1.00  0.00    -0.203 F 
ATOM     71  F   UNL A   1      52.337  25.854  27.581  1.00  0.00    -0.200 F 
ATOM     72  C   UNL A   1      51.738  26.298  25.341  1.00  0.00     0.200 A 
ATOM     73  F   UNL A   1      51.096  26.769  23.118  1.00  0.00    -0.200 F 
ATOM     74  F   UNL A   1      52.974  25.981  24.931  1.00  0.00    -0.200 F 
ENDBRANCH  50  64
BRANCH  51  75
ATOM     75  C   UNL A   1      39.805  28.789  29.236  1.00  0.00     0.064 A 
ATOM     76  C   UNL A   1      39.444  28.611  30.578  1.00  0.00     0.173 A 
ATOM     77  C   UNL A   1      38.812  29.222  28.345  1.00  0.00     0.173 A 
ATOM     78  F   UNL A   1      40.352  28.173  31.463  1.00  0.00    -0.203 F 
ATOM     79  C   UNL A   1      38.138  28.840  31.009  1.00  0.00     0.198 A 
ATOM     80  C   UNL A   1      37.514  29.478  28.781  1.00  0.00     0.198 A 
ATOM     81  F   UNL A   1      39.106  29.406  27.049  1.00  0.00    -0.203 F 
ATOM     82  F   UNL A   1      37.809  28.618  32.288  1.00  0.00    -0.200 F 
ATOM     83  C   UNL A   1      37.176  29.279  30.111  1.00  0.00     0.200 A 
ATOM     84  F   UNL A   1      36.591  29.914  27.914  1.00  0.00    -0.200 F 
ATOM     85  F   UNL A   1      35.922  29.502  30.526  1.00  0.00    -0.200 F 
ENDBRANCH  51  75
BRANCH  63  86
ATOM     86  C   UNL A   1      45.493  32.749  28.507  1.00  0.00     0.064 A 
ATOM     87  C   UNL A   1      45.232  33.717  27.527  1.00  0.00     0.173 A 
ATOM     88  C   UNL A   1      45.969  33.186  29.753  1.00  0.00     0.173 A 
ATOM     89  F   UNL A   1      44.790  33.349  26.315  1.00  0.00    -0.203 F 
ATOM     90  C   UNL A   1      45.461  35.068  27.778  1.00  0.00     0.198 A 
ATOM     91  C   UNL A   1      46.167  34.539  30.010  1.00  0.00     0.198 A 
ATOM     92  F   UNL A   1      46.227  32.300  30.727  1.00  0.00    -0.203 F 
ATOM     93  F   UNL A   1      45.248  35.972  26.812  1.00  0.00    -0.200 F 
ATOM     94  C   UNL A   1      45.920  35.478  29.021  1.00  0.00     0.200 A 
ATOM     95  F   UNL A   1      46.598  34.934  31.215  1.00  0.00    -0.200 F 
ATOM     96  F   UNL A   1      46.132  36.779  29.262  1.00  0.00    -0.200 F 
ENDBRANCH  63  86
ENDBRANCH  37  38
ENDBRANCH  30  32
ENDBRANCH  29  30
ENDBRANCH  28  29
ENDBRANCH  27  28
ENDBRANCH  26  27
ENDBRANCH   1  26
TORSDOF 19
ENDMDL
MODEL 2
REMARK VINA RESULT:     -10.7      0.554      7.206
REMARK SMILES CC[C@H]1CCC[C@H](O[C@@H]2CC[C@]([NH2+]C(C)C)(C(=O)OCCOCCOC(=O)c3ccc(-c4c5nc(c(-c6c(F)c(F)c(F)c(F)c6F)c6ccc([nH]6)c(-c6c(F)c(F)c(F)c(F)c6F)c6nc(c(-c7c(F)c(F)c(F)c(F)c7F)c7ccc4[nH]7)C=C6)C=C5)cc3)C2)C1
REMARK SMILES IDX 21 1 20 2 19 3 17 4 18 5 12 6 9 7 10 8 91 9 11 10 8 11 7 12
REMARK SMILES IDX 3 13 4 14 92 15 5 16 6 17 2 18 1 19 13 20 14 23 15 24 16 25
REMARK SMILES IDX 22 26 23 27 24 28 25 29 26 30 27 31 28 32 29 33 90 34 30 35
REMARK SMILES IDX 89 36 31 37 32 38 33 39 83 40 34 41 88 42 82 43 84 44 35 45
REMARK SMILES IDX 87 46 81 47 80 48 36 50 68 51 48 52 67 53 49 54 52 55 66 56
REMARK SMILES IDX 85 57 50 58 51 59 65 61 86 62 53 63 37 64 38 65 46 66 39 67
REMARK SMILES IDX 40 68 44 69 47 70 41 71 42 72 45 73 43 74 69 75 70 76 78 77
REMARK SMILES IDX 71 78 72 79 76 80 79 81 73 82 74 83 77 84 75 85 54 86 55 87
REMARK SMILES IDX 63 88 56 89 57 90 61 91 64 92 58 93 59 94 62 95 60 96
REMARK H PARENT 13 21 13 22 84 49 52 60
REMARK Flexibility Score: inf
ROOT
ATOM      1  C   UNL A   1      36.827  22.536  24.751  1.00  0.00     0.202 C 
ENDROOT
BRANCH   1   2
ATOM      2  C   UNL A   1      35.512  21.925  24.254  1.00  0.00     0.261 C 
BRANCH   2   3
ATOM      3  O   UNL A   1      34.545  21.831  25.318  1.00  0.00    -0.459 OA
BRANCH   3   4
ATOM      4  C   UNL A   1      33.275  21.504  24.954  1.00  0.00     0.368 C 
ATOM      5  O   UNL A   1      32.911  20.382  24.617  1.00  0.00    -0.245 OA
BRANCH   4   6
ATOM      6  C   UNL A   1      32.305  22.713  25.010  1.00  0.00     0.197 C 
ATOM      7  C   UNL A   1      31.514  24.696  26.110  1.00  0.00     0.125 C 
ATOM      8  C   UNL A   1      30.496  23.611  26.464  1.00  0.00     0.039 C 
ATOM      9  C   UNL A   1      32.789  23.914  25.831  1.00  0.00     0.113 C 
ATOM     10  C   UNL A   1      31.035  22.320  25.814  1.00  0.00     0.084 C 
BRANCH   7  11
ATOM     11  O   UNL A   1      31.562  25.835  26.949  1.00  0.00    -0.375 OA
BRANCH  11  12
ATOM     12  C   UNL A   1      31.983  27.136  26.554  1.00  0.00     0.118 C 
ATOM     13  C   UNL A   1      33.832  28.587  25.480  1.00  0.00    -0.009 C 
ATOM     14  C   UNL A   1      33.572  29.611  26.601  1.00  0.00     0.004 C 
ATOM     15  C   UNL A   1      33.382  27.183  25.917  1.00  0.00     0.035 C 
ATOM     16  C   UNL A   1      32.136  29.584  27.118  1.00  0.00     0.003 C 
ATOM     17  C   UNL A   1      31.769  28.196  27.629  1.00  0.00     0.032 C 
BRANCH  13  18
ATOM     18  C   UNL A   1      33.234  29.054  24.142  1.00  0.00     0.000 C 
ATOM     19  C   UNL A   1      34.023  28.576  22.929  1.00  0.00     0.004 C 
ENDBRANCH  13  18
ENDBRANCH  11  12
ENDBRANCH   7  11
BRANCH   6  20
ATOM     20  N   UNL A   1      31.860  23.037  23.628  1.00  0.00    -0.330 N 
ATOM     21  H   UNL A   1      30.932  23.454  23.689  1.00  0.00     0.347 HD
ATOM     22  H   UNL A   1      31.887  22.156  23.114  1.00  0.00     0.347 HD
BRANCH  20  23
ATOM     23  C   UNL A   1      32.721  23.961  22.877  1.00  0.00     0.176 C 
ATOM     24  C   UNL A   1      33.262  23.260  21.630  1.00  0.00     0.075 C 
ATOM     25  C   UNL A   1      31.893  25.178  22.457  1.00  0.00     0.075 C 
ENDBRANCH  20  23
ENDBRANCH   6  20
ENDBRANCH   4   6
ENDBRANCH   3   4
ENDBRANCH   2   3
ENDBRANCH   1   2
BRANCH   1  26
ATOM     26  O   UNL A   1      37.512  21.761  25.738  1.00  0.00    -0.374 OA
BRANCH  26  27
ATOM     27  C   UNL A   1      38.933  21.899  25.751  1.00  0.00     0.202 C 
BRANCH  27  28
ATOM     28  C   UNL A   1      39.685  20.867  26.593  1.00  0.00     0.261 C 
BRANCH  28  29
ATOM     29  O   UNL A   1      40.307  19.876  25.761  1.00  0.00    -0.460 OA
BRANCH  29  30
ATOM     30  C   UNL A   1      41.565  19.554  26.132  1.00  0.00     0.338 C 
ATOM     31  O   UNL A   1      42.052  18.433  26.212  1.00  0.00    -0.246 OA
BRANCH  30  32
ATOM     32  C   UNL A   1      42.372  20.772  26.306  1.00  0.00     0.060 A 
ATOM     33  C   UNL A   1      42.568  21.221  27.617  1.00  0.00     0.016 A 
ATOM     34  C   UNL A   1      42.860  21.505  25.221  1.00  0.00     0.016 A 
ATOM     35  C   UNL A   1      43.192  22.443  27.848  1.00  0.00     0.010 A 
ATOM     36  C   UNL A   1      43.486  22.734  25.455  1.00  0.00     0.010 A 
ATOM     37  C   UNL A   1      43.614  23.227  26.766  1.00  0.00    -0.014 A 
BRANCH  37  38
ATOM     38  C   UNL A   1      44.037  24.625  27.011  1.00  0.00     0.031 A 
ATOM     39  C   UNL A   1      43.015  25.622  27.484  1.00  0.00     0.074 A 
ATOM     40  C   UNL A   1      45.323  24.987  26.867  1.00  0.00     0.049 A 
ATOM     41  N   UNL A   1      43.161  26.891  27.767  1.00  0.00    -0.248 NA
ATOM     42  C   UNL A   1      41.644  25.119  27.663  1.00  0.00     0.031 C 
ATOM     43  C   UNL A   1      46.408  24.098  26.455  1.00  0.00     0.029 A 
ATOM     44  N   UNL A   1      45.933  26.202  27.051  1.00  0.00    -0.354 N 
ATOM     45  C   UNL A   1      41.903  27.339  28.149  1.00  0.00     0.074 A 
ATOM     46  C   UNL A   1      40.999  26.215  28.034  1.00  0.00     0.031 C 
ATOM     47  C   UNL A   1      47.554  24.800  26.418  1.00  0.00     0.029 A 
ATOM     48  C   UNL A   1      47.276  26.190  26.773  1.00  0.00     0.049 A 
ATOM     49  H   UNL A   1      45.452  27.006  27.354  1.00  0.00     0.167 HD
ATOM     50  C   UNL A   1      41.538  28.574  28.568  1.00  0.00     0.037 A 
ATOM     51  C   UNL A   1      48.174  27.195  26.789  1.00  0.00     0.037 A 
ATOM     52  C   UNL A   1      42.442  29.687  28.690  1.00  0.00     0.049 A 
ATOM     53  C   UNL A   1      47.727  28.576  27.194  1.00  0.00     0.074 A 
ATOM     54  C   UNL A   1      42.178  30.969  29.135  1.00  0.00     0.029 A 
ATOM     55  N   UNL A   1      43.789  29.647  28.357  1.00  0.00    -0.354 N 
ATOM     56  N   UNL A   1      46.544  28.983  27.585  1.00  0.00    -0.248 NA
ATOM     57  C   UNL A   1      48.744  29.637  27.159  1.00  0.00     0.031 C 
ATOM     58  C   UNL A   1      43.352  31.722  29.021  1.00  0.00     0.029 A 
ATOM     59  C   UNL A   1      44.361  30.894  28.557  1.00  0.00     0.049 A 
ATOM     60  H   UNL A   1      44.267  28.852  28.028  1.00  0.00     0.167 HD
ATOM     61  C   UNL A   1      46.680  30.335  27.872  1.00  0.00     0.074 A 
ATOM     62  C   UNL A   1      48.064  30.677  27.620  1.00  0.00     0.031 C 
ATOM     63  C   UNL A   1      45.743  31.214  28.307  1.00  0.00     0.037 A 
BRANCH  50  64
ATOM     64  C   UNL A   1      40.091  28.796  28.897  1.00  0.00     0.064 A 
ATOM     65  C   UNL A   1      39.156  29.156  27.916  1.00  0.00     0.173 A 
ATOM     66  C   UNL A   1      39.629  28.613  30.209  1.00  0.00     0.173 A 
ATOM     67  F   UNL A   1      39.549  29.357  26.649  1.00  0.00    -0.203 F 
ATOM     68  C   UNL A   1      37.814  29.348  28.242  1.00  0.00     0.198 A 
ATOM     69  C   UNL A   1      38.284  28.779  30.525  1.00  0.00     0.198 A 
ATOM     70  F   UNL A   1      40.482  28.266  31.185  1.00  0.00    -0.203 F 
ATOM     71  F   UNL A   1      36.947  29.736  27.297  1.00  0.00    -0.200 F 
ATOM     72  C   UNL A   1      37.379  29.154  29.544  1.00  0.00     0.200 A 
ATOM     73  F   UNL A   1      37.863  28.579  31.782  1.00  0.00    -0.200 F 
ATOM     74  F   UNL A   1      36.088  29.332  29.854  1.00  0.00    -0.200 F 
ENDBRANCH  50  64
BRANCH  51  75
ATOM     75  C   UNL A   1      49.586  26.934  26.410  1.00  0.00     0.064 A 
ATOM     76  C   UNL A   1      50.549  26.620  27.377  1.00  0.00     0.173 A 
ATOM     77  C   UNL A   1      50.005  27.012  25.073  1.00  0.00     0.173 A 
ATOM     78  F   UNL A   1      50.203  26.560  28.671  1.00  0.00    -0.203 F 
ATOM     79  C   UNL A   1      51.882  26.409  27.025  1.00  0.00     0.198 A 
ATOM     80  C   UNL A   1      51.331  26.773  24.719  1.00  0.00     0.198 A 
ATOM     81  F   UNL A   1      49.122  27.311  24.109  1.00  0.00    -0.203 F 
ATOM     82  F   UNL A   1      52.791  26.155  27.976  1.00  0.00    -0.200 F 
ATOM     83  C   UNL A   1      52.270  26.480  25.696  1.00  0.00     0.200 A 
ATOM     84  F   UNL A   1      51.700  26.831  23.432  1.00  0.00    -0.200 F 
ATOM     85  F   UNL A   1      53.549  26.275  25.358  1.00  0.00    -0.200 F 
ENDBRANCH  51  75
BRANCH  63  86
ATOM     86  C   UNL A   1      46.191  32.622  28.575  1.00  0.00     0.064 A 
ATOM     87  C   UNL A   1      46.127  33.616  27.588  1.00  0.00     0.173 A 
ATOM     88  C   UNL A   1      46.650  32.990  29.850  1.00  0.00     0.173 A 
ATOM     89  F   UNL A   1      45.709  33.311  26.350  1.00  0.00    -0.203 F 
ATOM     90  C   UNL A   1      46.530  34.921  27.860  1.00  0.00     0.198 A 
ATOM     91  C   UNL A   1      47.023  34.302  30.126  1.00  0.00     0.198 A 
ATOM     92  F   UNL A   1      46.723  32.079  30.831  1.00  0.00    -0.203 F 
ATOM     93  F   UNL A   1      46.504  35.843  26.889  1.00  0.00    -0.200 F 
ATOM     94  C   UNL A   1      46.970  35.264  29.130  1.00  0.00     0.200 A 
ATOM     95  F   UNL A   1      47.434  34.635  31.357  1.00  0.00    -0.200 F 
ATOM     96  F   UNL A   1      47.349  36.523  29.391  1.00  0.00    -0.200 F 
ENDBRANCH  63  86
ENDBRANCH  37  38
ENDBRANCH  30  32
ENDBRANCH  29  30
ENDBRANCH  28  29
ENDBRANCH  27  28
ENDBRANCH  26  27
ENDBRANCH   1  26
TORSDOF 19
ENDMDL
MODEL 3
REMARK VINA RESULT:     -10.5      6.180     11.541
REMARK SMILES CC[C@H]1CCC[C@H](O[C@@H]2CC[C@]([NH2+]C(C)C)(C(=O)OCCOCCOC(=O)c3ccc(-c4c5nc(c(-c6c(F)c(F)c(F)c(F)c6F)c6ccc([nH]6)c(-c6c(F)c(F)c(F)c(F)c6F)c6nc(c(-c7c(F)c(F)c(F)c(F)c7F)c7ccc4[nH]7)C=C6)C=C5)cc3)C2)C1
REMARK SMILES IDX 21 1 20 2 19 3 17 4 18 5 12 6 9 7 10 8 91 9 11 10 8 11 7 12
REMARK SMILES IDX 3 13 4 14 92 15 5 16 6 17 2 18 1 19 13 20 14 23 15 24 16 25
REMARK SMILES IDX 22 26 23 27 24 28 25 29 26 30 27 31 28 32 29 33 90 34 30 35
REMARK SMILES IDX 89 36 31 37 32 38 33 39 83 40 34 41 88 42 82 43 84 44 35 45
REMARK SMILES IDX 87 46 81 47 80 48 36 50 68 51 48 52 67 53 49 54 52 55 66 56
REMARK SMILES IDX 85 57 50 58 51 59 65 61 86 62 53 63 37 64 38 65 46 66 39 67
REMARK SMILES IDX 40 68 44 69 47 70 41 71 42 72 45 73 43 74 69 75 70 76 78 77
REMARK SMILES IDX 71 78 72 79 76 80 79 81 73 82 74 83 77 84 75 85 54 86 55 87
REMARK SMILES IDX 63 88 56 89 57 90 61 91 64 92 58 93 59 94 62 95 60 96
REMARK H PARENT 13 21 13 22 84 49 52 60
REMARK Flexibility Score: inf
ROOT
ATOM      1  C   UNL A   1      34.388  32.679  28.700  1.00  0.00     0.202 C 
ENDROOT
BRANCH   1   2
ATOM      2  C   UNL A   1      34.621  31.603  27.633  1.00  0.00     0.261 C 
BRANCH   2   3
ATOM      3  O   UNL A   1      33.639  30.554  27.727  1.00  0.00    -0.459 OA
BRANCH   3   4
ATOM      4  C   UNL A   1      32.626  30.592  26.819  1.00  0.00     0.368 C 
ATOM      5  O   UNL A   1      31.845  31.528  26.680  1.00  0.00    -0.245 OA
BRANCH   4   6
ATOM      6  C   UNL A   1      32.550  29.309  25.950  1.00  0.00     0.197 C 
ATOM      7  C   UNL A   1      32.230  26.936  25.770  1.00  0.00     0.125 C 
ATOM      8  C   UNL A   1      33.743  27.141  25.683  1.00  0.00     0.039 C 
ATOM      9  C   UNL A   1      31.747  28.148  26.550  1.00  0.00     0.113 C 
ATOM     10  C   UNL A   1      33.958  28.657  25.865  1.00  0.00     0.084 C 
BRANCH   7  11
ATOM     11  O   UNL A   1      31.773  25.644  26.129  1.00  0.00    -0.375 OA
BRANCH  11  12
ATOM     12  C   UNL A   1      32.532  24.444  26.037  1.00  0.00     0.118 C 
ATOM     13  C   UNL A   1      33.417  22.544  24.525  1.00  0.00    -0.009 C 
ATOM     14  C   UNL A   1      33.044  21.572  25.661  1.00  0.00     0.004 C 
ATOM     15  C   UNL A   1      32.587  23.835  24.626  1.00  0.00     0.035 C 
ATOM     16  C   UNL A   1      33.111  22.211  27.045  1.00  0.00     0.003 C 
ATOM     17  C   UNL A   1      32.198  23.429  27.125  1.00  0.00     0.032 C 
BRANCH  13  18
ATOM     18  C   UNL A   1      34.936  22.774  24.457  1.00  0.00     0.000 C 
ATOM     19  C   UNL A   1      35.749  21.497  24.628  1.00  0.00     0.004 C 
ENDBRANCH  13  18
ENDBRANCH  11  12
ENDBRANCH   7  11
BRANCH   6  20
ATOM     20  N   UNL A   1      32.163  29.688  24.565  1.00  0.00    -0.330 N 
ATOM     21  H   UNL A   1      32.856  29.294  23.928  1.00  0.00     0.347 HD
ATOM     22  H   UNL A   1      32.125  30.707  24.557  1.00  0.00     0.347 HD
BRANCH  20  23
ATOM     23  C   UNL A   1      30.837  29.237  24.123  1.00  0.00     0.176 C 
ATOM     24  C   UNL A   1      29.919  30.446  23.936  1.00  0.00     0.075 C 
ATOM     25  C   UNL A   1      30.984  28.499  22.790  1.00  0.00     0.075 C 
ENDBRANCH  20  23
ENDBRANCH   6  20
ENDBRANCH   4   6
ENDBRANCH   3   4
ENDBRANCH   2   3
ENDBRANCH   1   2
BRANCH   1  26
ATOM     26  O   UNL A   1      34.947  33.958  28.392  1.00  0.00    -0.374 OA
BRANCH  26  27
ATOM     27  C   UNL A   1      34.010  35.033  28.307  1.00  0.00     0.202 C 
BRANCH  27  28
ATOM     28  C   UNL A   1      32.932  35.052  29.392  1.00  0.00     0.261 C 
BRANCH  28  29
ATOM     29  O   UNL A   1      33.299  35.931  30.468  1.00  0.00    -0.460 OA
BRANCH  29  30
ATOM     30  C   UNL A   1      32.945  35.482  31.692  1.00  0.00     0.338 C 
ATOM     31  O   UNL A   1      31.823  35.469  32.182  1.00  0.00    -0.246 OA
BRANCH  30  32
ATOM     32  C   UNL A   1      34.097  34.850  32.354  1.00  0.00     0.060 A 
ATOM     33  C   UNL A   1      35.337  35.482  32.210  1.00  0.00     0.016 A 
ATOM     34  C   UNL A   1      33.991  33.633  33.034  1.00  0.00     0.016 A 
ATOM     35  C   UNL A   1      36.491  34.865  32.682  1.00  0.00     0.010 A 
ATOM     36  C   UNL A   1      35.153  33.014  33.507  1.00  0.00     0.010 A 
ATOM     37  C   UNL A   1      36.409  33.607  33.293  1.00  0.00    -0.014 A 
BRANCH  37  38
ATOM     38  C   UNL A   1      37.657  32.852  33.556  1.00  0.00     0.031 A 
ATOM     39  C   UNL A   1      38.409  33.113  34.832  1.00  0.00     0.074 A 
ATOM     40  C   UNL A   1      38.084  31.913  32.696  1.00  0.00     0.049 A 
ATOM     41  N   UNL A   1      39.515  32.568  35.272  1.00  0.00    -0.248 NA
ATOM     42  C   UNL A   1      37.836  34.124  35.735  1.00  0.00     0.031 C 
ATOM     43  C   UNL A   1      37.416  31.544  31.450  1.00  0.00     0.029 A 
ATOM     44  N   UNL A   1      39.186  31.095  32.744  1.00  0.00    -0.354 N 
ATOM     45  C   UNL A   1      39.773  33.174  36.494  1.00  0.00     0.074 A 
ATOM     46  C   UNL A   1      38.726  34.148  36.716  1.00  0.00     0.031 C 
ATOM     47  C   UNL A   1      38.122  30.572  30.849  1.00  0.00     0.029 A 
ATOM     48  C   UNL A   1      39.305  30.272  31.653  1.00  0.00     0.049 A 
ATOM     49  H   UNL A   1      39.828  31.099  33.490  1.00  0.00     0.167 HD
ATOM     50  C   UNL A   1      40.786  32.931  37.360  1.00  0.00     0.037 A 
ATOM     51  C   UNL A   1      40.273  29.390  31.335  1.00  0.00     0.037 A 
ATOM     52  C   UNL A   1      41.820  31.955  37.140  1.00  0.00     0.049 A 
ATOM     53  C   UNL A   1      41.426  29.188  32.283  1.00  0.00     0.074 A 
ATOM     54  C   UNL A   1      42.872  31.610  37.969  1.00  0.00     0.029 A 
ATOM     55  N   UNL A   1      41.933  31.169  36.002  1.00  0.00    -0.354 N 
ATOM     56  N   UNL A   1      41.645  29.739  33.453  1.00  0.00    -0.248 NA
ATOM     57  C   UNL A   1      42.467  28.237  31.866  1.00  0.00     0.031 C 
ATOM     58  C   UNL A   1      43.654  30.655  37.310  1.00  0.00     0.029 A 
ATOM     59  C   UNL A   1      43.058  30.364  36.093  1.00  0.00     0.049 A 
ATOM     60  H   UNL A   1      41.308  31.183  35.242  1.00  0.00     0.167 HD
ATOM     61  C   UNL A   1      42.827  29.183  33.923  1.00  0.00     0.074 A 
ATOM     62  C   UNL A   1      43.273  28.241  32.918  1.00  0.00     0.031 C 
ATOM     63  C   UNL A   1      43.482  29.427  35.085  1.00  0.00     0.037 A 
BRANCH  50  64
ATOM     64  C   UNL A   1      40.843  33.757  38.612  1.00  0.00     0.064 A 
ATOM     65  C   UNL A   1      40.115  33.412  39.759  1.00  0.00     0.173 A 
ATOM     66  C   UNL A   1      41.666  34.892  38.672  1.00  0.00     0.173 A 
ATOM     67  F   UNL A   1      39.303  32.344  39.748  1.00  0.00    -0.203 F 
ATOM     68  C   UNL A   1      40.189  34.188  40.914  1.00  0.00     0.198 A 
ATOM     69  C   UNL A   1      41.758  35.648  39.837  1.00  0.00     0.198 A 
ATOM     70  F   UNL A   1      42.385  35.264  37.603  1.00  0.00    -0.203 F 
ATOM     71  F   UNL A   1      39.450  33.865  41.984  1.00  0.00    -0.200 F 
ATOM     72  C   UNL A   1      41.015  35.300  40.954  1.00  0.00     0.200 A 
ATOM     73  F   UNL A   1      42.566  36.718  39.877  1.00  0.00    -0.200 F 
ATOM     74  F   UNL A   1      41.091  36.042  42.068  1.00  0.00    -0.200 F 
ENDBRANCH  50  64
BRANCH  51  75
ATOM     75  C   UNL A   1      40.195  28.630  30.061  1.00  0.00     0.064 A 
ATOM     76  C   UNL A   1      39.562  27.382  30.000  1.00  0.00     0.173 A 
ATOM     77  C   UNL A   1      40.768  29.129  28.882  1.00  0.00     0.173 A 
ATOM     78  F   UNL A   1      39.022  26.851  31.107  1.00  0.00    -0.203 F 
ATOM     79  C   UNL A   1      39.519  26.653  28.813  1.00  0.00     0.198 A 
ATOM     80  C   UNL A   1      40.700  28.414  27.689  1.00  0.00     0.198 A 
ATOM     81  F   UNL A   1      41.387  30.319  28.887  1.00  0.00    -0.203 F 
ATOM     82  F   UNL A   1      38.947  25.442  28.793  1.00  0.00    -0.200 F 
ATOM     83  C   UNL A   1      40.083  27.172  27.657  1.00  0.00     0.200 A 
ATOM     84  F   UNL A   1      41.235  28.924  26.571  1.00  0.00    -0.200 F 
ATOM     85  F   UNL A   1      40.038  26.473  26.515  1.00  0.00    -0.200 F 
ENDBRANCH  51  75
BRANCH  63  86
ATOM     86  C   UNL A   1      44.734  28.639  35.350  1.00  0.00     0.064 A 
ATOM     87  C   UNL A   1      45.998  29.119  34.982  1.00  0.00     0.173 A 
ATOM     88  C   UNL A   1      44.666  27.407  36.019  1.00  0.00     0.173 A 
ATOM     89  F   UNL A   1      46.114  30.284  34.328  1.00  0.00    -0.203 F 
ATOM     90  C   UNL A   1      47.149  28.382  35.252  1.00  0.00     0.198 A 
ATOM     91  C   UNL A   1      45.821  26.688  36.314  1.00  0.00     0.198 A 
ATOM     92  F   UNL A   1      43.481  26.907  36.399  1.00  0.00    -0.203 F 
ATOM     93  F   UNL A   1      48.343  28.838  34.850  1.00  0.00    -0.200 F 
ATOM     94  C   UNL A   1      47.060  27.172  35.925  1.00  0.00     0.200 A 
ATOM     95  F   UNL A   1      45.734  25.526  36.976  1.00  0.00    -0.200 F 
ATOM     96  F   UNL A   1      48.169  26.469  36.190  1.00  0.00    -0.200 F 
ENDBRANCH  63  86
ENDBRANCH  37  38
ENDBRANCH  30  32
ENDBRANCH  29  30
ENDBRANCH  28  29
ENDBRANCH  27  28
ENDBRANCH  26  27
ENDBRANCH   1  26
TORSDOF 19
ENDMDL
