MODEL 1
REMARK VINA RESULT:     -11.6      0.000      0.000
REMARK SMILES O=C(N[C@@H](Cc1ccc(O)cc1)C(=O)N[C@@H](CO)C(=O)OCCOCCOC(=O)c1ccc(-c2c3nc(c(-c4c(F)c(F)c(F)c(F)c4F)c4ccc([nH]4)c(-c4c(F)c(F)c(F)c(F)c4F)c4nc(c(-c5c(F)c(F)c(F)c(F)c5F)c5ccc2[nH]5)C=C4)C=C3)cc1)c1ccc(F)cc1
REMARK SMILES IDX 22 1 21 2 19 3 20 4 16 5 15 6 13 7 14 8 4 10 3 11 1 12 2 13
REMARK SMILES IDX 93 15 94 16 99 17 95 18 98 19 96 20 97 21 5 22 6 23 7 24
REMARK SMILES IDX 12 25 8 26 11 27 9 28 10 29 17 31 18 32 23 34 24 35 25 36
REMARK SMILES IDX 26 37 27 38 28 39 29 40 30 41 31 42 92 43 32 44 91 45 33 46
REMARK SMILES IDX 34 47 35 48 85 49 36 50 90 51 84 52 86 53 37 54 89 55 83 56
REMARK SMILES IDX 82 57 38 59 70 60 50 61 69 62 51 63 54 64 68 65 87 66 52 67
REMARK SMILES IDX 53 68 67 70 88 71 55 72 39 73 40 74 48 75 41 76 42 77 46 78
REMARK SMILES IDX 49 79 43 80 44 81 47 82 45 83 71 84 72 85 80 86 73 87 74 88
REMARK SMILES IDX 78 89 81 90 75 91 76 92 79 93 77 94 56 95 57 96 65 97 58 98
REMARK SMILES IDX 59 99 63 100 66 101 60 102 61 103 64 104 62 105
REMARK H PARENT 15 9 3 14 10 30 18 33 86 58 54 69
REMARK Flexibility Score: inf
ROOT
ATOM      1  C   UNL A   1      34.090  31.548  28.296  1.00  0.00     0.261 C 
ENDROOT
BRANCH   1   2
ATOM      2  O   UNL A   1      33.868  30.802  27.090  1.00  0.00    -0.462 OA
BRANCH   2   3
ATOM      3  C   UNL A   1      32.578  30.774  26.648  1.00  0.00     0.331 C 
ATOM      4  O   UNL A   1      31.705  31.569  26.992  1.00  0.00    -0.250 OA
BRANCH   3   5
ATOM      5  C   UNL A   1      32.281  29.580  25.723  1.00  0.00     0.218 C 
BRANCH   5   6
ATOM      6  N   UNL A   1      33.262  29.284  24.679  1.00  0.00    -0.339 N 
ATOM      7  C   UNL A   1      33.135  28.938  23.371  1.00  0.00     0.243 C 
ATOM      8  O   UNL A   1      34.199  28.822  22.743  1.00  0.00    -0.273 OA
ATOM      9  H   UNL A   1      34.197  29.347  24.983  1.00  0.00     0.164 HD
BRANCH   7  10
ATOM     10  C   UNL A   1      31.793  28.663  22.614  1.00  0.00     0.176 C 
BRANCH  10  11
ATOM     11  N   UNL A   1      31.816  27.476  21.760  1.00  0.00    -0.340 N 
ATOM     12  O   UNL A   1      32.350  25.366  21.217  1.00  0.00    -0.269 OA
ATOM     13  C   UNL A   1      32.066  26.168  22.103  1.00  0.00     0.251 C 
ATOM     14  H   UNL A   1      31.625  27.635  20.807  1.00  0.00     0.164 HD
BRANCH  13  15
ATOM     15  C   UNL A   1      31.988  25.703  23.509  1.00  0.00     0.040 A 
ATOM     16  C   UNL A   1      30.753  25.419  24.108  1.00  0.00     0.017 A 
ATOM     17  C   UNL A   1      33.177  25.447  24.207  1.00  0.00     0.017 A 
ATOM     18  C   UNL A   1      30.706  24.943  25.420  1.00  0.00     0.040 A 
ATOM     19  C   UNL A   1      33.125  24.957  25.516  1.00  0.00     0.040 A 
ATOM     20  C   UNL A   1      31.891  24.719  26.112  1.00  0.00     0.123 A 
ATOM     21  F   UNL A   1      31.841  24.254  27.367  1.00  0.00    -0.207 F 
ENDBRANCH  13  15
ENDBRANCH  10  11
BRANCH  10  22
ATOM     22  C   UNL A   1      30.440  28.925  23.334  1.00  0.00     0.070 C 
BRANCH  22  23
ATOM     23  C   UNL A   1      29.472  30.022  22.947  1.00  0.00    -0.045 A 
ATOM     24  C   UNL A   1      29.164  31.124  23.741  1.00  0.00     0.007 A 
ATOM     25  C   UNL A   1      28.829  29.934  21.697  1.00  0.00     0.007 A 
ATOM     26  C   UNL A   1      28.552  32.250  23.187  1.00  0.00     0.046 A 
ATOM     27  C   UNL A   1      28.138  31.024  21.165  1.00  0.00     0.046 A 
ATOM     28  C   UNL A   1      28.106  32.207  21.877  1.00  0.00     0.115 A 
BRANCH  28  29
ATOM     29  O   UNL A   1      27.673  33.339  21.258  1.00  0.00    -0.508 OA
ATOM     30  H   UNL A   1      28.268  34.049  21.112  1.00  0.00     0.293 HD
ENDBRANCH  28  29
ENDBRANCH  22  23
ENDBRANCH  10  22
ENDBRANCH   7  10
ENDBRANCH   5   6
BRANCH   5  31
ATOM     31  C   UNL A   1      32.026  28.370  26.625  1.00  0.00     0.193 C 
BRANCH  31  32
ATOM     32  O   UNL A   1      32.225  28.727  27.991  1.00  0.00    -0.394 OA
ATOM     33  H   UNL A   1      32.539  29.643  28.042  1.00  0.00     0.210 HD
ENDBRANCH  31  32
ENDBRANCH   5  31
ENDBRANCH   3   5
ENDBRANCH   2   3
ENDBRANCH   1   2
BRANCH   1  34
ATOM     34  C   UNL A   1      34.892  32.843  28.091  1.00  0.00     0.202 C 
BRANCH  34  35
ATOM     35  O   UNL A   1      34.218  34.005  27.637  1.00  0.00    -0.374 OA
BRANCH  35  36
ATOM     36  C   UNL A   1      34.257  35.179  28.441  1.00  0.00     0.202 C 
BRANCH  36  37
ATOM     37  C   UNL A   1      32.985  35.680  29.138  1.00  0.00     0.261 C 
BRANCH  37  38
ATOM     38  O   UNL A   1      32.665  34.942  30.328  1.00  0.00    -0.460 OA
BRANCH  38  39
ATOM     39  C   UNL A   1      32.870  35.617  31.486  1.00  0.00     0.338 C 
ATOM     40  O   UNL A   1      32.186  36.498  31.970  1.00  0.00    -0.246 OA
BRANCH  39  41
ATOM     41  C   UNL A   1      33.959  34.963  32.228  1.00  0.00     0.060 A 
ATOM     42  C   UNL A   1      35.220  35.576  32.214  1.00  0.00     0.016 A 
ATOM     43  C   UNL A   1      33.762  33.736  32.858  1.00  0.00     0.016 A 
ATOM     44  C   UNL A   1      36.307  34.945  32.809  1.00  0.00     0.010 A 
ATOM     45  C   UNL A   1      34.858  33.090  33.432  1.00  0.00     0.010 A 
ATOM     46  C   UNL A   1      36.136  33.677  33.373  1.00  0.00    -0.014 A 
BRANCH  46  47
ATOM     47  C   UNL A   1      37.327  32.864  33.695  1.00  0.00     0.031 A 
ATOM     48  C   UNL A   1      38.035  33.138  34.991  1.00  0.00     0.074 A 
ATOM     49  C   UNL A   1      37.757  31.903  32.862  1.00  0.00     0.049 A 
ATOM     50  N   UNL A   1      39.158  32.650  35.447  1.00  0.00    -0.248 NA
ATOM     51  C   UNL A   1      37.387  34.107  35.892  1.00  0.00     0.031 C 
ATOM     52  C   UNL A   1      37.104  31.513  31.615  1.00  0.00     0.029 A 
ATOM     53  N   UNL A   1      38.859  31.093  32.937  1.00  0.00    -0.354 N 
ATOM     54  C   UNL A   1      39.359  33.264  36.677  1.00  0.00     0.074 A 
ATOM     55  C   UNL A   1      38.259  34.179  36.885  1.00  0.00     0.031 C 
ATOM     56  C   UNL A   1      37.835  30.551  31.025  1.00  0.00     0.029 A 
ATOM     57  C   UNL A   1      39.024  30.293  31.835  1.00  0.00     0.049 A 
ATOM     58  H   UNL A   1      39.473  31.086  33.707  1.00  0.00     0.167 HD
ATOM     59  C   UNL A   1      40.374  33.075  37.553  1.00  0.00     0.037 A 
ATOM     60  C   UNL A   1      40.044  29.475  31.509  1.00  0.00     0.037 A 
ATOM     61  C   UNL A   1      41.462  32.162  37.325  1.00  0.00     0.049 A 
ATOM     62  C   UNL A   1      41.206  29.345  32.461  1.00  0.00     0.074 A 
ATOM     63  C   UNL A   1      42.541  31.884  38.143  1.00  0.00     0.029 A 
ATOM     64  N   UNL A   1      41.609  31.383  36.186  1.00  0.00    -0.354 N 
ATOM     65  N   UNL A   1      41.395  29.921  33.625  1.00  0.00    -0.248 NA
ATOM     66  C   UNL A   1      42.297  28.448  32.055  1.00  0.00     0.031 C 
ATOM     67  C   UNL A   1      43.374  30.985  37.472  1.00  0.00     0.029 A 
ATOM     68  C   UNL A   1      42.777  30.643  36.268  1.00  0.00     0.049 A 
ATOM     69  H   UNL A   1      40.977  31.360  35.432  1.00  0.00     0.167 HD
ATOM     70  C   UNL A   1      42.601  29.429  34.106  1.00  0.00     0.074 A 
ATOM     71  C   UNL A   1      43.097  28.501  33.111  1.00  0.00     0.031 C 
ATOM     72  C   UNL A   1      43.240  29.712  35.269  1.00  0.00     0.037 A 
BRANCH  59  73
ATOM     73  C   UNL A   1      40.372  33.900  38.807  1.00  0.00     0.064 A 
ATOM     74  C   UNL A   1      39.788  33.440  39.998  1.00  0.00     0.173 A 
ATOM     75  C   UNL A   1      40.979  35.165  38.822  1.00  0.00     0.173 A 
ATOM     76  F   UNL A   1      39.179  32.245  40.035  1.00  0.00    -0.203 F 
ATOM     77  C   UNL A   1      39.788  34.229  41.147  1.00  0.00     0.198 A 
ATOM     78  C   UNL A   1      41.006  35.936  39.981  1.00  0.00     0.198 A 
ATOM     79  F   UNL A   1      41.550  35.654  37.710  1.00  0.00    -0.203 F 
ATOM     80  F   UNL A   1      39.176  33.792  42.257  1.00  0.00    -0.200 F 
ATOM     81  C   UNL A   1      40.404  35.471  41.139  1.00  0.00     0.200 A 
ATOM     82  F   UNL A   1      41.613  37.131  39.975  1.00  0.00    -0.200 F 
ATOM     83  F   UNL A   1      40.409  36.225  42.247  1.00  0.00    -0.200 F 
ENDBRANCH  59  73
BRANCH  60  84
ATOM     84  C   UNL A   1      40.022  28.734  30.220  1.00  0.00     0.064 A 
ATOM     85  C   UNL A   1      39.447  27.460  30.128  1.00  0.00     0.173 A 
ATOM     86  C   UNL A   1      40.592  29.277  29.057  1.00  0.00     0.173 A 
ATOM     87  F   UNL A   1      38.909  26.888  31.215  1.00  0.00    -0.203 F 
ATOM     88  C   UNL A   1      39.461  26.747  28.930  1.00  0.00     0.198 A 
ATOM     89  C   UNL A   1      40.577  28.577  27.853  1.00  0.00     0.198 A 
ATOM     90  F   UNL A   1      41.156  30.493  29.089  1.00  0.00    -0.203 F 
ATOM     91  F   UNL A   1      38.949  25.510  28.884  1.00  0.00    -0.200 F 
ATOM     92  C   UNL A   1      40.020  27.309  27.792  1.00  0.00     0.200 A 
ATOM     93  F   UNL A   1      41.105  29.130  26.752  1.00  0.00    -0.200 F 
ATOM     94  F   UNL A   1      40.031  26.624  26.640  1.00  0.00    -0.200 F 
ENDBRANCH  60  84
BRANCH  72  95
ATOM     95  C   UNL A   1      44.512  28.968  35.560  1.00  0.00     0.064 A 
ATOM     96  C   UNL A   1      45.767  29.467  35.187  1.00  0.00     0.173 A 
ATOM     97  C   UNL A   1      44.471  27.760  36.275  1.00  0.00     0.173 A 
ATOM     98  F   UNL A   1      45.860  30.611  34.491  1.00  0.00    -0.203 F 
ATOM     99  C   UNL A   1      46.934  28.771  35.494  1.00  0.00     0.198 A 
ATOM    100  C   UNL A   1      45.641  27.086  36.612  1.00  0.00     0.198 A 
ATOM    101  F   UNL A   1      43.296  27.244  36.665  1.00  0.00    -0.203 F 
ATOM    102  F   UNL A   1      48.120  29.240  35.082  1.00  0.00    -0.200 F 
ATOM    103  C   UNL A   1      46.870  27.587  36.214  1.00  0.00     0.200 A 
ATOM    104  F   UNL A   1      45.578  25.953  37.325  1.00  0.00    -0.200 F 
ATOM    105  F   UNL A   1      47.995  26.927  36.520  1.00  0.00    -0.200 F 
ENDBRANCH  72  95
ENDBRANCH  46  47
ENDBRANCH  39  41
ENDBRANCH  38  39
ENDBRANCH  37  38
ENDBRANCH  36  37
ENDBRANCH  35  36
ENDBRANCH  34  35
ENDBRANCH   1  34
TORSDOF 23
ENDMDL
MODEL 2
REMARK VINA RESULT:     -11.4      2.618      8.413
REMARK SMILES O=C(N[C@@H](Cc1ccc(O)cc1)C(=O)N[C@@H](CO)C(=O)OCCOCCOC(=O)c1ccc(-c2c3nc(c(-c4c(F)c(F)c(F)c(F)c4F)c4ccc([nH]4)c(-c4c(F)c(F)c(F)c(F)c4F)c4nc(c(-c5c(F)c(F)c(F)c(F)c5F)c5ccc2[nH]5)C=C4)C=C3)cc1)c1ccc(F)cc1
REMARK SMILES IDX 22 1 21 2 19 3 20 4 16 5 15 6 13 7 14 8 4 10 3 11 1 12 2 13
REMARK SMILES IDX 93 15 94 16 99 17 95 18 98 19 96 20 97 21 5 22 6 23 7 24
REMARK SMILES IDX 12 25 8 26 11 27 9 28 10 29 17 31 18 32 23 34 24 35 25 36
REMARK SMILES IDX 26 37 27 38 28 39 29 40 30 41 31 42 92 43 32 44 91 45 33 46
REMARK SMILES IDX 34 47 35 48 85 49 36 50 90 51 84 52 86 53 37 54 89 55 83 56
REMARK SMILES IDX 82 57 38 59 70 60 50 61 69 62 51 63 54 64 68 65 87 66 52 67
REMARK SMILES IDX 53 68 67 70 88 71 55 72 39 73 40 74 48 75 41 76 42 77 46 78
REMARK SMILES IDX 49 79 43 80 44 81 47 82 45 83 71 84 72 85 80 86 73 87 74 88
REMARK SMILES IDX 78 89 81 90 75 91 76 92 79 93 77 94 56 95 57 96 65 97 58 98
REMARK SMILES IDX 59 99 63 100 66 101 60 102 61 103 64 104 62 105
REMARK H PARENT 15 9 3 14 10 30 18 33 86 58 54 69
REMARK Flexibility Score: inf
ROOT
ATOM      1  C   UNL A   1      33.516  27.951  26.247  1.00  0.00     0.261 C 
ENDROOT
BRANCH   1   2
ATOM      2  O   UNL A   1      32.974  26.757  26.829  1.00  0.00    -0.462 OA
BRANCH   2   3
ATOM      3  C   UNL A   1      31.752  26.377  26.356  1.00  0.00     0.331 C 
ATOM      4  O   UNL A   1      30.695  26.946  26.621  1.00  0.00    -0.250 OA
BRANCH   3   5
ATOM      5  C   UNL A   1      31.804  25.093  25.510  1.00  0.00     0.218 C 
BRANCH   5   6
ATOM      6  N   UNL A   1      33.122  24.631  25.075  1.00  0.00    -0.339 N 
ATOM      7  C   UNL A   1      33.554  24.024  23.939  1.00  0.00     0.243 C 
ATOM      8  O   UNL A   1      34.776  23.826  23.870  1.00  0.00    -0.273 OA
ATOM      9  H   UNL A   1      33.836  24.792  25.734  1.00  0.00     0.164 HD
BRANCH   7  10
ATOM     10  C   UNL A   1      32.657  23.548  22.748  1.00  0.00     0.176 C 
BRANCH  10  11
ATOM     11  N   UNL A   1      33.040  24.098  21.448  1.00  0.00    -0.340 N 
ATOM     12  O   UNL A   1      32.896  25.510  19.710  1.00  0.00    -0.269 OA
ATOM     13  C   UNL A   1      32.768  25.338  20.920  1.00  0.00     0.251 C 
ATOM     14  H   UNL A   1      33.564  23.497  20.871  1.00  0.00     0.164 HD
BRANCH  13  15
ATOM     15  C   UNL A   1      32.342  26.472  21.775  1.00  0.00     0.040 A 
ATOM     16  C   UNL A   1      33.258  27.453  22.184  1.00  0.00     0.017 A 
ATOM     17  C   UNL A   1      30.983  26.614  22.088  1.00  0.00     0.017 A 
ATOM     18  C   UNL A   1      32.826  28.534  22.954  1.00  0.00     0.040 A 
ATOM     19  C   UNL A   1      30.553  27.706  22.848  1.00  0.00     0.040 A 
ATOM     20  C   UNL A   1      31.479  28.649  23.282  1.00  0.00     0.123 A 
ATOM     21  F   UNL A   1      31.068  29.693  24.014  1.00  0.00    -0.207 F 
ENDBRANCH  13  15
ENDBRANCH  10  11
BRANCH  10  22
ATOM     22  C   UNL A   1      32.144  22.081  22.713  1.00  0.00     0.070 C 
BRANCH  22  23
ATOM     23  C   UNL A   1      32.596  21.000  23.671  1.00  0.00    -0.045 A 
ATOM     24  C   UNL A   1      33.202  21.236  24.903  1.00  0.00     0.007 A 
ATOM     25  C   UNL A   1      32.396  19.656  23.303  1.00  0.00     0.007 A 
ATOM     26  C   UNL A   1      33.266  20.229  25.867  1.00  0.00     0.046 A 
ATOM     27  C   UNL A   1      32.540  18.626  24.233  1.00  0.00     0.046 A 
ATOM     28  C   UNL A   1      32.869  18.944  25.538  1.00  0.00     0.115 A 
BRANCH  28  29
ATOM     29  O   UNL A   1      32.750  17.991  26.500  1.00  0.00    -0.508 OA
ATOM     30  H   UNL A   1      33.385  17.304  26.560  1.00  0.00     0.293 HD
ENDBRANCH  28  29
ENDBRANCH  22  23
ENDBRANCH  10  22
ENDBRANCH   7  10
ENDBRANCH   5   6
BRANCH   5  31
ATOM     31  C   UNL A   1      31.051  24.013  26.292  1.00  0.00     0.193 C 
BRANCH  31  32
ATOM     32  O   UNL A   1      29.700  24.416  26.506  1.00  0.00    -0.394 OA
ATOM     33  H   UNL A   1      29.469  24.285  27.439  1.00  0.00     0.210 HD
ENDBRANCH  31  32
ENDBRANCH   5  31
ENDBRANCH   3   5
ENDBRANCH   2   3
ENDBRANCH   1   2
BRANCH   1  34
ATOM     34  C   UNL A   1      33.356  29.203  27.124  1.00  0.00     0.202 C 
BRANCH  34  35
ATOM     35  O   UNL A   1      33.051  30.441  26.506  1.00  0.00    -0.374 OA
BRANCH  35  36
ATOM     36  C   UNL A   1      31.828  31.091  26.836  1.00  0.00     0.202 C 
BRANCH  36  37
ATOM     37  C   UNL A   1      31.785  32.617  26.998  1.00  0.00     0.261 C 
BRANCH  37  38
ATOM     38  O   UNL A   1      33.079  33.232  26.913  1.00  0.00    -0.460 OA
BRANCH  38  39
ATOM     39  C   UNL A   1      33.530  33.768  28.073  1.00  0.00     0.338 C 
ATOM     40  O   UNL A   1      32.970  34.573  28.793  1.00  0.00    -0.246 OA
BRANCH  39  41
ATOM     41  C   UNL A   1      34.747  33.052  28.485  1.00  0.00     0.060 A 
ATOM     42  C   UNL A   1      34.593  31.856  29.199  1.00  0.00     0.016 A 
ATOM     43  C   UNL A   1      36.011  33.586  28.240  1.00  0.00     0.016 A 
ATOM     44  C   UNL A   1      35.708  31.197  29.703  1.00  0.00     0.010 A 
ATOM     45  C   UNL A   1      37.129  32.940  28.769  1.00  0.00     0.010 A 
ATOM     46  C   UNL A   1      36.974  31.768  29.532  1.00  0.00    -0.014 A 
BRANCH  46  47
ATOM     47  C   UNL A   1      38.106  31.270  30.341  1.00  0.00     0.031 A 
ATOM     48  C   UNL A   1      39.024  30.259  29.715  1.00  0.00     0.074 A 
ATOM     49  C   UNL A   1      38.314  31.713  31.590  1.00  0.00     0.049 A 
ATOM     50  N   UNL A   1      40.009  29.586  30.247  1.00  0.00    -0.248 NA
ATOM     51  C   UNL A   1      38.788  29.960  28.292  1.00  0.00     0.031 C 
ATOM     52  C   UNL A   1      37.523  32.740  32.264  1.00  0.00     0.029 A 
ATOM     53  N   UNL A   1      39.249  31.339  32.519  1.00  0.00    -0.354 N 
ATOM     54  C   UNL A   1      40.498  28.774  29.232  1.00  0.00     0.074 A 
ATOM     55  C   UNL A   1      39.687  29.017  28.060  1.00  0.00     0.031 C 
ATOM     56  C   UNL A   1      37.992  32.898  33.514  1.00  0.00     0.029 A 
ATOM     57  C   UNL A   1      39.085  31.952  33.736  1.00  0.00     0.049 A 
ATOM     58  H   UNL A   1      39.968  30.693  32.332  1.00  0.00     0.167 HD
ATOM     59  C   UNL A   1      41.535  27.905  29.278  1.00  0.00     0.037 A 
ATOM     60  C   UNL A   1      39.727  31.740  34.901  1.00  0.00     0.037 A 
ATOM     61  C   UNL A   1      42.329  27.675  30.455  1.00  0.00     0.049 A 
ATOM     62  C   UNL A   1      40.823  30.706  34.951  1.00  0.00     0.074 A 
ATOM     63  C   UNL A   1      43.406  26.824  30.617  1.00  0.00     0.029 A 
ATOM     64  N   UNL A   1      42.120  28.298  31.677  1.00  0.00    -0.354 N 
ATOM     65  N   UNL A   1      41.288  29.942  33.991  1.00  0.00    -0.248 NA
ATOM     66  C   UNL A   1      41.486  30.505  36.247  1.00  0.00     0.031 C 
ATOM     67  C   UNL A   1      43.810  26.885  31.954  1.00  0.00     0.029 A 
ATOM     68  C   UNL A   1      43.034  27.830  32.607  1.00  0.00     0.049 A 
ATOM     69  H   UNL A   1      41.426  28.973  31.857  1.00  0.00     0.167 HD
ATOM     70  C   UNL A   1      42.320  29.202  34.554  1.00  0.00     0.074 A 
ATOM     71  C   UNL A   1      42.417  29.613  35.939  1.00  0.00     0.031 C 
ATOM     72  C   UNL A   1      43.120  28.270  33.978  1.00  0.00     0.037 A 
BRANCH  59  73
ATOM     73  C   UNL A   1      41.837  27.117  28.036  1.00  0.00     0.064 A 
ATOM     74  C   UNL A   1      42.749  27.570  27.071  1.00  0.00     0.173 A 
ATOM     75  C   UNL A   1      41.214  25.878  27.817  1.00  0.00     0.173 A 
ATOM     76  F   UNL A   1      43.360  28.756  27.222  1.00  0.00    -0.203 F 
ATOM     77  C   UNL A   1      43.004  26.827  25.920  1.00  0.00     0.198 A 
ATOM     78  C   UNL A   1      41.497  25.122  26.683  1.00  0.00     0.198 A 
ATOM     79  F   UNL A   1      40.332  25.398  28.706  1.00  0.00    -0.203 F 
ATOM     80  F   UNL A   1      43.838  27.306  24.986  1.00  0.00    -0.200 F 
ATOM     81  C   UNL A   1      42.385  25.601  25.732  1.00  0.00     0.200 A 
ATOM     82  F   UNL A   1      40.907  23.932  26.509  1.00  0.00    -0.200 F 
ATOM     83  F   UNL A   1      42.637  24.884  24.629  1.00  0.00    -0.200 F 
ENDBRANCH  59  73
BRANCH  60  84
ATOM     84  C   UNL A   1      39.338  32.505  36.116  1.00  0.00     0.064 A 
ATOM     85  C   UNL A   1      38.372  32.012  37.002  1.00  0.00     0.173 A 
ATOM     86  C   UNL A   1      39.912  33.753  36.406  1.00  0.00     0.173 A 
ATOM     87  F   UNL A   1      37.777  30.835  36.756  1.00  0.00    -0.203 F 
ATOM     88  C   UNL A   1      37.977  32.745  38.120  1.00  0.00     0.198 A 
ATOM     89  C   UNL A   1      39.539  34.471  37.541  1.00  0.00     0.198 A 
ATOM     90  F   UNL A   1      40.842  34.272  35.591  1.00  0.00    -0.203 F 
ATOM     91  F   UNL A   1      37.013  32.272  38.921  1.00  0.00    -0.200 F 
ATOM     92  C   UNL A   1      38.566  33.970  38.392  1.00  0.00     0.200 A 
ATOM     93  F   UNL A   1      40.123  35.647  37.808  1.00  0.00    -0.200 F 
ATOM     94  F   UNL A   1      38.188  34.674  39.468  1.00  0.00    -0.200 F 
ENDBRANCH  60  84
BRANCH  72  95
ATOM     95  C   UNL A   1      44.210  27.675  34.823  1.00  0.00     0.064 A 
ATOM     96  C   UNL A   1      45.442  28.319  35.007  1.00  0.00     0.173 A 
ATOM     97  C   UNL A   1      43.993  26.467  35.504  1.00  0.00     0.173 A 
ATOM     98  F   UNL A   1      45.705  29.470  34.370  1.00  0.00    -0.203 F 
ATOM     99  C   UNL A   1      46.426  27.761  35.819  1.00  0.00     0.198 A 
ATOM    100  C   UNL A   1      44.965  25.930  36.344  1.00  0.00     0.198 A 
ATOM    101  F   UNL A   1      42.827  25.816  35.371  1.00  0.00    -0.203 F 
ATOM    102  F   UNL A   1      47.616  28.367  35.940  1.00  0.00    -0.200 F 
ATOM    103  C   UNL A   1      46.183  26.573  36.493  1.00  0.00     0.200 A 
ATOM    104  F   UNL A   1      44.719  24.794  37.009  1.00  0.00    -0.200 F 
ATOM    105  F   UNL A   1      47.127  26.045  37.284  1.00  0.00    -0.200 F 
ENDBRANCH  72  95
ENDBRANCH  46  47
ENDBRANCH  39  41
ENDBRANCH  38  39
ENDBRANCH  37  38
ENDBRANCH  36  37
ENDBRANCH  35  36
ENDBRANCH  34  35
ENDBRANCH   1  34
TORSDOF 23
ENDMDL
MODEL 3
REMARK VINA RESULT:     -11.4      2.853      8.531
REMARK SMILES O=C(N[C@@H](Cc1ccc(O)cc1)C(=O)N[C@@H](CO)C(=O)OCCOCCOC(=O)c1ccc(-c2c3nc(c(-c4c(F)c(F)c(F)c(F)c4F)c4ccc([nH]4)c(-c4c(F)c(F)c(F)c(F)c4F)c4nc(c(-c5c(F)c(F)c(F)c(F)c5F)c5ccc2[nH]5)C=C4)C=C3)cc1)c1ccc(F)cc1
REMARK SMILES IDX 22 1 21 2 19 3 20 4 16 5 15 6 13 7 14 8 4 10 3 11 1 12 2 13
REMARK SMILES IDX 93 15 94 16 99 17 95 18 98 19 96 20 97 21 5 22 6 23 7 24
REMARK SMILES IDX 12 25 8 26 11 27 9 28 10 29 17 31 18 32 23 34 24 35 25 36
REMARK SMILES IDX 26 37 27 38 28 39 29 40 30 41 31 42 92 43 32 44 91 45 33 46
REMARK SMILES IDX 34 47 35 48 85 49 36 50 90 51 84 52 86 53 37 54 89 55 83 56
REMARK SMILES IDX 82 57 38 59 70 60 50 61 69 62 51 63 54 64 68 65 87 66 52 67
REMARK SMILES IDX 53 68 67 70 88 71 55 72 39 73 40 74 48 75 41 76 42 77 46 78
REMARK SMILES IDX 49 79 43 80 44 81 47 82 45 83 71 84 72 85 80 86 73 87 74 88
REMARK SMILES IDX 78 89 81 90 75 91 76 92 79 93 77 94 56 95 57 96 65 97 58 98
REMARK SMILES IDX 59 99 63 100 66 101 60 102 61 103 64 104 62 105
REMARK H PARENT 15 9 3 14 10 30 18 33 86 58 54 69
REMARK Flexibility Score: inf
ROOT
ATOM      1  C   UNL A   1      33.559  27.877  25.894  1.00  0.00     0.261 C 
ENDROOT
BRANCH   1   2
ATOM      2  O   UNL A   1      32.281  27.436  25.412  1.00  0.00    -0.462 OA
BRANCH   2   3
ATOM      3  C   UNL A   1      31.541  26.709  26.297  1.00  0.00     0.331 C 
ATOM      4  O   UNL A   1      31.040  27.161  27.325  1.00  0.00    -0.250 OA
BRANCH   3   5
ATOM      5  C   UNL A   1      31.458  25.215  25.932  1.00  0.00     0.218 C 
BRANCH   5   6
ATOM      6  N   UNL A   1      31.746  24.250  26.993  1.00  0.00    -0.339 N 
ATOM      7  C   UNL A   1      32.329  23.023  26.985  1.00  0.00     0.243 C 
ATOM      8  O   UNL A   1      32.479  22.495  28.097  1.00  0.00    -0.273 OA
ATOM      9  H   UNL A   1      31.463  24.548  27.888  1.00  0.00     0.164 HD
BRANCH   7  10
ATOM     10  C   UNL A   1      32.798  22.232  25.718  1.00  0.00     0.176 C 
BRANCH  10  11
ATOM     11  N   UNL A   1      34.227  22.352  25.428  1.00  0.00    -0.340 N 
ATOM     12  O   UNL A   1      36.026  22.572  24.105  1.00  0.00    -0.269 OA
ATOM     13  C   UNL A   1      34.841  22.835  24.297  1.00  0.00     0.251 C 
ATOM     14  H   UNL A   1      34.832  22.045  26.140  1.00  0.00     0.164 HD
BRANCH  13  15
ATOM     15  C   UNL A   1      34.114  23.675  23.314  1.00  0.00     0.040 A 
ATOM     16  C   UNL A   1      34.057  25.069  23.458  1.00  0.00     0.017 A 
ATOM     17  C   UNL A   1      33.569  23.069  22.173  1.00  0.00     0.017 A 
ATOM     18  C   UNL A   1      33.402  25.844  22.498  1.00  0.00     0.040 A 
ATOM     19  C   UNL A   1      32.926  23.851  21.208  1.00  0.00     0.040 A 
ATOM     20  C   UNL A   1      32.841  25.228  21.385  1.00  0.00     0.123 A 
ATOM     21  F   UNL A   1      32.221  25.976  20.462  1.00  0.00    -0.207 F 
ENDBRANCH  13  15
ENDBRANCH  10  11
BRANCH  10  22
ATOM     22  C   UNL A   1      32.184  20.837  25.414  1.00  0.00     0.070 C 
BRANCH  22  23
ATOM     23  C   UNL A   1      32.876  19.763  24.603  1.00  0.00    -0.045 A 
ATOM     24  C   UNL A   1      34.134  19.239  24.892  1.00  0.00     0.007 A 
ATOM     25  C   UNL A   1      32.212  19.248  23.473  1.00  0.00     0.007 A 
ATOM     26  C   UNL A   1      34.547  18.032  24.326  1.00  0.00     0.046 A 
ATOM     27  C   UNL A   1      32.661  18.088  22.841  1.00  0.00     0.046 A 
ATOM     28  C   UNL A   1      33.767  17.434  23.351  1.00  0.00     0.115 A 
BRANCH  28  29
ATOM     29  O   UNL A   1      34.049  16.177  22.916  1.00  0.00    -0.508 OA
ATOM     30  H   UNL A   1      34.851  16.008  22.460  1.00  0.00     0.293 HD
ENDBRANCH  28  29
ENDBRANCH  22  23
ENDBRANCH  10  22
ENDBRANCH   7  10
ENDBRANCH   5   6
BRANCH   5  31
ATOM     31  C   UNL A   1      30.078  24.985  25.312  1.00  0.00     0.193 C 
BRANCH  31  32
ATOM     32  O   UNL A   1      29.794  26.004  24.356  1.00  0.00    -0.394 OA
ATOM     33  H   UNL A   1      28.896  25.881  24.010  1.00  0.00     0.210 HD
ENDBRANCH  31  32
ENDBRANCH   5  31
ENDBRANCH   3   5
ENDBRANCH   2   3
ENDBRANCH   1   2
BRANCH   1  34
ATOM     34  C   UNL A   1      33.645  29.391  26.145  1.00  0.00     0.202 C 
BRANCH  34  35
ATOM     35  O   UNL A   1      32.562  30.215  25.750  1.00  0.00    -0.374 OA
BRANCH  35  36
ATOM     36  C   UNL A   1      31.741  30.801  26.756  1.00  0.00     0.202 C 
BRANCH  36  37
ATOM     37  C   UNL A   1      31.767  32.317  26.986  1.00  0.00     0.261 C 
BRANCH  37  38
ATOM     38  O   UNL A   1      33.089  32.833  27.209  1.00  0.00    -0.460 OA
BRANCH  38  39
ATOM     39  C   UNL A   1      33.149  33.894  28.050  1.00  0.00     0.338 C 
ATOM     40  O   UNL A   1      32.359  34.813  28.155  1.00  0.00    -0.246 OA
BRANCH  39  41
ATOM     41  C   UNL A   1      34.231  33.669  29.021  1.00  0.00     0.060 A 
ATOM     42  C   UNL A   1      35.467  34.284  28.778  1.00  0.00     0.016 A 
ATOM     43  C   UNL A   1      34.055  32.809  30.104  1.00  0.00     0.016 A 
ATOM     44  C   UNL A   1      36.552  34.017  29.605  1.00  0.00     0.010 A 
ATOM     45  C   UNL A   1      35.151  32.520  30.919  1.00  0.00     0.010 A 
ATOM     46  C   UNL A   1      36.407  33.094  30.646  1.00  0.00    -0.014 A 
BRANCH  46  47
ATOM     47  C   UNL A   1      37.614  32.553  31.305  1.00  0.00     0.031 A 
ATOM     48  C   UNL A   1      38.362  31.454  30.606  1.00  0.00     0.074 A 
ATOM     49  C   UNL A   1      38.034  33.033  32.485  1.00  0.00     0.049 A 
ATOM     50  N   UNL A   1      39.372  30.737  31.022  1.00  0.00    -0.248 NA
ATOM     51  C   UNL A   1      37.897  31.113  29.250  1.00  0.00     0.031 C 
ATOM     52  C   UNL A   1      37.419  34.140  33.214  1.00  0.00     0.029 A 
ATOM     53  N   UNL A   1      39.072  32.634  33.286  1.00  0.00    -0.354 N 
ATOM     54  C   UNL A   1      39.651  29.851  29.989  1.00  0.00     0.074 A 
ATOM     55  C   UNL A   1      38.690  30.100  28.938  1.00  0.00     0.031 C 
ATOM     56  C   UNL A   1      38.079  34.318  34.371  1.00  0.00     0.029 A 
ATOM     57  C   UNL A   1      39.131  33.309  34.479  1.00  0.00     0.049 A 
ATOM     58  H   UNL A   1      39.713  31.932  33.030  1.00  0.00     0.167 HD
ATOM     59  C   UNL A   1      40.627  28.914  29.928  1.00  0.00     0.037 A 
ATOM     60  C   UNL A   1      39.926  33.102  35.547  1.00  0.00     0.037 A 
ATOM     61  C   UNL A   1      41.571  28.679  30.987  1.00  0.00     0.049 A 
ATOM     62  C   UNL A   1      40.949  31.997  35.490  1.00  0.00     0.074 A 
ATOM     63  C   UNL A   1      42.605  27.763  31.034  1.00  0.00     0.029 A 
ATOM     64  N   UNL A   1      41.588  29.367  32.193  1.00  0.00    -0.354 N 
ATOM     65  N   UNL A   1      41.216  31.162  34.513  1.00  0.00    -0.248 NA
ATOM     66  C   UNL A   1      41.785  31.805  36.684  1.00  0.00     0.031 C 
ATOM     67  C   UNL A   1      43.207  27.852  32.293  1.00  0.00     0.029 A 
ATOM     68  C   UNL A   1      42.599  28.876  33.002  1.00  0.00     0.049 A 
ATOM     69  H   UNL A   1      40.972  30.096  32.436  1.00  0.00     0.167 HD
ATOM     70  C   UNL A   1      42.272  30.376  34.957  1.00  0.00     0.074 A 
ATOM     71  C   UNL A   1      42.601  30.838  36.290  1.00  0.00     0.031 C 
ATOM     72  C   UNL A   1      42.917  29.366  34.320  1.00  0.00     0.037 A 
BRANCH  59  73
ATOM     73  C   UNL A   1      40.689  28.055  28.699  1.00  0.00     0.064 A 
ATOM     74  C   UNL A   1      40.004  26.833  28.611  1.00  0.00     0.173 A 
ATOM     75  C   UNL A   1      41.435  28.469  27.585  1.00  0.00     0.173 A 
ATOM     76  F   UNL A   1      39.291  26.381  29.654  1.00  0.00    -0.203 F 
ATOM     77  C   UNL A   1      40.087  26.046  27.464  1.00  0.00     0.198 A 
ATOM     78  C   UNL A   1      41.488  27.696  26.428  1.00  0.00     0.198 A 
ATOM     79  F   UNL A   1      42.111  29.627  27.616  1.00  0.00    -0.203 F 
ATOM     80  F   UNL A   1      39.469  24.857  27.424  1.00  0.00    -0.200 F 
ATOM     81  C   UNL A   1      40.821  26.482  26.372  1.00  0.00     0.200 A 
ATOM     82  F   UNL A   1      42.188  28.125  25.369  1.00  0.00    -0.200 F 
ATOM     83  F   UNL A   1      40.894  25.727  25.267  1.00  0.00    -0.200 F 
ENDBRANCH  59  73
BRANCH  60  84
ATOM     84  C   UNL A   1      39.772  33.943  36.764  1.00  0.00     0.064 A 
ATOM     85  C   UNL A   1      40.440  35.168  36.885  1.00  0.00     0.173 A 
ATOM     86  C   UNL A   1      38.969  33.530  37.839  1.00  0.00     0.173 A 
ATOM     87  F   UNL A   1      41.238  35.596  35.896  1.00  0.00    -0.203 F 
ATOM     88  C   UNL A   1      40.330  35.939  38.042  1.00  0.00     0.198 A 
ATOM     89  C   UNL A   1      38.834  34.316  38.981  1.00  0.00     0.198 A 
ATOM     90  F   UNL A   1      38.307  32.366  37.776  1.00  0.00    -0.203 F 
ATOM     91  F   UNL A   1      41.021  37.081  38.150  1.00  0.00    -0.200 F 
ATOM     92  C   UNL A   1      39.521  35.516  39.085  1.00  0.00     0.200 A 
ATOM     93  F   UNL A   1      38.039  33.910  39.981  1.00  0.00    -0.200 F 
ATOM     94  F   UNL A   1      39.413  36.258  40.196  1.00  0.00    -0.200 F 
ENDBRANCH  60  84
BRANCH  72  95
ATOM     95  C   UNL A   1      44.082  28.734  35.027  1.00  0.00     0.064 A 
ATOM     96  C   UNL A   1      45.380  29.255  34.932  1.00  0.00     0.173 A 
ATOM     97  C   UNL A   1      43.881  27.619  35.856  1.00  0.00     0.173 A 
ATOM     98  F   UNL A   1      45.629  30.311  34.143  1.00  0.00    -0.203 F 
ATOM     99  C   UNL A   1      46.438  28.666  35.620  1.00  0.00     0.198 A 
ATOM    100  C   UNL A   1      44.934  27.056  36.571  1.00  0.00     0.198 A 
ATOM    101  F   UNL A   1      42.655  27.087  35.990  1.00  0.00    -0.203 F 
ATOM    102  F   UNL A   1      47.680  29.148  35.475  1.00  0.00    -0.200 F 
ATOM    103  C   UNL A   1      46.212  27.574  36.445  1.00  0.00     0.200 A 
ATOM    104  F   UNL A   1      44.708  26.014  37.383  1.00  0.00    -0.200 F 
ATOM    105  F   UNL A   1      47.231  27.018  37.116  1.00  0.00    -0.200 F 
ENDBRANCH  72  95
ENDBRANCH  46  47
ENDBRANCH  39  41
ENDBRANCH  38  39
ENDBRANCH  37  38
ENDBRANCH  36  37
ENDBRANCH  35  36
ENDBRANCH  34  35
ENDBRANCH   1  34
TORSDOF 23
ENDMDL
