MODEL 1
REMARK VINA RESULT:     -12.5      0.000      0.000
REMARK SMILES O=C(OCCOCCOC(=O)c1cccc(S(=O)(=O)Nc2ccccc2N2CCOCC2)c1)c1ccc(-c2c3nc(c(-c4c(F)c(F)c(F)c(F)c4F)c4ccc([nH]4)c(-c4c(F)c(F)c(F)c(F)c4F)c4nc(c(-c5c(F)c(F)c(F)c(F)c5F)c5ccc2[nH]5)C=C4)C=C3)cc1
REMARK SMILES IDX 7 1 6 2 5 3 4 4 3 5 2 6 1 7 34 8 35 9 96 10 36 11 95 12
REMARK SMILES IDX 37 13 38 14 39 15 89 16 40 17 94 18 88 19 90 20 41 21 93 22
REMARK SMILES IDX 87 23 86 24 42 26 74 27 54 28 73 29 55 30 58 31 72 32 91 33
REMARK SMILES IDX 56 34 57 35 71 37 92 38 59 39 43 40 44 41 52 42 45 43 46 44
REMARK SMILES IDX 50 45 53 46 47 47 48 48 51 49 49 50 75 51 76 52 84 53 77 54
REMARK SMILES IDX 78 55 82 56 85 57 79 58 80 59 83 60 81 61 60 62 61 63 69 64
REMARK SMILES IDX 62 65 63 66 67 67 70 68 64 69 65 70 68 71 66 72 8 73 9 74
REMARK SMILES IDX 10 75 11 76 12 77 13 78 33 79 14 80 16 81 15 82 17 83 18 84
REMARK SMILES IDX 19 85 20 86 21 88 22 89 26 90 23 91 25 92 24 93 27 94 28 95
REMARK SMILES IDX 32 96 29 97 31 98 30 99
REMARK H PARENT 90 25 58 36 20 87
REMARK Flexibility Score: inf
ROOT
ATOM      1  C   UNL A   1      31.416  30.453  25.719  1.00  0.00     0.202 C 
ENDROOT
BRANCH   1   2
ATOM      2  O   UNL A   1      32.720  30.483  26.301  1.00  0.00    -0.374 OA
BRANCH   2   3
ATOM      3  C   UNL A   1      32.972  31.529  27.241  1.00  0.00     0.202 C 
BRANCH   3   4
ATOM      4  C   UNL A   1      32.173  32.796  26.936  1.00  0.00     0.261 C 
BRANCH   4   5
ATOM      5  O   UNL A   1      32.321  33.758  27.992  1.00  0.00    -0.460 OA
BRANCH   5   6
ATOM      6  C   UNL A   1      33.462  34.318  28.459  1.00  0.00     0.338 C 
ATOM      7  O   UNL A   1      33.540  35.546  28.475  1.00  0.00    -0.246 OA
BRANCH   6   8
ATOM      8  C   UNL A   1      34.631  33.546  28.996  1.00  0.00     0.060 A 
ATOM      9  C   UNL A   1      34.566  32.459  29.870  1.00  0.00     0.016 A 
ATOM     10  C   UNL A   1      35.900  33.913  28.507  1.00  0.00     0.016 A 
ATOM     11  C   UNL A   1      35.693  31.753  30.245  1.00  0.00     0.010 A 
ATOM     12  C   UNL A   1      37.053  33.224  28.899  1.00  0.00     0.010 A 
ATOM     13  C   UNL A   1      36.939  32.147  29.779  1.00  0.00    -0.014 A 
BRANCH  13  14
ATOM     14  C   UNL A   1      38.090  31.499  30.415  1.00  0.00     0.031 A 
ATOM     15  C   UNL A   1      38.283  31.732  31.880  1.00  0.00     0.074 A 
ATOM     16  C   UNL A   1      38.758  30.546  29.745  1.00  0.00     0.049 A 
ATOM     17  N   UNL A   1      39.185  31.246  32.684  1.00  0.00    -0.248 NA
ATOM     18  C   UNL A   1      37.291  32.604  32.539  1.00  0.00     0.031 C 
ATOM     19  C   UNL A   1      38.474  30.134  28.368  1.00  0.00     0.029 A 
ATOM     20  N   UNL A   1      39.764  29.713  30.144  1.00  0.00    -0.354 N 
ATOM     21  C   UNL A   1      38.882  31.764  33.935  1.00  0.00     0.074 A 
ATOM     22  C   UNL A   1      37.706  32.589  33.795  1.00  0.00     0.031 C 
ATOM     23  C   UNL A   1      39.280  29.108  28.044  1.00  0.00     0.029 A 
ATOM     24  C   UNL A   1      40.174  28.842  29.165  1.00  0.00     0.049 A 
ATOM     25  H   UNL A   1      40.157  29.734  31.048  1.00  0.00     0.167 HD
ATOM     26  C   UNL A   1      39.553  31.572  35.093  1.00  0.00     0.037 A 
ATOM     27  C   UNL A   1      41.191  27.962  29.182  1.00  0.00     0.037 A 
ATOM     28  C   UNL A   1      40.734  30.761  35.181  1.00  0.00     0.049 A 
ATOM     29  C   UNL A   1      42.006  27.870  30.446  1.00  0.00     0.074 A 
ATOM     30  C   UNL A   1      41.599  30.592  36.242  1.00  0.00     0.029 A 
ATOM     31  N   UNL A   1      41.211  29.974  34.137  1.00  0.00    -0.354 N 
ATOM     32  N   UNL A   1      41.807  28.463  31.601  1.00  0.00    -0.248 NA
ATOM     33  C   UNL A   1      43.197  27.016  30.405  1.00  0.00     0.031 C 
ATOM     34  C   UNL A   1      42.621  29.727  35.829  1.00  0.00     0.029 A 
ATOM     35  C   UNL A   1      42.367  29.325  34.524  1.00  0.00     0.049 A 
ATOM     36  H   UNL A   1      40.786  29.892  33.252  1.00  0.00     0.167 HD
ATOM     37  C   UNL A   1      42.844  28.056  32.424  1.00  0.00     0.074 A 
ATOM     38  C   UNL A   1      43.652  27.135  31.645  1.00  0.00     0.031 C 
ATOM     39  C   UNL A   1      43.125  28.417  33.702  1.00  0.00     0.037 A 
BRANCH  26  40
ATOM     40  C   UNL A   1      39.070  32.331  36.289  1.00  0.00     0.064 A 
ATOM     41  C   UNL A   1      39.533  33.620  36.587  1.00  0.00     0.173 A 
ATOM     42  C   UNL A   1      38.173  31.730  37.184  1.00  0.00     0.173 A 
ATOM     43  F   UNL A   1      40.425  34.221  35.784  1.00  0.00    -0.203 F 
ATOM     44  C   UNL A   1      39.131  34.273  37.750  1.00  0.00     0.198 A 
ATOM     45  C   UNL A   1      37.757  32.394  38.336  1.00  0.00     0.198 A 
ATOM     46  F   UNL A   1      37.717  30.490  36.954  1.00  0.00    -0.203 F 
ATOM     47  F   UNL A   1      39.627  35.483  38.046  1.00  0.00    -0.200 F 
ATOM     48  C   UNL A   1      38.241  33.661  38.621  1.00  0.00     0.200 A 
ATOM     49  F   UNL A   1      36.902  31.798  39.179  1.00  0.00    -0.200 F 
ATOM     50  F   UNL A   1      37.865  34.286  39.746  1.00  0.00    -0.200 F 
ENDBRANCH  26  40
BRANCH  27  51
ATOM     51  C   UNL A   1      41.543  27.182  27.963  1.00  0.00     0.064 A 
ATOM     52  C   UNL A   1      41.044  25.891  27.746  1.00  0.00     0.173 A 
ATOM     53  C   UNL A   1      42.422  27.705  27.000  1.00  0.00     0.173 A 
ATOM     54  F   UNL A   1      40.219  25.331  28.643  1.00  0.00    -0.203 F 
ATOM     55  C   UNL A   1      41.425  25.148  26.629  1.00  0.00     0.198 A 
ATOM     56  C   UNL A   1      42.775  26.975  25.867  1.00  0.00     0.198 A 
ATOM     57  F   UNL A   1      42.940  28.932  27.156  1.00  0.00    -0.203 F 
ATOM     58  F   UNL A   1      40.974  23.894  26.474  1.00  0.00    -0.200 F 
ATOM     59  C   UNL A   1      42.286  25.693  25.687  1.00  0.00     0.200 A 
ATOM     60  F   UNL A   1      43.596  27.515  24.955  1.00  0.00    -0.200 F 
ATOM     61  F   UNL A   1      42.652  24.977  24.615  1.00  0.00    -0.200 F 
ENDBRANCH  27  51
BRANCH  39  62
ATOM     62  C   UNL A   1      44.342  27.800  34.317  1.00  0.00     0.064 A 
ATOM     63  C   UNL A   1      45.576  28.464  34.311  1.00  0.00     0.173 A 
ATOM     64  C   UNL A   1      44.258  26.553  34.951  1.00  0.00     0.173 A 
ATOM     65  F   UNL A   1      45.701  29.652  33.701  1.00  0.00    -0.203 F 
ATOM     66  C   UNL A   1      46.695  27.886  34.901  1.00  0.00     0.198 A 
ATOM     67  C   UNL A   1      45.373  25.991  35.563  1.00  0.00     0.198 A 
ATOM     68  F   UNL A   1      43.095  25.886  34.984  1.00  0.00    -0.203 F 
ATOM     69  F   UNL A   1      47.877  28.515  34.847  1.00  0.00    -0.200 F 
ATOM     70  C   UNL A   1      46.591  26.655  35.531  1.00  0.00     0.200 A 
ATOM     71  F   UNL A   1      45.270  24.808  36.182  1.00  0.00    -0.200 F 
ATOM     72  F   UNL A   1      47.669  26.103  36.105  1.00  0.00    -0.200 F 
ENDBRANCH  39  62
ENDBRANCH  13  14
ENDBRANCH   6   8
ENDBRANCH   5   6
ENDBRANCH   4   5
ENDBRANCH   3   4
ENDBRANCH   2   3
ENDBRANCH   1   2
BRANCH   1  73
ATOM     73  C   UNL A   1      31.404  29.482  24.549  1.00  0.00     0.261 C 
BRANCH  73  74
ATOM     74  O   UNL A   1      30.144  29.609  23.889  1.00  0.00    -0.460 OA
BRANCH  74  75
ATOM     75  C   UNL A   1      30.084  29.104  22.634  1.00  0.00     0.338 C 
ATOM     76  O   UNL A   1      30.000  29.710  21.580  1.00  0.00    -0.246 OA
BRANCH  75  77
ATOM     77  C   UNL A   1      30.171  27.635  22.721  1.00  0.00     0.061 A 
ATOM     78  C   UNL A   1      29.318  26.919  23.567  1.00  0.00     0.016 A 
ATOM     79  C   UNL A   1      31.244  27.006  22.111  1.00  0.00     0.038 A 
ATOM     80  C   UNL A   1      29.598  25.582  23.854  1.00  0.00     0.002 A 
ATOM     81  C   UNL A   1      31.625  25.754  22.558  1.00  0.00     0.088 A 
ATOM     82  C   UNL A   1      30.787  25.009  23.391  1.00  0.00     0.022 A 
BRANCH  81  83
ATOM     83  S   UNL A   1      33.282  25.253  22.174  1.00  0.00     0.261 S 
ATOM     84  O   UNL A   1      33.191  23.946  21.544  1.00  0.00    -0.201 OA
ATOM     85  O   UNL A   1      33.934  26.360  21.523  1.00  0.00    -0.201 OA
BRANCH  83  86
ATOM     86  N   UNL A   1      33.995  24.964  23.689  1.00  0.00    -0.278 N 
ATOM     87  H   UNL A   1      33.936  25.655  24.387  1.00  0.00     0.180 HD
BRANCH  86  88
ATOM     88  C   UNL A   1      34.686  23.730  23.978  1.00  0.00     0.072 A 
ATOM     89  C   UNL A   1      35.928  23.474  23.384  1.00  0.00     0.029 A 
ATOM     90  C   UNL A   1      34.141  22.826  24.935  1.00  0.00     0.061 A 
ATOM     91  C   UNL A   1      36.640  22.319  23.712  1.00  0.00     0.002 A 
ATOM     92  C   UNL A   1      34.881  21.670  25.237  1.00  0.00     0.028 A 
ATOM     93  C   UNL A   1      36.114  21.414  24.630  1.00  0.00     0.002 A 
BRANCH  90  94
ATOM     94  N   UNL A   1      32.941  23.110  25.592  1.00  0.00    -0.365 N 
ATOM     95  C   UNL A   1      32.031  21.984  25.870  1.00  0.00     0.145 C 
ATOM     96  C   UNL A   1      32.914  24.104  26.687  1.00  0.00     0.145 C 
ATOM     97  C   UNL A   1      30.615  22.557  26.052  1.00  0.00     0.181 C 
ATOM     98  C   UNL A   1      31.472  24.598  26.886  1.00  0.00     0.181 C 
ATOM     99  O   UNL A   1      30.570  23.505  27.133  1.00  0.00    -0.378 OA
ENDBRANCH  90  94
ENDBRANCH  86  88
ENDBRANCH  83  86
ENDBRANCH  81  83
ENDBRANCH  75  77
ENDBRANCH  74  75
ENDBRANCH  73  74
ENDBRANCH   1  73
TORSDOF 18
ENDMDL
MODEL 2
REMARK VINA RESULT:     -12.4      1.545      2.692
REMARK SMILES O=C(OCCOCCOC(=O)c1cccc(S(=O)(=O)Nc2ccccc2N2CCOCC2)c1)c1ccc(-c2c3nc(c(-c4c(F)c(F)c(F)c(F)c4F)c4ccc([nH]4)c(-c4c(F)c(F)c(F)c(F)c4F)c4nc(c(-c5c(F)c(F)c(F)c(F)c5F)c5ccc2[nH]5)C=C4)C=C3)cc1
REMARK SMILES IDX 7 1 6 2 5 3 4 4 3 5 2 6 1 7 34 8 35 9 96 10 36 11 95 12
REMARK SMILES IDX 37 13 38 14 39 15 89 16 40 17 94 18 88 19 90 20 41 21 93 22
REMARK SMILES IDX 87 23 86 24 42 26 74 27 54 28 73 29 55 30 58 31 72 32 91 33
REMARK SMILES IDX 56 34 57 35 71 37 92 38 59 39 43 40 44 41 52 42 45 43 46 44
REMARK SMILES IDX 50 45 53 46 47 47 48 48 51 49 49 50 75 51 76 52 84 53 77 54
REMARK SMILES IDX 78 55 82 56 85 57 79 58 80 59 83 60 81 61 60 62 61 63 69 64
REMARK SMILES IDX 62 65 63 66 67 67 70 68 64 69 65 70 68 71 66 72 8 73 9 74
REMARK SMILES IDX 10 75 11 76 12 77 13 78 33 79 14 80 16 81 15 82 17 83 18 84
REMARK SMILES IDX 19 85 20 86 21 88 22 89 26 90 23 91 25 92 24 93 27 94 28 95
REMARK SMILES IDX 32 96 29 97 31 98 30 99
REMARK H PARENT 90 25 58 36 20 87
REMARK Flexibility Score: inf
ROOT
ATOM      1  C   UNL A   1      33.476  30.437  27.250  1.00  0.00     0.202 C 
ENDROOT
BRANCH   1   2
ATOM      2  O   UNL A   1      32.079  30.467  26.954  1.00  0.00    -0.374 OA
BRANCH   2   3
ATOM      3  C   UNL A   1      31.474  31.759  26.874  1.00  0.00     0.202 C 
BRANCH   3   4
ATOM      4  C   UNL A   1      32.506  32.885  26.799  1.00  0.00     0.261 C 
BRANCH   4   5
ATOM      5  O   UNL A   1      32.153  33.959  27.684  1.00  0.00    -0.460 OA
BRANCH   5   6
ATOM      6  C   UNL A   1      32.960  34.648  28.526  1.00  0.00     0.338 C 
ATOM      7  O   UNL A   1      32.649  35.805  28.809  1.00  0.00    -0.246 OA
BRANCH   6   8
ATOM      8  C   UNL A   1      34.193  34.089  29.171  1.00  0.00     0.060 A 
ATOM      9  C   UNL A   1      35.511  34.379  28.813  1.00  0.00     0.016 A 
ATOM     10  C   UNL A   1      33.992  33.253  30.287  1.00  0.00     0.016 A 
ATOM     11  C   UNL A   1      36.588  33.882  29.521  1.00  0.00     0.010 A 
ATOM     12  C   UNL A   1      35.073  32.721  30.997  1.00  0.00     0.010 A 
ATOM     13  C   UNL A   1      36.372  33.035  30.599  1.00  0.00    -0.014 A 
BRANCH  13  14
ATOM     14  C   UNL A   1      37.564  32.369  31.133  1.00  0.00     0.031 A 
ATOM     15  C   UNL A   1      37.990  32.734  32.519  1.00  0.00     0.074 A 
ATOM     16  C   UNL A   1      38.064  31.304  30.484  1.00  0.00     0.049 A 
ATOM     17  N   UNL A   1      38.972  32.265  33.234  1.00  0.00    -0.248 NA
ATOM     18  C   UNL A   1      37.164  33.743  33.212  1.00  0.00     0.031 C 
ATOM     19  C   UNL A   1      37.551  30.777  29.217  1.00  0.00     0.029 A 
ATOM     20  N   UNL A   1      39.067  30.441  30.826  1.00  0.00    -0.354 N 
ATOM     21  C   UNL A   1      38.894  32.929  34.450  1.00  0.00     0.074 A 
ATOM     22  C   UNL A   1      37.763  33.824  34.388  1.00  0.00     0.031 C 
ATOM     23  C   UNL A   1      38.234  29.664  28.898  1.00  0.00     0.029 A 
ATOM     24  C   UNL A   1      39.270  29.446  29.902  1.00  0.00     0.049 A 
ATOM     25  H   UNL A   1      39.592  30.525  31.655  1.00  0.00     0.167 HD
ATOM     26  C   UNL A   1      39.719  32.805  35.513  1.00  0.00     0.037 A 
ATOM     27  C   UNL A   1      40.223  28.497  29.871  1.00  0.00     0.037 A 
ATOM     28  C   UNL A   1      40.849  31.919  35.521  1.00  0.00     0.049 A 
ATOM     29  C   UNL A   1      41.212  28.472  31.007  1.00  0.00     0.074 A 
ATOM     30  C   UNL A   1      41.853  31.794  36.459  1.00  0.00     0.029 A 
ATOM     31  N   UNL A   1      41.113  30.997  34.514  1.00  0.00    -0.354 N 
ATOM     32  N   UNL A   1      41.226  29.193  32.104  1.00  0.00    -0.248 NA
ATOM     33  C   UNL A   1      42.329  27.530  30.891  1.00  0.00     0.031 C 
ATOM     34  C   UNL A   1      42.745  30.815  36.002  1.00  0.00     0.029 A 
ATOM     35  C   UNL A   1      42.273  30.303  34.802  1.00  0.00     0.049 A 
ATOM     36  H   UNL A   1      40.556  30.857  33.715  1.00  0.00     0.167 HD
ATOM     37  C   UNL A   1      42.350  28.794  32.810  1.00  0.00     0.074 A 
ATOM     38  C   UNL A   1      42.972  27.739  32.031  1.00  0.00     0.031 C 
ATOM     39  C   UNL A   1      42.841  29.260  33.986  1.00  0.00     0.037 A 
BRANCH  26  40
ATOM     40  C   UNL A   1      39.470  33.717  36.674  1.00  0.00     0.064 A 
ATOM     41  C   UNL A   1      40.015  35.008  36.734  1.00  0.00     0.173 A 
ATOM     42  C   UNL A   1      38.722  33.266  37.771  1.00  0.00     0.173 A 
ATOM     43  F   UNL A   1      40.774  35.470  35.729  1.00  0.00    -0.203 F 
ATOM     44  C   UNL A   1      39.835  35.807  37.862  1.00  0.00     0.198 A 
ATOM     45  C   UNL A   1      38.528  34.075  38.888  1.00  0.00     0.198 A 
ATOM     46  F   UNL A   1      38.197  32.031  37.770  1.00  0.00    -0.203 F 
ATOM     47  F   UNL A   1      40.410  37.017  37.924  1.00  0.00    -0.200 F 
ATOM     48  C   UNL A   1      39.090  35.341  38.936  1.00  0.00     0.200 A 
ATOM     49  F   UNL A   1      37.813  33.620  39.926  1.00  0.00    -0.200 F 
ATOM     50  F   UNL A   1      38.930  36.106  40.025  1.00  0.00    -0.200 F 
ENDBRANCH  26  40
BRANCH  27  51
ATOM     51  C   UNL A   1      40.338  27.573  28.709  1.00  0.00     0.064 A 
ATOM     52  C   UNL A   1      41.096  27.905  27.578  1.00  0.00     0.173 A 
ATOM     53  C   UNL A   1      39.657  26.344  28.692  1.00  0.00     0.173 A 
ATOM     54  F   UNL A   1      41.749  29.075  27.527  1.00  0.00    -0.203 F 
ATOM     55  C   UNL A   1      41.151  27.057  26.472  1.00  0.00     0.198 A 
ATOM     56  C   UNL A   1      39.740  25.482  27.601  1.00  0.00     0.198 A 
ATOM     57  F   UNL A   1      38.908  25.975  29.743  1.00  0.00    -0.203 F 
ATOM     58  F   UNL A   1      41.839  27.423  25.381  1.00  0.00    -0.200 F 
ATOM     59  C   UNL A   1      40.478  25.843  26.486  1.00  0.00     0.200 A 
ATOM     60  F   UNL A   1      39.098  24.306  27.630  1.00  0.00    -0.200 F 
ATOM     61  F   UNL A   1      40.530  25.030  25.422  1.00  0.00    -0.200 F 
ENDBRANCH  27  51
BRANCH  39  62
ATOM     62  C   UNL A   1      44.097  28.617  34.485  1.00  0.00     0.064 A 
ATOM     63  C   UNL A   1      45.360  29.102  34.115  1.00  0.00     0.173 A 
ATOM     64  C   UNL A   1      44.033  27.534  35.371  1.00  0.00     0.173 A 
ATOM     65  F   UNL A   1      45.464  30.127  33.255  1.00  0.00    -0.203 F 
ATOM     66  C   UNL A   1      46.518  28.506  34.599  1.00  0.00     0.198 A 
ATOM     67  C   UNL A   1      45.194  26.958  35.875  1.00  0.00     0.198 A 
ATOM     68  F   UNL A   1      42.846  27.043  35.756  1.00  0.00    -0.203 F 
ATOM     69  F   UNL A   1      47.716  28.954  34.199  1.00  0.00    -0.200 F 
ATOM     70  C   UNL A   1      46.435  27.440  35.483  1.00  0.00     0.200 A 
ATOM     71  F   UNL A   1      45.113  25.937  36.737  1.00  0.00    -0.200 F 
ATOM     72  F   UNL A   1      47.553  26.871  35.953  1.00  0.00    -0.200 F 
ENDBRANCH  39  62
ENDBRANCH  13  14
ENDBRANCH   6   8
ENDBRANCH   5   6
ENDBRANCH   4   5
ENDBRANCH   3   4
ENDBRANCH   2   3
ENDBRANCH   1   2
BRANCH   1  73
ATOM     73  C   UNL A   1      34.059  29.102  26.815  1.00  0.00     0.261 C 
BRANCH  73  74
ATOM     74  O   UNL A   1      33.353  28.677  25.648  1.00  0.00    -0.460 OA
BRANCH  74  75
ATOM     75  C   UNL A   1      32.915  27.396  25.659  1.00  0.00     0.338 C 
ATOM     76  O   UNL A   1      32.741  26.666  26.619  1.00  0.00    -0.246 OA
BRANCH  75  77
ATOM     77  C   UNL A   1      32.628  26.994  24.270  1.00  0.00     0.061 A 
ATOM     78  C   UNL A   1      31.456  27.416  23.633  1.00  0.00     0.016 A 
ATOM     79  C   UNL A   1      33.434  26.028  23.689  1.00  0.00     0.038 A 
ATOM     80  C   UNL A   1      31.063  26.804  22.442  1.00  0.00     0.002 A 
ATOM     81  C   UNL A   1      32.935  25.293  22.628  1.00  0.00     0.088 A 
ATOM     82  C   UNL A   1      31.776  25.700  21.962  1.00  0.00     0.022 A 
BRANCH  81  83
ATOM     83  S   UNL A   1      33.730  23.743  22.304  1.00  0.00     0.261 S 
ATOM     84  O   UNL A   1      33.404  23.381  20.933  1.00  0.00    -0.201 OA
ATOM     85  O   UNL A   1      35.096  23.849  22.750  1.00  0.00    -0.201 OA
BRANCH  83  86
ATOM     86  N   UNL A   1      32.885  22.628  23.268  1.00  0.00    -0.278 N 
ATOM     87  H   UNL A   1      32.726  21.720  22.924  1.00  0.00     0.180 HD
BRANCH  86  88
ATOM     88  C   UNL A   1      32.392  22.979  24.578  1.00  0.00     0.072 A 
ATOM     89  C   UNL A   1      31.050  23.343  24.740  1.00  0.00     0.029 A 
ATOM     90  C   UNL A   1      33.253  22.864  25.707  1.00  0.00     0.061 A 
ATOM     91  C   UNL A   1      30.543  23.614  26.013  1.00  0.00     0.002 A 
ATOM     92  C   UNL A   1      32.712  23.150  26.973  1.00  0.00     0.028 A 
ATOM     93  C   UNL A   1      31.375  23.526  27.126  1.00  0.00     0.002 A 
BRANCH  90  94
ATOM     94  N   UNL A   1      34.572  22.425  25.566  1.00  0.00    -0.365 N 
ATOM     95  C   UNL A   1      35.635  23.252  26.164  1.00  0.00     0.145 C 
ATOM     96  C   UNL A   1      34.888  20.984  25.675  1.00  0.00     0.145 C 
ATOM     97  C   UNL A   1      36.951  22.926  25.436  1.00  0.00     0.181 C 
ATOM     98  C   UNL A   1      36.243  20.712  25.001  1.00  0.00     0.181 C 
ATOM     99  O   UNL A   1      37.284  21.532  25.559  1.00  0.00    -0.378 OA
ENDBRANCH  90  94
ENDBRANCH  86  88
ENDBRANCH  83  86
ENDBRANCH  81  83
ENDBRANCH  75  77
ENDBRANCH  74  75
ENDBRANCH  73  74
ENDBRANCH   1  73
TORSDOF 18
ENDMDL
MODEL 3
REMARK VINA RESULT:     -12.3      4.734     10.327
REMARK SMILES O=C(OCCOCCOC(=O)c1cccc(S(=O)(=O)Nc2ccccc2N2CCOCC2)c1)c1ccc(-c2c3nc(c(-c4c(F)c(F)c(F)c(F)c4F)c4ccc([nH]4)c(-c4c(F)c(F)c(F)c(F)c4F)c4nc(c(-c5c(F)c(F)c(F)c(F)c5F)c5ccc2[nH]5)C=C4)C=C3)cc1
REMARK SMILES IDX 7 1 6 2 5 3 4 4 3 5 2 6 1 7 34 8 35 9 96 10 36 11 95 12
REMARK SMILES IDX 37 13 38 14 39 15 89 16 40 17 94 18 88 19 90 20 41 21 93 22
REMARK SMILES IDX 87 23 86 24 42 26 74 27 54 28 73 29 55 30 58 31 72 32 91 33
REMARK SMILES IDX 56 34 57 35 71 37 92 38 59 39 43 40 44 41 52 42 45 43 46 44
REMARK SMILES IDX 50 45 53 46 47 47 48 48 51 49 49 50 75 51 76 52 84 53 77 54
REMARK SMILES IDX 78 55 82 56 85 57 79 58 80 59 83 60 81 61 60 62 61 63 69 64
REMARK SMILES IDX 62 65 63 66 67 67 70 68 64 69 65 70 68 71 66 72 8 73 9 74
REMARK SMILES IDX 10 75 11 76 12 77 13 78 33 79 14 80 16 81 15 82 17 83 18 84
REMARK SMILES IDX 19 85 20 86 21 88 22 89 26 90 23 91 25 92 24 93 27 94 28 95
REMARK SMILES IDX 32 96 29 97 31 98 30 99
REMARK H PARENT 90 25 58 36 20 87
REMARK Flexibility Score: inf
ROOT
ATOM      1  C   UNL A   1      37.090  21.885  25.610  1.00  0.00     0.202 C 
ENDROOT
BRANCH   1   2
ATOM      2  O   UNL A   1      37.517  21.055  24.529  1.00  0.00    -0.374 OA
BRANCH   2   3
ATOM      3  C   UNL A   1      38.111  19.805  24.883  1.00  0.00     0.202 C 
BRANCH   3   4
ATOM      4  C   UNL A   1      39.163  19.948  25.983  1.00  0.00     0.261 C 
BRANCH   4   5
ATOM      5  O   UNL A   1      40.331  19.172  25.675  1.00  0.00    -0.460 OA
BRANCH   5   6
ATOM      6  C   UNL A   1      41.624  19.458  25.959  1.00  0.00     0.338 C 
ATOM      7  O   UNL A   1      42.459  18.563  25.823  1.00  0.00    -0.246 OA
BRANCH   6   8
ATOM      8  C   UNL A   1      42.122  20.804  26.394  1.00  0.00     0.060 A 
ATOM      9  C   UNL A   1      42.347  21.210  27.711  1.00  0.00     0.016 A 
ATOM     10  C   UNL A   1      42.460  21.708  25.368  1.00  0.00     0.016 A 
ATOM     11  C   UNL A   1      42.890  22.444  28.014  1.00  0.00     0.010 A 
ATOM     12  C   UNL A   1      42.986  22.971  25.660  1.00  0.00     0.010 A 
ATOM     13  C   UNL A   1      43.189  23.334  26.992  1.00  0.00    -0.014 A 
BRANCH  13  14
ATOM     14  C   UNL A   1      43.528  24.696  27.415  1.00  0.00     0.031 A 
ATOM     15  C   UNL A   1      44.900  25.194  27.088  1.00  0.00     0.074 A 
ATOM     16  C   UNL A   1      42.548  25.514  27.836  1.00  0.00     0.049 A 
ATOM     17  N   UNL A   1      45.431  26.362  27.307  1.00  0.00    -0.248 NA
ATOM     18  C   UNL A   1      45.783  24.252  26.372  1.00  0.00     0.031 C 
ATOM     19  C   UNL A   1      41.141  25.132  27.980  1.00  0.00     0.029 A 
ATOM     20  N   UNL A   1      42.571  26.842  28.158  1.00  0.00    -0.354 N 
ATOM     21  C   UNL A   1      46.711  26.292  26.776  1.00  0.00     0.074 A 
ATOM     22  C   UNL A   1      46.877  24.975  26.208  1.00  0.00     0.031 C 
ATOM     23  C   UNL A   1      40.431  26.213  28.346  1.00  0.00     0.029 A 
ATOM     24  C   UNL A   1      41.344  27.336  28.524  1.00  0.00     0.049 A 
ATOM     25  H   UNL A   1      43.389  27.390  28.130  1.00  0.00     0.167 HD
ATOM     26  C   UNL A   1      47.664  27.250  26.787  1.00  0.00     0.037 A 
ATOM     27  C   UNL A   1      41.023  28.557  28.988  1.00  0.00     0.037 A 
ATOM     28  C   UNL A   1      47.462  28.539  27.387  1.00  0.00     0.049 A 
ATOM     29  C   UNL A   1      42.138  29.563  29.117  1.00  0.00     0.074 A 
ATOM     30  C   UNL A   1      48.373  29.552  27.605  1.00  0.00     0.029 A 
ATOM     31  N   UNL A   1      46.235  28.984  27.867  1.00  0.00    -0.354 N 
ATOM     32  N   UNL A   1      43.392  29.458  28.739  1.00  0.00    -0.248 NA
ATOM     33  C   UNL A   1      41.807  30.839  29.757  1.00  0.00     0.031 C 
ATOM     34  C   UNL A   1      47.703  30.599  28.250  1.00  0.00     0.029 A 
ATOM     35  C   UNL A   1      46.367  30.254  28.393  1.00  0.00     0.049 A 
ATOM     36  H   UNL A   1      45.396  28.469  27.837  1.00  0.00     0.167 HD
ATOM     37  C   UNL A   1      44.000  30.651  29.095  1.00  0.00     0.074 A 
ATOM     38  C   UNL A   1      42.966  31.480  29.687  1.00  0.00     0.031 C 
ATOM     39  C   UNL A   1      45.297  31.031  28.967  1.00  0.00     0.037 A 
BRANCH  26  40
ATOM     40  C   UNL A   1      49.003  26.881  26.229  1.00  0.00     0.064 A 
ATOM     41  C   UNL A   1      49.336  27.108  24.886  1.00  0.00     0.173 A 
ATOM     42  C   UNL A   1      49.946  26.234  27.041  1.00  0.00     0.173 A 
ATOM     43  F   UNL A   1      48.452  27.684  24.058  1.00  0.00    -0.203 F 
ATOM     44  C   UNL A   1      50.558  26.681  24.371  1.00  0.00     0.198 A 
ATOM     45  C   UNL A   1      51.175  25.827  26.528  1.00  0.00     0.198 A 
ATOM     46  F   UNL A   1      49.666  25.976  28.328  1.00  0.00    -0.203 F 
ATOM     47  F   UNL A   1      50.836  26.857  23.071  1.00  0.00    -0.200 F 
ATOM     48  C   UNL A   1      51.478  26.044  25.193  1.00  0.00     0.200 A 
ATOM     49  F   UNL A   1      52.058  25.207  27.323  1.00  0.00    -0.200 F 
ATOM     50  F   UNL A   1      52.648  25.623  24.693  1.00  0.00    -0.200 F 
ENDBRANCH  26  40
BRANCH  27  51
ATOM     51  C   UNL A   1      39.637  28.860  29.439  1.00  0.00     0.064 A 
ATOM     52  C   UNL A   1      39.210  28.579  30.744  1.00  0.00     0.173 A 
ATOM     53  C   UNL A   1      38.693  29.409  28.555  1.00  0.00     0.173 A 
ATOM     54  F   UNL A   1      40.061  28.033  31.626  1.00  0.00    -0.203 F 
ATOM     55  C   UNL A   1      37.893  28.814  31.139  1.00  0.00     0.198 A 
ATOM     56  C   UNL A   1      37.387  29.675  28.961  1.00  0.00     0.198 A 
ATOM     57  F   UNL A   1      39.040  29.691  27.291  1.00  0.00    -0.203 F 
ATOM     58  F   UNL A   1      37.498  28.485  32.378  1.00  0.00    -0.200 F 
ATOM     59  C   UNL A   1      36.984  29.368  30.249  1.00  0.00     0.200 A 
ATOM     60  F   UNL A   1      36.519  30.223  28.099  1.00  0.00    -0.200 F 
ATOM     61  F   UNL A   1      35.719  29.591  30.630  1.00  0.00    -0.200 F 
ENDBRANCH  27  51
BRANCH  39  62
ATOM     62  C   UNL A   1      45.643  32.398  29.466  1.00  0.00     0.064 A 
ATOM     63  C   UNL A   1      45.492  33.530  28.652  1.00  0.00     0.173 A 
ATOM     64  C   UNL A   1      46.089  32.578  30.781  1.00  0.00     0.173 A 
ATOM     65  F   UNL A   1      45.082  33.398  27.381  1.00  0.00    -0.203 F 
ATOM     66  C   UNL A   1      45.801  34.797  29.134  1.00  0.00     0.198 A 
ATOM     67  C   UNL A   1      46.372  33.850  31.268  1.00  0.00     0.198 A 
ATOM     68  F   UNL A   1      46.242  31.523  31.595  1.00  0.00    -0.203 F 
ATOM     69  F   UNL A   1      45.693  35.861  28.328  1.00  0.00    -0.200 F 
ATOM     70  C   UNL A   1      46.233  34.956  30.442  1.00  0.00     0.200 A 
ATOM     71  F   UNL A   1      46.778  34.005  32.535  1.00  0.00    -0.200 F 
ATOM     72  F   UNL A   1      46.524  36.178  30.907  1.00  0.00    -0.200 F 
ENDBRANCH  39  62
ENDBRANCH  13  14
ENDBRANCH   6   8
ENDBRANCH   5   6
ENDBRANCH   4   5
ENDBRANCH   3   4
ENDBRANCH   2   3
ENDBRANCH   1   2
BRANCH   1  73
ATOM     73  C   UNL A   1      37.216  23.346  25.208  1.00  0.00     0.261 C 
BRANCH  73  74
ATOM     74  O   UNL A   1      35.927  23.947  25.338  1.00  0.00    -0.460 OA
BRANCH  74  75
ATOM     75  C   UNL A   1      35.082  23.759  24.296  1.00  0.00     0.338 C 
ATOM     76  O   UNL A   1      35.307  23.900  23.106  1.00  0.00    -0.246 OA
BRANCH  75  77
ATOM     77  C   UNL A   1      33.785  23.302  24.828  1.00  0.00     0.061 A 
ATOM     78  C   UNL A   1      33.202  22.119  24.365  1.00  0.00     0.016 A 
ATOM     79  C   UNL A   1      33.068  24.170  25.636  1.00  0.00     0.038 A 
ATOM     80  C   UNL A   1      31.863  21.852  24.659  1.00  0.00     0.002 A 
ATOM     81  C   UNL A   1      31.699  23.998  25.748  1.00  0.00     0.088 A 
ATOM     82  C   UNL A   1      31.091  22.820  25.309  1.00  0.00     0.022 A 
BRANCH  81  83
ATOM     83  S   UNL A   1      30.773  25.408  26.292  1.00  0.00     0.261 S 
ATOM     84  O   UNL A   1      29.450  24.927  26.657  1.00  0.00    -0.201 OA
ATOM     85  O   UNL A   1      31.593  26.138  27.224  1.00  0.00    -0.201 OA
BRANCH  83  86
ATOM     86  N   UNL A   1      30.536  26.324  24.881  1.00  0.00    -0.278 N 
ATOM     87  H   UNL A   1      29.697  26.826  24.770  1.00  0.00     0.180 HD
BRANCH  86  88
ATOM     88  C   UNL A   1      31.532  26.382  23.838  1.00  0.00     0.072 A 
ATOM     89  C   UNL A   1      31.397  25.573  22.703  1.00  0.00     0.029 A 
ATOM     90  C   UNL A   1      32.594  27.327  23.932  1.00  0.00     0.061 A 
ATOM     91  C   UNL A   1      32.314  25.673  21.654  1.00  0.00     0.002 A 
ATOM     92  C   UNL A   1      33.502  27.397  22.862  1.00  0.00     0.028 A 
ATOM     93  C   UNL A   1      33.370  26.577  21.738  1.00  0.00     0.002 A 
BRANCH  90  94
ATOM     94  N   UNL A   1      32.692  28.193  25.023  1.00  0.00    -0.365 N 
ATOM     95  C   UNL A   1      33.990  28.273  25.718  1.00  0.00     0.145 C 
ATOM     96  C   UNL A   1      32.023  29.513  24.984  1.00  0.00     0.145 C 
ATOM     97  C   UNL A   1      33.730  28.796  27.141  1.00  0.00     0.181 C 
ATOM     98  C   UNL A   1      31.849  30.033  26.419  1.00  0.00     0.181 C 
ATOM     99  O   UNL A   1      33.105  30.091  27.116  1.00  0.00    -0.378 OA
ENDBRANCH  90  94
ENDBRANCH  86  88
ENDBRANCH  83  86
ENDBRANCH  81  83
ENDBRANCH  75  77
ENDBRANCH  74  75
ENDBRANCH  73  74
ENDBRANCH   1  73
TORSDOF 18
ENDMDL
