MODEL 1
REMARK VINA RESULT:     -12.2      0.000      0.000
REMARK SMILES O=C(OCCOCCOC(=O)[C@@H]1CCCN(c2ccc3cc(S(=O)(=O)N4CCCCC4)ccc3n2)C1)c1ccc(-c2c3nc(c(-c4c(F)c(F)c(F)c(F)c4F)c4ccc([nH]4)c(-c4c(F)c(F)c(F)c(F)c4F)c4nc(c(-c5c(F)c(F)c(F)c(F)c5F)c5ccc2[nH]5)C=C4)C=C3)cc1
REMARK SMILES IDX 7 1 6 2 5 3 4 4 3 5 2 6 1 7 37 8 38 9 99 10 39 11 98 12
REMARK SMILES IDX 40 13 41 14 42 15 92 16 43 17 97 18 91 19 93 20 44 21 96 22
REMARK SMILES IDX 90 23 89 24 45 26 77 27 57 28 76 29 58 30 61 31 75 32 94 33
REMARK SMILES IDX 59 34 60 35 74 37 95 38 62 39 46 40 47 41 55 42 48 43 49 44
REMARK SMILES IDX 53 45 56 46 50 47 51 48 54 49 52 50 78 51 79 52 87 53 80 54
REMARK SMILES IDX 81 55 85 56 88 57 82 58 83 59 86 60 84 61 63 62 64 63 72 64
REMARK SMILES IDX 65 65 66 66 70 67 73 68 67 69 68 70 71 71 69 72 8 73 9 74
REMARK SMILES IDX 10 75 11 76 12 77 13 78 36 79 14 80 16 81 15 82 17 83 18 84
REMARK SMILES IDX 35 85 19 86 34 87 20 88 33 89 21 90 32 91 22 92 23 93 24 94
REMARK SMILES IDX 25 95 26 96 27 97 31 98 28 99 30 100 29 101
REMARK H PARENT 93 25 61 36
REMARK Flexibility Score: inf
ROOT
ATOM      1  C   UNL A   1      34.700  21.849  26.405  1.00  0.00     0.202 C 
ENDROOT
BRANCH   1   2
ATOM      2  O   UNL A   1      35.826  22.524  25.843  1.00  0.00    -0.374 OA
BRANCH   2   3
ATOM      3  C   UNL A   1      36.223  22.012  24.568  1.00  0.00     0.202 C 
BRANCH   3   4
ATOM      4  C   UNL A   1      37.379  21.009  24.633  1.00  0.00     0.261 C 
BRANCH   4   5
ATOM      5  O   UNL A   1      37.964  20.987  25.943  1.00  0.00    -0.460 OA
BRANCH   5   6
ATOM      6  C   UNL A   1      39.284  21.126  26.227  1.00  0.00     0.338 C 
ATOM      7  O   UNL A   1      40.033  20.158  26.126  1.00  0.00    -0.246 OA
BRANCH   6   8
ATOM      8  C   UNL A   1      39.882  22.452  26.548  1.00  0.00     0.060 A 
ATOM      9  C   UNL A   1      39.350  23.675  26.134  1.00  0.00     0.016 A 
ATOM     10  C   UNL A   1      41.019  22.464  27.368  1.00  0.00     0.016 A 
ATOM     11  C   UNL A   1      39.982  24.870  26.417  1.00  0.00     0.010 A 
ATOM     12  C   UNL A   1      41.623  23.673  27.724  1.00  0.00     0.010 A 
ATOM     13  C   UNL A   1      41.113  24.878  27.226  1.00  0.00    -0.014 A 
BRANCH  13  14
ATOM     14  C   UNL A   1      41.776  26.169  27.464  1.00  0.00     0.031 A 
ATOM     15  C   UNL A   1      41.133  27.139  28.401  1.00  0.00     0.074 A 
ATOM     16  C   UNL A   1      42.994  26.388  26.936  1.00  0.00     0.049 A 
ATOM     17  N   UNL A   1      41.479  28.360  28.698  1.00  0.00    -0.248 NA
ATOM     18  C   UNL A   1      39.931  26.663  29.108  1.00  0.00     0.031 C 
ATOM     19  C   UNL A   1      43.743  25.426  26.122  1.00  0.00     0.029 A 
ATOM     20  N   UNL A   1      43.832  27.462  27.035  1.00  0.00    -0.354 N 
ATOM     21  C   UNL A   1      40.510  28.820  29.576  1.00  0.00     0.074 A 
ATOM     22  C   UNL A   1      39.570  27.741  29.785  1.00  0.00     0.031 C 
ATOM     23  C   UNL A   1      44.951  25.939  25.839  1.00  0.00     0.029 A 
ATOM     24  C   UNL A   1      45.023  27.294  26.370  1.00  0.00     0.049 A 
ATOM     25  H   UNL A   1      43.605  28.279  27.536  1.00  0.00     0.167 HD
ATOM     26  C   UNL A   1      40.415  30.050  30.132  1.00  0.00     0.037 A 
ATOM     27  C   UNL A   1      46.034  28.164  26.190  1.00  0.00     0.037 A 
ATOM     28  C   UNL A   1      41.388  31.086  29.911  1.00  0.00     0.049 A 
ATOM     29  C   UNL A   1      45.877  29.539  26.784  1.00  0.00     0.074 A 
ATOM     30  C   UNL A   1      41.381  32.395  30.350  1.00  0.00     0.029 A 
ATOM     31  N   UNL A   1      42.558  30.909  29.182  1.00  0.00    -0.354 N 
ATOM     32  N   UNL A   1      44.895  30.023  27.512  1.00  0.00    -0.248 NA
ATOM     33  C   UNL A   1      46.944  30.505  26.501  1.00  0.00     0.031 C 
ATOM     34  C   UNL A   1      42.535  33.021  29.861  1.00  0.00     0.029 A 
ATOM     35  C   UNL A   1      43.282  32.088  29.156  1.00  0.00     0.049 A 
ATOM     36  H   UNL A   1      42.833  30.069  28.748  1.00  0.00     0.167 HD
ATOM     37  C   UNL A   1      45.241  31.333  27.801  1.00  0.00     0.074 A 
ATOM     38  C   UNL A   1      46.526  31.569  27.171  1.00  0.00     0.031 C 
ATOM     39  C   UNL A   1      44.563  32.264  28.519  1.00  0.00     0.037 A 
BRANCH  26  40
ATOM     40  C   UNL A   1      39.181  30.339  30.933  1.00  0.00     0.064 A 
ATOM     41  C   UNL A   1      37.978  30.745  30.338  1.00  0.00     0.173 A 
ATOM     42  C   UNL A   1      39.228  30.269  32.334  1.00  0.00     0.173 A 
ATOM     43  F   UNL A   1      37.889  30.859  29.003  1.00  0.00    -0.203 F 
ATOM     44  C   UNL A   1      36.881  31.110  31.116  1.00  0.00     0.198 A 
ATOM     45  C   UNL A   1      38.121  30.608  33.108  1.00  0.00     0.198 A 
ATOM     46  F   UNL A   1      40.355  29.894  32.956  1.00  0.00    -0.203 F 
ATOM     47  F   UNL A   1      35.766  31.564  30.528  1.00  0.00    -0.200 F 
ATOM     48  C   UNL A   1      36.953  31.040  32.499  1.00  0.00     0.200 A 
ATOM     49  F   UNL A   1      38.193  30.538  34.445  1.00  0.00    -0.200 F 
ATOM     50  F   UNL A   1      35.902  31.407  33.246  1.00  0.00    -0.200 F 
ENDBRANCH  26  40
BRANCH  27  51
ATOM     51  C   UNL A   1      47.233  27.776  25.396  1.00  0.00     0.064 A 
ATOM     52  C   UNL A   1      48.414  27.336  26.013  1.00  0.00     0.173 A 
ATOM     53  C   UNL A   1      47.229  27.839  23.992  1.00  0.00     0.173 A 
ATOM     54  F   UNL A   1      48.508  27.322  27.350  1.00  0.00    -0.203 F 
ATOM     55  C   UNL A   1      49.531  26.966  25.264  1.00  0.00     0.198 A 
ATOM     56  C   UNL A   1      48.335  27.443  23.243  1.00  0.00     0.198 A 
ATOM     57  F   UNL A   1      46.141  28.275  23.340  1.00  0.00    -0.203 F 
ATOM     58  F   UNL A   1      50.660  26.594  25.883  1.00  0.00    -0.200 F 
ATOM     59  C   UNL A   1      49.487  27.009  23.880  1.00  0.00     0.200 A 
ATOM     60  F   UNL A   1      48.285  27.484  21.905  1.00  0.00    -0.200 F 
ATOM     61  F   UNL A   1      50.558  26.651  23.159  1.00  0.00    -0.200 F 
ENDBRANCH  27  51
BRANCH  39  62
ATOM     62  C   UNL A   1      45.227  33.595  28.680  1.00  0.00     0.064 A 
ATOM     63  C   UNL A   1      46.140  33.839  29.716  1.00  0.00     0.173 A 
ATOM     64  C   UNL A   1      44.970  34.624  27.764  1.00  0.00     0.173 A 
ATOM     65  F   UNL A   1      46.404  32.886  30.624  1.00  0.00    -0.203 F 
ATOM     66  C   UNL A   1      46.757  35.079  29.841  1.00  0.00     0.198 A 
ATOM     67  C   UNL A   1      45.609  35.854  27.876  1.00  0.00     0.198 A 
ATOM     68  F   UNL A   1      44.107  34.431  26.754  1.00  0.00    -0.203 F 
ATOM     69  F   UNL A   1      47.594  35.309  30.861  1.00  0.00    -0.200 F 
ATOM     70  C   UNL A   1      46.496  36.082  28.918  1.00  0.00     0.200 A 
ATOM     71  F   UNL A   1      45.366  36.818  26.978  1.00  0.00    -0.200 F 
ATOM     72  F   UNL A   1      47.098  37.274  29.036  1.00  0.00    -0.200 F 
ENDBRANCH  39  62
ENDBRANCH  13  14
ENDBRANCH   6   8
ENDBRANCH   5   6
ENDBRANCH   4   5
ENDBRANCH   3   4
ENDBRANCH   2   3
ENDBRANCH   1   2
BRANCH   1  73
ATOM     73  C   UNL A   1      33.462  22.738  26.317  1.00  0.00     0.261 C 
BRANCH  73  74
ATOM     74  O   UNL A   1      33.836  24.111  26.569  1.00  0.00    -0.463 OA
BRANCH  74  75
ATOM     75  C   UNL A   1      33.412  25.001  25.640  1.00  0.00     0.310 C 
ATOM     76  O   UNL A   1      34.169  25.603  24.880  1.00  0.00    -0.252 OA
BRANCH  75  77
ATOM     77  C   UNL A   1      31.909  25.247  25.639  1.00  0.00     0.118 C 
ATOM     78  C   UNL A   1      31.143  25.310  24.296  1.00  0.00     0.019 C 
ATOM     79  C   UNL A   1      31.661  26.481  26.504  1.00  0.00     0.133 C 
ATOM     80  C   UNL A   1      30.662  26.685  23.768  1.00  0.00     0.022 C 
ATOM     81  N   UNL A   1      31.783  27.665  25.662  1.00  0.00    -0.356 N 
ATOM     82  C   UNL A   1      30.674  27.859  24.753  1.00  0.00     0.118 C 
BRANCH  81  83
ATOM     83  C   UNL A   1      32.449  28.758  26.188  1.00  0.00     0.129 A 
ATOM     84  C   UNL A   1      33.746  28.593  26.672  1.00  0.00     0.047 A 
ATOM     85  N   UNL A   1      31.845  29.963  26.210  1.00  0.00    -0.231 NA
ATOM     86  C   UNL A   1      34.434  29.675  27.208  1.00  0.00     0.014 A 
ATOM     87  C   UNL A   1      32.488  31.004  26.775  1.00  0.00     0.073 A 
ATOM     88  C   UNL A   1      33.798  30.910  27.286  1.00  0.00     0.002 A 
ATOM     89  C   UNL A   1      31.839  32.225  26.888  1.00  0.00     0.030 A 
ATOM     90  C   UNL A   1      34.426  32.022  27.872  1.00  0.00     0.032 A 
ATOM     91  C   UNL A   1      32.443  33.334  27.495  1.00  0.00     0.024 A 
ATOM     92  C   UNL A   1      33.743  33.236  27.985  1.00  0.00     0.083 A 
BRANCH  92  93
ATOM     93  S   UNL A   1      34.604  34.562  28.819  1.00  0.00     0.243 S 
ATOM     94  O   UNL A   1      35.932  34.051  29.087  1.00  0.00    -0.207 OA
ATOM     95  O   UNL A   1      34.405  35.739  28.000  1.00  0.00    -0.207 OA
BRANCH  93  96
ATOM     96  N   UNL A   1      33.834  34.826  30.320  1.00  0.00    -0.198 NA
ATOM     97  C   UNL A   1      34.634  34.483  31.523  1.00  0.00     0.102 C 
ATOM     98  C   UNL A   1      32.904  35.978  30.376  1.00  0.00     0.102 C 
ATOM     99  C   UNL A   1      33.861  34.662  32.822  1.00  0.00     0.017 C 
ATOM    100  C   UNL A   1      32.173  36.077  31.706  1.00  0.00     0.017 C 
ATOM    101  C   UNL A   1      33.146  36.001  32.870  1.00  0.00     0.003 C 
ENDBRANCH  93  96
ENDBRANCH  92  93
ENDBRANCH  81  83
ENDBRANCH  75  77
ENDBRANCH  74  75
ENDBRANCH  73  74
ENDBRANCH   1  73
TORSDOF 17
ENDMDL
MODEL 2
REMARK VINA RESULT:     -11.5      7.345     13.052
REMARK SMILES O=C(OCCOCCOC(=O)[C@@H]1CCCN(c2ccc3cc(S(=O)(=O)N4CCCCC4)ccc3n2)C1)c1ccc(-c2c3nc(c(-c4c(F)c(F)c(F)c(F)c4F)c4ccc([nH]4)c(-c4c(F)c(F)c(F)c(F)c4F)c4nc(c(-c5c(F)c(F)c(F)c(F)c5F)c5ccc2[nH]5)C=C4)C=C3)cc1
REMARK SMILES IDX 7 1 6 2 5 3 4 4 3 5 2 6 1 7 37 8 38 9 99 10 39 11 98 12
REMARK SMILES IDX 40 13 41 14 42 15 92 16 43 17 97 18 91 19 93 20 44 21 96 22
REMARK SMILES IDX 90 23 89 24 45 26 77 27 57 28 76 29 58 30 61 31 75 32 94 33
REMARK SMILES IDX 59 34 60 35 74 37 95 38 62 39 46 40 47 41 55 42 48 43 49 44
REMARK SMILES IDX 53 45 56 46 50 47 51 48 54 49 52 50 78 51 79 52 87 53 80 54
REMARK SMILES IDX 81 55 85 56 88 57 82 58 83 59 86 60 84 61 63 62 64 63 72 64
REMARK SMILES IDX 65 65 66 66 70 67 73 68 67 69 68 70 71 71 69 72 8 73 9 74
REMARK SMILES IDX 10 75 11 76 12 77 13 78 36 79 14 80 16 81 15 82 17 83 18 84
REMARK SMILES IDX 35 85 19 86 34 87 20 88 33 89 21 90 32 91 22 92 23 93 24 94
REMARK SMILES IDX 25 95 26 96 27 97 31 98 28 99 30 100 29 101
REMARK H PARENT 93 25 61 36
REMARK Flexibility Score: inf
ROOT
ATOM      1  C   UNL A   1      47.241  37.893  25.688  1.00  0.00     0.202 C 
ENDROOT
BRANCH   1   2
ATOM      2  O   UNL A   1      48.538  37.304  25.792  1.00  0.00    -0.374 OA
BRANCH   2   3
ATOM      3  C   UNL A   1      48.832  36.790  27.094  1.00  0.00     0.202 C 
BRANCH   3   4
ATOM      4  C   UNL A   1      48.555  37.777  28.231  1.00  0.00     0.261 C 
BRANCH   4   5
ATOM      5  O   UNL A   1      48.133  37.086  29.417  1.00  0.00    -0.460 OA
BRANCH   5   6
ATOM      6  C   UNL A   1      46.850  36.839  29.779  1.00  0.00     0.338 C 
ATOM      7  O   UNL A   1      46.152  37.754  30.208  1.00  0.00    -0.246 OA
BRANCH   6   8
ATOM      8  C   UNL A   1      46.216  35.508  29.562  1.00  0.00     0.060 A 
ATOM      9  C   UNL A   1      46.309  34.439  30.455  1.00  0.00     0.016 A 
ATOM     10  C   UNL A   1      45.429  35.350  28.412  1.00  0.00     0.016 A 
ATOM     11  C   UNL A   1      45.743  33.210  30.171  1.00  0.00     0.010 A 
ATOM     12  C   UNL A   1      44.789  34.135  28.153  1.00  0.00     0.010 A 
ATOM     13  C   UNL A   1      44.968  33.055  29.027  1.00  0.00    -0.014 A 
BRANCH  13  14
ATOM     14  C   UNL A   1      44.423  31.718  28.744  1.00  0.00     0.031 A 
ATOM     15  C   UNL A   1      43.034  31.405  29.196  1.00  0.00     0.074 A 
ATOM     16  C   UNL A   1      45.135  30.867  27.985  1.00  0.00     0.049 A 
ATOM     17  N   UNL A   1      42.377  30.280  29.140  1.00  0.00    -0.248 NA
ATOM     18  C   UNL A   1      42.275  32.519  29.790  1.00  0.00     0.031 C 
ATOM     19  C   UNL A   1      46.444  31.160  27.394  1.00  0.00     0.029 A 
ATOM     20  N   UNL A   1      44.849  29.606  27.545  1.00  0.00    -0.354 N 
ATOM     21  C   UNL A   1      41.154  30.532  29.743  1.00  0.00     0.074 A 
ATOM     22  C   UNL A   1      41.147  31.922  30.140  1.00  0.00     0.031 C 
ATOM     23  C   UNL A   1      46.821  30.125  26.628  1.00  0.00     0.029 A 
ATOM     24  C   UNL A   1      45.830  29.064  26.750  1.00  0.00     0.049 A 
ATOM     25  H   UNL A   1      44.018  29.130  27.776  1.00  0.00     0.167 HD
ATOM     26  C   UNL A   1      40.145  29.658  29.961  1.00  0.00     0.037 A 
ATOM     27  C   UNL A   1      45.917  27.831  26.217  1.00  0.00     0.037 A 
ATOM     28  C   UNL A   1      40.190  28.287  29.528  1.00  0.00     0.049 A 
ATOM     29  C   UNL A   1      44.798  26.868  26.516  1.00  0.00     0.074 A 
ATOM     30  C   UNL A   1      39.274  27.276  29.742  1.00  0.00     0.029 A 
ATOM     31  N   UNL A   1      41.224  27.744  28.774  1.00  0.00    -0.354 N 
ATOM     32  N   UNL A   1      43.692  27.064  27.200  1.00  0.00    -0.248 NA
ATOM     33  C   UNL A   1      44.951  25.501  26.006  1.00  0.00     0.031 C 
ATOM     34  C   UNL A   1      39.769  26.111  29.143  1.00  0.00     0.029 A 
ATOM     35  C   UNL A   1      40.971  26.408  28.516  1.00  0.00     0.049 A 
ATOM     36  H   UNL A   1      42.020  28.237  28.468  1.00  0.00     0.167 HD
ATOM     37  C   UNL A   1      43.006  25.861  27.174  1.00  0.00     0.074 A 
ATOM     38  C   UNL A   1      43.819  24.939  26.405  1.00  0.00     0.031 C 
ATOM     39  C   UNL A   1      41.814  25.538  27.735  1.00  0.00     0.037 A 
BRANCH  26  40
ATOM     40  C   UNL A   1      38.984  30.150  30.772  1.00  0.00     0.064 A 
ATOM     41  C   UNL A   1      37.917  30.859  30.201  1.00  0.00     0.173 A 
ATOM     42  C   UNL A   1      38.976  29.961  32.163  1.00  0.00     0.173 A 
ATOM     43  F   UNL A   1      37.892  31.095  28.880  1.00  0.00    -0.203 F 
ATOM     44  C   UNL A   1      36.907  31.396  30.997  1.00  0.00     0.198 A 
ATOM     45  C   UNL A   1      37.950  30.476  32.952  1.00  0.00     0.198 A 
ATOM     46  F   UNL A   1      39.975  29.298  32.762  1.00  0.00    -0.203 F 
ATOM     47  F   UNL A   1      35.936  32.131  30.439  1.00  0.00    -0.200 F 
ATOM     48  C   UNL A   1      36.924  31.203  32.371  1.00  0.00     0.200 A 
ATOM     49  F   UNL A   1      37.968  30.286  34.279  1.00  0.00    -0.200 F 
ATOM     50  F   UNL A   1      35.960  31.735  33.136  1.00  0.00    -0.200 F 
ENDBRANCH  26  40
BRANCH  27  51
ATOM     51  C   UNL A   1      47.102  27.440  25.403  1.00  0.00     0.064 A 
ATOM     52  C   UNL A   1      48.196  26.770  25.972  1.00  0.00     0.173 A 
ATOM     53  C   UNL A   1      47.171  27.730  24.031  1.00  0.00     0.173 A 
ATOM     54  F   UNL A   1      48.225  26.528  27.289  1.00  0.00    -0.203 F 
ATOM     55  C   UNL A   1      49.299  26.399  25.203  1.00  0.00     0.198 A 
ATOM     56  C   UNL A   1      48.261  27.334  23.257  1.00  0.00     0.198 A 
ATOM     57  F   UNL A   1      46.170  28.391  23.430  1.00  0.00    -0.203 F 
ATOM     58  F   UNL A   1      50.350  25.802  25.783  1.00  0.00    -0.200 F 
ATOM     59  C   UNL A   1      49.326  26.671  23.845  1.00  0.00     0.200 A 
ATOM     60  F   UNL A   1      48.279  27.599  21.944  1.00  0.00    -0.200 F 
ATOM     61  F   UNL A   1      50.383  26.312  23.105  1.00  0.00    -0.200 F 
ENDBRANCH  27  51
BRANCH  39  62
ATOM     62  C   UNL A   1      41.319  24.146  27.496  1.00  0.00     0.064 A 
ATOM     63  C   UNL A   1      40.251  23.887  26.626  1.00  0.00     0.173 A 
ATOM     64  C   UNL A   1      41.949  23.060  28.119  1.00  0.00     0.173 A 
ATOM     65  F   UNL A   1      39.611  24.898  26.019  1.00  0.00    -0.203 F 
ATOM     66  C   UNL A   1      39.815  22.584  26.406  1.00  0.00     0.198 A 
ATOM     67  C   UNL A   1      41.527  21.758  27.877  1.00  0.00     0.198 A 
ATOM     68  F   UNL A   1      42.979  23.264  28.955  1.00  0.00    -0.203 F 
ATOM     69  F   UNL A   1      38.765  22.357  25.605  1.00  0.00    -0.200 F 
ATOM     70  C   UNL A   1      40.457  21.522  27.027  1.00  0.00     0.200 A 
ATOM     71  F   UNL A   1      42.155  20.732  28.467  1.00  0.00    -0.200 F 
ATOM     72  F   UNL A   1      40.040  20.267  26.808  1.00  0.00    -0.200 F 
ENDBRANCH  39  62
ENDBRANCH  13  14
ENDBRANCH   6   8
ENDBRANCH   5   6
ENDBRANCH   4   5
ENDBRANCH   3   4
ENDBRANCH   2   3
ENDBRANCH   1   2
BRANCH   1  73
ATOM     73  C   UNL A   1      47.321  39.192  24.889  1.00  0.00     0.261 C 
BRANCH  73  74
ATOM     74  O   UNL A   1      46.039  39.858  24.926  1.00  0.00    -0.463 OA
BRANCH  74  75
ATOM     75  C   UNL A   1      46.072  41.144  25.349  1.00  0.00     0.310 C 
ATOM     76  O   UNL A   1      46.952  41.942  25.030  1.00  0.00    -0.252 OA
BRANCH  75  77
ATOM     77  C   UNL A   1      44.952  41.524  26.310  1.00  0.00     0.118 C 
ATOM     78  C   UNL A   1      44.098  40.415  26.968  1.00  0.00     0.019 C 
ATOM     79  C   UNL A   1      44.095  42.570  25.600  1.00  0.00     0.133 C 
ATOM     80  C   UNL A   1      42.648  40.189  26.473  1.00  0.00     0.022 C 
ATOM     81  N   UNL A   1      43.084  41.876  24.810  1.00  0.00    -0.356 N 
ATOM     82  C   UNL A   1      42.026  41.282  25.597  1.00  0.00     0.118 C 
BRANCH  81  83
ATOM     83  C   UNL A   1      42.817  42.364  23.544  1.00  0.00     0.129 A 
ATOM     84  C   UNL A   1      41.494  42.425  23.105  1.00  0.00     0.047 A 
ATOM     85  N   UNL A   1      43.829  42.789  22.762  1.00  0.00    -0.231 NA
ATOM     86  C   UNL A   1      41.201  42.909  21.836  1.00  0.00     0.014 A 
ATOM     87  C   UNL A   1      43.556  43.213  21.512  1.00  0.00     0.073 A 
ATOM     88  C   UNL A   1      42.244  43.298  21.002  1.00  0.00     0.002 A 
ATOM     89  C   UNL A   1      44.598  43.563  20.668  1.00  0.00     0.030 A 
ATOM     90  C   UNL A   1      42.007  43.739  19.689  1.00  0.00     0.032 A 
ATOM     91  C   UNL A   1      44.378  43.978  19.348  1.00  0.00     0.024 A 
ATOM     92  C   UNL A   1      43.079  44.073  18.856  1.00  0.00     0.083 A 
BRANCH  92  93
ATOM     93  S   UNL A   1      42.671  44.544  17.181  1.00  0.00     0.243 S 
ATOM     94  O   UNL A   1      43.480  43.694  16.332  1.00  0.00    -0.207 OA
ATOM     95  O   UNL A   1      41.226  44.521  17.105  1.00  0.00    -0.207 OA
BRANCH  93  96
ATOM     96  N   UNL A   1      43.187  46.155  16.948  1.00  0.00    -0.198 NA
ATOM     97  C   UNL A   1      42.280  47.206  17.474  1.00  0.00     0.102 C 
ATOM     98  C   UNL A   1      44.652  46.377  16.996  1.00  0.00     0.102 C 
ATOM     99  C   UNL A   1      42.758  48.616  17.160  1.00  0.00     0.017 C 
ATOM    100  C   UNL A   1      45.038  47.811  16.666  1.00  0.00     0.017 C 
ATOM    101  C   UNL A   1      44.229  48.797  17.490  1.00  0.00     0.003 C 
ENDBRANCH  93  96
ENDBRANCH  92  93
ENDBRANCH  81  83
ENDBRANCH  75  77
ENDBRANCH  74  75
ENDBRANCH  73  74
ENDBRANCH   1  73
TORSDOF 17
ENDMDL
MODEL 3
REMARK VINA RESULT:     -11.3      1.580      7.232
REMARK SMILES O=C(OCCOCCOC(=O)[C@@H]1CCCN(c2ccc3cc(S(=O)(=O)N4CCCCC4)ccc3n2)C1)c1ccc(-c2c3nc(c(-c4c(F)c(F)c(F)c(F)c4F)c4ccc([nH]4)c(-c4c(F)c(F)c(F)c(F)c4F)c4nc(c(-c5c(F)c(F)c(F)c(F)c5F)c5ccc2[nH]5)C=C4)C=C3)cc1
REMARK SMILES IDX 7 1 6 2 5 3 4 4 3 5 2 6 1 7 37 8 38 9 99 10 39 11 98 12
REMARK SMILES IDX 40 13 41 14 42 15 92 16 43 17 97 18 91 19 93 20 44 21 96 22
REMARK SMILES IDX 90 23 89 24 45 26 77 27 57 28 76 29 58 30 61 31 75 32 94 33
REMARK SMILES IDX 59 34 60 35 74 37 95 38 62 39 46 40 47 41 55 42 48 43 49 44
REMARK SMILES IDX 53 45 56 46 50 47 51 48 54 49 52 50 78 51 79 52 87 53 80 54
REMARK SMILES IDX 81 55 85 56 88 57 82 58 83 59 86 60 84 61 63 62 64 63 72 64
REMARK SMILES IDX 65 65 66 66 70 67 73 68 67 69 68 70 71 71 69 72 8 73 9 74
REMARK SMILES IDX 10 75 11 76 12 77 13 78 36 79 14 80 16 81 15 82 17 83 18 84
REMARK SMILES IDX 35 85 19 86 34 87 20 88 33 89 21 90 32 91 22 92 23 93 24 94
REMARK SMILES IDX 25 95 26 96 27 97 31 98 28 99 30 100 29 101
REMARK H PARENT 93 25 61 36
REMARK Flexibility Score: inf
ROOT
ATOM      1  C   UNL A   1      33.571  21.088  25.634  1.00  0.00     0.202 C 
ENDROOT
BRANCH   1   2
ATOM      2  O   UNL A   1      34.951  21.371  25.867  1.00  0.00    -0.374 OA
BRANCH   2   3
ATOM      3  C   UNL A   1      35.836  20.676  24.983  1.00  0.00     0.202 C 
BRANCH   3   4
ATOM      4  C   UNL A   1      37.092  21.468  24.609  1.00  0.00     0.261 C 
BRANCH   4   5
ATOM      5  O   UNL A   1      37.618  22.162  25.751  1.00  0.00    -0.460 OA
BRANCH   5   6
ATOM      6  C   UNL A   1      38.887  22.071  26.222  1.00  0.00     0.338 C 
ATOM      7  O   UNL A   1      39.510  21.021  26.090  1.00  0.00    -0.246 OA
BRANCH   6   8
ATOM      8  C   UNL A   1      39.598  23.249  26.793  1.00  0.00     0.060 A 
ATOM      9  C   UNL A   1      39.262  24.577  26.521  1.00  0.00     0.016 A 
ATOM     10  C   UNL A   1      40.631  22.996  27.707  1.00  0.00     0.016 A 
ATOM     11  C   UNL A   1      39.995  25.627  27.039  1.00  0.00     0.010 A 
ATOM     12  C   UNL A   1      41.329  24.054  28.296  1.00  0.00     0.010 A 
ATOM     13  C   UNL A   1      41.023  25.373  27.940  1.00  0.00    -0.014 A 
BRANCH  13  14
ATOM     14  C   UNL A   1      41.803  26.520  28.431  1.00  0.00     0.031 A 
ATOM     15  C   UNL A   1      43.175  26.735  27.880  1.00  0.00     0.074 A 
ATOM     16  C   UNL A   1      41.220  27.404  29.259  1.00  0.00     0.049 A 
ATOM     17  N   UNL A   1      44.077  27.615  28.218  1.00  0.00    -0.248 NA
ATOM     18  C   UNL A   1      43.589  25.836  26.788  1.00  0.00     0.031 C 
ATOM     19  C   UNL A   1      39.834  27.328  29.730  1.00  0.00     0.029 A 
ATOM     20  N   UNL A   1      41.697  28.556  29.818  1.00  0.00    -0.354 N 
ATOM     21  C   UNL A   1      45.182  27.340  27.428  1.00  0.00     0.074 A 
ATOM     22  C   UNL A   1      44.835  26.225  26.574  1.00  0.00     0.031 C 
ATOM     23  C   UNL A   1      39.561  28.416  30.466  1.00  0.00     0.029 A 
ATOM     24  C   UNL A   1      40.774  29.214  30.595  1.00  0.00     0.049 A 
ATOM     25  H   UNL A   1      42.615  28.884  29.677  1.00  0.00     0.167 HD
ATOM     26  C   UNL A   1      46.384  27.959  27.444  1.00  0.00     0.037 A 
ATOM     27  C   UNL A   1      40.921  30.318  31.351  1.00  0.00     0.037 A 
ATOM     28  C   UNL A   1      46.676  29.079  28.298  1.00  0.00     0.049 A 
ATOM     29  C   UNL A   1      42.284  30.958  31.381  1.00  0.00     0.074 A 
ATOM     30  C   UNL A   1      47.867  29.757  28.470  1.00  0.00     0.029 A 
ATOM     31  N   UNL A   1      45.739  29.692  29.123  1.00  0.00    -0.354 N 
ATOM     32  N   UNL A   1      43.376  30.621  30.730  1.00  0.00    -0.248 NA
ATOM     33  C   UNL A   1      42.453  32.105  32.280  1.00  0.00     0.031 C 
ATOM     34  C   UNL A   1      47.659  30.761  29.423  1.00  0.00     0.029 A 
ATOM     35  C   UNL A   1      46.327  30.739  29.811  1.00  0.00     0.049 A 
ATOM     36  H   UNL A   1      44.796  29.421  29.206  1.00  0.00     0.167 HD
ATOM     37  C   UNL A   1      44.348  31.531  31.113  1.00  0.00     0.074 A 
ATOM     38  C   UNL A   1      43.716  32.437  32.054  1.00  0.00     0.031 C 
ATOM     39  C   UNL A   1      45.646  31.615  30.730  1.00  0.00     0.037 A 
BRANCH  26  40
ATOM     40  C   UNL A   1      47.465  27.367  26.589  1.00  0.00     0.064 A 
ATOM     41  C   UNL A   1      48.398  26.449  27.090  1.00  0.00     0.173 A 
ATOM     42  C   UNL A   1      47.603  27.781  25.256  1.00  0.00     0.173 A 
ATOM     43  F   UNL A   1      48.329  26.044  28.369  1.00  0.00    -0.203 F 
ATOM     44  C   UNL A   1      49.455  25.999  26.301  1.00  0.00     0.198 A 
ATOM     45  C   UNL A   1      48.644  27.309  24.461  1.00  0.00     0.198 A 
ATOM     46  F   UNL A   1      46.743  28.664  24.728  1.00  0.00    -0.203 F 
ATOM     47  F   UNL A   1      50.376  25.177  26.822  1.00  0.00    -0.200 F 
ATOM     48  C   UNL A   1      49.576  26.428  24.987  1.00  0.00     0.200 A 
ATOM     49  F   UNL A   1      48.759  27.724  23.191  1.00  0.00    -0.200 F 
ATOM     50  F   UNL A   1      50.603  26.007  24.235  1.00  0.00    -0.200 F 
ENDBRANCH  26  40
BRANCH  27  51
ATOM     51  C   UNL A   1      39.780  30.846  32.150  1.00  0.00     0.064 A 
ATOM     52  C   UNL A   1      39.458  30.318  33.409  1.00  0.00     0.173 A 
ATOM     53  C   UNL A   1      38.979  31.895  31.670  1.00  0.00     0.173 A 
ATOM     54  F   UNL A   1      40.137  29.269  33.892  1.00  0.00    -0.203 F 
ATOM     55  C   UNL A   1      38.393  30.822  34.157  1.00  0.00     0.198 A 
ATOM     56  C   UNL A   1      37.933  32.418  32.430  1.00  0.00     0.198 A 
ATOM     57  F   UNL A   1      39.217  32.429  30.463  1.00  0.00    -0.203 F 
ATOM     58  F   UNL A   1      38.081  30.268  35.336  1.00  0.00    -0.200 F 
ATOM     59  C   UNL A   1      37.640  31.879  33.672  1.00  0.00     0.200 A 
ATOM     60  F   UNL A   1      37.210  33.441  31.956  1.00  0.00    -0.200 F 
ATOM     61  F   UNL A   1      36.620  32.366  34.391  1.00  0.00    -0.200 F 
ENDBRANCH  27  51
BRANCH  39  62
ATOM     62  C   UNL A   1      46.439  32.747  31.305  1.00  0.00     0.064 A 
ATOM     63  C   UNL A   1      47.147  32.611  32.507  1.00  0.00     0.173 A 
ATOM     64  C   UNL A   1      46.516  33.969  30.622  1.00  0.00     0.173 A 
ATOM     65  F   UNL A   1      47.089  31.463  33.201  1.00  0.00    -0.203 F 
ATOM     66  C   UNL A   1      47.889  33.670  33.018  1.00  0.00     0.198 A 
ATOM     67  C   UNL A   1      47.280  35.017  31.122  1.00  0.00     0.198 A 
ATOM     68  F   UNL A   1      45.858  34.140  29.465  1.00  0.00    -0.203 F 
ATOM     69  F   UNL A   1      48.525  33.537  34.190  1.00  0.00    -0.200 F 
ATOM     70  C   UNL A   1      47.960  34.869  32.322  1.00  0.00     0.200 A 
ATOM     71  F   UNL A   1      47.357  36.170  30.444  1.00  0.00    -0.200 F 
ATOM     72  F   UNL A   1      48.682  35.887  32.812  1.00  0.00    -0.200 F 
ENDBRANCH  39  62
ENDBRANCH  13  14
ENDBRANCH   6   8
ENDBRANCH   5   6
ENDBRANCH   4   5
ENDBRANCH   3   4
ENDBRANCH   2   3
ENDBRANCH   1   2
BRANCH   1  73
ATOM     73  C   UNL A   1      32.734  22.343  25.872  1.00  0.00     0.261 C 
BRANCH  73  74
ATOM     74  O   UNL A   1      33.499  23.510  25.494  1.00  0.00    -0.463 OA
BRANCH  74  75
ATOM     75  C   UNL A   1      33.044  24.163  24.398  1.00  0.00     0.310 C 
ATOM     76  O   UNL A   1      33.760  24.479  23.449  1.00  0.00    -0.252 OA
BRANCH  75  77
ATOM     77  C   UNL A   1      31.567  24.532  24.449  1.00  0.00     0.118 C 
ATOM     78  C   UNL A   1      30.820  24.883  23.140  1.00  0.00     0.019 C 
ATOM     79  C   UNL A   1      31.418  25.620  25.510  1.00  0.00     0.133 C 
ATOM     80  C   UNL A   1      30.460  26.363  22.854  1.00  0.00     0.022 C 
ATOM     81  N   UNL A   1      31.645  26.914  24.877  1.00  0.00    -0.356 N 
ATOM     82  C   UNL A   1      30.563  27.350  24.021  1.00  0.00     0.118 C 
BRANCH  81  83
ATOM     83  C   UNL A   1      32.396  27.843  25.574  1.00  0.00     0.129 A 
ATOM     84  C   UNL A   1      33.660  27.481  26.039  1.00  0.00     0.047 A 
ATOM     85  N   UNL A   1      31.907  29.082  25.779  1.00  0.00    -0.231 NA
ATOM     86  C   UNL A   1      34.432  28.396  26.745  1.00  0.00     0.014 A 
ATOM     87  C   UNL A   1      32.630  29.957  26.506  1.00  0.00     0.073 A 
ATOM     88  C   UNL A   1      33.913  29.659  27.009  1.00  0.00     0.002 A 
ATOM     89  C   UNL A   1      32.096  31.202  26.801  1.00  0.00     0.030 A 
ATOM     90  C   UNL A   1      34.627  30.602  27.768  1.00  0.00     0.032 A 
ATOM     91  C   UNL A   1      32.785  32.140  27.581  1.00  0.00     0.024 A 
ATOM     92  C   UNL A   1      34.057  31.844  28.062  1.00  0.00     0.083 A 
BRANCH  92  93
ATOM     93  S   UNL A   1      35.018  32.936  29.102  1.00  0.00     0.243 S 
ATOM     94  O   UNL A   1      35.198  32.222  30.349  1.00  0.00    -0.207 OA
ATOM     95  O   UNL A   1      36.152  33.346  28.303  1.00  0.00    -0.207 OA
BRANCH  93  96
ATOM     96  N   UNL A   1      34.070  34.320  29.426  1.00  0.00    -0.198 NA
ATOM     97  C   UNL A   1      33.873  34.644  30.861  1.00  0.00     0.102 C 
ATOM     98  C   UNL A   1      34.185  35.425  28.445  1.00  0.00     0.102 C 
ATOM     99  C   UNL A   1      32.953  35.836  31.080  1.00  0.00     0.017 C 
ATOM    100  C   UNL A   1      33.228  36.570  28.739  1.00  0.00     0.017 C 
ATOM    101  C   UNL A   1      33.330  37.008  30.190  1.00  0.00     0.003 C 
ENDBRANCH  93  96
ENDBRANCH  92  93
ENDBRANCH  81  83
ENDBRANCH  75  77
ENDBRANCH  74  75
ENDBRANCH  73  74
ENDBRANCH   1  73
TORSDOF 17
ENDMDL
