MODEL 1
REMARK VINA RESULT:     -11.9      0.000      0.000
REMARK SMILES CC1(C)C[C@](CC(=O)OCCOCCOC(=O)c2ccc(-c3c4nc(c(-c5c(F)c(F)c(F)c(F)c5F)c5ccc([nH]5)c(-c5c(F)c(F)c(F)c(F)c5F)c5nc(c(-c6c(F)c(F)c(F)c(F)c6F)c6ccc3[nH]6)C=C5)C=C4)cc2)([NH+]2CCCC2)C(C)(C)O1
REMARK SMILES IDX 12 1 11 2 10 3 9 4 7 5 8 6 6 7 5 8 1 9 2 10 3 11 4 12 89 13
REMARK SMILES IDX 86 14 87 15 88 16 81 17 82 18 85 19 83 21 84 22 13 23 14 24
REMARK SMILES IDX 15 25 16 26 17 27 18 28 19 29 80 30 20 31 79 32 21 33 22 34
REMARK SMILES IDX 23 35 73 36 24 37 78 38 72 39 74 40 25 41 77 42 71 43 70 44
REMARK SMILES IDX 26 46 58 47 38 48 57 49 39 50 42 51 56 52 75 53 40 54 41 55
REMARK SMILES IDX 55 57 76 58 43 59 27 60 28 61 36 62 29 63 30 64 34 65 37 66
REMARK SMILES IDX 31 67 32 68 35 69 33 70 59 71 60 72 68 73 61 74 62 75 66 76
REMARK SMILES IDX 69 77 63 78 64 79 67 80 65 81 44 82 45 83 53 84 46 85 47 86
REMARK SMILES IDX 51 87 54 88 48 89 49 90 52 91 50 92
REMARK H PARENT 81 20 74 45 42 56
REMARK Flexibility Score: inf
ROOT
ATOM      1  O   UNL A   1      31.257  29.153  24.664  1.00  0.00    -0.374 OA
ENDROOT
BRANCH   1   2
ATOM      2  C   UNL A   1      30.821  27.801  24.806  1.00  0.00     0.202 C 
BRANCH   2   3
ATOM      3  C   UNL A   1      31.476  26.997  25.935  1.00  0.00     0.261 C 
BRANCH   3   4
ATOM      4  O   UNL A   1      30.717  25.847  26.389  1.00  0.00    -0.463 OA
BRANCH   4   5
ATOM      5  C   UNL A   1      31.425  24.699  26.516  1.00  0.00     0.312 C 
ATOM      6  O   UNL A   1      31.083  23.770  27.245  1.00  0.00    -0.252 OA
BRANCH   5   7
ATOM      7  C   UNL A   1      32.772  24.660  25.819  1.00  0.00     0.194 C 
BRANCH   7   8
ATOM      8  C   UNL A   1      33.171  23.804  24.569  1.00  0.00     0.140 C 
ATOM      9  C   UNL A   1      32.176  20.284  24.886  1.00  0.00     0.042 C 
ATOM     10  C   UNL A   1      32.590  21.439  23.958  1.00  0.00     0.070 C 
ATOM     11  C   UNL A   1      32.152  21.015  22.546  1.00  0.00     0.042 C 
ATOM     12  C   UNL A   1      31.993  22.773  24.414  1.00  0.00     0.107 C 
ATOM     13  O   UNL A   1      34.019  21.596  24.009  1.00  0.00    -0.363 OA
ATOM     14  C   UNL A   1      34.365  22.789  24.777  1.00  0.00     0.118 C 
ATOM     15  C   UNL A   1      34.559  22.324  26.236  1.00  0.00     0.049 C 
ATOM     16  C   UNL A   1      35.744  23.245  24.282  1.00  0.00     0.049 C 
BRANCH   8  17
ATOM     17  N   UNL A   1      33.146  24.635  23.329  1.00  0.00    -0.327 N 
ATOM     18  C   UNL A   1      31.870  24.870  22.678  1.00  0.00     0.263 C 
ATOM     19  C   UNL A   1      33.918  25.875  23.262  1.00  0.00     0.263 C 
ATOM     20  H   UNL A   1      33.668  23.931  22.807  1.00  0.00     0.348 HD
ATOM     21  C   UNL A   1      32.150  25.956  21.655  1.00  0.00     0.067 C 
ATOM     22  C   UNL A   1      33.165  26.829  22.346  1.00  0.00     0.067 C 
ENDBRANCH   8  17
ENDBRANCH   7   8
ENDBRANCH   5   7
ENDBRANCH   4   5
ENDBRANCH   3   4
ENDBRANCH   2   3
ENDBRANCH   1   2
BRANCH   1  23
ATOM     23  C   UNL A   1      32.247  29.607  25.583  1.00  0.00     0.202 C 
BRANCH  23  24
ATOM     24  C   UNL A   1      31.856  30.878  26.344  1.00  0.00     0.261 C 
BRANCH  24  25
ATOM     25  O   UNL A   1      32.645  30.992  27.542  1.00  0.00    -0.460 OA
BRANCH  25  26
ATOM     26  C   UNL A   1      33.410  32.103  27.601  1.00  0.00     0.338 C 
ATOM     27  O   UNL A   1      33.029  33.259  27.632  1.00  0.00    -0.246 OA
BRANCH  26  28
ATOM     28  C   UNL A   1      34.803  31.703  27.867  1.00  0.00     0.060 A 
ATOM     29  C   UNL A   1      35.054  30.337  28.020  1.00  0.00     0.016 A 
ATOM     30  C   UNL A   1      35.824  32.636  28.055  1.00  0.00     0.016 A 
ATOM     31  C   UNL A   1      36.309  29.903  28.444  1.00  0.00     0.010 A 
ATOM     32  C   UNL A   1      37.093  32.196  28.465  1.00  0.00     0.010 A 
ATOM     33  C   UNL A   1      37.327  30.831  28.718  1.00  0.00    -0.014 A 
BRANCH  33  34
ATOM     34  C   UNL A   1      38.546  30.351  29.429  1.00  0.00     0.031 A 
ATOM     35  C   UNL A   1      38.780  30.768  30.860  1.00  0.00     0.074 A 
ATOM     36  C   UNL A   1      39.376  29.454  28.863  1.00  0.00     0.049 A 
ATOM     37  N   UNL A   1      39.676  30.337  31.715  1.00  0.00    -0.248 NA
ATOM     38  C   UNL A   1      37.887  31.801  31.401  1.00  0.00     0.031 C 
ATOM     39  C   UNL A   1      39.268  28.951  27.495  1.00  0.00     0.029 A 
ATOM     40  N   UNL A   1      40.461  28.790  29.382  1.00  0.00    -0.354 N 
ATOM     41  C   UNL A   1      39.444  31.036  32.893  1.00  0.00     0.074 A 
ATOM     42  C   UNL A   1      38.359  31.957  32.630  1.00  0.00     0.031 C 
ATOM     43  C   UNL A   1      40.234  28.038  27.290  1.00  0.00     0.029 A 
ATOM     44  C   UNL A   1      41.036  27.901  28.507  1.00  0.00     0.049 A 
ATOM     45  H   UNL A   1      40.796  28.937  30.296  1.00  0.00     0.167 HD
ATOM     46  C   UNL A   1      40.056  30.910  34.094  1.00  0.00     0.037 A 
ATOM     47  C   UNL A   1      42.081  27.064  28.667  1.00  0.00     0.037 A 
ATOM     48  C   UNL A   1      41.129  29.993  34.377  1.00  0.00     0.049 A 
ATOM     49  C   UNL A   1      42.780  26.979  30.000  1.00  0.00     0.074 A 
ATOM     50  C   UNL A   1      41.779  29.772  35.579  1.00  0.00     0.029 A 
ATOM     51  N   UNL A   1      41.716  29.151  33.446  1.00  0.00    -0.354 N 
ATOM     52  N   UNL A   1      42.505  27.595  31.123  1.00  0.00    -0.248 NA
ATOM     53  C   UNL A   1      43.932  26.067  30.088  1.00  0.00     0.031 C 
ATOM     54  C   UNL A   1      42.793  28.834  35.364  1.00  0.00     0.029 A 
ATOM     55  C   UNL A   1      42.742  28.433  34.040  1.00  0.00     0.049 A 
ATOM     56  H   UNL A   1      41.444  29.075  32.503  1.00  0.00     0.167 HD
ATOM     57  C   UNL A   1      43.427  27.128  32.054  1.00  0.00     0.074 A 
ATOM     58  C   UNL A   1      44.260  26.164  31.370  1.00  0.00     0.031 C 
ATOM     59  C   UNL A   1      43.567  27.470  33.358  1.00  0.00     0.037 A 
BRANCH  46  60
ATOM     60  C   UNL A   1      39.581  31.795  35.209  1.00  0.00     0.064 A 
ATOM     61  C   UNL A   1      40.043  33.112  35.348  1.00  0.00     0.173 A 
ATOM     62  C   UNL A   1      38.618  31.336  36.118  1.00  0.00     0.173 A 
ATOM     63  F   UNL A   1      40.973  33.593  34.509  1.00  0.00    -0.203 F 
ATOM     64  C   UNL A   1      39.575  33.931  36.372  1.00  0.00     0.198 A 
ATOM     65  C   UNL A   1      38.131  32.166  37.125  1.00  0.00     0.198 A 
ATOM     66  F   UNL A   1      38.138  30.087  36.023  1.00  0.00    -0.203 F 
ATOM     67  F   UNL A   1      40.060  35.172  36.511  1.00  0.00    -0.200 F 
ATOM     68  C   UNL A   1      38.614  33.460  37.255  1.00  0.00     0.200 A 
ATOM     69  F   UNL A   1      37.193  31.714  37.969  1.00  0.00    -0.200 F 
ATOM     70  F   UNL A   1      38.157  34.251  38.234  1.00  0.00    -0.200 F 
ENDBRANCH  46  60
BRANCH  47  71
ATOM     71  C   UNL A   1      42.533  26.217  27.533  1.00  0.00     0.064 A 
ATOM     72  C   UNL A   1      41.981  24.947  27.308  1.00  0.00     0.173 A 
ATOM     73  C   UNL A   1      43.553  26.648  26.672  1.00  0.00     0.173 A 
ATOM     74  F   UNL A   1      41.024  24.480  28.122  1.00  0.00    -0.203 F 
ATOM     75  C   UNL A   1      42.447  24.134  26.277  1.00  0.00     0.198 A 
ATOM     76  C   UNL A   1      43.998  25.844  25.624  1.00  0.00     0.198 A 
ATOM     77  F   UNL A   1      44.117  27.851  26.848  1.00  0.00    -0.203 F 
ATOM     78  F   UNL A   1      41.937  22.905  26.115  1.00  0.00    -0.200 F 
ATOM     79  C   UNL A   1      43.451  24.585  25.433  1.00  0.00     0.200 A 
ATOM     80  F   UNL A   1      44.962  26.287  24.807  1.00  0.00    -0.200 F 
ATOM     81  F   UNL A   1      43.898  23.801  24.442  1.00  0.00    -0.200 F 
ENDBRANCH  47  71
BRANCH  59  82
ATOM     82  C   UNL A   1      44.646  26.783  34.146  1.00  0.00     0.064 A 
ATOM     83  C   UNL A   1      45.918  27.352  34.302  1.00  0.00     0.173 A 
ATOM     84  C   UNL A   1      44.390  25.562  34.790  1.00  0.00     0.173 A 
ATOM     85  F   UNL A   1      46.219  28.511  33.698  1.00  0.00    -0.203 F 
ATOM     86  C   UNL A   1      46.903  26.712  35.053  1.00  0.00     0.198 A 
ATOM     87  C   UNL A   1      45.367  24.940  35.563  1.00  0.00     0.198 A 
ATOM     88  F   UNL A   1      43.188  24.979  34.680  1.00  0.00    -0.203 F 
ATOM     89  F   UNL A   1      48.125  27.252  35.151  1.00  0.00    -0.200 F 
ATOM     90  C   UNL A   1      46.625  25.511  35.688  1.00  0.00     0.200 A 
ATOM     91  F   UNL A   1      45.092  23.786  36.188  1.00  0.00    -0.200 F 
ATOM     92  F   UNL A   1      47.570  24.901  36.415  1.00  0.00    -0.200 F 
ENDBRANCH  59  82
ENDBRANCH  33  34
ENDBRANCH  26  28
ENDBRANCH  25  26
ENDBRANCH  24  25
ENDBRANCH  23  24
ENDBRANCH   1  23
TORSDOF 16
ENDMDL
MODEL 2
REMARK VINA RESULT:     -11.7      0.707      2.548
REMARK SMILES CC1(C)C[C@](CC(=O)OCCOCCOC(=O)c2ccc(-c3c4nc(c(-c5c(F)c(F)c(F)c(F)c5F)c5ccc([nH]5)c(-c5c(F)c(F)c(F)c(F)c5F)c5nc(c(-c6c(F)c(F)c(F)c(F)c6F)c6ccc3[nH]6)C=C5)C=C4)cc2)([NH+]2CCCC2)C(C)(C)O1
REMARK SMILES IDX 12 1 11 2 10 3 9 4 7 5 8 6 6 7 5 8 1 9 2 10 3 11 4 12 89 13
REMARK SMILES IDX 86 14 87 15 88 16 81 17 82 18 85 19 83 21 84 22 13 23 14 24
REMARK SMILES IDX 15 25 16 26 17 27 18 28 19 29 80 30 20 31 79 32 21 33 22 34
REMARK SMILES IDX 23 35 73 36 24 37 78 38 72 39 74 40 25 41 77 42 71 43 70 44
REMARK SMILES IDX 26 46 58 47 38 48 57 49 39 50 42 51 56 52 75 53 40 54 41 55
REMARK SMILES IDX 55 57 76 58 43 59 27 60 28 61 36 62 29 63 30 64 34 65 37 66
REMARK SMILES IDX 31 67 32 68 35 69 33 70 59 71 60 72 68 73 61 74 62 75 66 76
REMARK SMILES IDX 69 77 63 78 64 79 67 80 65 81 44 82 45 83 53 84 46 85 47 86
REMARK SMILES IDX 51 87 54 88 48 89 49 90 52 91 50 92
REMARK H PARENT 81 20 74 45 42 56
REMARK Flexibility Score: inf
ROOT
ATOM      1  O   UNL A   1      31.390  28.496  24.714  1.00  0.00    -0.374 OA
ENDROOT
BRANCH   1   2
ATOM      2  C   UNL A   1      30.683  27.263  24.587  1.00  0.00     0.202 C 
BRANCH   2   3
ATOM      3  C   UNL A   1      30.635  26.381  25.840  1.00  0.00     0.261 C 
BRANCH   3   4
ATOM      4  O   UNL A   1      30.233  25.006  25.608  1.00  0.00    -0.463 OA
BRANCH   4   5
ATOM      5  C   UNL A   1      30.775  24.094  26.449  1.00  0.00     0.312 C 
ATOM      6  O   UNL A   1      30.125  23.486  27.299  1.00  0.00    -0.252 OA
BRANCH   5   7
ATOM      7  C   UNL A   1      32.284  23.953  26.405  1.00  0.00     0.194 C 
BRANCH   7   8
ATOM      8  C   UNL A   1      33.161  23.506  25.186  1.00  0.00     0.140 C 
ATOM      9  C   UNL A   1      36.761  23.771  25.854  1.00  0.00     0.042 C 
ATOM     10  C   UNL A   1      35.641  23.158  24.998  1.00  0.00     0.070 C 
ATOM     11  C   UNL A   1      36.271  21.945  24.294  1.00  0.00     0.042 C 
ATOM     12  C   UNL A   1      34.410  22.810  25.841  1.00  0.00     0.107 C 
ATOM     13  O   UNL A   1      35.206  24.125  24.027  1.00  0.00    -0.363 OA
ATOM     14  C   UNL A   1      33.902  24.664  24.404  1.00  0.00     0.118 C 
ATOM     15  C   UNL A   1      34.181  25.925  25.249  1.00  0.00     0.049 C 
ATOM     16  C   UNL A   1      33.236  25.150  23.110  1.00  0.00     0.049 C 
BRANCH   8  17
ATOM     17  N   UNL A   1      32.470  22.441  24.400  1.00  0.00    -0.327 N 
ATOM     18  C   UNL A   1      32.680  22.393  22.964  1.00  0.00     0.263 C 
ATOM     19  C   UNL A   1      32.444  21.066  24.894  1.00  0.00     0.263 C 
ATOM     20  H   UNL A   1      31.554  22.845  24.594  1.00  0.00     0.348 HD
ATOM     21  C   UNL A   1      32.093  21.063  22.530  1.00  0.00     0.067 C 
ATOM     22  C   UNL A   1      32.421  20.148  23.681  1.00  0.00     0.067 C 
ENDBRANCH   8  17
ENDBRANCH   7   8
ENDBRANCH   5   7
ENDBRANCH   4   5
ENDBRANCH   3   4
ENDBRANCH   2   3
ENDBRANCH   1   2
BRANCH   1  23
ATOM     23  C   UNL A   1      31.768  28.885  26.032  1.00  0.00     0.202 C 
BRANCH  23  24
ATOM     24  C   UNL A   1      32.083  30.378  26.176  1.00  0.00     0.261 C 
BRANCH  24  25
ATOM     25  O   UNL A   1      32.687  30.627  27.458  1.00  0.00    -0.460 OA
BRANCH  25  26
ATOM     26  C   UNL A   1      33.397  31.774  27.525  1.00  0.00     0.338 C 
ATOM     27  O   UNL A   1      32.963  32.910  27.550  1.00  0.00    -0.246 OA
BRANCH  26  28
ATOM     28  C   UNL A   1      34.805  31.440  27.808  1.00  0.00     0.060 A 
ATOM     29  C   UNL A   1      35.112  30.090  27.999  1.00  0.00     0.016 A 
ATOM     30  C   UNL A   1      35.785  32.420  27.976  1.00  0.00     0.016 A 
ATOM     31  C   UNL A   1      36.382  29.721  28.440  1.00  0.00     0.010 A 
ATOM     32  C   UNL A   1      37.068  32.045  28.403  1.00  0.00     0.010 A 
ATOM     33  C   UNL A   1      37.358  30.698  28.694  1.00  0.00    -0.014 A 
BRANCH  33  34
ATOM     34  C   UNL A   1      38.593  30.289  29.423  1.00  0.00     0.031 A 
ATOM     35  C   UNL A   1      38.790  30.736  30.850  1.00  0.00     0.074 A 
ATOM     36  C   UNL A   1      39.472  29.428  28.877  1.00  0.00     0.049 A 
ATOM     37  N   UNL A   1      39.698  30.362  31.719  1.00  0.00    -0.248 NA
ATOM     38  C   UNL A   1      37.841  31.730  31.369  1.00  0.00     0.031 C 
ATOM     39  C   UNL A   1      39.404  28.902  27.516  1.00  0.00     0.029 A 
ATOM     40  N   UNL A   1      40.583  28.826  29.416  1.00  0.00    -0.354 N 
ATOM     41  C   UNL A   1      39.419  31.064  32.886  1.00  0.00     0.074 A 
ATOM     42  C   UNL A   1      38.291  31.925  32.599  1.00  0.00     0.031 C 
ATOM     43  C   UNL A   1      40.416  28.037  27.332  1.00  0.00     0.029 A 
ATOM     44  C   UNL A   1      41.212  27.956  28.558  1.00  0.00     0.049 A 
ATOM     45  H   UNL A   1      40.901  29.002  30.331  1.00  0.00     0.167 HD
ATOM     46  C   UNL A   1      40.024  30.984  34.095  1.00  0.00     0.037 A 
ATOM     47  C   UNL A   1      42.295  27.174  28.740  1.00  0.00     0.037 A 
ATOM     48  C   UNL A   1      41.138  30.126  34.401  1.00  0.00     0.049 A 
ATOM     49  C   UNL A   1      42.984  27.142  30.081  1.00  0.00     0.074 A 
ATOM     50  C   UNL A   1      41.786  29.954  35.612  1.00  0.00     0.029 A 
ATOM     51  N   UNL A   1      41.776  29.303  33.487  1.00  0.00    -0.354 N 
ATOM     52  N   UNL A   1      42.666  27.758  31.193  1.00  0.00    -0.248 NA
ATOM     53  C   UNL A   1      44.179  26.290  30.193  1.00  0.00     0.031 C 
ATOM     54  C   UNL A   1      42.848  29.065  35.419  1.00  0.00     0.029 A 
ATOM     55  C   UNL A   1      42.831  28.645  34.100  1.00  0.00     0.049 A 
ATOM     56  H   UNL A   1      41.518  29.200  32.542  1.00  0.00     0.167 HD
ATOM     57  C   UNL A   1      43.600  27.350  32.138  1.00  0.00     0.074 A 
ATOM     58  C   UNL A   1      44.488  26.420  31.476  1.00  0.00     0.031 C 
ATOM     59  C   UNL A   1      43.710  27.716  33.439  1.00  0.00     0.037 A 
BRANCH  46  60
ATOM     60  C   UNL A   1      39.493  31.859  35.192  1.00  0.00     0.064 A 
ATOM     61  C   UNL A   1      38.579  31.374  36.140  1.00  0.00     0.173 A 
ATOM     62  C   UNL A   1      39.938  33.181  35.324  1.00  0.00     0.173 A 
ATOM     63  F   UNL A   1      38.114  30.118  36.048  1.00  0.00    -0.203 F 
ATOM     64  C   UNL A   1      38.113  32.189  37.167  1.00  0.00     0.198 A 
ATOM     65  C   UNL A   1      39.491  33.986  36.369  1.00  0.00     0.198 A 
ATOM     66  F   UNL A   1      40.818  33.690  34.449  1.00  0.00    -0.203 F 
ATOM     67  F   UNL A   1      37.210  31.718  38.037  1.00  0.00    -0.200 F 
ATOM     68  C   UNL A   1      38.575  33.492  37.286  1.00  0.00     0.200 A 
ATOM     69  F   UNL A   1      39.948  35.240  36.490  1.00  0.00    -0.200 F 
ATOM     70  F   UNL A   1      38.133  34.273  38.280  1.00  0.00    -0.200 F 
ENDBRANCH  46  60
BRANCH  47  71
ATOM     71  C   UNL A   1      42.801  26.336  27.622  1.00  0.00     0.064 A 
ATOM     72  C   UNL A   1      43.783  26.814  26.742  1.00  0.00     0.173 A 
ATOM     73  C   UNL A   1      42.285  25.053  27.390  1.00  0.00     0.173 A 
ATOM     74  F   UNL A   1      44.286  28.046  26.905  1.00  0.00    -0.203 F 
ATOM     75  C   UNL A   1      44.215  26.047  25.663  1.00  0.00     0.198 A 
ATOM     76  C   UNL A   1      42.738  24.276  26.326  1.00  0.00     0.198 A 
ATOM     77  F   UNL A   1      41.340  24.553  28.199  1.00  0.00    -0.203 F 
ATOM     78  F   UNL A   1      45.119  26.547  24.808  1.00  0.00    -0.200 F 
ATOM     79  C   UNL A   1      43.696  24.777  25.459  1.00  0.00     0.200 A 
ATOM     80  F   UNL A   1      42.240  23.047  26.138  1.00  0.00    -0.200 F 
ATOM     81  F   UNL A   1      44.113  24.040  24.419  1.00  0.00    -0.200 F 
ENDBRANCH  47  71
BRANCH  59  82
ATOM     82  C   UNL A   1      44.814  27.094  34.247  1.00  0.00     0.064 A 
ATOM     83  C   UNL A   1      44.639  25.871  34.912  1.00  0.00     0.173 A 
ATOM     84  C   UNL A   1      46.074  27.707  34.322  1.00  0.00     0.173 A 
ATOM     85  F   UNL A   1      43.451  25.250  34.883  1.00  0.00    -0.203 F 
ATOM     86  C   UNL A   1      45.679  25.297  35.641  1.00  0.00     0.198 A 
ATOM     87  C   UNL A   1      47.119  27.115  35.027  1.00  0.00     0.198 A 
ATOM     88  F   UNL A   1      46.296  28.872  33.698  1.00  0.00    -0.203 F 
ATOM     89  F   UNL A   1      45.476  24.151  36.305  1.00  0.00    -0.200 F 
ATOM     90  C   UNL A   1      46.919  25.916  35.693  1.00  0.00     0.200 A 
ATOM     91  F   UNL A   1      48.321  27.708  35.064  1.00  0.00    -0.200 F 
ATOM     92  F   UNL A   1      47.919  25.358  36.388  1.00  0.00    -0.200 F 
ENDBRANCH  59  82
ENDBRANCH  33  34
ENDBRANCH  26  28
ENDBRANCH  25  26
ENDBRANCH  24  25
ENDBRANCH  23  24
ENDBRANCH   1  23
TORSDOF 16
ENDMDL
MODEL 3
REMARK VINA RESULT:     -11.7      4.044      9.686
REMARK SMILES CC1(C)C[C@](CC(=O)OCCOCCOC(=O)c2ccc(-c3c4nc(c(-c5c(F)c(F)c(F)c(F)c5F)c5ccc([nH]5)c(-c5c(F)c(F)c(F)c(F)c5F)c5nc(c(-c6c(F)c(F)c(F)c(F)c6F)c6ccc3[nH]6)C=C5)C=C4)cc2)([NH+]2CCCC2)C(C)(C)O1
REMARK SMILES IDX 12 1 11 2 10 3 9 4 7 5 8 6 6 7 5 8 1 9 2 10 3 11 4 12 89 13
REMARK SMILES IDX 86 14 87 15 88 16 81 17 82 18 85 19 83 21 84 22 13 23 14 24
REMARK SMILES IDX 15 25 16 26 17 27 18 28 19 29 80 30 20 31 79 32 21 33 22 34
REMARK SMILES IDX 23 35 73 36 24 37 78 38 72 39 74 40 25 41 77 42 71 43 70 44
REMARK SMILES IDX 26 46 58 47 38 48 57 49 39 50 42 51 56 52 75 53 40 54 41 55
REMARK SMILES IDX 55 57 76 58 43 59 27 60 28 61 36 62 29 63 30 64 34 65 37 66
REMARK SMILES IDX 31 67 32 68 35 69 33 70 59 71 60 72 68 73 61 74 62 75 66 76
REMARK SMILES IDX 69 77 63 78 64 79 67 80 65 81 44 82 45 83 53 84 46 85 47 86
REMARK SMILES IDX 51 87 54 88 48 89 49 90 52 91 50 92
REMARK H PARENT 81 20 74 45 42 56
REMARK Flexibility Score: inf
ROOT
ATOM      1  O   UNL A   1      35.357  21.105  25.853  1.00  0.00    -0.374 OA
ENDROOT
BRANCH   1   2
ATOM      2  C   UNL A   1      33.962  20.831  25.987  1.00  0.00     0.202 C 
BRANCH   2   3
ATOM      3  C   UNL A   1      33.107  21.960  26.573  1.00  0.00     0.261 C 
BRANCH   3   4
ATOM      4  O   UNL A   1      31.879  22.237  25.850  1.00  0.00    -0.463 OA
BRANCH   4   5
ATOM      5  C   UNL A   1      31.283  23.416  26.151  1.00  0.00     0.312 C 
ATOM      6  O   UNL A   1      30.799  23.668  27.253  1.00  0.00    -0.252 OA
BRANCH   5   7
ATOM      7  C   UNL A   1      31.098  24.388  25.001  1.00  0.00     0.194 C 
BRANCH   7   8
ATOM      8  C   UNL A   1      32.057  25.552  24.577  1.00  0.00     0.140 C 
ATOM      9  C   UNL A   1      31.758  28.497  26.748  1.00  0.00     0.042 C 
ATOM     10  C   UNL A   1      32.600  27.719  25.723  1.00  0.00     0.070 C 
ATOM     11  C   UNL A   1      34.030  28.267  25.858  1.00  0.00     0.042 C 
ATOM     12  C   UNL A   1      32.497  26.206  25.938  1.00  0.00     0.107 C 
ATOM     13  O   UNL A   1      32.091  27.976  24.403  1.00  0.00    -0.363 OA
ATOM     14  C   UNL A   1      31.368  26.808  23.907  1.00  0.00     0.118 C 
ATOM     15  C   UNL A   1      29.891  27.011  24.305  1.00  0.00     0.049 C 
ATOM     16  C   UNL A   1      31.416  26.879  22.376  1.00  0.00     0.049 C 
BRANCH   8  17
ATOM     17  N   UNL A   1      33.307  25.011  23.966  1.00  0.00    -0.327 N 
ATOM     18  C   UNL A   1      34.445  24.753  24.829  1.00  0.00     0.263 C 
ATOM     19  C   UNL A   1      33.235  23.930  22.985  1.00  0.00     0.263 C 
ATOM     20  H   UNL A   1      33.466  25.874  23.447  1.00  0.00     0.348 HD
ATOM     21  C   UNL A   1      35.413  23.960  23.970  1.00  0.00     0.067 C 
ATOM     22  C   UNL A   1      34.504  23.103  23.127  1.00  0.00     0.067 C 
ENDBRANCH   8  17
ENDBRANCH   7   8
ENDBRANCH   5   7
ENDBRANCH   4   5
ENDBRANCH   3   4
ENDBRANCH   2   3
ENDBRANCH   1   2
BRANCH   1  23
ATOM     23  C   UNL A   1      36.102  20.236  25.003  1.00  0.00     0.202 C 
BRANCH  23  24
ATOM     24  C   UNL A   1      37.508  20.745  24.669  1.00  0.00     0.261 C 
BRANCH  24  25
ATOM     25  O   UNL A   1      37.959  21.643  25.700  1.00  0.00    -0.460 OA
BRANCH  25  26
ATOM     26  C   UNL A   1      39.227  21.426  26.110  1.00  0.00     0.338 C 
ATOM     27  O   UNL A   1      39.969  20.525  25.767  1.00  0.00    -0.246 OA
BRANCH  26  28
ATOM     28  C   UNL A   1      39.682  22.601  26.876  1.00  0.00     0.060 A 
ATOM     29  C   UNL A   1      39.041  23.816  26.616  1.00  0.00     0.016 A 
ATOM     30  C   UNL A   1      40.764  22.545  27.755  1.00  0.00     0.016 A 
ATOM     31  C   UNL A   1      39.534  24.995  27.173  1.00  0.00     0.010 A 
ATOM     32  C   UNL A   1      41.248  23.732  28.329  1.00  0.00     0.010 A 
ATOM     33  C   UNL A   1      40.672  24.972  27.995  1.00  0.00    -0.014 A 
BRANCH  33  34
ATOM     34  C   UNL A   1      41.323  26.269  28.335  1.00  0.00     0.031 A 
ATOM     35  C   UNL A   1      42.712  26.556  27.822  1.00  0.00     0.074 A 
ATOM     36  C   UNL A   1      40.649  27.238  28.983  1.00  0.00     0.049 A 
ATOM     37  N   UNL A   1      43.395  27.675  27.855  1.00  0.00    -0.248 NA
ATOM     38  C   UNL A   1      43.425  25.439  27.186  1.00  0.00     0.031 C 
ATOM     39  C   UNL A   1      39.298  27.110  29.525  1.00  0.00     0.029 A 
ATOM     40  N   UNL A   1      41.006  28.534  29.272  1.00  0.00    -0.354 N 
ATOM     41  C   UNL A   1      44.607  27.398  27.234  1.00  0.00     0.074 A 
ATOM     42  C   UNL A   1      44.589  25.995  26.881  1.00  0.00     0.031 C 
ATOM     43  C   UNL A   1      38.931  28.287  30.060  1.00  0.00     0.029 A 
ATOM     44  C   UNL A   1      40.024  29.249  29.911  1.00  0.00     0.049 A 
ATOM     45  H   UNL A   1      41.886  28.914  29.044  1.00  0.00     0.167 HD
ATOM     46  C   UNL A   1      45.633  28.237  26.955  1.00  0.00     0.037 A 
ATOM     47  C   UNL A   1      39.999  30.533  30.320  1.00  0.00     0.037 A 
ATOM     48  C   UNL A   1      45.664  29.637  27.287  1.00  0.00     0.049 A 
ATOM     49  C   UNL A   1      41.177  31.434  30.044  1.00  0.00     0.074 A 
ATOM     50  C   UNL A   1      46.649  30.568  27.005  1.00  0.00     0.029 A 
ATOM     51  N   UNL A   1      44.670  30.306  27.983  1.00  0.00    -0.354 N 
ATOM     52  N   UNL A   1      42.285  31.177  29.395  1.00  0.00    -0.248 NA
ATOM     53  C   UNL A   1      41.089  32.814  30.550  1.00  0.00     0.031 C 
ATOM     54  C   UNL A   1      46.275  31.789  27.575  1.00  0.00     0.029 A 
ATOM     55  C   UNL A   1      45.033  31.631  28.167  1.00  0.00     0.049 A 
ATOM     56  H   UNL A   1      43.830  29.900  28.299  1.00  0.00     0.167 HD
ATOM     57  C   UNL A   1      43.012  32.362  29.391  1.00  0.00     0.074 A 
ATOM     58  C   UNL A   1      42.213  33.346  30.088  1.00  0.00     0.031 C 
ATOM     59  C   UNL A   1      44.233  32.609  28.856  1.00  0.00     0.037 A 
BRANCH  46  60
ATOM     60  C   UNL A   1      46.826  27.659  26.251  1.00  0.00     0.064 A 
ATOM     61  C   UNL A   1      47.881  27.067  26.961  1.00  0.00     0.173 A 
ATOM     62  C   UNL A   1      46.891  27.656  24.851  1.00  0.00     0.173 A 
ATOM     63  F   UNL A   1      47.869  27.055  28.302  1.00  0.00    -0.203 F 
ATOM     64  C   UNL A   1      48.970  26.512  26.294  1.00  0.00     0.198 A 
ATOM     65  C   UNL A   1      47.969  27.076  24.186  1.00  0.00     0.198 A 
ATOM     66  F   UNL A   1      45.904  28.203  24.126  1.00  0.00    -0.203 F 
ATOM     67  F   UNL A   1      49.985  25.988  26.992  1.00  0.00    -0.200 F 
ATOM     68  C   UNL A   1      49.009  26.511  24.907  1.00  0.00     0.200 A 
ATOM     69  F   UNL A   1      47.999  27.064  22.846  1.00  0.00    -0.200 F 
ATOM     70  F   UNL A   1      50.053  25.968  24.266  1.00  0.00    -0.200 F 
ENDBRANCH  46  60
BRANCH  47  71
ATOM     71  C   UNL A   1      38.806  31.063  31.031  1.00  0.00     0.064 A 
ATOM     72  C   UNL A   1      38.672  30.935  32.421  1.00  0.00     0.173 A 
ATOM     73  C   UNL A   1      37.760  31.676  30.327  1.00  0.00     0.173 A 
ATOM     74  F   UNL A   1      39.633  30.329  33.133  1.00  0.00    -0.203 F 
ATOM     75  C   UNL A   1      37.528  31.383  33.077  1.00  0.00     0.198 A 
ATOM     76  C   UNL A   1      36.627  32.149  30.988  1.00  0.00     0.198 A 
ATOM     77  F   UNL A   1      37.837  31.818  28.996  1.00  0.00    -0.203 F 
ATOM     78  F   UNL A   1      37.402  31.204  34.399  1.00  0.00    -0.200 F 
ATOM     79  C   UNL A   1      36.509  31.994  32.360  1.00  0.00     0.200 A 
ATOM     80  F   UNL A   1      35.650  32.746  30.294  1.00  0.00    -0.200 F 
ATOM     81  F   UNL A   1      35.408  32.425  32.992  1.00  0.00    -0.200 F 
ENDBRANCH  47  71
BRANCH  59  82
ATOM     82  C   UNL A   1      44.777  34.005  28.978  1.00  0.00     0.064 A 
ATOM     83  C   UNL A   1      44.496  34.990  28.020  1.00  0.00     0.173 A 
ATOM     84  C   UNL A   1      45.553  34.373  30.089  1.00  0.00     0.173 A 
ATOM     85  F   UNL A   1      43.770  34.688  26.934  1.00  0.00    -0.203 F 
ATOM     86  C   UNL A   1      44.992  36.285  28.158  1.00  0.00     0.198 A 
ATOM     87  C   UNL A   1      46.022  35.676  30.237  1.00  0.00     0.198 A 
ATOM     88  F   UNL A   1      45.844  33.471  31.038  1.00  0.00    -0.203 F 
ATOM     89  F   UNL A   1      44.748  37.198  27.207  1.00  0.00    -0.200 F 
ATOM     90  C   UNL A   1      45.748  36.628  29.268  1.00  0.00     0.200 A 
ATOM     91  F   UNL A   1      46.741  36.008  31.319  1.00  0.00    -0.200 F 
ATOM     92  F   UNL A   1      46.218  37.876  29.402  1.00  0.00    -0.200 F 
ENDBRANCH  59  82
ENDBRANCH  33  34
ENDBRANCH  26  28
ENDBRANCH  25  26
ENDBRANCH  24  25
ENDBRANCH  23  24
ENDBRANCH   1  23
TORSDOF 16
ENDMDL
