MODEL 1
REMARK VINA RESULT:     -12.0      0.000      0.000
REMARK SMILES O=C(CCC(=O)N1CCC(c2nnc3ccccn23)CC1)OCCOCCOC(=O)c1ccc(-c2c3nc(c(-c4c(F)c(F)c(F)c(F)c4F)c4ccc([nH]4)c(-c4c(F)c(F)c(F)c(F)c4F)c4nc(c(-c5c(F)c(F)c(F)c(F)c5F)c5ccc2[nH]5)C=C4)C=C3)cc1
REMARK SMILES IDX 24 1 23 2 22 3 2 4 1 5 3 6 4 7 5 8 6 9 7 10 8 11 21 12 9 13
REMARK SMILES IDX 20 14 10 15 11 16 12 17 19 18 13 19 14 20 18 21 15 22 17 23
REMARK SMILES IDX 16 24 25 25 26 26 27 27 28 28 29 29 30 30 31 31 32 32 93 33
REMARK SMILES IDX 33 34 92 35 34 36 35 37 36 38 86 39 37 40 91 41 85 42 87 43
REMARK SMILES IDX 38 44 90 45 84 46 83 47 39 49 71 50 51 51 70 52 52 53 55 54
REMARK SMILES IDX 69 55 88 56 53 57 54 58 68 60 89 61 56 62 40 63 41 64 49 65
REMARK SMILES IDX 42 66 43 67 47 68 50 69 44 70 45 71 48 72 46 73 72 74 73 75
REMARK SMILES IDX 81 76 74 77 75 78 79 79 82 80 76 81 77 82 80 83 78 84 57 85
REMARK SMILES IDX 58 86 66 87 59 88 60 89 64 90 67 91 61 92 62 93 65 94 63 95
REMARK H PARENT 87 48 55 59
REMARK Flexibility Score: inf
ROOT
ATOM      1  C   UNL A   1      31.168  28.356  22.613  1.00  0.00     0.202 C 
ENDROOT
BRANCH   1   2
ATOM      2  C   UNL A   1      30.964  26.853  22.414  1.00  0.00     0.261 C 
BRANCH   2   3
ATOM      3  O   UNL A   1      31.974  26.073  23.082  1.00  0.00    -0.463 OA
BRANCH   3   4
ATOM      4  C   UNL A   1      33.303  26.301  23.031  1.00  0.00     0.306 C 
ATOM      5  O   UNL A   1      33.922  26.097  21.987  1.00  0.00    -0.252 OA
BRANCH   4   6
ATOM      6  C   UNL A   1      34.005  26.878  24.225  1.00  0.00     0.132 C 
BRANCH   6   7
ATOM      7  C   UNL A   1      33.479  26.225  25.488  1.00  0.00     0.112 C 
BRANCH   7   8
ATOM      8  C   UNL A   1      34.010  24.825  25.697  1.00  0.00     0.223 C 
ATOM      9  O   UNL A   1      35.212  24.602  25.536  1.00  0.00    -0.275 OA
ATOM     10  N   UNL A   1      33.134  23.848  26.141  1.00  0.00    -0.343 N 
ATOM     11  C   UNL A   1      33.685  22.667  26.780  1.00  0.00     0.120 C 
ATOM     12  C   UNL A   1      31.718  23.734  25.788  1.00  0.00     0.120 C 
ATOM     13  C   UNL A   1      33.595  21.482  25.844  1.00  0.00     0.033 C 
ATOM     14  C   UNL A   1      31.499  22.540  24.844  1.00  0.00     0.033 C 
ATOM     15  C   UNL A   1      32.149  21.245  25.375  1.00  0.00     0.062 C 
BRANCH  15  16
ATOM     16  C   UNL A   1      32.210  20.165  24.339  1.00  0.00     0.140 A 
ATOM     17  N   UNL A   1      32.145  20.347  23.034  1.00  0.00    -0.134 NA
ATOM     18  N   UNL A   1      32.578  18.857  24.594  1.00  0.00    -0.286 N 
ATOM     19  N   UNL A   1      32.489  19.170  22.417  1.00  0.00    -0.130 NA
ATOM     20  C   UNL A   1      32.710  18.271  23.345  1.00  0.00     0.160 A 
ATOM     21  C   UNL A   1      32.850  18.182  25.784  1.00  0.00     0.095 A 
ATOM     22  C   UNL A   1      33.050  16.894  23.290  1.00  0.00     0.050 A 
ATOM     23  C   UNL A   1      33.241  16.898  25.726  1.00  0.00     0.019 A 
ATOM     24  C   UNL A   1      33.302  16.230  24.433  1.00  0.00     0.005 A 
ENDBRANCH  15  16
ENDBRANCH   7   8
ENDBRANCH   6   7
ENDBRANCH   4   6
ENDBRANCH   3   4
ENDBRANCH   2   3
ENDBRANCH   1   2
BRANCH   1  25
ATOM     25  O   UNL A   1      30.201  29.032  23.409  1.00  0.00    -0.374 OA
BRANCH  25  26
ATOM     26  C   UNL A   1      30.647  30.011  24.348  1.00  0.00     0.202 C 
BRANCH  26  27
ATOM     27  C   UNL A   1      31.466  29.563  25.567  1.00  0.00     0.261 C 
BRANCH  27  28
ATOM     28  O   UNL A   1      32.808  30.087  25.621  1.00  0.00    -0.460 OA
BRANCH  28  29
ATOM     29  C   UNL A   1      33.023  31.003  26.599  1.00  0.00     0.338 C 
ATOM     30  O   UNL A   1      32.270  31.904  26.938  1.00  0.00    -0.246 OA
BRANCH  29  31
ATOM     31  C   UNL A   1      34.279  30.732  27.325  1.00  0.00     0.060 A 
ATOM     32  C   UNL A   1      34.585  29.403  27.616  1.00  0.00     0.016 A 
ATOM     33  C   UNL A   1      35.082  31.761  27.829  1.00  0.00     0.016 A 
ATOM     34  C   UNL A   1      35.693  29.104  28.409  1.00  0.00     0.010 A 
ATOM     35  C   UNL A   1      36.185  31.452  28.644  1.00  0.00     0.010 A 
ATOM     36  C   UNL A   1      36.508  30.118  28.940  1.00  0.00    -0.014 A 
BRANCH  36  37
ATOM     37  C   UNL A   1      37.640  29.746  29.844  1.00  0.00     0.031 A 
ATOM     38  C   UNL A   1      38.817  28.993  29.280  1.00  0.00     0.074 A 
ATOM     39  C   UNL A   1      37.668  30.129  31.138  1.00  0.00     0.049 A 
ATOM     40  N   UNL A   1      39.955  28.675  29.847  1.00  0.00    -0.248 NA
ATOM     41  C   UNL A   1      38.696  28.536  27.886  1.00  0.00     0.031 C 
ATOM     42  C   UNL A   1      36.632  30.911  31.806  1.00  0.00     0.029 A 
ATOM     43  N   UNL A   1      38.639  29.973  32.106  1.00  0.00    -0.354 N 
ATOM     44  C   UNL A   1      40.659  27.945  28.898  1.00  0.00     0.074 A 
ATOM     45  C   UNL A   1      39.859  27.934  27.693  1.00  0.00     0.031 C 
ATOM     46  C   UNL A   1      37.056  31.243  33.037  1.00  0.00     0.029 A 
ATOM     47  C   UNL A   1      38.383  30.674  33.265  1.00  0.00     0.049 A 
ATOM     48  H   UNL A   1      39.437  29.412  31.982  1.00  0.00     0.167 HD
ATOM     49  C   UNL A   1      41.829  27.278  29.035  1.00  0.00     0.037 A 
ATOM     50  C   UNL A   1      39.149  30.862  34.361  1.00  0.00     0.037 A 
ATOM     51  C   UNL A   1      42.612  27.227  30.238  1.00  0.00     0.049 A 
ATOM     52  C   UNL A   1      40.470  30.138  34.469  1.00  0.00     0.074 A 
ATOM     53  C   UNL A   1      43.760  26.497  30.491  1.00  0.00     0.029 A 
ATOM     54  N   UNL A   1      42.312  27.921  31.399  1.00  0.00    -0.354 N 
ATOM     55  N   UNL A   1      41.136  29.475  33.556  1.00  0.00    -0.248 NA
ATOM     56  C   UNL A   1      41.128  30.164  35.787  1.00  0.00     0.031 C 
ATOM     57  C   UNL A   1      44.124  26.704  31.825  1.00  0.00     0.029 A 
ATOM     58  C   UNL A   1      43.232  27.604  32.385  1.00  0.00     0.049 A 
ATOM     59  H   UNL A   1      41.559  28.544  31.508  1.00  0.00     0.167 HD
ATOM     60  C   UNL A   1      42.269  28.985  34.195  1.00  0.00     0.074 A 
ATOM     61  C   UNL A   1      42.251  29.501  35.545  1.00  0.00     0.031 C 
ATOM     62  C   UNL A   1      43.211  28.134  33.722  1.00  0.00     0.037 A 
BRANCH  49  63
ATOM     63  C   UNL A   1      42.250  26.417  27.884  1.00  0.00     0.064 A 
ATOM     64  C   UNL A   1      41.782  25.108  27.715  1.00  0.00     0.173 A 
ATOM     65  C   UNL A   1      43.160  26.923  26.943  1.00  0.00     0.173 A 
ATOM     66  F   UNL A   1      40.927  24.576  28.600  1.00  0.00    -0.203 F 
ATOM     67  C   UNL A   1      42.231  24.325  26.654  1.00  0.00     0.198 A 
ATOM     68  C   UNL A   1      43.591  26.146  25.874  1.00  0.00     0.198 A 
ATOM     69  F   UNL A   1      43.637  28.171  27.068  1.00  0.00    -0.203 F 
ATOM     70  F   UNL A   1      41.808  23.060  26.529  1.00  0.00    -0.200 F 
ATOM     71  C   UNL A   1      43.132  24.845  25.734  1.00  0.00     0.200 A 
ATOM     72  F   UNL A   1      44.458  26.652  24.986  1.00  0.00    -0.200 F 
ATOM     73  F   UNL A   1      43.568  24.088  24.718  1.00  0.00    -0.200 F 
ENDBRANCH  49  63
BRANCH  50  74
ATOM     74  C   UNL A   1      38.746  31.795  35.456  1.00  0.00     0.064 A 
ATOM     75  C   UNL A   1      39.085  33.158  35.375  1.00  0.00     0.173 A 
ATOM     76  C   UNL A   1      38.090  31.370  36.619  1.00  0.00     0.173 A 
ATOM     77  F   UNL A   1      39.752  33.620  34.307  1.00  0.00    -0.203 F 
ATOM     78  C   UNL A   1      38.785  34.049  36.402  1.00  0.00     0.198 A 
ATOM     79  C   UNL A   1      37.768  32.268  37.637  1.00  0.00     0.198 A 
ATOM     80  F   UNL A   1      37.764  30.079  36.774  1.00  0.00    -0.203 F 
ATOM     81  F   UNL A   1      39.152  35.335  36.298  1.00  0.00    -0.200 F 
ATOM     82  C   UNL A   1      38.121  33.606  37.532  1.00  0.00     0.200 A 
ATOM     83  F   UNL A   1      37.119  31.836  38.728  1.00  0.00    -0.200 F 
ATOM     84  F   UNL A   1      37.831  34.461  38.521  1.00  0.00    -0.200 F 
ENDBRANCH  50  74
BRANCH  62  85
ATOM     85  C   UNL A   1      44.272  27.664  34.676  1.00  0.00     0.064 A 
ATOM     86  C   UNL A   1      44.095  26.493  35.430  1.00  0.00     0.173 A 
ATOM     87  C   UNL A   1      45.502  28.329  34.775  1.00  0.00     0.173 A 
ATOM     88  F   UNL A   1      42.932  25.827  35.380  1.00  0.00    -0.203 F 
ATOM     89  C   UNL A   1      45.106  26.013  36.258  1.00  0.00     0.198 A 
ATOM     90  C   UNL A   1      46.521  27.830  35.583  1.00  0.00     0.198 A 
ATOM     91  F   UNL A   1      45.725  29.449  34.072  1.00  0.00    -0.203 F 
ATOM     92  F   UNL A   1      44.901  24.911  36.992  1.00  0.00    -0.200 F 
ATOM     93  C   UNL A   1      46.322  26.675  36.325  1.00  0.00     0.200 A 
ATOM     94  F   UNL A   1      47.702  28.462  35.636  1.00  0.00    -0.200 F 
ATOM     95  F   UNL A   1      47.303  26.200  37.105  1.00  0.00    -0.200 F 
ENDBRANCH  62  85
ENDBRANCH  36  37
ENDBRANCH  29  31
ENDBRANCH  28  29
ENDBRANCH  27  28
ENDBRANCH  26  27
ENDBRANCH  25  26
ENDBRANCH   1  25
TORSDOF 17
ENDMDL
MODEL 2
REMARK VINA RESULT:     -11.5      1.618      7.533
REMARK SMILES O=C(CCC(=O)N1CCC(c2nnc3ccccn23)CC1)OCCOCCOC(=O)c1ccc(-c2c3nc(c(-c4c(F)c(F)c(F)c(F)c4F)c4ccc([nH]4)c(-c4c(F)c(F)c(F)c(F)c4F)c4nc(c(-c5c(F)c(F)c(F)c(F)c5F)c5ccc2[nH]5)C=C4)C=C3)cc1
REMARK SMILES IDX 24 1 23 2 22 3 2 4 1 5 3 6 4 7 5 8 6 9 7 10 8 11 21 12 9 13
REMARK SMILES IDX 20 14 10 15 11 16 12 17 19 18 13 19 14 20 18 21 15 22 17 23
REMARK SMILES IDX 16 24 25 25 26 26 27 27 28 28 29 29 30 30 31 31 32 32 93 33
REMARK SMILES IDX 33 34 92 35 34 36 35 37 36 38 86 39 37 40 91 41 85 42 87 43
REMARK SMILES IDX 38 44 90 45 84 46 83 47 39 49 71 50 51 51 70 52 52 53 55 54
REMARK SMILES IDX 69 55 88 56 53 57 54 58 68 60 89 61 56 62 40 63 41 64 49 65
REMARK SMILES IDX 42 66 43 67 47 68 50 69 44 70 45 71 48 72 46 73 72 74 73 75
REMARK SMILES IDX 81 76 74 77 75 78 79 79 82 80 76 81 77 82 80 83 78 84 57 85
REMARK SMILES IDX 58 86 66 87 59 88 60 89 64 90 67 91 61 92 62 93 65 94 63 95
REMARK H PARENT 87 48 55 59
REMARK Flexibility Score: inf
ROOT
ATOM      1  C   UNL A   1      32.074  28.391  23.252  1.00  0.00     0.202 C 
ENDROOT
BRANCH   1   2
ATOM      2  C   UNL A   1      32.155  26.884  23.001  1.00  0.00     0.261 C 
BRANCH   2   3
ATOM      3  O   UNL A   1      33.001  26.217  23.957  1.00  0.00    -0.463 OA
BRANCH   3   4
ATOM      4  C   UNL A   1      32.898  26.316  25.299  1.00  0.00     0.306 C 
ATOM      5  O   UNL A   1      33.897  26.562  25.976  1.00  0.00    -0.252 OA
BRANCH   4   6
ATOM      6  C   UNL A   1      31.552  26.205  25.952  1.00  0.00     0.132 C 
BRANCH   6   7
ATOM      7  C   UNL A   1      30.895  24.902  25.542  1.00  0.00     0.112 C 
BRANCH   7   8
ATOM      8  C   UNL A   1      31.521  23.691  26.196  1.00  0.00     0.223 C 
ATOM      9  O   UNL A   1      31.567  23.621  27.426  1.00  0.00    -0.275 OA
ATOM     10  N   UNL A   1      31.958  22.656  25.384  1.00  0.00    -0.343 N 
ATOM     11  C   UNL A   1      32.118  21.339  25.973  1.00  0.00     0.120 C 
ATOM     12  C   UNL A   1      32.551  22.796  24.053  1.00  0.00     0.120 C 
ATOM     13  C   UNL A   1      33.587  21.026  26.149  1.00  0.00     0.033 C 
ATOM     14  C   UNL A   1      34.055  22.481  24.105  1.00  0.00     0.033 C 
ATOM     15  C   UNL A   1      34.351  21.145  24.820  1.00  0.00     0.062 C 
BRANCH  15  16
ATOM     16  C   UNL A   1      35.803  20.976  25.147  1.00  0.00     0.140 A 
ATOM     17  N   UNL A   1      36.543  19.928  24.841  1.00  0.00    -0.134 NA
ATOM     18  N   UNL A   1      36.624  21.990  25.604  1.00  0.00    -0.286 N 
ATOM     19  N   UNL A   1      37.857  20.246  25.074  1.00  0.00    -0.130 NA
ATOM     20  C   UNL A   1      37.904  21.461  25.564  1.00  0.00     0.160 A 
ATOM     21  C   UNL A   1      36.356  23.305  25.984  1.00  0.00     0.095 A 
ATOM     22  C   UNL A   1      38.974  22.275  26.020  1.00  0.00     0.050 A 
ATOM     23  C   UNL A   1      37.379  24.097  26.347  1.00  0.00     0.019 A 
ATOM     24  C   UNL A   1      38.724  23.542  26.400  1.00  0.00     0.005 A 
ENDBRANCH  15  16
ENDBRANCH   7   8
ENDBRANCH   6   7
ENDBRANCH   4   6
ENDBRANCH   3   4
ENDBRANCH   2   3
ENDBRANCH   1   2
BRANCH   1  25
ATOM     25  O   UNL A   1      30.947  28.855  23.987  1.00  0.00    -0.374 OA
BRANCH  25  26
ATOM     26  C   UNL A   1      31.075  30.051  24.759  1.00  0.00     0.202 C 
BRANCH  26  27
ATOM     27  C   UNL A   1      31.803  29.997  26.110  1.00  0.00     0.261 C 
BRANCH  27  28
ATOM     28  O   UNL A   1      33.175  30.437  26.078  1.00  0.00    -0.460 OA
BRANCH  28  29
ATOM     29  C   UNL A   1      33.522  31.293  27.071  1.00  0.00     0.338 C 
ATOM     30  O   UNL A   1      32.822  32.164  27.565  1.00  0.00    -0.246 OA
BRANCH  29  31
ATOM     31  C   UNL A   1      34.868  30.992  27.597  1.00  0.00     0.060 A 
ATOM     32  C   UNL A   1      35.159  29.664  27.909  1.00  0.00     0.016 A 
ATOM     33  C   UNL A   1      35.787  32.000  27.905  1.00  0.00     0.016 A 
ATOM     34  C   UNL A   1      36.368  29.346  28.527  1.00  0.00     0.010 A 
ATOM     35  C   UNL A   1      36.995  31.673  28.547  1.00  0.00     0.010 A 
ATOM     36  C   UNL A   1      37.303  30.340  28.861  1.00  0.00    -0.014 A 
BRANCH  36  37
ATOM     37  C   UNL A   1      38.551  29.952  29.589  1.00  0.00     0.031 A 
ATOM     38  C   UNL A   1      38.712  30.343  31.035  1.00  0.00     0.074 A 
ATOM     39  C   UNL A   1      39.507  29.199  29.005  1.00  0.00     0.049 A 
ATOM     40  N   UNL A   1      39.649  30.012  31.890  1.00  0.00    -0.248 NA
ATOM     41  C   UNL A   1      37.677  31.227  31.595  1.00  0.00     0.031 C 
ATOM     42  C   UNL A   1      39.461  28.698  27.634  1.00  0.00     0.029 A 
ATOM     43  N   UNL A   1      40.673  28.664  29.513  1.00  0.00    -0.354 N 
ATOM     44  C   UNL A   1      39.339  30.683  33.067  1.00  0.00     0.074 A 
ATOM     45  C   UNL A   1      38.088  31.374  32.844  1.00  0.00     0.031 C 
ATOM     46  C   UNL A   1      40.493  27.859  27.438  1.00  0.00     0.029 A 
ATOM     47  C   UNL A   1      41.297  27.783  28.656  1.00  0.00     0.049 A 
ATOM     48  H   UNL A   1      41.026  28.891  30.403  1.00  0.00     0.167 HD
ATOM     49  C   UNL A   1      40.064  30.779  34.206  1.00  0.00     0.037 A 
ATOM     50  C   UNL A   1      42.369  26.985  28.851  1.00  0.00     0.037 A 
ATOM     51  C   UNL A   1      41.335  30.149  34.429  1.00  0.00     0.049 A 
ATOM     52  C   UNL A   1      43.135  27.084  30.149  1.00  0.00     0.074 A 
ATOM     53  C   UNL A   1      42.181  30.273  35.517  1.00  0.00     0.029 A 
ATOM     54  N   UNL A   1      41.953  29.291  33.534  1.00  0.00    -0.354 N 
ATOM     55  N   UNL A   1      42.817  27.699  31.260  1.00  0.00    -0.248 NA
ATOM     56  C   UNL A   1      44.438  26.398  30.197  1.00  0.00     0.031 C 
ATOM     57  C   UNL A   1      43.339  29.534  35.256  1.00  0.00     0.029 A 
ATOM     58  C   UNL A   1      43.190  28.910  34.029  1.00  0.00     0.049 A 
ATOM     59  H   UNL A   1      41.572  28.997  32.676  1.00  0.00     0.167 HD
ATOM     60  C   UNL A   1      43.888  27.498  32.123  1.00  0.00     0.074 A 
ATOM     61  C   UNL A   1      44.823  26.628  31.445  1.00  0.00     0.031 C 
ATOM     62  C   UNL A   1      44.106  28.033  33.349  1.00  0.00     0.037 A 
BRANCH  49  63
ATOM     63  C   UNL A   1      39.560  31.734  35.244  1.00  0.00     0.064 A 
ATOM     64  C   UNL A   1      38.657  31.349  36.244  1.00  0.00     0.173 A 
ATOM     65  C   UNL A   1      39.986  33.071  35.214  1.00  0.00     0.173 A 
ATOM     66  F   UNL A   1      38.207  30.087  36.299  1.00  0.00    -0.203 F 
ATOM     67  C   UNL A   1      38.180  32.279  37.165  1.00  0.00     0.198 A 
ATOM     68  C   UNL A   1      39.522  33.992  36.147  1.00  0.00     0.198 A 
ATOM     69  F   UNL A   1      40.847  33.484  34.272  1.00  0.00    -0.203 F 
ATOM     70  F   UNL A   1      37.283  31.906  38.088  1.00  0.00    -0.200 F 
ATOM     71  C   UNL A   1      38.614  33.597  37.117  1.00  0.00     0.200 A 
ATOM     72  F   UNL A   1      39.947  35.262  36.101  1.00  0.00    -0.200 F 
ATOM     73  F   UNL A   1      38.148  34.491  37.999  1.00  0.00    -0.200 F 
ENDBRANCH  49  63
BRANCH  50  74
ATOM     74  C   UNL A   1      42.799  25.978  27.834  1.00  0.00     0.064 A 
ATOM     75  C   UNL A   1      43.713  26.344  26.829  1.00  0.00     0.173 A 
ATOM     76  C   UNL A   1      42.284  24.677  27.782  1.00  0.00     0.173 A 
ATOM     77  F   UNL A   1      44.209  27.590  26.797  1.00  0.00    -0.203 F 
ATOM     78  C   UNL A   1      44.091  25.457  25.825  1.00  0.00     0.198 A 
ATOM     79  C   UNL A   1      42.682  23.779  26.790  1.00  0.00     0.198 A 
ATOM     80  F   UNL A   1      41.387  24.271  28.692  1.00  0.00    -0.203 F 
ATOM     81  F   UNL A   1      44.942  25.856  24.868  1.00  0.00    -0.200 F 
ATOM     82  C   UNL A   1      43.580  24.171  25.808  1.00  0.00     0.200 A 
ATOM     83  F   UNL A   1      42.190  22.533  26.781  1.00  0.00    -0.200 F 
ATOM     84  F   UNL A   1      43.943  23.316  24.843  1.00  0.00    -0.200 F 
ENDBRANCH  50  74
BRANCH  62  85
ATOM     85  C   UNL A   1      45.418  27.742  34.017  1.00  0.00     0.064 A 
ATOM     86  C   UNL A   1      46.535  28.566  33.803  1.00  0.00     0.173 A 
ATOM     87  C   UNL A   1      45.544  26.694  34.941  1.00  0.00     0.173 A 
ATOM     88  F   UNL A   1      46.470  29.574  32.921  1.00  0.00    -0.203 F 
ATOM     89  C   UNL A   1      47.731  28.345  34.479  1.00  0.00     0.198 A 
ATOM     90  C   UNL A   1      46.734  26.493  35.636  1.00  0.00     0.198 A 
ATOM     91  F   UNL A   1      44.506  25.881  35.186  1.00  0.00    -0.203 F 
ATOM     92  F   UNL A   1      48.791  29.126  34.233  1.00  0.00    -0.200 F 
ATOM     93  C   UNL A   1      47.826  27.316  35.403  1.00  0.00     0.200 A 
ATOM     94  F   UNL A   1      46.821  25.507  36.539  1.00  0.00    -0.200 F 
ATOM     95  F   UNL A   1      48.972  27.116  36.069  1.00  0.00    -0.200 F 
ENDBRANCH  62  85
ENDBRANCH  36  37
ENDBRANCH  29  31
ENDBRANCH  28  29
ENDBRANCH  27  28
ENDBRANCH  26  27
ENDBRANCH  25  26
ENDBRANCH   1  25
TORSDOF 17
ENDMDL
MODEL 3
REMARK VINA RESULT:     -11.5      1.673      7.507
REMARK SMILES O=C(CCC(=O)N1CCC(c2nnc3ccccn23)CC1)OCCOCCOC(=O)c1ccc(-c2c3nc(c(-c4c(F)c(F)c(F)c(F)c4F)c4ccc([nH]4)c(-c4c(F)c(F)c(F)c(F)c4F)c4nc(c(-c5c(F)c(F)c(F)c(F)c5F)c5ccc2[nH]5)C=C4)C=C3)cc1
REMARK SMILES IDX 24 1 23 2 22 3 2 4 1 5 3 6 4 7 5 8 6 9 7 10 8 11 21 12 9 13
REMARK SMILES IDX 20 14 10 15 11 16 12 17 19 18 13 19 14 20 18 21 15 22 17 23
REMARK SMILES IDX 16 24 25 25 26 26 27 27 28 28 29 29 30 30 31 31 32 32 93 33
REMARK SMILES IDX 33 34 92 35 34 36 35 37 36 38 86 39 37 40 91 41 85 42 87 43
REMARK SMILES IDX 38 44 90 45 84 46 83 47 39 49 71 50 51 51 70 52 52 53 55 54
REMARK SMILES IDX 69 55 88 56 53 57 54 58 68 60 89 61 56 62 40 63 41 64 49 65
REMARK SMILES IDX 42 66 43 67 47 68 50 69 44 70 45 71 48 72 46 73 72 74 73 75
REMARK SMILES IDX 81 76 74 77 75 78 79 79 82 80 76 81 77 82 80 83 78 84 57 85
REMARK SMILES IDX 58 86 66 87 59 88 60 89 64 90 67 91 61 92 62 93 65 94 63 95
REMARK H PARENT 87 48 55 59
REMARK Flexibility Score: inf
ROOT
ATOM      1  C   UNL A   1      33.359  28.717  26.706  1.00  0.00     0.202 C 
ENDROOT
BRANCH   1   2
ATOM      2  C   UNL A   1      33.476  27.565  25.706  1.00  0.00     0.261 C 
BRANCH   2   3
ATOM      3  O   UNL A   1      33.080  27.955  24.378  1.00  0.00    -0.463 OA
BRANCH   3   4
ATOM      4  C   UNL A   1      32.004  27.488  23.710  1.00  0.00     0.306 C 
ATOM      5  O   UNL A   1      32.111  27.153  22.530  1.00  0.00    -0.252 OA
BRANCH   4   6
ATOM      6  C   UNL A   1      30.703  27.302  24.433  1.00  0.00     0.132 C 
BRANCH   6   7
ATOM      7  C   UNL A   1      30.176  25.903  24.178  1.00  0.00     0.112 C 
BRANCH   7   8
ATOM      8  C   UNL A   1      30.659  24.894  25.195  1.00  0.00     0.223 C 
ATOM      9  O   UNL A   1      30.835  25.247  26.363  1.00  0.00    -0.275 OA
ATOM     10  N   UNL A   1      30.813  23.576  24.793  1.00  0.00    -0.343 N 
ATOM     11  C   UNL A   1      30.814  22.541  25.811  1.00  0.00     0.120 C 
ATOM     12  C   UNL A   1      31.262  23.124  23.475  1.00  0.00     0.120 C 
ATOM     13  C   UNL A   1      32.218  22.020  26.018  1.00  0.00     0.033 C 
ATOM     14  C   UNL A   1      32.686  22.551  23.566  1.00  0.00     0.033 C 
ATOM     15  C   UNL A   1      32.831  21.514  24.701  1.00  0.00     0.062 C 
BRANCH  15  16
ATOM     16  C   UNL A   1      34.260  21.181  24.997  1.00  0.00     0.140 A 
ATOM     17  N   UNL A   1      34.836  20.012  24.789  1.00  0.00    -0.134 NA
ATOM     18  N   UNL A   1      35.232  22.113  25.308  1.00  0.00    -0.286 N 
ATOM     19  N   UNL A   1      36.191  20.166  24.940  1.00  0.00    -0.130 NA
ATOM     20  C   UNL A   1      36.425  21.409  25.286  1.00  0.00     0.160 A 
ATOM     21  C   UNL A   1      35.164  23.486  25.543  1.00  0.00     0.095 A 
ATOM     22  C   UNL A   1      37.617  22.110  25.609  1.00  0.00     0.050 A 
ATOM     23  C   UNL A   1      36.301  24.161  25.778  1.00  0.00     0.019 A 
ATOM     24  C   UNL A   1      37.560  23.433  25.850  1.00  0.00     0.005 A 
ENDBRANCH  15  16
ENDBRANCH   7   8
ENDBRANCH   6   7
ENDBRANCH   4   6
ENDBRANCH   3   4
ENDBRANCH   2   3
ENDBRANCH   1   2
BRANCH   1  25
ATOM     25  O   UNL A   1      32.076  29.314  26.845  1.00  0.00    -0.374 OA
BRANCH  25  26
ATOM     26  C   UNL A   1      31.803  30.528  26.144  1.00  0.00     0.202 C 
BRANCH  26  27
ATOM     27  C   UNL A   1      31.731  31.847  26.927  1.00  0.00     0.261 C 
BRANCH  27  28
ATOM     28  O   UNL A   1      32.812  32.764  26.669  1.00  0.00    -0.460 OA
BRANCH  28  29
ATOM     29  C   UNL A   1      33.295  33.399  27.767  1.00  0.00     0.338 C 
ATOM     30  O   UNL A   1      32.748  34.292  28.397  1.00  0.00    -0.246 OA
BRANCH  29  31
ATOM     31  C   UNL A   1      34.571  32.808  28.215  1.00  0.00     0.060 A 
ATOM     32  C   UNL A   1      34.543  31.501  28.701  1.00  0.00     0.016 A 
ATOM     33  C   UNL A   1      35.751  33.555  28.283  1.00  0.00     0.016 A 
ATOM     34  C   UNL A   1      35.696  30.943  29.254  1.00  0.00     0.010 A 
ATOM     35  C   UNL A   1      36.904  32.992  28.859  1.00  0.00     0.010 A 
ATOM     36  C   UNL A   1      36.892  31.675  29.347  1.00  0.00    -0.014 A 
BRANCH  36  37
ATOM     37  C   UNL A   1      38.077  31.054  30.015  1.00  0.00     0.031 A 
ATOM     38  C   UNL A   1      38.290  31.273  31.491  1.00  0.00     0.074 A 
ATOM     39  C   UNL A   1      38.922  30.242  29.346  1.00  0.00     0.049 A 
ATOM     40  N   UNL A   1      39.175  30.736  32.296  1.00  0.00    -0.248 NA
ATOM     41  C   UNL A   1      37.383  32.226  32.150  1.00  0.00     0.031 C 
ATOM     42  C   UNL A   1      38.809  29.891  27.933  1.00  0.00     0.029 A 
ATOM     43  N   UNL A   1      40.007  29.508  29.781  1.00  0.00    -0.354 N 
ATOM     44  C   UNL A   1      38.959  31.321  33.537  1.00  0.00     0.074 A 
ATOM     45  C   UNL A   1      37.811  32.191  33.402  1.00  0.00     0.031 C 
ATOM     46  C   UNL A   1      39.719  28.946  27.640  1.00  0.00     0.029 A 
ATOM     47  C   UNL A   1      40.507  28.643  28.833  1.00  0.00     0.049 A 
ATOM     48  H   UNL A   1      40.388  29.596  30.684  1.00  0.00     0.167 HD
ATOM     49  C   UNL A   1      39.691  31.205  34.670  1.00  0.00     0.037 A 
ATOM     50  C   UNL A   1      41.462  27.693  28.932  1.00  0.00     0.037 A 
ATOM     51  C   UNL A   1      40.867  30.392  34.811  1.00  0.00     0.049 A 
ATOM     52  C   UNL A   1      42.235  27.559  30.222  1.00  0.00     0.074 A 
ATOM     53  C   UNL A   1      41.723  30.292  35.893  1.00  0.00     0.029 A 
ATOM     54  N   UNL A   1      41.364  29.553  33.827  1.00  0.00    -0.354 N 
ATOM     55  N   UNL A   1      42.004  28.096  31.394  1.00  0.00    -0.248 NA
ATOM     56  C   UNL A   1      43.435  26.704  30.184  1.00  0.00     0.031 C 
ATOM     57  C   UNL A   1      42.771  29.435  35.544  1.00  0.00     0.029 A 
ATOM     58  C   UNL A   1      42.538  28.963  34.263  1.00  0.00     0.049 A 
ATOM     59  H   UNL A   1      40.946  29.400  32.949  1.00  0.00     0.167 HD
ATOM     60  C   UNL A   1      43.039  27.669  32.217  1.00  0.00     0.074 A 
ATOM     61  C   UNL A   1      43.848  26.755  31.442  1.00  0.00     0.031 C 
ATOM     62  C   UNL A   1      43.328  28.045  33.487  1.00  0.00     0.037 A 
BRANCH  49  63
ATOM     63  C   UNL A   1      39.321  32.110  35.804  1.00  0.00     0.064 A 
ATOM     64  C   UNL A   1      38.395  31.740  36.788  1.00  0.00     0.173 A 
ATOM     65  C   UNL A   1      39.902  33.385  35.886  1.00  0.00     0.173 A 
ATOM     66  F   UNL A   1      37.799  30.539  36.739  1.00  0.00    -0.203 F 
ATOM     67  C   UNL A   1      38.046  32.627  37.804  1.00  0.00     0.198 A 
ATOM     68  C   UNL A   1      39.566  34.260  36.912  1.00  0.00     0.198 A 
ATOM     69  F   UNL A   1      40.791  33.781  34.963  1.00  0.00    -0.203 F 
ATOM     70  F   UNL A   1      37.126  32.276  38.713  1.00  0.00    -0.200 F 
ATOM     71  C   UNL A   1      38.633  33.884  37.866  1.00  0.00     0.200 A 
ATOM     72  F   UNL A   1      40.137  35.471  36.971  1.00  0.00    -0.200 F 
ATOM     73  F   UNL A   1      38.290  34.739  38.839  1.00  0.00    -0.200 F 
ENDBRANCH  49  63
BRANCH  50  74
ATOM     74  C   UNL A   1      41.752  26.745  27.814  1.00  0.00     0.064 A 
ATOM     75  C   UNL A   1      41.084  25.509  27.753  1.00  0.00     0.173 A 
ATOM     76  C   UNL A   1      42.722  26.993  26.834  1.00  0.00     0.173 A 
ATOM     77  F   UNL A   1      40.175  25.192  28.687  1.00  0.00    -0.203 F 
ATOM     78  C   UNL A   1      41.370  24.570  26.765  1.00  0.00     0.198 A 
ATOM     79  C   UNL A   1      42.992  26.062  25.830  1.00  0.00     0.198 A 
ATOM     80  F   UNL A   1      43.418  28.140  26.850  1.00  0.00    -0.203 F 
ATOM     81  F   UNL A   1      40.732  23.391  26.761  1.00  0.00    -0.200 F 
ATOM     82  C   UNL A   1      42.321  24.849  25.799  1.00  0.00     0.200 A 
ATOM     83  F   UNL A   1      43.909  26.339  24.893  1.00  0.00    -0.200 F 
ATOM     84  F   UNL A   1      42.598  23.947  24.848  1.00  0.00    -0.200 F 
ENDBRANCH  50  74
BRANCH  62  85
ATOM     85  C   UNL A   1      44.590  27.515  34.104  1.00  0.00     0.064 A 
ATOM     86  C   UNL A   1      44.584  26.324  34.848  1.00  0.00     0.173 A 
ATOM     87  C   UNL A   1      45.823  28.143  33.881  1.00  0.00     0.173 A 
ATOM     88  F   UNL A   1      43.428  25.692  35.100  1.00  0.00    -0.203 F 
ATOM     89  C   UNL A   1      45.764  25.789  35.357  1.00  0.00     0.198 A 
ATOM     90  C   UNL A   1      47.006  27.590  34.369  1.00  0.00     0.198 A 
ATOM     91  F   UNL A   1      45.886  29.280  33.172  1.00  0.00    -0.203 F 
ATOM     92  F   UNL A   1      45.727  24.670  36.091  1.00  0.00    -0.200 F 
ATOM     93  C   UNL A   1      46.975  26.417  35.107  1.00  0.00     0.200 A 
ATOM     94  F   UNL A   1      48.178  28.189  34.115  1.00  0.00    -0.200 F 
ATOM     95  F   UNL A   1      48.113  25.890  35.580  1.00  0.00    -0.200 F 
ENDBRANCH  62  85
ENDBRANCH  36  37
ENDBRANCH  29  31
ENDBRANCH  28  29
ENDBRANCH  27  28
ENDBRANCH  26  27
ENDBRANCH  25  26
ENDBRANCH   1  25
TORSDOF 17
ENDMDL
