MODEL 1
REMARK VINA RESULT:     -11.5      0.000      0.000
REMARK SMILES Cc1nc2nc(CNC(=O)OC(C)(C)C)nn2c(C)c1CCC(=O)OCCOCCOC(=O)c1ccc(-c2c3nc(c(-c4c(F)c(F)c(F)c(F)c4F)c4ccc([nH]4)c(-c4c(F)c(F)c(F)c(F)c4F)c4nc(c(-c5c(F)c(F)c(F)c(F)c5F)c5ccc2[nH]5)C=C4)C=C3)cc1
REMARK SMILES IDX 26 1 25 2 23 3 24 4 22 5 21 6 20 7 1 8 2 9 3 10 4 11 18 12
REMARK SMILES IDX 5 13 17 14 19 15 6 16 16 17 7 18 8 19 9 20 10 22 11 23 12 24
REMARK SMILES IDX 13 25 14 26 15 27 27 28 28 29 29 30 30 31 31 32 32 33 33 34
REMARK SMILES IDX 34 35 35 36 96 37 36 38 95 39 37 40 38 41 39 42 89 43 40 44
REMARK SMILES IDX 94 45 88 46 90 47 41 48 93 49 87 50 86 51 42 53 74 54 54 55
REMARK SMILES IDX 73 56 55 57 58 58 72 59 91 60 56 61 57 62 71 64 92 65 59 66
REMARK SMILES IDX 43 67 44 68 52 69 45 70 46 71 50 72 53 73 47 74 48 75 51 76
REMARK SMILES IDX 49 77 75 78 76 79 84 80 77 81 78 82 82 83 85 84 79 85 80 86
REMARK SMILES IDX 83 87 81 88 60 89 61 90 69 91 62 92 63 93 67 94 70 95 64 96
REMARK SMILES IDX 65 97 68 98 66 99
REMARK H PARENT 8 21 90 52 58 63
REMARK Flexibility Score: inf
ROOT
ATOM      1  C   UNL A   1      31.408  30.105  25.306  1.00  0.00     0.261 C 
ENDROOT
BRANCH   1   2
ATOM      2  O   UNL A   1      32.130  28.878  24.986  1.00  0.00    -0.463 OA
BRANCH   2   3
ATOM      3  C   UNL A   1      31.710  27.678  25.442  1.00  0.00     0.306 C 
ATOM      4  O   UNL A   1      32.258  27.058  26.343  1.00  0.00    -0.252 OA
BRANCH   3   5
ATOM      5  C   UNL A   1      30.477  27.158  24.692  1.00  0.00     0.127 C 
BRANCH   5   6
ATOM      6  C   UNL A   1      30.644  26.232  23.454  1.00  0.00     0.051 C 
BRANCH   6   7
ATOM      7  C   UNL A   1      31.865  25.320  23.403  1.00  0.00    -0.005 A 
ATOM      8  C   UNL A   1      33.343  27.042  22.105  1.00  0.00     0.067 C 
ATOM      9  C   UNL A   1      33.198  25.666  22.721  1.00  0.00     0.046 A 
ATOM     10  N   UNL A   1      34.265  24.905  22.684  1.00  0.00    -0.216 NA
ATOM     11  C   UNL A   1      34.201  23.697  23.323  1.00  0.00     0.252 A 
ATOM     12  C   UNL A   1      31.958  24.168  24.089  1.00  0.00     0.048 A 
ATOM     13  N   UNL A   1      35.121  22.787  23.614  1.00  0.00    -0.192 NA
ATOM     14  N   UNL A   1      33.036  23.328  23.955  1.00  0.00    -0.201 N 
ATOM     15  C   UNL A   1      31.044  23.693  25.139  1.00  0.00     0.067 C 
ATOM     16  C   UNL A   1      34.429  21.855  24.357  1.00  0.00     0.172 A 
ATOM     17  N   UNL A   1      33.135  22.101  24.483  1.00  0.00    -0.148 NA
BRANCH  16  18
ATOM     18  C   UNL A   1      34.970  20.651  25.031  1.00  0.00     0.199 C 
BRANCH  18  19
ATOM     19  N   UNL A   1      33.918  20.021  25.796  1.00  0.00    -0.314 N 
ATOM     20  C   UNL A   1      33.384  18.817  25.489  1.00  0.00     0.408 C 
ATOM     21  H   UNL A   1      33.572  20.496  26.585  1.00  0.00     0.167 HD
ATOM     22  O   UNL A   1      32.427  18.359  26.094  1.00  0.00    -0.225 OA
BRANCH  20  23
ATOM     23  O   UNL A   1      34.019  18.253  24.439  1.00  0.00    -0.444 OA
BRANCH  23  24
ATOM     24  C   UNL A   1      33.391  17.213  23.661  1.00  0.00     0.106 C 
ATOM     25  C   UNL A   1      32.768  16.129  24.542  1.00  0.00     0.056 C 
ATOM     26  C   UNL A   1      32.384  17.843  22.695  1.00  0.00     0.056 C 
ATOM     27  C   UNL A   1      34.541  16.596  22.853  1.00  0.00     0.056 C 
ENDBRANCH  23  24
ENDBRANCH  20  23
ENDBRANCH  18  19
ENDBRANCH  16  18
ENDBRANCH   6   7
ENDBRANCH   5   6
ENDBRANCH   3   5
ENDBRANCH   2   3
ENDBRANCH   1   2
BRANCH   1  28
ATOM     28  C   UNL A   1      31.947  30.918  26.516  1.00  0.00     0.202 C 
BRANCH  28  29
ATOM     29  O   UNL A   1      33.316  30.693  26.840  1.00  0.00    -0.374 OA
BRANCH  29  30
ATOM     30  C   UNL A   1      33.820  31.320  28.014  1.00  0.00     0.202 C 
BRANCH  30  31
ATOM     31  C   UNL A   1      34.348  32.736  27.812  1.00  0.00     0.261 C 
BRANCH  31  32
ATOM     32  O   UNL A   1      35.358  33.062  28.771  1.00  0.00    -0.460 OA
BRANCH  32  33
ATOM     33  C   UNL A   1      35.621  32.155  29.735  1.00  0.00     0.338 C 
ATOM     34  O   UNL A   1      35.022  31.997  30.787  1.00  0.00    -0.246 OA
BRANCH  33  35
ATOM     35  C   UNL A   1      36.857  31.438  29.350  1.00  0.00     0.060 A 
ATOM     36  C   UNL A   1      36.744  30.147  28.835  1.00  0.00     0.016 A 
ATOM     37  C   UNL A   1      38.123  32.008  29.596  1.00  0.00     0.016 A 
ATOM     38  C   UNL A   1      37.887  29.371  28.744  1.00  0.00     0.010 A 
ATOM     39  C   UNL A   1      39.263  31.252  29.461  1.00  0.00     0.010 A 
ATOM     40  C   UNL A   1      39.119  29.913  29.141  1.00  0.00    -0.014 A 
BRANCH  40  41
ATOM     41  C   UNL A   1      40.262  29.034  29.252  1.00  0.00     0.031 A 
ATOM     42  C   UNL A   1      40.711  28.775  30.634  1.00  0.00     0.074 A 
ATOM     43  C   UNL A   1      40.870  28.497  28.178  1.00  0.00     0.049 A 
ATOM     44  N   UNL A   1      41.737  29.295  31.217  1.00  0.00    -0.248 NA
ATOM     45  C   UNL A   1      39.858  27.968  31.511  1.00  0.00     0.031 C 
ATOM     46  C   UNL A   1      40.443  28.443  26.778  1.00  0.00     0.029 A 
ATOM     47  N   UNL A   1      42.054  27.832  28.156  1.00  0.00    -0.354 N 
ATOM     48  C   UNL A   1      41.767  28.759  32.498  1.00  0.00     0.074 A 
ATOM     49  C   UNL A   1      40.516  28.065  32.669  1.00  0.00     0.031 C 
ATOM     50  C   UNL A   1      41.257  27.606  26.090  1.00  0.00     0.029 A 
ATOM     51  C   UNL A   1      42.348  27.200  26.958  1.00  0.00     0.049 A 
ATOM     52  H   UNL A   1      42.659  27.801  28.932  1.00  0.00     0.167 HD
ATOM     53  C   UNL A   1      42.918  28.778  33.227  1.00  0.00     0.037 A 
ATOM     54  C   UNL A   1      43.409  26.383  26.736  1.00  0.00     0.037 A 
ATOM     55  C   UNL A   1      43.860  29.728  32.682  1.00  0.00     0.049 A 
ATOM     56  C   UNL A   1      44.445  26.737  27.744  1.00  0.00     0.074 A 
ATOM     57  C   UNL A   1      43.848  31.097  32.488  1.00  0.00     0.029 A 
ATOM     58  N   UNL A   1      44.873  29.255  31.881  1.00  0.00    -0.354 N 
ATOM     59  N   UNL A   1      45.085  27.875  27.740  1.00  0.00    -0.248 NA
ATOM     60  C   UNL A   1      44.405  26.046  29.026  1.00  0.00     0.031 C 
ATOM     61  C   UNL A   1      44.481  31.296  31.224  1.00  0.00     0.029 A 
ATOM     62  C   UNL A   1      44.900  30.049  30.761  1.00  0.00     0.049 A 
ATOM     63  H   UNL A   1      45.465  28.493  32.073  1.00  0.00     0.167 HD
ATOM     64  C   UNL A   1      45.158  28.245  29.074  1.00  0.00     0.074 A 
ATOM     65  C   UNL A   1      44.777  27.051  29.826  1.00  0.00     0.031 C 
ATOM     66  C   UNL A   1      45.234  29.557  29.446  1.00  0.00     0.037 A 
BRANCH  53  67
ATOM     67  C   UNL A   1      43.335  27.711  34.207  1.00  0.00     0.064 A 
ATOM     68  C   UNL A   1      43.633  26.420  33.723  1.00  0.00     0.173 A 
ATOM     69  C   UNL A   1      43.160  27.810  35.603  1.00  0.00     0.173 A 
ATOM     70  F   UNL A   1      43.819  26.204  32.412  1.00  0.00    -0.203 F 
ATOM     71  C   UNL A   1      43.649  25.302  34.561  1.00  0.00     0.198 A 
ATOM     72  C   UNL A   1      43.228  26.699  36.443  1.00  0.00     0.198 A 
ATOM     73  F   UNL A   1      42.805  28.952  36.201  1.00  0.00    -0.203 F 
ATOM     74  F   UNL A   1      43.798  24.080  34.034  1.00  0.00    -0.200 F 
ATOM     75  C   UNL A   1      43.435  25.441  35.919  1.00  0.00     0.200 A 
ATOM     76  F   UNL A   1      43.004  26.853  37.756  1.00  0.00    -0.200 F 
ATOM     77  F   UNL A   1      43.380  24.366  36.713  1.00  0.00    -0.200 F 
ENDBRANCH  53  67
BRANCH  54  78
ATOM     78  C   UNL A   1      43.419  25.091  26.006  1.00  0.00     0.064 A 
ATOM     79  C   UNL A   1      44.441  24.787  25.091  1.00  0.00     0.173 A 
ATOM     80  C   UNL A   1      42.603  24.017  26.412  1.00  0.00     0.173 A 
ATOM     81  F   UNL A   1      45.288  25.743  24.684  1.00  0.00    -0.203 F 
ATOM     82  C   UNL A   1      44.656  23.480  24.637  1.00  0.00     0.198 A 
ATOM     83  C   UNL A   1      42.817  22.714  25.957  1.00  0.00     0.198 A 
ATOM     84  F   UNL A   1      41.642  24.191  27.331  1.00  0.00    -0.203 F 
ATOM     85  F   UNL A   1      45.681  23.217  23.814  1.00  0.00    -0.200 F 
ATOM     86  C   UNL A   1      43.852  22.443  25.082  1.00  0.00     0.200 A 
ATOM     87  F   UNL A   1      42.056  21.715  26.424  1.00  0.00    -0.200 F 
ATOM     88  F   UNL A   1      44.100  21.181  24.704  1.00  0.00    -0.200 F 
ENDBRANCH  54  78
BRANCH  66  89
ATOM     89  C   UNL A   1      45.443  30.585  28.371  1.00  0.00     0.064 A 
ATOM     90  C   UNL A   1      44.397  31.182  27.645  1.00  0.00     0.173 A 
ATOM     91  C   UNL A   1      46.730  31.107  28.189  1.00  0.00     0.173 A 
ATOM     92  F   UNL A   1      43.125  30.807  27.835  1.00  0.00    -0.203 F 
ATOM     93  C   UNL A   1      44.637  32.228  26.755  1.00  0.00     0.198 A 
ATOM     94  C   UNL A   1      46.963  32.174  27.325  1.00  0.00     0.198 A 
ATOM     95  F   UNL A   1      47.759  30.614  28.897  1.00  0.00    -0.203 F 
ATOM     96  F   UNL A   1      43.621  32.780  26.075  1.00  0.00    -0.200 F 
ATOM     97  C   UNL A   1      45.918  32.729  26.603  1.00  0.00     0.200 A 
ATOM     98  F   UNL A   1      48.196  32.686  27.219  1.00  0.00    -0.200 F 
ATOM     99  F   UNL A   1      46.144  33.765  25.784  1.00  0.00    -0.200 F 
ENDBRANCH  66  89
ENDBRANCH  40  41
ENDBRANCH  33  35
ENDBRANCH  32  33
ENDBRANCH  31  32
ENDBRANCH  30  31
ENDBRANCH  29  30
ENDBRANCH  28  29
ENDBRANCH   1  28
TORSDOF 20
ENDMDL
MODEL 2
REMARK VINA RESULT:     -11.3      5.915     12.636
REMARK SMILES Cc1nc2nc(CNC(=O)OC(C)(C)C)nn2c(C)c1CCC(=O)OCCOCCOC(=O)c1ccc(-c2c3nc(c(-c4c(F)c(F)c(F)c(F)c4F)c4ccc([nH]4)c(-c4c(F)c(F)c(F)c(F)c4F)c4nc(c(-c5c(F)c(F)c(F)c(F)c5F)c5ccc2[nH]5)C=C4)C=C3)cc1
REMARK SMILES IDX 26 1 25 2 23 3 24 4 22 5 21 6 20 7 1 8 2 9 3 10 4 11 18 12
REMARK SMILES IDX 5 13 17 14 19 15 6 16 16 17 7 18 8 19 9 20 10 22 11 23 12 24
REMARK SMILES IDX 13 25 14 26 15 27 27 28 28 29 29 30 30 31 31 32 32 33 33 34
REMARK SMILES IDX 34 35 35 36 96 37 36 38 95 39 37 40 38 41 39 42 89 43 40 44
REMARK SMILES IDX 94 45 88 46 90 47 41 48 93 49 87 50 86 51 42 53 74 54 54 55
REMARK SMILES IDX 73 56 55 57 58 58 72 59 91 60 56 61 57 62 71 64 92 65 59 66
REMARK SMILES IDX 43 67 44 68 52 69 45 70 46 71 50 72 53 73 47 74 48 75 51 76
REMARK SMILES IDX 49 77 75 78 76 79 84 80 77 81 78 82 82 83 85 84 79 85 80 86
REMARK SMILES IDX 83 87 81 88 60 89 61 90 69 91 62 92 63 93 67 94 70 95 64 96
REMARK SMILES IDX 65 97 68 98 66 99
REMARK H PARENT 8 21 90 52 58 63
REMARK Flexibility Score: inf
ROOT
ATOM      1  C   UNL A   1      45.851  22.922  24.225  1.00  0.00     0.261 C 
ENDROOT
BRANCH   1   2
ATOM      2  O   UNL A   1      45.273  24.201  24.622  1.00  0.00    -0.463 OA
BRANCH   2   3
ATOM      3  C   UNL A   1      45.081  24.510  25.922  1.00  0.00     0.306 C 
ATOM      4  O   UNL A   1      45.323  23.750  26.850  1.00  0.00    -0.252 OA
BRANCH   3   5
ATOM      5  C   UNL A   1      44.503  25.917  26.117  1.00  0.00     0.127 C 
BRANCH   5   6
ATOM      6  C   UNL A   1      45.291  26.985  26.928  1.00  0.00     0.051 C 
BRANCH   6   7
ATOM      7  C   UNL A   1      46.801  27.056  26.738  1.00  0.00    -0.005 A 
ATOM      8  C   UNL A   1      47.339  25.769  28.947  1.00  0.00     0.067 C 
ATOM      9  C   UNL A   1      47.843  26.502  27.722  1.00  0.00     0.046 A 
ATOM     10  N   UNL A   1      49.144  26.535  27.566  1.00  0.00    -0.216 NA
ATOM     11  C   UNL A   1      49.629  27.097  26.418  1.00  0.00     0.252 A 
ATOM     12  C   UNL A   1      47.385  27.478  25.603  1.00  0.00     0.048 A 
ATOM     13  N   UNL A   1      50.842  27.141  25.883  1.00  0.00    -0.192 NA
ATOM     14  N   UNL A   1      48.749  27.610  25.493  1.00  0.00    -0.201 N 
ATOM     15  C   UNL A   1      46.724  27.731  24.314  1.00  0.00     0.067 C 
ATOM     16  C   UNL A   1      50.638  27.764  24.672  1.00  0.00     0.172 A 
ATOM     17  N   UNL A   1      49.395  28.162  24.458  1.00  0.00    -0.148 NA
BRANCH  16  18
ATOM     18  C   UNL A   1      51.632  28.009  23.600  1.00  0.00     0.199 C 
BRANCH  18  19
ATOM     19  N   UNL A   1      52.328  29.246  23.869  1.00  0.00    -0.314 N 
ATOM     20  C   UNL A   1      52.203  30.359  23.109  1.00  0.00     0.408 C 
ATOM     21  H   UNL A   1      52.926  29.281  24.649  1.00  0.00     0.167 HD
ATOM     22  O   UNL A   1      52.882  31.355  23.303  1.00  0.00    -0.225 OA
BRANCH  20  23
ATOM     23  O   UNL A   1      51.287  30.185  22.133  1.00  0.00    -0.444 OA
BRANCH  23  24
ATOM     24  C   UNL A   1      51.689  30.013  20.758  1.00  0.00     0.106 C 
ATOM     25  C   UNL A   1      53.208  29.912  20.608  1.00  0.00     0.056 C 
ATOM     26  C   UNL A   1      50.954  28.809  20.163  1.00  0.00     0.056 C 
ATOM     27  C   UNL A   1      51.204  31.291  20.058  1.00  0.00     0.056 C 
ENDBRANCH  23  24
ENDBRANCH  20  23
ENDBRANCH  18  19
ENDBRANCH  16  18
ENDBRANCH   6   7
ENDBRANCH   5   6
ENDBRANCH   3   5
ENDBRANCH   2   3
ENDBRANCH   1   2
BRANCH   1  28
ATOM     28  C   UNL A   1      44.843  21.766  23.974  1.00  0.00     0.202 C 
BRANCH  28  29
ATOM     29  O   UNL A   1      44.861  20.721  24.943  1.00  0.00    -0.374 OA
BRANCH  29  30
ATOM     30  C   UNL A   1      43.639  20.432  25.613  1.00  0.00     0.202 C 
BRANCH  30  31
ATOM     31  C   UNL A   1      42.749  21.640  25.882  1.00  0.00     0.261 C 
BRANCH  31  32
ATOM     32  O   UNL A   1      42.509  21.814  27.281  1.00  0.00    -0.460 OA
BRANCH  32  33
ATOM     33  C   UNL A   1      41.325  22.346  27.652  1.00  0.00     0.338 C 
ATOM     34  O   UNL A   1      40.275  21.756  27.844  1.00  0.00    -0.246 OA
BRANCH  33  35
ATOM     35  C   UNL A   1      41.485  23.818  27.679  1.00  0.00     0.060 A 
ATOM     36  C   UNL A   1      42.339  24.376  28.631  1.00  0.00     0.016 A 
ATOM     37  C   UNL A   1      40.714  24.639  26.833  1.00  0.00     0.016 A 
ATOM     38  C   UNL A   1      42.276  25.741  28.853  1.00  0.00     0.010 A 
ATOM     39  C   UNL A   1      40.686  26.000  27.022  1.00  0.00     0.010 A 
ATOM     40  C   UNL A   1      41.385  26.519  28.098  1.00  0.00    -0.014 A 
BRANCH  40  41
ATOM     41  C   UNL A   1      41.165  27.896  28.485  1.00  0.00     0.031 A 
ATOM     42  C   UNL A   1      42.184  28.845  28.000  1.00  0.00     0.074 A 
ATOM     43  C   UNL A   1      40.112  28.279  29.232  1.00  0.00     0.049 A 
ATOM     44  N   UNL A   1      43.137  29.369  28.694  1.00  0.00    -0.248 NA
ATOM     45  C   UNL A   1      42.249  29.137  26.565  1.00  0.00     0.031 C 
ATOM     46  C   UNL A   1      38.899  27.547  29.601  1.00  0.00     0.029 A 
ATOM     47  N   UNL A   1      39.921  29.491  29.814  1.00  0.00    -0.354 N 
ATOM     48  C   UNL A   1      43.838  30.196  27.828  1.00  0.00     0.074 A 
ATOM     49  C   UNL A   1      43.339  29.906  26.507  1.00  0.00     0.031 C 
ATOM     50  C   UNL A   1      38.012  28.401  30.169  1.00  0.00     0.029 A 
ATOM     51  C   UNL A   1      38.658  29.690  30.350  1.00  0.00     0.049 A 
ATOM     52  H   UNL A   1      40.625  30.178  29.852  1.00  0.00     0.167 HD
ATOM     53  C   UNL A   1      44.635  31.190  28.314  1.00  0.00     0.037 A 
ATOM     54  C   UNL A   1      38.196  30.854  30.872  1.00  0.00     0.037 A 
ATOM     55  C   UNL A   1      44.933  30.976  29.711  1.00  0.00     0.049 A 
ATOM     56  C   UNL A   1      39.388  31.644  31.285  1.00  0.00     0.074 A 
ATOM     57  C   UNL A   1      45.581  29.980  30.418  1.00  0.00     0.029 A 
ATOM     58  N   UNL A   1      44.208  31.675  30.646  1.00  0.00    -0.354 N 
ATOM     59  N   UNL A   1      40.169  31.296  32.272  1.00  0.00    -0.248 NA
ATOM     60  C   UNL A   1      39.987  32.531  30.295  1.00  0.00     0.031 C 
ATOM     61  C   UNL A   1      44.815  29.819  31.612  1.00  0.00     0.029 A 
ATOM     62  C   UNL A   1      43.794  30.769  31.591  1.00  0.00     0.049 A 
ATOM     63  H   UNL A   1      44.020  32.642  30.640  1.00  0.00     0.167 HD
ATOM     64  C   UNL A   1      41.452  31.560  31.818  1.00  0.00     0.074 A 
ATOM     65  C   UNL A   1      41.275  32.377  30.618  1.00  0.00     0.031 C 
ATOM     66  C   UNL A   1      42.529  30.859  32.278  1.00  0.00     0.037 A 
BRANCH  53  67
ATOM     67  C   UNL A   1      44.858  32.521  27.643  1.00  0.00     0.064 A 
ATOM     68  C   UNL A   1      46.052  32.730  26.922  1.00  0.00     0.173 A 
ATOM     69  C   UNL A   1      44.111  33.684  27.929  1.00  0.00     0.173 A 
ATOM     70  F   UNL A   1      46.845  31.699  26.595  1.00  0.00    -0.203 F 
ATOM     71  C   UNL A   1      46.510  34.012  26.607  1.00  0.00     0.198 A 
ATOM     72  C   UNL A   1      44.546  34.957  27.566  1.00  0.00     0.198 A 
ATOM     73  F   UNL A   1      42.995  33.654  28.665  1.00  0.00    -0.203 F 
ATOM     74  F   UNL A   1      47.716  34.166  26.045  1.00  0.00    -0.200 F 
ATOM     75  C   UNL A   1      45.762  35.125  26.939  1.00  0.00     0.200 A 
ATOM     76  F   UNL A   1      43.813  36.026  27.910  1.00  0.00    -0.200 F 
ATOM     77  F   UNL A   1      46.231  36.356  26.701  1.00  0.00    -0.200 F 
ENDBRANCH  53  67
BRANCH  54  78
ATOM     78  C   UNL A   1      36.864  31.473  30.665  1.00  0.00     0.064 A 
ATOM     79  C   UNL A   1      36.003  31.714  31.748  1.00  0.00     0.173 A 
ATOM     80  C   UNL A   1      36.537  32.113  29.453  1.00  0.00     0.173 A 
ATOM     81  F   UNL A   1      36.264  31.177  32.949  1.00  0.00    -0.203 F 
ATOM     82  C   UNL A   1      34.902  32.571  31.636  1.00  0.00     0.198 A 
ATOM     83  C   UNL A   1      35.438  32.966  29.341  1.00  0.00     0.198 A 
ATOM     84  F   UNL A   1      37.331  32.000  28.379  1.00  0.00    -0.203 F 
ATOM     85  F   UNL A   1      34.140  32.827  32.709  1.00  0.00    -0.200 F 
ATOM     86  C   UNL A   1      34.629  33.207  30.437  1.00  0.00     0.200 A 
ATOM     87  F   UNL A   1      35.207  33.604  28.186  1.00  0.00    -0.200 F 
ATOM     88  F   UNL A   1      33.617  34.081  30.346  1.00  0.00    -0.200 F 
ENDBRANCH  54  78
BRANCH  66  89
ATOM     89  C   UNL A   1      42.322  29.929  33.440  1.00  0.00     0.064 A 
ATOM     90  C   UNL A   1      41.956  28.578  33.305  1.00  0.00     0.173 A 
ATOM     91  C   UNL A   1      42.671  30.375  34.721  1.00  0.00     0.173 A 
ATOM     92  F   UNL A   1      41.704  28.049  32.101  1.00  0.00    -0.203 F 
ATOM     93  C   UNL A   1      41.910  27.725  34.408  1.00  0.00     0.198 A 
ATOM     94  C   UNL A   1      42.656  29.514  35.816  1.00  0.00     0.198 A 
ATOM     95  F   UNL A   1      43.081  31.640  34.902  1.00  0.00    -0.203 F 
ATOM     96  F   UNL A   1      41.559  26.440  34.251  1.00  0.00    -0.200 F 
ATOM     97  C   UNL A   1      42.270  28.193  35.660  1.00  0.00     0.200 A 
ATOM     98  F   UNL A   1      43.052  29.959  37.016  1.00  0.00    -0.200 F 
ATOM     99  F   UNL A   1      42.272  27.363  36.713  1.00  0.00    -0.200 F 
ENDBRANCH  66  89
ENDBRANCH  40  41
ENDBRANCH  33  35
ENDBRANCH  32  33
ENDBRANCH  31  32
ENDBRANCH  30  31
ENDBRANCH  29  30
ENDBRANCH  28  29
ENDBRANCH   1  28
TORSDOF 20
ENDMDL
MODEL 3
REMARK VINA RESULT:     -11.3      1.703      2.307
REMARK SMILES Cc1nc2nc(CNC(=O)OC(C)(C)C)nn2c(C)c1CCC(=O)OCCOCCOC(=O)c1ccc(-c2c3nc(c(-c4c(F)c(F)c(F)c(F)c4F)c4ccc([nH]4)c(-c4c(F)c(F)c(F)c(F)c4F)c4nc(c(-c5c(F)c(F)c(F)c(F)c5F)c5ccc2[nH]5)C=C4)C=C3)cc1
REMARK SMILES IDX 26 1 25 2 23 3 24 4 22 5 21 6 20 7 1 8 2 9 3 10 4 11 18 12
REMARK SMILES IDX 5 13 17 14 19 15 6 16 16 17 7 18 8 19 9 20 10 22 11 23 12 24
REMARK SMILES IDX 13 25 14 26 15 27 27 28 28 29 29 30 30 31 31 32 32 33 33 34
REMARK SMILES IDX 34 35 35 36 96 37 36 38 95 39 37 40 38 41 39 42 89 43 40 44
REMARK SMILES IDX 94 45 88 46 90 47 41 48 93 49 87 50 86 51 42 53 74 54 54 55
REMARK SMILES IDX 73 56 55 57 58 58 72 59 91 60 56 61 57 62 71 64 92 65 59 66
REMARK SMILES IDX 43 67 44 68 52 69 45 70 46 71 50 72 53 73 47 74 48 75 51 76
REMARK SMILES IDX 49 77 75 78 76 79 84 80 77 81 78 82 82 83 85 84 79 85 80 86
REMARK SMILES IDX 83 87 81 88 60 89 61 90 69 91 62 92 63 93 67 94 70 95 64 96
REMARK SMILES IDX 65 97 68 98 66 99
REMARK H PARENT 8 21 90 52 58 63
REMARK Flexibility Score: inf
ROOT
ATOM      1  C   UNL A   1      33.215  30.335  27.213  1.00  0.00     0.261 C 
ENDROOT
BRANCH   1   2
ATOM      2  O   UNL A   1      33.093  30.042  25.789  1.00  0.00    -0.463 OA
BRANCH   2   3
ATOM      3  C   UNL A   1      31.890  30.025  25.177  1.00  0.00     0.306 C 
ATOM      4  O   UNL A   1      30.936  30.709  25.522  1.00  0.00    -0.252 OA
BRANCH   3   5
ATOM      5  C   UNL A   1      31.834  29.034  24.007  1.00  0.00     0.127 C 
BRANCH   5   6
ATOM      6  C   UNL A   1      30.800  27.873  24.010  1.00  0.00     0.051 C 
BRANCH   6   7
ATOM      7  C   UNL A   1      31.326  26.446  24.116  1.00  0.00    -0.005 A 
ATOM      8  C   UNL A   1      31.579  26.137  21.533  1.00  0.00     0.067 C 
ATOM      9  C   UNL A   1      31.688  25.548  22.923  1.00  0.00     0.046 A 
ATOM     10  N   UNL A   1      32.162  24.327  22.994  1.00  0.00    -0.216 NA
ATOM     11  C   UNL A   1      32.372  23.803  24.239  1.00  0.00     0.252 A 
ATOM     12  C   UNL A   1      31.679  25.872  25.278  1.00  0.00     0.048 A 
ATOM     13  N   UNL A   1      32.977  22.699  24.657  1.00  0.00    -0.192 NA
ATOM     14  N   UNL A   1      32.070  24.557  25.350  1.00  0.00    -0.201 N 
ATOM     15  C   UNL A   1      31.829  26.540  26.580  1.00  0.00     0.067 C 
ATOM     16  C   UNL A   1      32.937  22.809  26.030  1.00  0.00     0.172 A 
ATOM     17  N   UNL A   1      32.291  23.873  26.479  1.00  0.00    -0.148 NA
BRANCH  16  18
ATOM     18  C   UNL A   1      33.544  21.899  27.030  1.00  0.00     0.199 C 
BRANCH  18  19
ATOM     19  N   UNL A   1      34.277  20.860  26.346  1.00  0.00    -0.314 N 
ATOM     20  C   UNL A   1      35.465  21.059  25.729  1.00  0.00     0.408 C 
ATOM     21  H   UNL A   1      33.890  19.955  26.328  1.00  0.00     0.167 HD
ATOM     22  O   UNL A   1      36.008  20.185  25.072  1.00  0.00    -0.225 OA
BRANCH  20  23
ATOM     23  O   UNL A   1      35.906  22.322  25.914  1.00  0.00    -0.444 OA
BRANCH  23  24
ATOM     24  C   UNL A   1      37.165  22.758  25.360  1.00  0.00     0.106 C 
ATOM     25  C   UNL A   1      37.038  23.178  23.895  1.00  0.00     0.056 C 
ATOM     26  C   UNL A   1      37.750  23.862  26.245  1.00  0.00     0.056 C 
ATOM     27  C   UNL A   1      38.067  21.518  25.446  1.00  0.00     0.056 C 
ENDBRANCH  23  24
ENDBRANCH  20  23
ENDBRANCH  18  19
ENDBRANCH  16  18
ENDBRANCH   6   7
ENDBRANCH   5   6
ENDBRANCH   3   5
ENDBRANCH   2   3
ENDBRANCH   1   2
BRANCH   1  28
ATOM     28  C   UNL A   1      34.406  31.245  27.623  1.00  0.00     0.202 C 
BRANCH  28  29
ATOM     29  O   UNL A   1      34.126  32.641  27.649  1.00  0.00    -0.374 OA
BRANCH  29  30
ATOM     30  C   UNL A   1      35.154  33.505  28.120  1.00  0.00     0.202 C 
BRANCH  30  31
ATOM     31  C   UNL A   1      34.935  34.064  29.522  1.00  0.00     0.261 C 
BRANCH  31  32
ATOM     32  O   UNL A   1      35.188  33.078  30.526  1.00  0.00    -0.460 OA
BRANCH  32  33
ATOM     33  C   UNL A   1      36.322  33.196  31.248  1.00  0.00     0.338 C 
ATOM     34  O   UNL A   1      36.559  34.007  32.128  1.00  0.00    -0.246 OA
BRANCH  33  35
ATOM     35  C   UNL A   1      37.301  32.227  30.706  1.00  0.00     0.060 A 
ATOM     36  C   UNL A   1      36.891  30.908  30.509  1.00  0.00     0.016 A 
ATOM     37  C   UNL A   1      38.642  32.605  30.493  1.00  0.00     0.016 A 
ATOM     38  C   UNL A   1      37.858  29.944  30.281  1.00  0.00     0.010 A 
ATOM     39  C   UNL A   1      39.597  31.654  30.220  1.00  0.00     0.010 A 
ATOM     40  C   UNL A   1      39.208  30.325  30.225  1.00  0.00    -0.014 A 
BRANCH  40  41
ATOM     41  C   UNL A   1      40.222  29.294  30.209  1.00  0.00     0.031 A 
ATOM     42  C   UNL A   1      40.844  29.017  31.518  1.00  0.00     0.074 A 
ATOM     43  C   UNL A   1      40.572  28.640  29.085  1.00  0.00     0.049 A 
ATOM     44  N   UNL A   1      42.011  29.402  31.909  1.00  0.00    -0.248 NA
ATOM     45  C   UNL A   1      40.038  28.372  32.558  1.00  0.00     0.031 C 
ATOM     46  C   UNL A   1      39.925  28.604  27.772  1.00  0.00     0.029 A 
ATOM     47  N   UNL A   1      41.635  27.810  28.920  1.00  0.00    -0.354 N 
ATOM     48  C   UNL A   1      42.170  28.909  33.197  1.00  0.00     0.074 A 
ATOM     49  C   UNL A   1      40.878  28.409  33.595  1.00  0.00     0.031 C 
ATOM     50  C   UNL A   1      40.496  27.635  27.015  1.00  0.00     0.029 A 
ATOM     51  C   UNL A   1      41.645  27.104  27.728  1.00  0.00     0.049 A 
ATOM     52  H   UNL A   1      42.344  27.717  29.596  1.00  0.00     0.167 HD
ATOM     53  C   UNL A   1      43.414  28.785  33.741  1.00  0.00     0.037 A 
ATOM     54  C   UNL A   1      42.533  26.135  27.392  1.00  0.00     0.037 A 
ATOM     55  C   UNL A   1      44.379  29.570  33.008  1.00  0.00     0.049 A 
ATOM     56  C   UNL A   1      43.755  26.368  28.209  1.00  0.00     0.074 A 
ATOM     57  C   UNL A   1      44.525  30.919  32.743  1.00  0.00     0.029 A 
ATOM     58  N   UNL A   1      45.177  28.930  32.089  1.00  0.00    -0.354 N 
ATOM     59  N   UNL A   1      44.537  27.400  28.045  1.00  0.00    -0.248 NA
ATOM     60  C   UNL A   1      43.824  25.731  29.518  1.00  0.00     0.031 C 
ATOM     61  C   UNL A   1      44.972  30.983  31.389  1.00  0.00     0.029 A 
ATOM     62  C   UNL A   1      45.135  29.675  30.936  1.00  0.00     0.049 A 
ATOM     63  H   UNL A   1      45.681  28.096  32.230  1.00  0.00     0.167 HD
ATOM     64  C   UNL A   1      44.871  27.799  29.331  1.00  0.00     0.074 A 
ATOM     65  C   UNL A   1      44.453  26.697  30.196  1.00  0.00     0.031 C 
ATOM     66  C   UNL A   1      45.186  29.097  29.615  1.00  0.00     0.037 A 
BRANCH  53  67
ATOM     67  C   UNL A   1      43.829  27.701  34.702  1.00  0.00     0.064 A 
ATOM     68  C   UNL A   1      43.638  26.353  34.334  1.00  0.00     0.173 A 
ATOM     69  C   UNL A   1      44.113  27.923  36.067  1.00  0.00     0.173 A 
ATOM     70  F   UNL A   1      43.360  26.021  33.065  1.00  0.00    -0.203 F 
ATOM     71  C   UNL A   1      43.629  25.323  35.279  1.00  0.00     0.198 A 
ATOM     72  C   UNL A   1      44.155  26.886  36.997  1.00  0.00     0.198 A 
ATOM     73  F   UNL A   1      44.249  29.150  36.579  1.00  0.00    -0.203 F 
ATOM     74  F   UNL A   1      43.305  24.079  34.901  1.00  0.00    -0.200 F 
ATOM     75  C   UNL A   1      43.877  25.592  36.611  1.00  0.00     0.200 A 
ATOM     76  F   UNL A   1      44.382  27.169  38.288  1.00  0.00    -0.200 F 
ATOM     77  F   UNL A   1      43.799  24.620  37.528  1.00  0.00    -0.200 F 
ENDBRANCH  53  67
BRANCH  54  78
ATOM     78  C   UNL A   1      42.249  24.832  26.740  1.00  0.00     0.064 A 
ATOM     79  C   UNL A   1      42.991  24.404  25.627  1.00  0.00     0.173 A 
ATOM     80  C   UNL A   1      41.456  23.856  27.375  1.00  0.00     0.173 A 
ATOM     81  F   UNL A   1      43.804  25.260  24.989  1.00  0.00    -0.203 F 
ATOM     82  C   UNL A   1      42.970  23.072  25.197  1.00  0.00     0.198 A 
ATOM     83  C   UNL A   1      41.434  22.528  26.945  1.00  0.00     0.198 A 
ATOM     84  F   UNL A   1      40.762  24.148  28.484  1.00  0.00    -0.203 F 
ATOM     85  F   UNL A   1      43.741  22.687  24.170  1.00  0.00    -0.200 F 
ATOM     86  C   UNL A   1      42.202  22.133  25.865  1.00  0.00     0.200 A 
ATOM     87  F   UNL A   1      40.716  21.622  27.622  1.00  0.00    -0.200 F 
ATOM     88  F   UNL A   1      42.233  20.844  25.498  1.00  0.00    -0.200 F 
ENDBRANCH  54  78
BRANCH  66  89
ATOM     89  C   UNL A   1      45.362  30.049  28.466  1.00  0.00     0.064 A 
ATOM     90  C   UNL A   1      44.307  30.772  27.881  1.00  0.00     0.173 A 
ATOM     91  C   UNL A   1      46.663  30.367  28.057  1.00  0.00     0.173 A 
ATOM     92  F   UNL A   1      43.043  30.598  28.287  1.00  0.00    -0.203 F 
ATOM     93  C   UNL A   1      44.546  31.743  26.908  1.00  0.00     0.198 A 
ATOM     94  C   UNL A   1      46.902  31.359  27.111  1.00  0.00     0.198 A 
ATOM     95  F   UNL A   1      47.713  29.748  28.621  1.00  0.00    -0.203 F 
ATOM     96  F   UNL A   1      43.522  32.419  26.366  1.00  0.00    -0.200 F 
ATOM     97  C   UNL A   1      45.844  32.041  26.531  1.00  0.00     0.200 A 
ATOM     98  F   UNL A   1      48.162  31.678  26.785  1.00  0.00    -0.200 F 
ATOM     99  F   UNL A   1      46.079  33.007  25.632  1.00  0.00    -0.200 F 
ENDBRANCH  66  89
ENDBRANCH  40  41
ENDBRANCH  33  35
ENDBRANCH  32  33
ENDBRANCH  31  32
ENDBRANCH  30  31
ENDBRANCH  29  30
ENDBRANCH  28  29
ENDBRANCH   1  28
TORSDOF 20
ENDMDL
