MODEL 1
REMARK VINA RESULT:     -12.9      0.000      0.000
REMARK SMILES O=C(OCCOCCOC(=O)c1ccc(-c2c3nc(c(-c4c(F)c(F)c(F)c(F)c4F)c4ccc([nH]4)c(-c4c(F)c(F)c(F)c(F)c4F)c4nc(c(-c5c(F)c(F)c(F)c(F)c5F)c5ccc2[nH]5)C=C4)C=C3)cc1)C1=NN(c2ccc(S(=O)(=O)[O-])cc2)C(=O)/C1=C\Nc1ccccc1
REMARK SMILES IDX 6 1 5 2 4 3 3 4 2 5 1 6 75 7 76 8 90 9 77 10 88 11 91 12
REMARK SMILES IDX 89 13 78 14 79 15 87 16 80 17 86 18 81 19 82 20 83 21 84 22
REMARK SMILES IDX 85 23 92 24 93 26 94 27 98 28 95 29 97 30 96 31 7 32 8 33
REMARK SMILES IDX 9 34 10 35 11 36 12 37 13 38 74 39 14 40 73 41 15 42 16 43
REMARK SMILES IDX 17 44 67 45 18 46 72 47 66 48 68 49 19 50 71 51 65 52 64 53
REMARK SMILES IDX 20 55 52 56 32 57 51 58 33 59 36 60 50 61 69 62 34 63 35 64
REMARK SMILES IDX 49 66 70 67 37 68 21 69 22 70 30 71 23 72 24 73 28 74 31 75
REMARK SMILES IDX 25 76 26 77 29 78 27 79 53 80 54 81 62 82 55 83 56 84 60 85
REMARK SMILES IDX 63 86 57 87 58 88 61 89 59 90 38 91 39 92 47 93 40 94 41 95
REMARK SMILES IDX 45 96 48 97 42 98 43 99 46 100 44 101
REMARK H PARENT 92 25 68 54 36 65
REMARK Flexibility Score: inf
ROOT
ATOM      1  O   UNL A   1      41.515  19.986  25.477  1.00  0.00    -0.374 OA
ENDROOT
BRANCH   1   2
ATOM      2  C   UNL A   1      40.374  20.006  26.321  1.00  0.00     0.202 C 
BRANCH   2   3
ATOM      3  C   UNL A   1      39.737  21.395  26.290  1.00  0.00     0.261 C 
BRANCH   3   4
ATOM      4  O   UNL A   1      38.469  21.362  25.629  1.00  0.00    -0.458 OA
BRANCH   4   5
ATOM      5  C   UNL A   1      37.717  22.480  25.635  1.00  0.00     0.359 C 
ATOM      6  O   UNL A   1      38.117  23.539  26.103  1.00  0.00    -0.244 OA
BRANCH   5   7
ATOM      7  C   UNL A   1      36.502  22.518  24.743  1.00  0.00     0.183 C 
ATOM      8  N   UNL A   1      36.315  23.650  24.118  1.00  0.00    -0.157 NA
ATOM      9  C   UNL A   1      35.344  21.591  24.584  1.00  0.00     0.093 C 
ATOM     10  N   UNL A   1      35.022  23.620  23.650  1.00  0.00    -0.196 N 
ATOM     11  C   UNL A   1      34.399  22.375  23.747  1.00  0.00     0.282 C 
ATOM     12  C   UNL A   1      34.940  20.394  25.042  1.00  0.00     0.099 C 
ATOM     13  O   UNL A   1      33.309  22.006  23.342  1.00  0.00    -0.267 OA
BRANCH  10  14
ATOM     14  C   UNL A   1      34.361  24.867  23.693  1.00  0.00     0.069 A 
ATOM     15  C   UNL A   1      34.221  25.539  24.918  1.00  0.00     0.030 A 
ATOM     16  C   UNL A   1      33.677  25.344  22.566  1.00  0.00     0.030 A 
ATOM     17  C   UNL A   1      33.438  26.688  25.009  1.00  0.00     0.021 A 
ATOM     18  C   UNL A   1      32.865  26.474  22.657  1.00  0.00     0.021 A 
ATOM     19  C   UNL A   1      32.769  27.149  23.874  1.00  0.00     0.054 A 
BRANCH  19  20
ATOM     20  S   UNL A   1      31.804  28.622  24.004  1.00  0.00     0.124 S 
ATOM     21  O   UNL A   1      30.423  28.238  24.186  1.00  0.00    -0.237 OA
ATOM     22  O   UNL A   1      32.481  29.503  24.930  1.00  0.00    -0.237 OA
ATOM     23  O   UNL A   1      31.908  29.343  22.565  1.00  0.00    -0.744 OA
ENDBRANCH  19  20
ENDBRANCH  10  14
BRANCH  12  24
ATOM     24  N   UNL A   1      33.814  19.651  24.710  1.00  0.00    -0.361 N 
ATOM     25  H   UNL A   1      33.035  20.145  24.368  1.00  0.00     0.166 HD
BRANCH  24  26
ATOM     26  C   UNL A   1      33.689  18.250  24.817  1.00  0.00     0.038 A 
ATOM     27  C   UNL A   1      34.787  17.426  24.539  1.00  0.00     0.026 A 
ATOM     28  C   UNL A   1      32.525  17.649  25.315  1.00  0.00     0.026 A 
ATOM     29  C   UNL A   1      34.738  16.048  24.789  1.00  0.00     0.002 A 
ATOM     30  C   UNL A   1      32.468  16.270  25.559  1.00  0.00     0.002 A 
ATOM     31  C   UNL A   1      33.580  15.471  25.309  1.00  0.00     0.000 A 
ENDBRANCH  24  26
ENDBRANCH  12  24
ENDBRANCH   5   7
ENDBRANCH   4   5
ENDBRANCH   3   4
ENDBRANCH   2   3
ENDBRANCH   1   2
BRANCH   1  32
ATOM     32  C   UNL A   1      42.810  19.897  26.069  1.00  0.00     0.202 C 
BRANCH  32  33
ATOM     33  C   UNL A   1      43.602  21.165  25.756  1.00  0.00     0.261 C 
BRANCH  33  34
ATOM     34  O   UNL A   1      42.761  22.302  25.948  1.00  0.00    -0.460 OA
BRANCH  34  35
ATOM     35  C   UNL A   1      43.223  23.464  25.437  1.00  0.00     0.338 C 
ATOM     36  O   UNL A   1      43.646  23.683  24.317  1.00  0.00    -0.246 OA
BRANCH  35  37
ATOM     37  C   UNL A   1      42.869  24.541  26.363  1.00  0.00     0.060 A 
ATOM     38  C   UNL A   1      43.319  25.839  26.071  1.00  0.00     0.016 A 
ATOM     39  C   UNL A   1      42.018  24.290  27.439  1.00  0.00     0.016 A 
ATOM     40  C   UNL A   1      42.910  26.901  26.858  1.00  0.00     0.010 A 
ATOM     41  C   UNL A   1      41.602  25.348  28.218  1.00  0.00     0.010 A 
ATOM     42  C   UNL A   1      42.068  26.643  27.940  1.00  0.00    -0.014 A 
BRANCH  42  43
ATOM     43  C   UNL A   1      41.778  27.672  28.940  1.00  0.00     0.031 A 
ATOM     44  C   UNL A   1      42.552  27.610  30.213  1.00  0.00     0.074 A 
ATOM     45  C   UNL A   1      40.744  28.502  28.751  1.00  0.00     0.049 A 
ATOM     46  N   UNL A   1      42.309  28.179  31.359  1.00  0.00    -0.248 NA
ATOM     47  C   UNL A   1      43.738  26.734  30.204  1.00  0.00     0.031 C 
ATOM     48  C   UNL A   1      39.952  28.597  27.526  1.00  0.00     0.029 A 
ATOM     49  N   UNL A   1      40.147  29.374  29.616  1.00  0.00    -0.354 N 
ATOM     50  C   UNL A   1      43.288  27.703  32.218  1.00  0.00     0.074 A 
ATOM     51  C   UNL A   1      44.105  26.772  31.473  1.00  0.00     0.031 C 
ATOM     52  C   UNL A   1      38.938  29.452  27.733  1.00  0.00     0.029 A 
ATOM     53  C   UNL A   1      38.990  29.913  29.118  1.00  0.00     0.049 A 
ATOM     54  H   UNL A   1      40.510  29.591  30.506  1.00  0.00     0.167 HD
ATOM     55  C   UNL A   1      43.472  28.023  33.518  1.00  0.00     0.037 A 
ATOM     56  C   UNL A   1      38.057  30.653  29.743  1.00  0.00     0.037 A 
ATOM     57  C   UNL A   1      42.620  28.947  34.217  1.00  0.00     0.049 A 
ATOM     58  C   UNL A   1      38.268  30.987  31.195  1.00  0.00     0.074 A 
ATOM     59  C   UNL A   1      42.723  29.404  35.515  1.00  0.00     0.029 A 
ATOM     60  N   UNL A   1      41.489  29.539  33.665  1.00  0.00    -0.354 N 
ATOM     61  N   UNL A   1      39.223  30.588  32.004  1.00  0.00    -0.248 NA
ATOM     62  C   UNL A   1      37.282  31.874  31.819  1.00  0.00     0.031 C 
ATOM     63  C   UNL A   1      41.617  30.223  35.769  1.00  0.00     0.029 A 
ATOM     64  C   UNL A   1      40.866  30.337  34.607  1.00  0.00     0.049 A 
ATOM     65  H   UNL A   1      41.178  29.409  32.740  1.00  0.00     0.167 HD
ATOM     66  C   UNL A   1      38.974  31.200  33.224  1.00  0.00     0.074 A 
ATOM     67  C   UNL A   1      37.775  31.997  33.045  1.00  0.00     0.031 C 
ATOM     68  C   UNL A   1      39.675  31.122  34.383  1.00  0.00     0.037 A 
BRANCH  55  69
ATOM     69  C   UNL A   1      44.589  27.335  34.247  1.00  0.00     0.064 A 
ATOM     70  C   UNL A   1      45.883  27.875  34.309  1.00  0.00     0.173 A 
ATOM     71  C   UNL A   1      44.370  26.095  34.865  1.00  0.00     0.173 A 
ATOM     72  F   UNL A   1      46.157  29.048  33.718  1.00  0.00    -0.203 F 
ATOM     73  C   UNL A   1      46.925  27.178  34.917  1.00  0.00     0.198 A 
ATOM     74  C   UNL A   1      45.404  25.419  35.508  1.00  0.00     0.198 A 
ATOM     75  F   UNL A   1      43.155  25.527  34.835  1.00  0.00    -0.203 F 
ATOM     76  F   UNL A   1      48.169  27.677  34.891  1.00  0.00    -0.200 F 
ATOM     77  C   UNL A   1      46.683  25.953  35.520  1.00  0.00     0.200 A 
ATOM     78  F   UNL A   1      45.166  24.241  36.100  1.00  0.00    -0.200 F 
ATOM     79  F   UNL A   1      47.686  25.280  36.101  1.00  0.00    -0.200 F 
ENDBRANCH  55  69
BRANCH  56  80
ATOM     80  C   UNL A   1      36.865  31.108  28.987  1.00  0.00     0.064 A 
ATOM     81  C   UNL A   1      35.806  30.231  28.723  1.00  0.00     0.173 A 
ATOM     82  C   UNL A   1      36.725  32.443  28.577  1.00  0.00     0.173 A 
ATOM     83  F   UNL A   1      35.897  28.945  29.090  1.00  0.00    -0.203 F 
ATOM     84  C   UNL A   1      34.654  30.669  28.073  1.00  0.00     0.198 A 
ATOM     85  C   UNL A   1      35.563  32.886  27.950  1.00  0.00     0.198 A 
ATOM     86  F   UNL A   1      37.704  33.327  28.821  1.00  0.00    -0.203 F 
ATOM     87  F   UNL A   1      33.664  29.804  27.815  1.00  0.00    -0.200 F 
ATOM     88  C   UNL A   1      34.530  31.998  27.695  1.00  0.00     0.200 A 
ATOM     89  F   UNL A   1      35.438  34.176  27.609  1.00  0.00    -0.200 F 
ATOM     90  F   UNL A   1      33.412  32.422  27.090  1.00  0.00    -0.200 F 
ENDBRANCH  56  80
BRANCH  68  91
ATOM     91  C   UNL A   1      39.194  31.956  35.533  1.00  0.00     0.064 A 
ATOM     92  C   UNL A   1      38.349  31.437  36.524  1.00  0.00     0.173 A 
ATOM     93  C   UNL A   1      39.660  33.272  35.684  1.00  0.00     0.173 A 
ATOM     94  F   UNL A   1      37.867  30.191  36.416  1.00  0.00    -0.203 F 
ATOM     95  C   UNL A   1      37.977  32.212  37.619  1.00  0.00     0.198 A 
ATOM     96  C   UNL A   1      39.314  34.030  36.797  1.00  0.00     0.198 A 
ATOM     97  F   UNL A   1      40.479  33.810  34.767  1.00  0.00    -0.203 F 
ATOM     98  F   UNL A   1      37.138  31.712  38.537  1.00  0.00    -0.200 F 
ATOM     99  C   UNL A   1      38.469  33.502  37.761  1.00  0.00     0.200 A 
ATOM    100  F   UNL A   1      39.808  35.267  36.942  1.00  0.00    -0.200 F 
ATOM    101  F   UNL A   1      38.126  34.237  38.828  1.00  0.00    -0.200 F 
ENDBRANCH  68  91
ENDBRANCH  42  43
ENDBRANCH  35  37
ENDBRANCH  34  35
ENDBRANCH  33  34
ENDBRANCH  32  33
ENDBRANCH   1  32
TORSDOF 18
ENDMDL
MODEL 2
REMARK VINA RESULT:     -12.5      3.693      9.482
REMARK SMILES O=C(OCCOCCOC(=O)c1ccc(-c2c3nc(c(-c4c(F)c(F)c(F)c(F)c4F)c4ccc([nH]4)c(-c4c(F)c(F)c(F)c(F)c4F)c4nc(c(-c5c(F)c(F)c(F)c(F)c5F)c5ccc2[nH]5)C=C4)C=C3)cc1)C1=NN(c2ccc(S(=O)(=O)[O-])cc2)C(=O)/C1=C\Nc1ccccc1
REMARK SMILES IDX 6 1 5 2 4 3 3 4 2 5 1 6 75 7 76 8 90 9 77 10 88 11 91 12
REMARK SMILES IDX 89 13 78 14 79 15 87 16 80 17 86 18 81 19 82 20 83 21 84 22
REMARK SMILES IDX 85 23 92 24 93 26 94 27 98 28 95 29 97 30 96 31 7 32 8 33
REMARK SMILES IDX 9 34 10 35 11 36 12 37 13 38 74 39 14 40 73 41 15 42 16 43
REMARK SMILES IDX 17 44 67 45 18 46 72 47 66 48 68 49 19 50 71 51 65 52 64 53
REMARK SMILES IDX 20 55 52 56 32 57 51 58 33 59 36 60 50 61 69 62 34 63 35 64
REMARK SMILES IDX 49 66 70 67 37 68 21 69 22 70 30 71 23 72 24 73 28 74 31 75
REMARK SMILES IDX 25 76 26 77 29 78 27 79 53 80 54 81 62 82 55 83 56 84 60 85
REMARK SMILES IDX 63 86 57 87 58 88 61 89 59 90 38 91 39 92 47 93 40 94 41 95
REMARK SMILES IDX 45 96 48 97 42 98 43 99 46 100 44 101
REMARK H PARENT 92 25 68 54 36 65
REMARK Flexibility Score: inf
ROOT
ATOM      1  O   UNL A   1      33.842  31.471  27.156  1.00  0.00    -0.374 OA
ENDROOT
BRANCH   1   2
ATOM      2  C   UNL A   1      34.384  30.166  27.289  1.00  0.00     0.202 C 
BRANCH   2   3
ATOM      3  C   UNL A   1      33.722  29.230  26.279  1.00  0.00     0.261 C 
BRANCH   3   4
ATOM      4  O   UNL A   1      33.431  27.960  26.872  1.00  0.00    -0.458 OA
BRANCH   4   5
ATOM      5  C   UNL A   1      32.161  27.702  27.237  1.00  0.00     0.359 C 
ATOM      6  O   UNL A   1      31.642  28.218  28.219  1.00  0.00    -0.244 OA
BRANCH   5   7
ATOM      7  C   UNL A   1      31.257  27.038  26.229  1.00  0.00     0.183 C 
ATOM      8  N   UNL A   1      31.041  25.766  26.439  1.00  0.00    -0.157 NA
ATOM      9  C   UNL A   1      30.720  27.488  24.912  1.00  0.00     0.093 C 
ATOM     10  N   UNL A   1      30.508  25.271  25.273  1.00  0.00    -0.196 N 
ATOM     11  C   UNL A   1      30.138  26.245  24.344  1.00  0.00     0.282 C 
ATOM     12  C   UNL A   1      30.720  28.594  24.148  1.00  0.00     0.099 C 
ATOM     13  O   UNL A   1      29.562  26.135  23.274  1.00  0.00    -0.267 OA
BRANCH  10  14
ATOM     14  C   UNL A   1      30.927  23.960  24.955  1.00  0.00     0.069 A 
ATOM     15  C   UNL A   1      30.921  22.968  25.949  1.00  0.00     0.030 A 
ATOM     16  C   UNL A   1      31.529  23.689  23.718  1.00  0.00     0.030 A 
ATOM     17  C   UNL A   1      31.477  21.715  25.701  1.00  0.00     0.021 A 
ATOM     18  C   UNL A   1      32.115  22.449  23.474  1.00  0.00     0.021 A 
ATOM     19  C   UNL A   1      32.067  21.464  24.460  1.00  0.00     0.054 A 
BRANCH  19  20
ATOM     20  S   UNL A   1      32.741  19.861  24.156  1.00  0.00     0.124 S 
ATOM     21  O   UNL A   1      32.259  19.408  22.871  1.00  0.00    -0.237 OA
ATOM     22  O   UNL A   1      34.152  19.918  24.468  1.00  0.00    -0.237 OA
ATOM     23  O   UNL A   1      32.090  18.893  25.272  1.00  0.00    -0.744 OA
ENDBRANCH  19  20
ENDBRANCH  10  14
BRANCH  12  24
ATOM     24  N   UNL A   1      30.083  28.834  22.937  1.00  0.00    -0.361 N 
ATOM     25  H   UNL A   1      30.175  28.147  22.238  1.00  0.00     0.166 HD
BRANCH  24  26
ATOM     26  C   UNL A   1      29.317  29.974  22.619  1.00  0.00     0.038 A 
ATOM     27  C   UNL A   1      29.168  31.001  23.560  1.00  0.00     0.026 A 
ATOM     28  C   UNL A   1      28.791  30.178  21.336  1.00  0.00     0.026 A 
ATOM     29  C   UNL A   1      28.548  32.211  23.218  1.00  0.00     0.002 A 
ATOM     30  C   UNL A   1      28.164  31.382  20.991  1.00  0.00     0.002 A 
ATOM     31  C   UNL A   1      28.054  32.405  21.928  1.00  0.00     0.000 A 
ENDBRANCH  24  26
ENDBRANCH  12  24
ENDBRANCH   5   7
ENDBRANCH   4   5
ENDBRANCH   3   4
ENDBRANCH   2   3
ENDBRANCH   1   2
BRANCH   1  32
ATOM     32  C   UNL A   1      32.430  31.646  27.261  1.00  0.00     0.202 C 
BRANCH  32  33
ATOM     33  C   UNL A   1      32.100  33.138  27.271  1.00  0.00     0.261 C 
BRANCH  33  34
ATOM     34  O   UNL A   1      33.287  33.878  27.559  1.00  0.00    -0.460 OA
BRANCH  34  35
ATOM     35  C   UNL A   1      33.365  34.393  28.805  1.00  0.00     0.338 C 
ATOM     36  O   UNL A   1      32.503  34.970  29.442  1.00  0.00    -0.246 OA
BRANCH  35  37
ATOM     37  C   UNL A   1      34.594  33.896  29.426  1.00  0.00     0.060 A 
ATOM     38  C   UNL A   1      34.480  32.911  30.420  1.00  0.00     0.016 A 
ATOM     39  C   UNL A   1      35.838  34.317  28.957  1.00  0.00     0.016 A 
ATOM     40  C   UNL A   1      35.622  32.333  30.949  1.00  0.00     0.010 A 
ATOM     41  C   UNL A   1      36.975  33.737  29.475  1.00  0.00     0.010 A 
ATOM     42  C   UNL A   1      36.864  32.768  30.484  1.00  0.00    -0.014 A 
BRANCH  42  43
ATOM     43  C   UNL A   1      38.106  32.369  31.150  1.00  0.00     0.031 A 
ATOM     44  C   UNL A   1      38.848  31.220  30.558  1.00  0.00     0.074 A 
ATOM     45  C   UNL A   1      38.431  32.925  32.324  1.00  0.00     0.049 A 
ATOM     46  N   UNL A   1      39.780  30.477  31.083  1.00  0.00    -0.248 NA
ATOM     47  C   UNL A   1      38.437  30.818  29.199  1.00  0.00     0.031 C 
ATOM     48  C   UNL A   1      37.733  34.048  32.948  1.00  0.00     0.029 A 
ATOM     49  N   UNL A   1      39.392  32.571  33.227  1.00  0.00    -0.354 N 
ATOM     50  C   UNL A   1      40.042  29.498  30.136  1.00  0.00     0.074 A 
ATOM     51  C   UNL A   1      39.148  29.718  29.022  1.00  0.00     0.031 C 
ATOM     52  C   UNL A   1      38.265  34.265  34.162  1.00  0.00     0.029 A 
ATOM     53  C   UNL A   1      39.297  33.261  34.408  1.00  0.00     0.049 A 
ATOM     54  H   UNL A   1      40.082  31.890  33.050  1.00  0.00     0.167 HD
ATOM     55  C   UNL A   1      40.954  28.503  30.209  1.00  0.00     0.037 A 
ATOM     56  C   UNL A   1      39.943  33.056  35.569  1.00  0.00     0.037 A 
ATOM     57  C   UNL A   1      41.812  28.319  31.348  1.00  0.00     0.049 A 
ATOM     58  C   UNL A   1      40.942  31.934  35.639  1.00  0.00     0.074 A 
ATOM     59  C   UNL A   1      42.816  27.390  31.534  1.00  0.00     0.029 A 
ATOM     60  N   UNL A   1      41.744  29.082  32.509  1.00  0.00    -0.354 N 
ATOM     61  N   UNL A   1      41.240  31.035  34.729  1.00  0.00    -0.248 NA
ATOM     62  C   UNL A   1      41.698  31.798  36.888  1.00  0.00     0.031 C 
ATOM     63  C   UNL A   1      43.311  27.549  32.832  1.00  0.00     0.029 A 
ATOM     64  C   UNL A   1      42.670  28.625  33.430  1.00  0.00     0.049 A 
ATOM     65  H   UNL A   1      41.128  29.835  32.655  1.00  0.00     0.167 HD
ATOM     66  C   UNL A   1      42.241  30.247  35.279  1.00  0.00     0.074 A 
ATOM     67  C   UNL A   1      42.496  30.777  36.606  1.00  0.00     0.031 C 
ATOM     68  C   UNL A   1      42.897  29.189  34.739  1.00  0.00     0.037 A 
BRANCH  55  69
ATOM     69  C   UNL A   1      41.016  27.538  29.060  1.00  0.00     0.064 A 
ATOM     70  C   UNL A   1      40.112  26.473  28.931  1.00  0.00     0.173 A 
ATOM     71  C   UNL A   1      42.021  27.661  28.089  1.00  0.00     0.173 A 
ATOM     72  F   UNL A   1      39.142  26.293  29.842  1.00  0.00    -0.203 F 
ATOM     73  C   UNL A   1      40.241  25.540  27.905  1.00  0.00     0.198 A 
ATOM     74  C   UNL A   1      42.123  26.750  27.041  1.00  0.00     0.198 A 
ATOM     75  F   UNL A   1      42.917  28.658  28.163  1.00  0.00    -0.203 F 
ATOM     76  F   UNL A   1      39.416  24.486  27.851  1.00  0.00    -0.200 F 
ATOM     77  C   UNL A   1      41.244  25.682  26.958  1.00  0.00     0.200 A 
ATOM     78  F   UNL A   1      43.086  26.897  26.120  1.00  0.00    -0.200 F 
ATOM     79  F   UNL A   1      41.371  24.782  25.973  1.00  0.00    -0.200 F 
ENDBRANCH  55  69
BRANCH  56  80
ATOM     80  C   UNL A   1      39.650  33.934  36.728  1.00  0.00     0.064 A 
ATOM     81  C   UNL A   1      38.806  33.502  37.759  1.00  0.00     0.173 A 
ATOM     82  C   UNL A   1      40.261  35.190  36.866  1.00  0.00     0.173 A 
ATOM     83  F   UNL A   1      38.195  32.313  37.667  1.00  0.00    -0.203 F 
ATOM     84  C   UNL A   1      38.580  34.294  38.883  1.00  0.00     0.198 A 
ATOM     85  C   UNL A   1      40.055  35.970  38.002  1.00  0.00     0.198 A 
ATOM     86  F   UNL A   1      41.091  35.642  35.915  1.00  0.00    -0.203 F 
ATOM     87  F   UNL A   1      37.752  33.866  39.845  1.00  0.00    -0.200 F 
ATOM     88  C   UNL A   1      39.211  35.523  39.008  1.00  0.00     0.200 A 
ATOM     89  F   UNL A   1      40.686  37.145  38.129  1.00  0.00    -0.200 F 
ATOM     90  F   UNL A   1      39.010  36.274  40.099  1.00  0.00    -0.200 F 
ENDBRANCH  56  80
BRANCH  68  91
ATOM     91  C   UNL A   1      43.988  28.567  35.559  1.00  0.00     0.064 A 
ATOM     92  C   UNL A   1      43.744  27.494  36.428  1.00  0.00     0.173 A 
ATOM     93  C   UNL A   1      45.314  29.002  35.403  1.00  0.00     0.173 A 
ATOM     94  F   UNL A   1      42.493  27.052  36.620  1.00  0.00    -0.203 F 
ATOM     95  C   UNL A   1      44.788  26.888  37.121  1.00  0.00     0.198 A 
ATOM     96  C   UNL A   1      46.357  28.372  36.071  1.00  0.00     0.198 A 
ATOM     97  F   UNL A   1      45.599  30.020  34.576  1.00  0.00    -0.203 F 
ATOM     98  F   UNL A   1      44.529  25.889  37.976  1.00  0.00    -0.200 F 
ATOM     99  C   UNL A   1      46.093  27.319  36.933  1.00  0.00     0.200 A 
ATOM    100  F   UNL A   1      47.619  28.775  35.871  1.00  0.00    -0.200 F 
ATOM    101  F   UNL A   1      47.098  26.719  37.586  1.00  0.00    -0.200 F 
ENDBRANCH  68  91
ENDBRANCH  42  43
ENDBRANCH  35  37
ENDBRANCH  34  35
ENDBRANCH  33  34
ENDBRANCH  32  33
ENDBRANCH   1  32
TORSDOF 18
ENDMDL
MODEL 3
REMARK VINA RESULT:     -12.1      3.603      9.430
REMARK SMILES O=C(OCCOCCOC(=O)c1ccc(-c2c3nc(c(-c4c(F)c(F)c(F)c(F)c4F)c4ccc([nH]4)c(-c4c(F)c(F)c(F)c(F)c4F)c4nc(c(-c5c(F)c(F)c(F)c(F)c5F)c5ccc2[nH]5)C=C4)C=C3)cc1)C1=NN(c2ccc(S(=O)(=O)[O-])cc2)C(=O)/C1=C\Nc1ccccc1
REMARK SMILES IDX 6 1 5 2 4 3 3 4 2 5 1 6 75 7 76 8 90 9 77 10 88 11 91 12
REMARK SMILES IDX 89 13 78 14 79 15 87 16 80 17 86 18 81 19 82 20 83 21 84 22
REMARK SMILES IDX 85 23 92 24 93 26 94 27 98 28 95 29 97 30 96 31 7 32 8 33
REMARK SMILES IDX 9 34 10 35 11 36 12 37 13 38 74 39 14 40 73 41 15 42 16 43
REMARK SMILES IDX 17 44 67 45 18 46 72 47 66 48 68 49 19 50 71 51 65 52 64 53
REMARK SMILES IDX 20 55 52 56 32 57 51 58 33 59 36 60 50 61 69 62 34 63 35 64
REMARK SMILES IDX 49 66 70 67 37 68 21 69 22 70 30 71 23 72 24 73 28 74 31 75
REMARK SMILES IDX 25 76 26 77 29 78 27 79 53 80 54 81 62 82 55 83 56 84 60 85
REMARK SMILES IDX 63 86 57 87 58 88 61 89 59 90 38 91 39 92 47 93 40 94 41 95
REMARK SMILES IDX 45 96 48 97 42 98 43 99 46 100 44 101
REMARK H PARENT 92 25 68 54 36 65
REMARK Flexibility Score: inf
ROOT
ATOM      1  O   UNL A   1      31.895  30.897  26.957  1.00  0.00    -0.374 OA
ENDROOT
BRANCH   1   2
ATOM      2  C   UNL A   1      32.153  30.009  25.880  1.00  0.00     0.202 C 
BRANCH   2   3
ATOM      3  C   UNL A   1      33.514  29.343  26.079  1.00  0.00     0.261 C 
BRANCH   3   4
ATOM      4  O   UNL A   1      33.376  28.079  26.734  1.00  0.00    -0.458 OA
BRANCH   4   5
ATOM      5  C   UNL A   1      33.586  26.961  26.014  1.00  0.00     0.359 C 
ATOM      6  O   UNL A   1      34.639  26.338  26.058  1.00  0.00    -0.244 OA
BRANCH   5   7
ATOM      7  C   UNL A   1      32.386  26.274  25.410  1.00  0.00     0.183 C 
ATOM      8  N   UNL A   1      32.194  25.047  25.815  1.00  0.00    -0.157 NA
ATOM      9  C   UNL A   1      31.484  26.640  24.280  1.00  0.00     0.093 C 
ATOM     10  N   UNL A   1      31.304  24.486  24.930  1.00  0.00    -0.196 N 
ATOM     11  C   UNL A   1      30.703  25.395  24.058  1.00  0.00     0.282 C 
ATOM     12  C   UNL A   1      31.290  27.667  23.436  1.00  0.00     0.099 C 
ATOM     13  O   UNL A   1      29.818  25.230  23.234  1.00  0.00    -0.267 OA
BRANCH  10  14
ATOM     14  C   UNL A   1      31.549  23.125  24.646  1.00  0.00     0.069 A 
ATOM     15  C   UNL A   1      31.395  22.165  25.658  1.00  0.00     0.030 A 
ATOM     16  C   UNL A   1      32.128  22.750  23.426  1.00  0.00     0.030 A 
ATOM     17  C   UNL A   1      31.782  20.843  25.445  1.00  0.00     0.021 A 
ATOM     18  C   UNL A   1      32.548  21.437  23.216  1.00  0.00     0.021 A 
ATOM     19  C   UNL A   1      32.352  20.489  24.220  1.00  0.00     0.054 A 
BRANCH  19  20
ATOM     20  S   UNL A   1      32.811  18.804  23.960  1.00  0.00     0.124 S 
ATOM     21  O   UNL A   1      32.303  18.395  22.671  1.00  0.00    -0.237 OA
ATOM     22  O   UNL A   1      34.209  18.677  24.307  1.00  0.00    -0.237 OA
ATOM     23  O   UNL A   1      32.010  17.955  25.075  1.00  0.00    -0.744 OA
ENDBRANCH  19  20
ENDBRANCH  10  14
BRANCH  12  24
ATOM     24  N   UNL A   1      30.318  27.842  22.459  1.00  0.00    -0.361 N 
ATOM     25  H   UNL A   1      30.276  27.167  21.744  1.00  0.00     0.166 HD
BRANCH  24  26
ATOM     26  C   UNL A   1      29.386  28.898  22.401  1.00  0.00     0.038 A 
ATOM     27  C   UNL A   1      28.143  28.770  23.035  1.00  0.00     0.026 A 
ATOM     28  C   UNL A   1      29.706  30.136  21.827  1.00  0.00     0.026 A 
ATOM     29  C   UNL A   1      27.265  29.859  23.129  1.00  0.00     0.002 A 
ATOM     30  C   UNL A   1      28.828  31.224  21.911  1.00  0.00     0.002 A 
ATOM     31  C   UNL A   1      27.612  31.089  22.574  1.00  0.00     0.000 A 
ENDBRANCH  24  26
ENDBRANCH  12  24
ENDBRANCH   5   7
ENDBRANCH   4   5
ENDBRANCH   3   4
ENDBRANCH   2   3
ENDBRANCH   1   2
BRANCH   1  32
ATOM     32  C   UNL A   1      32.892  31.851  27.319  1.00  0.00     0.202 C 
BRANCH  32  33
ATOM     33  C   UNL A   1      32.249  33.228  27.472  1.00  0.00     0.261 C 
BRANCH  33  34
ATOM     34  O   UNL A   1      33.274  34.204  27.661  1.00  0.00    -0.460 OA
BRANCH  34  35
ATOM     35  C   UNL A   1      33.371  34.713  28.909  1.00  0.00     0.338 C 
ATOM     36  O   UNL A   1      32.529  35.314  29.549  1.00  0.00    -0.246 OA
BRANCH  35  37
ATOM     37  C   UNL A   1      34.586  34.177  29.525  1.00  0.00     0.060 A 
ATOM     38  C   UNL A   1      34.442  33.271  30.588  1.00  0.00     0.016 A 
ATOM     39  C   UNL A   1      35.838  34.480  28.990  1.00  0.00     0.016 A 
ATOM     40  C   UNL A   1      35.561  32.654  31.121  1.00  0.00     0.010 A 
ATOM     41  C   UNL A   1      36.952  33.860  29.513  1.00  0.00     0.010 A 
ATOM     42  C   UNL A   1      36.812  32.970  30.589  1.00  0.00    -0.014 A 
BRANCH  42  43
ATOM     43  C   UNL A   1      38.048  32.534  31.243  1.00  0.00     0.031 A 
ATOM     44  C   UNL A   1      38.746  31.359  30.647  1.00  0.00     0.074 A 
ATOM     45  C   UNL A   1      38.403  33.082  32.412  1.00  0.00     0.049 A 
ATOM     46  N   UNL A   1      39.659  30.588  31.164  1.00  0.00    -0.248 NA
ATOM     47  C   UNL A   1      38.308  30.967  29.294  1.00  0.00     0.031 C 
ATOM     48  C   UNL A   1      37.748  34.229  33.040  1.00  0.00     0.029 A 
ATOM     49  N   UNL A   1      39.362  32.700  33.306  1.00  0.00    -0.354 N 
ATOM     50  C   UNL A   1      39.880  29.599  30.218  1.00  0.00     0.074 A 
ATOM     51  C   UNL A   1      38.981  29.845  29.113  1.00  0.00     0.031 C 
ATOM     52  C   UNL A   1      38.300  34.432  34.247  1.00  0.00     0.029 A 
ATOM     53  C   UNL A   1      39.302  33.396  34.485  1.00  0.00     0.049 A 
ATOM     54  H   UNL A   1      40.027  31.997  33.123  1.00  0.00     0.167 HD
ATOM     55  C   UNL A   1      40.760  28.576  30.284  1.00  0.00     0.037 A 
ATOM     56  C   UNL A   1      39.954  33.173  35.640  1.00  0.00     0.037 A 
ATOM     57  C   UNL A   1      41.623  28.367  31.414  1.00  0.00     0.049 A 
ATOM     58  C   UNL A   1      40.917  32.020  35.703  1.00  0.00     0.074 A 
ATOM     59  C   UNL A   1      42.599  27.407  31.592  1.00  0.00     0.029 A 
ATOM     60  N   UNL A   1      41.593  29.135  32.574  1.00  0.00    -0.354 N 
ATOM     61  N   UNL A   1      41.176  31.109  34.793  1.00  0.00    -0.248 NA
ATOM     62  C   UNL A   1      41.681  31.863  36.945  1.00  0.00     0.031 C 
ATOM     63  C   UNL A   1      43.113  27.553  32.885  1.00  0.00     0.029 A 
ATOM     64  C   UNL A   1      42.514  28.651  33.486  1.00  0.00     0.049 A 
ATOM     65  H   UNL A   1      41.003  29.908  32.724  1.00  0.00     0.167 HD
ATOM     66  C   UNL A   1      42.156  30.291  35.335  1.00  0.00     0.074 A 
ATOM     67  C   UNL A   1      42.442  30.816  36.657  1.00  0.00     0.031 C 
ATOM     68  C   UNL A   1      42.772  29.211  34.791  1.00  0.00     0.037 A 
BRANCH  55  69
ATOM     69  C   UNL A   1      40.779  27.606  29.137  1.00  0.00     0.064 A 
ATOM     70  C   UNL A   1      41.668  27.744  28.060  1.00  0.00     0.173 A 
ATOM     71  C   UNL A   1      39.868  26.540  29.099  1.00  0.00     0.173 A 
ATOM     72  F   UNL A   1      42.548  28.757  28.032  1.00  0.00    -0.203 F 
ATOM     73  C   UNL A   1      41.610  26.883  26.966  1.00  0.00     0.198 A 
ATOM     74  C   UNL A   1      39.840  25.657  28.023  1.00  0.00     0.198 A 
ATOM     75  F   UNL A   1      38.992  26.361  30.099  1.00  0.00    -0.203 F 
ATOM     76  F   UNL A   1      42.414  27.086  25.912  1.00  0.00    -0.200 F 
ATOM     77  C   UNL A   1      40.700  25.838  26.950  1.00  0.00     0.200 A 
ATOM     78  F   UNL A   1      38.967  24.640  28.016  1.00  0.00    -0.200 F 
ATOM     79  F   UNL A   1      40.642  25.013  25.896  1.00  0.00    -0.200 F 
ENDBRANCH  55  69
BRANCH  56  80
ATOM     80  C   UNL A   1      39.701  34.063  36.800  1.00  0.00     0.064 A 
ATOM     81  C   UNL A   1      38.863  33.657  37.846  1.00  0.00     0.173 A 
ATOM     82  C   UNL A   1      40.345  35.304  36.922  1.00  0.00     0.173 A 
ATOM     83  F   UNL A   1      38.222  32.483  37.770  1.00  0.00    -0.203 F 
ATOM     84  C   UNL A   1      38.675  34.459  38.970  1.00  0.00     0.198 A 
ATOM     85  C   UNL A   1      40.177  36.094  38.057  1.00  0.00     0.198 A 
ATOM     86  F   UNL A   1      41.170  35.731  35.955  1.00  0.00    -0.203 F 
ATOM     87  F   UNL A   1      37.853  34.056  39.947  1.00  0.00    -0.200 F 
ATOM     88  C   UNL A   1      39.339  35.673  39.079  1.00  0.00     0.200 A 
ATOM     89  F   UNL A   1      40.839  37.253  38.169  1.00  0.00    -0.200 F 
ATOM     90  F   UNL A   1      39.174  36.433  40.169  1.00  0.00    -0.200 F 
ENDBRANCH  56  80
BRANCH  68  91
ATOM     91  C   UNL A   1      43.852  28.556  35.601  1.00  0.00     0.064 A 
ATOM     92  C   UNL A   1      45.198  28.930  35.484  1.00  0.00     0.173 A 
ATOM     93  C   UNL A   1      43.514  27.598  36.570  1.00  0.00     0.173 A 
ATOM     94  F   UNL A   1      45.571  29.832  34.564  1.00  0.00    -0.203 F 
ATOM     95  C   UNL A   1      46.169  28.357  36.300  1.00  0.00     0.198 A 
ATOM     96  C   UNL A   1      44.482  27.053  37.406  1.00  0.00     0.198 A 
ATOM     97  F   UNL A   1      42.238  27.214  36.726  1.00  0.00    -0.203 F 
ATOM     98  F   UNL A   1      47.456  28.700  36.147  1.00  0.00    -0.200 F 
ATOM     99  C   UNL A   1      45.809  27.430  37.267  1.00  0.00     0.200 A 
ATOM    100  F   UNL A   1      44.129  26.175  38.353  1.00  0.00    -0.200 F 
ATOM    101  F   UNL A   1      46.744  26.897  38.066  1.00  0.00    -0.200 F 
ENDBRANCH  68  91
ENDBRANCH  42  43
ENDBRANCH  35  37
ENDBRANCH  34  35
ENDBRANCH  33  34
ENDBRANCH  32  33
ENDBRANCH   1  32
TORSDOF 18
ENDMDL
