MODEL 1
REMARK VINA RESULT:     -12.2      0.000      0.000
REMARK SMILES O=C(/C=C/c1ccc(S(=O)(=O)Nc2ccc3c(c2)OCCO3)cc1)OCCOCCOC(=O)c1ccc(-c2c3nc(c(-c4c(F)c(F)c(F)c(F)c4F)c4ccc([nH]4)c(-c4c(F)c(F)c(F)c(F)c4F)c4nc(c(-c5c(F)c(F)c(F)c(F)c5F)c5ccc2[nH]5)C=C4)C=C3)cc1
REMARK SMILES IDX 27 1 26 2 25 3 2 4 1 5 3 6 4 7 5 8 6 9 24 10 7 11 23 12 8 13
REMARK SMILES IDX 9 14 10 15 11 16 12 17 13 19 14 20 18 21 15 22 17 23 16 24
REMARK SMILES IDX 19 25 22 26 20 27 21 28 28 29 29 30 30 31 31 32 32 33 33 34
REMARK SMILES IDX 34 35 35 36 96 37 36 38 95 39 37 40 38 41 39 42 89 43 40 44
REMARK SMILES IDX 94 45 88 46 90 47 41 48 93 49 87 50 86 51 42 53 74 54 54 55
REMARK SMILES IDX 73 56 55 57 58 58 72 59 91 60 56 61 57 62 71 64 92 65 59 66
REMARK SMILES IDX 43 67 44 68 52 69 45 70 46 71 50 72 53 73 47 74 48 75 51 76
REMARK SMILES IDX 49 77 75 78 76 79 84 80 77 81 78 82 82 83 85 84 79 85 80 86
REMARK SMILES IDX 83 87 81 88 60 89 61 90 69 91 62 92 63 93 67 94 70 95 64 96
REMARK SMILES IDX 65 97 68 98 66 99
REMARK H PARENT 12 18 90 52 58 63
REMARK Flexibility Score: inf
ROOT
ATOM      1  C   UNL A   1      40.273  19.641  26.121  1.00  0.00     0.202 C 
ENDROOT
BRANCH   1   2
ATOM      2  C   UNL A   1      39.742  21.035  26.433  1.00  0.00     0.261 C 
BRANCH   2   3
ATOM      3  O   UNL A   1      38.931  21.620  25.397  1.00  0.00    -0.460 OA
BRANCH   3   4
ATOM      4  C   UNL A   1      37.588  21.586  25.254  1.00  0.00     0.330 C 
ATOM      5  O   UNL A   1      37.020  20.510  25.076  1.00  0.00    -0.247 OA
BRANCH   4   6
ATOM      6  C   UNL A   1      36.776  22.812  25.176  1.00  0.00     0.094 C 
ATOM      7  C   UNL A   1      35.892  23.131  24.222  1.00  0.00     0.015 C 
BRANCH   7   8
ATOM      8  C   UNL A   1      35.072  24.349  24.141  1.00  0.00    -0.025 A 
ATOM      9  C   UNL A   1      34.861  25.053  25.335  1.00  0.00     0.009 A 
ATOM     10  C   UNL A   1      34.366  24.729  22.995  1.00  0.00     0.009 A 
ATOM     11  C   UNL A   1      33.834  25.990  25.431  1.00  0.00     0.023 A 
ATOM     12  C   UNL A   1      33.374  25.713  23.074  1.00  0.00     0.023 A 
ATOM     13  C   UNL A   1      33.038  26.256  24.315  1.00  0.00     0.087 A 
BRANCH  13  14
ATOM     14  S   UNL A   1      31.507  27.136  24.563  1.00  0.00     0.261 S 
ATOM     15  O   UNL A   1      31.584  27.751  25.876  1.00  0.00    -0.201 OA
ATOM     16  O   UNL A   1      31.262  27.941  23.388  1.00  0.00    -0.201 OA
BRANCH  14  17
ATOM     17  N   UNL A   1      30.214  25.996  24.703  1.00  0.00    -0.279 N 
ATOM     18  H   UNL A   1      29.279  26.254  24.538  1.00  0.00     0.180 HD
BRANCH  17  19
ATOM     19  C   UNL A   1      30.571  24.654  25.072  1.00  0.00     0.053 A 
ATOM     20  C   UNL A   1      30.750  23.732  24.032  1.00  0.00     0.031 A 
ATOM     21  C   UNL A   1      30.874  24.309  26.388  1.00  0.00     0.077 A 
ATOM     22  C   UNL A   1      31.410  22.530  24.276  1.00  0.00     0.052 A 
ATOM     23  C   UNL A   1      31.587  23.139  26.620  1.00  0.00     0.163 A 
ATOM     24  C   UNL A   1      31.894  22.281  25.555  1.00  0.00     0.161 A 
ATOM     25  O   UNL A   1      32.068  22.964  27.891  1.00  0.00    -0.486 OA
ATOM     26  O   UNL A   1      32.776  21.239  25.703  1.00  0.00    -0.486 OA
ATOM     27  C   UNL A   1      33.065  21.939  27.996  1.00  0.00     0.271 C 
ATOM     28  C   UNL A   1      33.751  21.644  26.672  1.00  0.00     0.271 C 
ENDBRANCH  17  19
ENDBRANCH  14  17
ENDBRANCH  13  14
ENDBRANCH   7   8
ENDBRANCH   4   6
ENDBRANCH   3   4
ENDBRANCH   2   3
ENDBRANCH   1   2
BRANCH   1  29
ATOM     29  O   UNL A   1      41.516  19.604  25.426  1.00  0.00    -0.374 OA
BRANCH  29  30
ATOM     30  C   UNL A   1      42.641  20.033  26.203  1.00  0.00     0.202 C 
BRANCH  30  31
ATOM     31  C   UNL A   1      43.452  21.144  25.530  1.00  0.00     0.261 C 
BRANCH  31  32
ATOM     32  O   UNL A   1      42.667  22.340  25.418  1.00  0.00    -0.460 OA
BRANCH  32  33
ATOM     33  C   UNL A   1      43.376  23.478  25.222  1.00  0.00     0.338 C 
ATOM     34  O   UNL A   1      44.145  23.731  24.309  1.00  0.00    -0.246 OA
BRANCH  33  35
ATOM     35  C   UNL A   1      42.892  24.491  26.183  1.00  0.00     0.060 A 
ATOM     36  C   UNL A   1      43.344  25.809  26.029  1.00  0.00     0.016 A 
ATOM     37  C   UNL A   1      41.962  24.172  27.175  1.00  0.00     0.016 A 
ATOM     38  C   UNL A   1      42.867  26.815  26.866  1.00  0.00     0.010 A 
ATOM     39  C   UNL A   1      41.502  25.174  28.027  1.00  0.00     0.010 A 
ATOM     40  C   UNL A   1      41.965  26.495  27.886  1.00  0.00    -0.014 A 
BRANCH  40  41
ATOM     41  C   UNL A   1      41.625  27.488  28.926  1.00  0.00     0.031 A 
ATOM     42  C   UNL A   1      42.406  27.460  30.206  1.00  0.00     0.074 A 
ATOM     43  C   UNL A   1      40.613  28.354  28.752  1.00  0.00     0.049 A 
ATOM     44  N   UNL A   1      42.200  28.112  31.319  1.00  0.00    -0.248 NA
ATOM     45  C   UNL A   1      43.573  26.562  30.238  1.00  0.00     0.031 C 
ATOM     46  C   UNL A   1      39.813  28.487  27.536  1.00  0.00     0.029 A 
ATOM     47  N   UNL A   1      40.065  29.266  29.619  1.00  0.00    -0.354 N 
ATOM     48  C   UNL A   1      43.193  27.684  32.190  1.00  0.00     0.074 A 
ATOM     49  C   UNL A   1      43.997  26.712  31.484  1.00  0.00     0.031 C 
ATOM     50  C   UNL A   1      38.850  29.402  27.747  1.00  0.00     0.029 A 
ATOM     51  C   UNL A   1      38.942  29.885  29.125  1.00  0.00     0.049 A 
ATOM     52  H   UNL A   1      40.439  29.458  30.509  1.00  0.00     0.167 HD
ATOM     53  C   UNL A   1      43.406  28.071  33.468  1.00  0.00     0.037 A 
ATOM     54  C   UNL A   1      38.068  30.708  29.736  1.00  0.00     0.037 A 
ATOM     55  C   UNL A   1      42.607  29.048  34.155  1.00  0.00     0.049 A 
ATOM     56  C   UNL A   1      38.295  31.073  31.183  1.00  0.00     0.074 A 
ATOM     57  C   UNL A   1      42.775  29.558  35.429  1.00  0.00     0.029 A 
ATOM     58  N   UNL A   1      41.475  29.651  33.625  1.00  0.00    -0.354 N 
ATOM     59  N   UNL A   1      39.266  30.710  31.987  1.00  0.00    -0.248 NA
ATOM     60  C   UNL A   1      37.302  31.957  31.809  1.00  0.00     0.031 C 
ATOM     61  C   UNL A   1      41.711  30.424  35.693  1.00  0.00     0.029 A 
ATOM     62  C   UNL A   1      40.911  30.497  34.563  1.00  0.00     0.049 A 
ATOM     63  H   UNL A   1      41.127  29.500  32.717  1.00  0.00     0.167 HD
ATOM     64  C   UNL A   1      39.013  31.335  33.201  1.00  0.00     0.074 A 
ATOM     65  C   UNL A   1      37.806  32.116  33.024  1.00  0.00     0.031 C 
ATOM     66  C   UNL A   1      39.713  31.269  34.360  1.00  0.00     0.037 A 
BRANCH  53  67
ATOM     67  C   UNL A   1      44.524  27.417  34.221  1.00  0.00     0.064 A 
ATOM     68  C   UNL A   1      45.824  27.946  34.229  1.00  0.00     0.173 A 
ATOM     69  C   UNL A   1      44.277  26.268  34.988  1.00  0.00     0.173 A 
ATOM     70  F   UNL A   1      46.114  29.032  33.496  1.00  0.00    -0.203 F 
ATOM     71  C   UNL A   1      46.836  27.341  34.968  1.00  0.00     0.198 A 
ATOM     72  C   UNL A   1      45.285  25.682  35.747  1.00  0.00     0.198 A 
ATOM     73  F   UNL A   1      43.052  25.722  35.011  1.00  0.00    -0.203 F 
ATOM     74  F   UNL A   1      48.078  27.843  34.935  1.00  0.00    -0.200 F 
ATOM     75  C   UNL A   1      46.564  26.217  35.735  1.00  0.00     0.200 A 
ATOM     76  F   UNL A   1      45.018  24.602  36.494  1.00  0.00    -0.200 F 
ATOM     77  F   UNL A   1      47.537  25.647  36.457  1.00  0.00    -0.200 F 
ENDBRANCH  53  67
BRANCH  54  78
ATOM     78  C   UNL A   1      36.870  31.205  29.009  1.00  0.00     0.064 A 
ATOM     79  C   UNL A   1      36.772  32.542  28.600  1.00  0.00     0.173 A 
ATOM     80  C   UNL A   1      35.778  30.363  28.744  1.00  0.00     0.173 A 
ATOM     81  F   UNL A   1      37.776  33.394  28.854  1.00  0.00    -0.203 F 
ATOM     82  C   UNL A   1      35.621  33.022  27.977  1.00  0.00     0.198 A 
ATOM     83  C   UNL A   1      34.642  30.837  28.093  1.00  0.00     0.198 A 
ATOM     84  F   UNL A   1      35.818  29.075  29.116  1.00  0.00    -0.203 F 
ATOM     85  F   UNL A   1      35.532  34.319  27.648  1.00  0.00    -0.200 F 
ATOM     86  C   UNL A   1      34.558  32.169  27.720  1.00  0.00     0.200 A 
ATOM     87  F   UNL A   1      33.623  30.004  27.837  1.00  0.00    -0.200 F 
ATOM     88  F   UNL A   1      33.452  32.633  27.123  1.00  0.00    -0.200 F 
ENDBRANCH  54  78
BRANCH  66  89
ATOM     89  C   UNL A   1      39.211  32.078  35.520  1.00  0.00     0.064 A 
ATOM     90  C   UNL A   1      38.422  31.505  36.528  1.00  0.00     0.173 A 
ATOM     91  C   UNL A   1      39.585  33.424  35.663  1.00  0.00     0.173 A 
ATOM     92  F   UNL A   1      38.027  30.226  36.429  1.00  0.00    -0.203 F 
ATOM     93  C   UNL A   1      38.014  32.253  37.628  1.00  0.00     0.198 A 
ATOM     94  C   UNL A   1      39.201  34.159  36.779  1.00  0.00     0.198 A 
ATOM     95  F   UNL A   1      40.347  34.016  34.731  1.00  0.00    -0.203 F 
ATOM     96  F   UNL A   1      37.229  31.695  38.561  1.00  0.00    -0.200 F 
ATOM     97  C   UNL A   1      38.412  33.575  37.758  1.00  0.00     0.200 A 
ATOM     98  F   UNL A   1      39.600  35.432  36.912  1.00  0.00    -0.200 F 
ATOM     99  F   UNL A   1      38.031  34.288  38.828  1.00  0.00    -0.200 F 
ENDBRANCH  66  89
ENDBRANCH  40  41
ENDBRANCH  33  35
ENDBRANCH  32  33
ENDBRANCH  31  32
ENDBRANCH  30  31
ENDBRANCH  29  30
ENDBRANCH   1  29
TORSDOF 18
ENDMDL
MODEL 2
REMARK VINA RESULT:     -11.9      1.795      2.989
REMARK SMILES O=C(/C=C/c1ccc(S(=O)(=O)Nc2ccc3c(c2)OCCO3)cc1)OCCOCCOC(=O)c1ccc(-c2c3nc(c(-c4c(F)c(F)c(F)c(F)c4F)c4ccc([nH]4)c(-c4c(F)c(F)c(F)c(F)c4F)c4nc(c(-c5c(F)c(F)c(F)c(F)c5F)c5ccc2[nH]5)C=C4)C=C3)cc1
REMARK SMILES IDX 27 1 26 2 25 3 2 4 1 5 3 6 4 7 5 8 6 9 24 10 7 11 23 12 8 13
REMARK SMILES IDX 9 14 10 15 11 16 12 17 13 19 14 20 18 21 15 22 17 23 16 24
REMARK SMILES IDX 19 25 22 26 20 27 21 28 28 29 29 30 30 31 31 32 32 33 33 34
REMARK SMILES IDX 34 35 35 36 96 37 36 38 95 39 37 40 38 41 39 42 89 43 40 44
REMARK SMILES IDX 94 45 88 46 90 47 41 48 93 49 87 50 86 51 42 53 74 54 54 55
REMARK SMILES IDX 73 56 55 57 58 58 72 59 91 60 56 61 57 62 71 64 92 65 59 66
REMARK SMILES IDX 43 67 44 68 52 69 45 70 46 71 50 72 53 73 47 74 48 75 51 76
REMARK SMILES IDX 49 77 75 78 76 79 84 80 77 81 78 82 82 83 85 84 79 85 80 86
REMARK SMILES IDX 83 87 81 88 60 89 61 90 69 91 62 92 63 93 67 94 70 95 64 96
REMARK SMILES IDX 65 97 68 98 66 99
REMARK H PARENT 12 18 90 52 58 63
REMARK Flexibility Score: inf
ROOT
ATOM      1  C   UNL A   1      40.883  20.137  27.284  1.00  0.00     0.202 C 
ENDROOT
BRANCH   1   2
ATOM      2  C   UNL A   1      40.051  20.003  26.014  1.00  0.00     0.261 C 
BRANCH   2   3
ATOM      3  O   UNL A   1      39.565  21.247  25.474  1.00  0.00    -0.460 OA
BRANCH   3   4
ATOM      4  C   UNL A   1      39.031  22.302  26.128  1.00  0.00     0.330 C 
ATOM      5  O   UNL A   1      39.467  22.620  27.232  1.00  0.00    -0.247 OA
BRANCH   4   6
ATOM      6  C   UNL A   1      37.850  23.022  25.624  1.00  0.00     0.094 C 
ATOM      7  C   UNL A   1      36.666  22.492  25.295  1.00  0.00     0.015 C 
BRANCH   7   8
ATOM      8  C   UNL A   1      35.480  23.205  24.798  1.00  0.00    -0.025 A 
ATOM      9  C   UNL A   1      35.074  22.926  23.486  1.00  0.00     0.009 A 
ATOM     10  C   UNL A   1      34.860  24.249  25.492  1.00  0.00     0.009 A 
ATOM     11  C   UNL A   1      34.206  23.787  22.816  1.00  0.00     0.023 A 
ATOM     12  C   UNL A   1      33.941  25.079  24.841  1.00  0.00     0.023 A 
ATOM     13  C   UNL A   1      33.706  24.911  23.476  1.00  0.00     0.087 A 
BRANCH  13  14
ATOM     14  S   UNL A   1      32.938  26.189  22.498  1.00  0.00     0.261 S 
ATOM     15  O   UNL A   1      34.012  26.978  21.920  1.00  0.00    -0.201 OA
ATOM     16  O   UNL A   1      31.947  25.566  21.652  1.00  0.00    -0.201 OA
BRANCH  14  17
ATOM     17  N   UNL A   1      32.120  27.292  23.549  1.00  0.00    -0.279 N 
ATOM     18  H   UNL A   1      32.504  27.560  24.414  1.00  0.00     0.180 HD
BRANCH  17  19
ATOM     19  C   UNL A   1      30.853  27.799  23.098  1.00  0.00     0.053 A 
ATOM     20  C   UNL A   1      29.702  27.197  23.623  1.00  0.00     0.031 A 
ATOM     21  C   UNL A   1      30.759  28.932  22.292  1.00  0.00     0.077 A 
ATOM     22  C   UNL A   1      28.469  27.835  23.502  1.00  0.00     0.052 A 
ATOM     23  C   UNL A   1      29.542  29.599  22.225  1.00  0.00     0.163 A 
ATOM     24  C   UNL A   1      28.415  29.073  22.872  1.00  0.00     0.161 A 
ATOM     25  O   UNL A   1      29.558  30.830  21.622  1.00  0.00    -0.486 OA
ATOM     26  O   UNL A   1      27.262  29.803  23.014  1.00  0.00    -0.486 OA
ATOM     27  C   UNL A   1      28.383  31.613  21.875  1.00  0.00     0.271 C 
ATOM     28  C   UNL A   1      27.643  31.179  23.130  1.00  0.00     0.271 C 
ENDBRANCH  17  19
ENDBRANCH  14  17
ENDBRANCH  13  14
ENDBRANCH   7   8
ENDBRANCH   4   6
ENDBRANCH   3   4
ENDBRANCH   2   3
ENDBRANCH   1   2
BRANCH   1  29
ATOM     29  O   UNL A   1      42.291  20.015  27.105  1.00  0.00    -0.374 OA
BRANCH  29  30
ATOM     30  C   UNL A   1      42.734  20.196  25.754  1.00  0.00     0.202 C 
BRANCH  30  31
ATOM     31  C   UNL A   1      43.634  21.421  25.573  1.00  0.00     0.261 C 
BRANCH  31  32
ATOM     32  O   UNL A   1      42.847  22.581  25.268  1.00  0.00    -0.460 OA
BRANCH  32  33
ATOM     33  C   UNL A   1      43.547  23.734  25.134  1.00  0.00     0.338 C 
ATOM     34  O   UNL A   1      44.340  24.027  24.253  1.00  0.00    -0.246 OA
BRANCH  33  35
ATOM     35  C   UNL A   1      43.023  24.706  26.115  1.00  0.00     0.060 A 
ATOM     36  C   UNL A   1      43.379  26.053  25.957  1.00  0.00     0.016 A 
ATOM     37  C   UNL A   1      42.147  24.319  27.131  1.00  0.00     0.016 A 
ATOM     38  C   UNL A   1      42.859  27.020  26.815  1.00  0.00     0.010 A 
ATOM     39  C   UNL A   1      41.643  25.283  28.003  1.00  0.00     0.010 A 
ATOM     40  C   UNL A   1      42.011  26.633  27.858  1.00  0.00    -0.014 A 
BRANCH  40  41
ATOM     41  C   UNL A   1      41.634  27.595  28.914  1.00  0.00     0.031 A 
ATOM     42  C   UNL A   1      42.397  27.556  30.205  1.00  0.00     0.074 A 
ATOM     43  C   UNL A   1      40.605  28.442  28.744  1.00  0.00     0.049 A 
ATOM     44  N   UNL A   1      42.161  28.179  31.328  1.00  0.00    -0.248 NA
ATOM     45  C   UNL A   1      43.584  26.685  30.233  1.00  0.00     0.031 C 
ATOM     46  C   UNL A   1      39.819  28.583  27.519  1.00  0.00     0.029 A 
ATOM     47  N   UNL A   1      40.024  29.322  29.623  1.00  0.00    -0.354 N 
ATOM     48  C   UNL A   1      43.151  27.755  32.204  1.00  0.00     0.074 A 
ATOM     49  C   UNL A   1      43.986  26.817  31.488  1.00  0.00     0.031 C 
ATOM     50  C   UNL A   1      38.832  29.472  27.737  1.00  0.00     0.029 A 
ATOM     51  C   UNL A   1      38.894  29.926  29.125  1.00  0.00     0.049 A 
ATOM     52  H   UNL A   1      40.382  29.502  30.522  1.00  0.00     0.167 HD
ATOM     53  C   UNL A   1      43.337  28.118  33.493  1.00  0.00     0.037 A 
ATOM     54  C   UNL A   1      37.993  30.716  29.742  1.00  0.00     0.037 A 
ATOM     55  C   UNL A   1      42.506  29.061  34.189  1.00  0.00     0.049 A 
ATOM     56  C   UNL A   1      38.192  31.054  31.199  1.00  0.00     0.074 A 
ATOM     57  C   UNL A   1      42.645  29.547  35.476  1.00  0.00     0.029 A 
ATOM     58  N   UNL A   1      41.369  29.651  33.655  1.00  0.00    -0.354 N 
ATOM     59  N   UNL A   1      39.160  30.695  32.009  1.00  0.00    -0.248 NA
ATOM     60  C   UNL A   1      37.170  31.901  31.830  1.00  0.00     0.031 C 
ATOM     61  C   UNL A   1      41.558  30.384  35.744  1.00  0.00     0.029 A 
ATOM     62  C   UNL A   1      40.772  30.463  34.604  1.00  0.00     0.049 A 
ATOM     63  H   UNL A   1      41.037  29.511  32.739  1.00  0.00     0.167 HD
ATOM     64  C   UNL A   1      38.875  31.288  33.232  1.00  0.00     0.074 A 
ATOM     65  C   UNL A   1      37.653  32.045  33.056  1.00  0.00     0.031 C 
ATOM     66  C   UNL A   1      39.560  31.213  34.400  1.00  0.00     0.037 A 
BRANCH  53  67
ATOM     67  C   UNL A   1      44.459  27.473  34.247  1.00  0.00     0.064 A 
ATOM     68  C   UNL A   1      45.745  28.032  34.289  1.00  0.00     0.173 A 
ATOM     69  C   UNL A   1      44.228  26.300  34.983  1.00  0.00     0.173 A 
ATOM     70  F   UNL A   1      46.020  29.142  33.587  1.00  0.00    -0.203 F 
ATOM     71  C   UNL A   1      46.760  27.434  35.029  1.00  0.00     0.198 A 
ATOM     72  C   UNL A   1      45.238  25.720  35.744  1.00  0.00     0.198 A 
ATOM     73  F   UNL A   1      43.016  25.725  34.973  1.00  0.00    -0.203 F 
ATOM     74  F   UNL A   1      47.990  27.967  35.028  1.00  0.00    -0.200 F 
ATOM     75  C   UNL A   1      46.504  26.286  35.765  1.00  0.00     0.200 A 
ATOM     76  F   UNL A   1      44.986  24.616  36.460  1.00  0.00    -0.200 F 
ATOM     77  F   UNL A   1      47.480  25.722  36.489  1.00  0.00    -0.200 F 
ENDBRANCH  53  67
BRANCH  54  78
ATOM     78  C   UNL A   1      36.794  31.202  29.008  1.00  0.00     0.064 A 
ATOM     79  C   UNL A   1      36.661  32.550  28.648  1.00  0.00     0.173 A 
ATOM     80  C   UNL A   1      35.737  30.336  28.688  1.00  0.00     0.173 A 
ATOM     81  F   UNL A   1      37.631  33.424  28.956  1.00  0.00    -0.203 F 
ATOM     82  C   UNL A   1      35.507  33.017  28.019  1.00  0.00     0.198 A 
ATOM     83  C   UNL A   1      34.599  30.798  28.031  1.00  0.00     0.198 A 
ATOM     84  F   UNL A   1      35.811  29.036  29.012  1.00  0.00    -0.203 F 
ATOM     85  F   UNL A   1      35.382  34.321  27.738  1.00  0.00    -0.200 F 
ATOM     86  C   UNL A   1      34.479  32.140  27.707  1.00  0.00     0.200 A 
ATOM     87  F   UNL A   1      33.614  29.944  27.721  1.00  0.00    -0.200 F 
ATOM     88  F   UNL A   1      33.371  32.591  27.104  1.00  0.00    -0.200 F 
ENDBRANCH  54  78
BRANCH  66  89
ATOM     89  C   UNL A   1      39.024  31.985  35.570  1.00  0.00     0.064 A 
ATOM     90  C   UNL A   1      38.228  31.373  36.549  1.00  0.00     0.173 A 
ATOM     91  C   UNL A   1      39.371  33.332  35.752  1.00  0.00     0.173 A 
ATOM     92  F   UNL A   1      37.857  30.090  36.414  1.00  0.00    -0.203 F 
ATOM     93  C   UNL A   1      37.787  32.087  37.660  1.00  0.00     0.198 A 
ATOM     94  C   UNL A   1      38.954  34.034  36.878  1.00  0.00     0.198 A 
ATOM     95  F   UNL A   1      40.138  33.960  34.847  1.00  0.00    -0.203 F 
ATOM     96  F   UNL A   1      36.997  31.493  38.566  1.00  0.00    -0.200 F 
ATOM     97  C   UNL A   1      38.159  33.412  37.829  1.00  0.00     0.200 A 
ATOM     98  F   UNL A   1      39.329  35.310  37.048  1.00  0.00    -0.200 F 
ATOM     99  F   UNL A   1      37.747  34.092  38.908  1.00  0.00    -0.200 F 
ENDBRANCH  66  89
ENDBRANCH  40  41
ENDBRANCH  33  35
ENDBRANCH  32  33
ENDBRANCH  31  32
ENDBRANCH  30  31
ENDBRANCH  29  30
ENDBRANCH   1  29
TORSDOF 18
ENDMDL
MODEL 3
REMARK VINA RESULT:     -11.8      3.226      9.239
REMARK SMILES O=C(/C=C/c1ccc(S(=O)(=O)Nc2ccc3c(c2)OCCO3)cc1)OCCOCCOC(=O)c1ccc(-c2c3nc(c(-c4c(F)c(F)c(F)c(F)c4F)c4ccc([nH]4)c(-c4c(F)c(F)c(F)c(F)c4F)c4nc(c(-c5c(F)c(F)c(F)c(F)c5F)c5ccc2[nH]5)C=C4)C=C3)cc1
REMARK SMILES IDX 27 1 26 2 25 3 2 4 1 5 3 6 4 7 5 8 6 9 24 10 7 11 23 12 8 13
REMARK SMILES IDX 9 14 10 15 11 16 12 17 13 19 14 20 18 21 15 22 17 23 16 24
REMARK SMILES IDX 19 25 22 26 20 27 21 28 28 29 29 30 30 31 31 32 32 33 33 34
REMARK SMILES IDX 34 35 35 36 96 37 36 38 95 39 37 40 38 41 39 42 89 43 40 44
REMARK SMILES IDX 94 45 88 46 90 47 41 48 93 49 87 50 86 51 42 53 74 54 54 55
REMARK SMILES IDX 73 56 55 57 58 58 72 59 91 60 56 61 57 62 71 64 92 65 59 66
REMARK SMILES IDX 43 67 44 68 52 69 45 70 46 71 50 72 53 73 47 74 48 75 51 76
REMARK SMILES IDX 49 77 75 78 76 79 84 80 77 81 78 82 82 83 85 84 79 85 80 86
REMARK SMILES IDX 83 87 81 88 60 89 61 90 69 91 62 92 63 93 67 94 70 95 64 96
REMARK SMILES IDX 65 97 68 98 66 99
REMARK H PARENT 12 18 90 52 58 63
REMARK Flexibility Score: inf
ROOT
ATOM      1  C   UNL A   1      34.278  34.319  28.829  1.00  0.00     0.202 C 
ENDROOT
BRANCH   1   2
ATOM      2  C   UNL A   1      33.476  33.203  28.170  1.00  0.00     0.261 C 
BRANCH   2   3
ATOM      3  O   UNL A   1      34.233  32.350  27.291  1.00  0.00    -0.460 OA
BRANCH   3   4
ATOM      4  C   UNL A   1      34.919  31.224  27.589  1.00  0.00     0.330 C 
ATOM      5  O   UNL A   1      36.057  31.305  28.045  1.00  0.00    -0.247 OA
BRANCH   4   6
ATOM      6  C   UNL A   1      34.401  29.883  27.270  1.00  0.00     0.094 C 
ATOM      7  C   UNL A   1      33.496  29.573  26.335  1.00  0.00     0.015 C 
BRANCH   7   8
ATOM      8  C   UNL A   1      32.980  28.236  26.005  1.00  0.00    -0.025 A 
ATOM      9  C   UNL A   1      31.616  28.140  25.695  1.00  0.00     0.009 A 
ATOM     10  C   UNL A   1      33.726  27.062  26.155  1.00  0.00     0.009 A 
ATOM     11  C   UNL A   1      30.971  26.905  25.720  1.00  0.00     0.023 A 
ATOM     12  C   UNL A   1      33.091  25.816  26.120  1.00  0.00     0.023 A 
ATOM     13  C   UNL A   1      31.701  25.752  26.015  1.00  0.00     0.087 A 
BRANCH  13  14
ATOM     14  S   UNL A   1      30.802  24.269  26.433  1.00  0.00     0.261 S 
ATOM     15  O   UNL A   1      31.663  23.488  27.302  1.00  0.00    -0.201 OA
ATOM     16  O   UNL A   1      29.480  24.659  26.865  1.00  0.00    -0.201 OA
BRANCH  14  17
ATOM     17  N   UNL A   1      30.630  23.293  25.016  1.00  0.00    -0.279 N 
ATOM     18  H   UNL A   1      29.754  22.943  24.735  1.00  0.00     0.180 HD
BRANCH  17  19
ATOM     19  C   UNL A   1      31.826  23.017  24.269  1.00  0.00     0.053 A 
ATOM     20  C   UNL A   1      32.060  23.794  23.127  1.00  0.00     0.031 A 
ATOM     21  C   UNL A   1      32.791  22.124  24.732  1.00  0.00     0.077 A 
ATOM     22  C   UNL A   1      33.329  23.821  22.554  1.00  0.00     0.052 A 
ATOM     23  C   UNL A   1      34.073  22.198  24.199  1.00  0.00     0.163 A 
ATOM     24  C   UNL A   1      34.347  23.082  23.147  1.00  0.00     0.161 A 
ATOM     25  O   UNL A   1      35.041  21.474  24.846  1.00  0.00    -0.486 OA
ATOM     26  O   UNL A   1      35.632  23.343  22.744  1.00  0.00    -0.486 OA
ATOM     27  C   UNL A   1      36.378  21.842  24.482  1.00  0.00     0.271 C 
ATOM     28  C   UNL A   1      36.468  23.245  23.903  1.00  0.00     0.271 C 
ENDBRANCH  17  19
ENDBRANCH  14  17
ENDBRANCH  13  14
ENDBRANCH   7   8
ENDBRANCH   4   6
ENDBRANCH   3   4
ENDBRANCH   2   3
ENDBRANCH   1   2
BRANCH   1  29
ATOM     29  O   UNL A   1      34.256  35.569  28.148  1.00  0.00    -0.374 OA
BRANCH  29  30
ATOM     30  C   UNL A   1      33.621  36.628  28.875  1.00  0.00     0.202 C 
BRANCH  30  31
ATOM     31  C   UNL A   1      32.561  36.131  29.864  1.00  0.00     0.261 C 
BRANCH  31  32
ATOM     32  O   UNL A   1      32.667  36.837  31.108  1.00  0.00    -0.460 OA
BRANCH  32  33
ATOM     33  C   UNL A   1      32.410  36.097  32.214  1.00  0.00     0.338 C 
ATOM     34  O   UNL A   1      31.348  35.984  32.806  1.00  0.00    -0.246 OA
BRANCH  33  35
ATOM     35  C   UNL A   1      33.583  35.237  32.475  1.00  0.00     0.060 A 
ATOM     36  C   UNL A   1      33.349  33.916  32.882  1.00  0.00     0.016 A 
ATOM     37  C   UNL A   1      34.885  35.694  32.261  1.00  0.00     0.016 A 
ATOM     38  C   UNL A   1      34.418  33.044  33.076  1.00  0.00     0.010 A 
ATOM     39  C   UNL A   1      35.956  34.828  32.477  1.00  0.00     0.010 A 
ATOM     40  C   UNL A   1      35.727  33.506  32.901  1.00  0.00    -0.014 A 
BRANCH  40  41
ATOM     41  C   UNL A   1      36.877  32.679  33.322  1.00  0.00     0.031 A 
ATOM     42  C   UNL A   1      37.554  33.024  34.615  1.00  0.00     0.074 A 
ATOM     43  C   UNL A   1      37.335  31.684  32.545  1.00  0.00     0.049 A 
ATOM     44  N   UNL A   1      38.665  32.560  35.120  1.00  0.00    -0.248 NA
ATOM     45  C   UNL A   1      36.891  34.044  35.446  1.00  0.00     0.031 C 
ATOM     46  C   UNL A   1      36.732  31.245  31.287  1.00  0.00     0.029 A 
ATOM     47  N   UNL A   1      38.440  30.881  32.688  1.00  0.00    -0.354 N 
ATOM     48  C   UNL A   1      38.849  33.248  36.312  1.00  0.00     0.074 A 
ATOM     49  C   UNL A   1      37.742  34.167  36.453  1.00  0.00     0.031 C 
ATOM     50  C   UNL A   1      37.496  30.275  30.754  1.00  0.00     0.029 A 
ATOM     51  C   UNL A   1      38.661  30.058  31.611  1.00  0.00     0.049 A 
ATOM     52  H   UNL A   1      39.017  30.895  33.485  1.00  0.00     0.167 HD
ATOM     53  C   UNL A   1      39.858  33.120  37.203  1.00  0.00     0.037 A 
ATOM     54  C   UNL A   1      39.710  29.259  31.334  1.00  0.00     0.037 A 
ATOM     55  C   UNL A   1      40.946  32.194  37.056  1.00  0.00     0.049 A 
ATOM     56  C   UNL A   1      40.853  29.184  32.317  1.00  0.00     0.074 A 
ATOM     57  C   UNL A   1      41.986  31.940  37.931  1.00  0.00     0.029 A 
ATOM     58  N   UNL A   1      41.140  31.378  35.951  1.00  0.00    -0.354 N 
ATOM     59  N   UNL A   1      40.997  29.795  33.469  1.00  0.00    -0.248 NA
ATOM     60  C   UNL A   1      41.982  28.315  31.958  1.00  0.00     0.031 C 
ATOM     61  C   UNL A   1      42.843  31.015  37.329  1.00  0.00     0.029 A 
ATOM     62  C   UNL A   1      42.307  30.651  36.103  1.00  0.00     0.049 A 
ATOM     63  H   UNL A   1      40.537  31.324  35.174  1.00  0.00     0.167 HD
ATOM     64  C   UNL A   1      42.216  29.368  33.979  1.00  0.00     0.074 A 
ATOM     65  C   UNL A   1      42.766  28.433  33.021  1.00  0.00     0.031 C 
ATOM     66  C   UNL A   1      42.829  29.720  35.137  1.00  0.00     0.037 A 
BRANCH  53  67
ATOM     67  C   UNL A   1      39.854  34.024  38.398  1.00  0.00     0.064 A 
ATOM     68  C   UNL A   1      39.212  33.670  39.594  1.00  0.00     0.173 A 
ATOM     69  C   UNL A   1      40.550  35.242  38.360  1.00  0.00     0.173 A 
ATOM     70  F   UNL A   1      38.518  32.525  39.674  1.00  0.00    -0.203 F 
ATOM     71  C   UNL A   1      39.257  34.510  40.704  1.00  0.00     0.198 A 
ATOM     72  C   UNL A   1      40.616  36.065  39.479  1.00  0.00     0.198 A 
ATOM     73  F   UNL A   1      41.179  35.626  37.239  1.00  0.00    -0.203 F 
ATOM     74  F   UNL A   1      38.609  34.169  41.825  1.00  0.00    -0.200 F 
ATOM     75  C   UNL A   1      39.968  35.700  40.649  1.00  0.00     0.200 A 
ATOM     76  F   UNL A   1      41.311  37.210  39.428  1.00  0.00    -0.200 F 
ATOM     77  F   UNL A   1      40.022  36.498  41.724  1.00  0.00    -0.200 F 
ENDBRANCH  53  67
BRANCH  54  78
ATOM     78  C   UNL A   1      39.763  28.505  30.053  1.00  0.00     0.064 A 
ATOM     79  C   UNL A   1      39.247  27.205  29.955  1.00  0.00     0.173 A 
ATOM     80  C   UNL A   1      40.366  29.052  28.911  1.00  0.00     0.173 A 
ATOM     81  F   UNL A   1      38.685  26.626  31.027  1.00  0.00    -0.203 F 
ATOM     82  C   UNL A   1      39.355  26.474  28.773  1.00  0.00     0.198 A 
ATOM     83  C   UNL A   1      40.446  28.332  27.721  1.00  0.00     0.198 A 
ATOM     84  F   UNL A   1      40.879  30.291  28.950  1.00  0.00    -0.203 F 
ATOM     85  F   UNL A   1      38.905  25.213  28.725  1.00  0.00    -0.200 F 
ATOM     86  C   UNL A   1      39.951  27.039  27.655  1.00  0.00     0.200 A 
ATOM     87  F   UNL A   1      41.011  28.888  26.640  1.00  0.00    -0.200 F 
ATOM     88  F   UNL A   1      40.056  26.335  26.521  1.00  0.00    -0.200 F 
ENDBRANCH  54  78
BRANCH  66  89
ATOM     89  C   UNL A   1      44.149  29.075  35.446  1.00  0.00     0.064 A 
ATOM     90  C   UNL A   1      45.362  29.685  35.097  1.00  0.00     0.173 A 
ATOM     91  C   UNL A   1      44.201  27.870  36.163  1.00  0.00     0.173 A 
ATOM     92  F   UNL A   1      45.366  30.831  34.398  1.00  0.00    -0.203 F 
ATOM     93  C   UNL A   1      46.579  29.104  35.443  1.00  0.00     0.198 A 
ATOM     94  C   UNL A   1      45.418  27.308  36.533  1.00  0.00     0.198 A 
ATOM     95  F   UNL A   1      43.067  27.251  36.528  1.00  0.00    -0.203 F 
ATOM     96  F   UNL A   1      47.728  29.686  35.068  1.00  0.00    -0.200 F 
ATOM     97  C   UNL A   1      46.606  27.924  36.169  1.00  0.00     0.200 A 
ATOM     98  F   UNL A   1      45.442  26.176  37.249  1.00  0.00    -0.200 F 
ATOM     99  F   UNL A   1      47.779  27.375  36.515  1.00  0.00    -0.200 F 
ENDBRANCH  66  89
ENDBRANCH  40  41
ENDBRANCH  33  35
ENDBRANCH  32  33
ENDBRANCH  31  32
ENDBRANCH  30  31
ENDBRANCH  29  30
ENDBRANCH   1  29
TORSDOF 18
ENDMDL
