MODEL 1
REMARK VINA RESULT:     -10.3      0.000      0.000
REMARK SMILES CCCN(CCC)c1ccc(C(=O)OCCOCCOC(=O)c2ccc(-c3c4nc(c(-c5c(F)c(F)c(F)c(F)c5F)c5ccc([nH]5)c(-c5c(F)c(F)c(F)c(F)c5F)c5nc(c(-c6c(F)c(F)c(F)c(F)c6F)c6ccc3[nH]6)C=C5)C=C4)cc2)cc1[N+](=O)[O-]
REMARK SMILES IDX 16 1 15 2 14 3 12 4 13 5 11 6 8 7 9 8 87 9 10 10 86 11 4 12
REMARK SMILES IDX 3 13 2 14 1 15 5 16 6 17 7 18 88 19 89 20 90 21 17 22 18 23
REMARK SMILES IDX 19 24 20 25 21 26 22 27 23 28 24 29 85 30 25 31 84 32 26 33
REMARK SMILES IDX 27 34 28 35 78 36 29 37 83 38 77 39 79 40 30 41 82 42 76 43
REMARK SMILES IDX 75 44 31 46 63 47 43 48 62 49 44 50 47 51 61 52 80 53 45 54
REMARK SMILES IDX 46 55 60 57 81 58 48 59 32 60 33 61 41 62 34 63 35 64 39 65
REMARK SMILES IDX 42 66 36 67 37 68 40 69 38 70 64 71 65 72 73 73 66 74 67 75
REMARK SMILES IDX 71 76 74 77 68 78 69 79 72 80 70 81 49 82 50 83 58 84 51 85
REMARK SMILES IDX 52 86 56 87 59 88 53 89 54 90 57 91 55 92
REMARK H PARENT 79 45 47 56
REMARK Flexibility Score: inf
ROOT
ATOM      1  C   UNL A   1      32.095  29.494  27.201  1.00  0.00     0.202 C 
ENDROOT
BRANCH   1   2
ATOM      2  C   UNL A   1      33.166  28.402  27.175  1.00  0.00     0.261 C 
BRANCH   2   3
ATOM      3  O   UNL A   1      33.716  28.238  25.860  1.00  0.00    -0.460 OA
BRANCH   3   4
ATOM      4  C   UNL A   1      32.883  27.642  24.973  1.00  0.00     0.338 C 
ATOM      5  O   UNL A   1      32.094  28.203  24.231  1.00  0.00    -0.246 OA
BRANCH   4   6
ATOM      6  C   UNL A   1      33.106  26.174  24.930  1.00  0.00     0.067 A 
ATOM      7  C   UNL A   1      33.525  23.366  25.064  1.00  0.00     0.116 A 
ATOM      8  C   UNL A   1      32.968  24.076  26.137  1.00  0.00     0.034 A 
ATOM      9  C   UNL A   1      33.816  24.103  23.901  1.00  0.00     0.293 A 
ATOM     10  C   UNL A   1      32.748  25.451  26.072  1.00  0.00     0.018 A 
ATOM     11  C   UNL A   1      33.632  25.498  23.825  1.00  0.00     0.103 A 
BRANCH   7  12
ATOM     12  N   UNL A   1      33.845  22.028  25.241  1.00  0.00    -0.366 N 
BRANCH  12  13
ATOM     13  C   UNL A   1      35.102  21.711  25.939  1.00  0.00     0.116 C 
BRANCH  13  14
ATOM     14  C   UNL A   1      35.899  20.635  25.192  1.00  0.00     0.018 C 
ATOM     15  C   UNL A   1      37.265  21.106  24.712  1.00  0.00     0.006 C 
ENDBRANCH  13  14
ENDBRANCH  12  13
BRANCH  12  16
ATOM     16  C   UNL A   1      32.793  21.001  25.167  1.00  0.00     0.116 C 
BRANCH  16  17
ATOM     17  C   UNL A   1      32.605  20.428  23.756  1.00  0.00     0.018 C 
ATOM     18  C   UNL A   1      32.629  18.903  23.738  1.00  0.00     0.006 C 
ENDBRANCH  16  17
ENDBRANCH  12  16
ENDBRANCH   7  12
BRANCH   9  19
ATOM     19  N   UNL A   1      34.415  23.454  22.745  1.00  0.00     0.065 N 
ATOM     20  O   UNL A   1      33.647  23.123  21.829  1.00  0.00    -0.258 OA
ATOM     21  O   UNL A   1      35.626  23.197  22.787  1.00  0.00    -0.258 OA
ENDBRANCH   9  19
ENDBRANCH   4   6
ENDBRANCH   3   4
ENDBRANCH   2   3
ENDBRANCH   1   2
BRANCH   1  22
ATOM     22  O   UNL A   1      32.422  30.721  26.554  1.00  0.00    -0.374 OA
BRANCH  22  23
ATOM     23  C   UNL A   1      31.404  31.722  26.469  1.00  0.00     0.202 C 
BRANCH  23  24
ATOM     24  C   UNL A   1      31.769  33.124  26.972  1.00  0.00     0.261 C 
BRANCH  24  25
ATOM     25  O   UNL A   1      33.194  33.342  26.966  1.00  0.00    -0.460 OA
BRANCH  25  26
ATOM     26  C   UNL A   1      33.707  33.763  28.148  1.00  0.00     0.338 C 
ATOM     27  O   UNL A   1      33.194  34.522  28.952  1.00  0.00    -0.246 OA
BRANCH  26  28
ATOM     28  C   UNL A   1      34.941  33.015  28.456  1.00  0.00     0.060 A 
ATOM     29  C   UNL A   1      34.801  31.689  28.885  1.00  0.00     0.016 A 
ATOM     30  C   UNL A   1      36.197  33.625  28.424  1.00  0.00     0.016 A 
ATOM     31  C   UNL A   1      35.914  30.980  29.331  1.00  0.00     0.010 A 
ATOM     32  C   UNL A   1      37.311  32.913  28.885  1.00  0.00     0.010 A 
ATOM     33  C   UNL A   1      37.168  31.602  29.374  1.00  0.00    -0.014 A 
BRANCH  33  34
ATOM     34  C   UNL A   1      38.286  30.924  30.073  1.00  0.00     0.031 A 
ATOM     35  C   UNL A   1      38.537  31.236  31.523  1.00  0.00     0.074 A 
ATOM     36  C   UNL A   1      39.038  30.007  29.441  1.00  0.00     0.049 A 
ATOM     37  N   UNL A   1      39.443  30.751  32.334  1.00  0.00    -0.248 NA
ATOM     38  C   UNL A   1      37.644  32.228  32.143  1.00  0.00     0.031 C 
ATOM     39  C   UNL A   1      38.871  29.595  28.049  1.00  0.00     0.029 A 
ATOM     40  N   UNL A   1      40.094  29.256  29.892  1.00  0.00    -0.354 N 
ATOM     41  C   UNL A   1      39.229  31.375  33.556  1.00  0.00     0.074 A 
ATOM     42  C   UNL A   1      38.129  32.297  33.373  1.00  0.00     0.031 C 
ATOM     43  C   UNL A   1      39.800  28.668  27.756  1.00  0.00     0.029 A 
ATOM     44  C   UNL A   1      40.638  28.440  28.932  1.00  0.00     0.049 A 
ATOM     45  H   UNL A   1      40.430  29.299  30.817  1.00  0.00     0.167 HD
ATOM     46  C   UNL A   1      39.883  31.187  34.727  1.00  0.00     0.037 A 
ATOM     47  C   UNL A   1      41.699  27.612  28.995  1.00  0.00     0.037 A 
ATOM     48  C   UNL A   1      40.977  30.270  34.908  1.00  0.00     0.049 A 
ATOM     49  C   UNL A   1      42.451  27.470  30.293  1.00  0.00     0.074 A 
ATOM     50  C   UNL A   1      41.690  29.992  36.061  1.00  0.00     0.029 A 
ATOM     51  N   UNL A   1      41.523  29.487  33.902  1.00  0.00    -0.354 N 
ATOM     52  N   UNL A   1      42.218  28.035  31.452  1.00  0.00    -0.248 NA
ATOM     53  C   UNL A   1      43.611  26.567  30.291  1.00  0.00     0.031 C 
ATOM     54  C   UNL A   1      42.696  29.075  35.744  1.00  0.00     0.029 A 
ATOM     55  C   UNL A   1      42.581  28.744  34.402  1.00  0.00     0.049 A 
ATOM     56  H   UNL A   1      41.206  29.460  32.971  1.00  0.00     0.167 HD
ATOM     57  C   UNL A   1      43.183  27.541  32.320  1.00  0.00     0.074 A 
ATOM     58  C   UNL A   1      43.997  26.617  31.557  1.00  0.00     0.031 C 
ATOM     59  C   UNL A   1      43.377  27.826  33.632  1.00  0.00     0.037 A 
BRANCH  46  60
ATOM     60  C   UNL A   1      39.443  32.008  35.902  1.00  0.00     0.064 A 
ATOM     61  C   UNL A   1      40.003  33.265  36.172  1.00  0.00     0.173 A 
ATOM     62  C   UNL A   1      38.424  31.546  36.749  1.00  0.00     0.173 A 
ATOM     63  F   UNL A   1      40.989  33.745  35.398  1.00  0.00    -0.203 F 
ATOM     64  C   UNL A   1      39.575  34.021  37.260  1.00  0.00     0.198 A 
ATOM     65  C   UNL A   1      37.981  32.315  37.821  1.00  0.00     0.198 A 
ATOM     66  F   UNL A   1      37.853  30.352  36.532  1.00  0.00    -0.203 F 
ATOM     67  F   UNL A   1      40.152  35.201  37.523  1.00  0.00    -0.200 F 
ATOM     68  C   UNL A   1      38.560  33.549  38.079  1.00  0.00     0.200 A 
ATOM     69  F   UNL A   1      36.994  31.863  38.607  1.00  0.00    -0.200 F 
ATOM     70  F   UNL A   1      38.145  34.280  39.122  1.00  0.00    -0.200 F 
ENDBRANCH  46  60
BRANCH  47  71
ATOM     71  C   UNL A   1      42.120  26.855  27.789  1.00  0.00     0.064 A 
ATOM     72  C   UNL A   1      41.587  25.591  27.505  1.00  0.00     0.173 A 
ATOM     73  C   UNL A   1      43.081  27.373  26.907  1.00  0.00     0.173 A 
ATOM     74  F   UNL A   1      40.686  25.043  28.333  1.00  0.00    -0.203 F 
ATOM     75  C   UNL A   1      42.010  24.867  26.392  1.00  0.00     0.198 A 
ATOM     76  C   UNL A   1      43.484  26.658  25.781  1.00  0.00     0.198 A 
ATOM     77  F   UNL A   1      43.624  28.577  27.138  1.00  0.00    -0.203 F 
ATOM     78  F   UNL A   1      41.516  23.641  26.167  1.00  0.00    -0.200 F 
ATOM     79  C   UNL A   1      42.953  25.403  25.529  1.00  0.00     0.200 A 
ATOM     80  F   UNL A   1      44.388  27.184  24.944  1.00  0.00    -0.200 F 
ATOM     81  F   UNL A   1      43.358  24.706  24.458  1.00  0.00    -0.200 F 
ENDBRANCH  47  71
BRANCH  59  82
ATOM     82  C   UNL A   1      44.496  27.111  34.334  1.00  0.00     0.064 A 
ATOM     83  C   UNL A   1      45.773  27.680  34.449  1.00  0.00     0.173 A 
ATOM     84  C   UNL A   1      44.274  25.862  34.933  1.00  0.00     0.173 A 
ATOM     85  F   UNL A   1      46.038  28.865  33.881  1.00  0.00    -0.203 F 
ATOM     86  C   UNL A   1      46.794  27.012  35.121  1.00  0.00     0.198 A 
ATOM     87  C   UNL A   1      45.291  25.211  35.628  1.00  0.00     0.198 A 
ATOM     88  F   UNL A   1      43.068  25.279  34.857  1.00  0.00    -0.203 F 
ATOM     89  F   UNL A   1      48.019  27.553  35.182  1.00  0.00    -0.200 F 
ATOM     90  C   UNL A   1      46.551  25.783  35.715  1.00  0.00     0.200 A 
ATOM     91  F   UNL A   1      45.050  24.028  36.211  1.00  0.00    -0.200 F 
ATOM     92  F   UNL A   1      47.533  25.145  36.366  1.00  0.00    -0.200 F 
ENDBRANCH  59  82
ENDBRANCH  33  34
ENDBRANCH  26  28
ENDBRANCH  25  26
ENDBRANCH  24  25
ENDBRANCH  23  24
ENDBRANCH  22  23
ENDBRANCH   1  22
TORSDOF 20
ENDMDL
MODEL 2
REMARK VINA RESULT:     -10.1      4.418     10.416
REMARK SMILES CCCN(CCC)c1ccc(C(=O)OCCOCCOC(=O)c2ccc(-c3c4nc(c(-c5c(F)c(F)c(F)c(F)c5F)c5ccc([nH]5)c(-c5c(F)c(F)c(F)c(F)c5F)c5nc(c(-c6c(F)c(F)c(F)c(F)c6F)c6ccc3[nH]6)C=C5)C=C4)cc2)cc1[N+](=O)[O-]
REMARK SMILES IDX 16 1 15 2 14 3 12 4 13 5 11 6 8 7 9 8 87 9 10 10 86 11 4 12
REMARK SMILES IDX 3 13 2 14 1 15 5 16 6 17 7 18 88 19 89 20 90 21 17 22 18 23
REMARK SMILES IDX 19 24 20 25 21 26 22 27 23 28 24 29 85 30 25 31 84 32 26 33
REMARK SMILES IDX 27 34 28 35 78 36 29 37 83 38 77 39 79 40 30 41 82 42 76 43
REMARK SMILES IDX 75 44 31 46 63 47 43 48 62 49 44 50 47 51 61 52 80 53 45 54
REMARK SMILES IDX 46 55 60 57 81 58 48 59 32 60 33 61 41 62 34 63 35 64 39 65
REMARK SMILES IDX 42 66 36 67 37 68 40 69 38 70 64 71 65 72 73 73 66 74 67 75
REMARK SMILES IDX 71 76 74 77 68 78 69 79 72 80 70 81 49 82 50 83 58 84 51 85
REMARK SMILES IDX 52 86 56 87 59 88 53 89 54 90 57 91 55 92
REMARK H PARENT 79 45 47 56
REMARK Flexibility Score: inf
ROOT
ATOM      1  C   UNL A   1      36.239  21.947  25.362  1.00  0.00     0.202 C 
ENDROOT
BRANCH   1   2
ATOM      2  C   UNL A   1      35.170  20.921  24.979  1.00  0.00     0.261 C 
BRANCH   2   3
ATOM      3  O   UNL A   1      33.978  21.559  24.499  1.00  0.00    -0.460 OA
BRANCH   3   4
ATOM      4  C   UNL A   1      33.133  21.977  25.472  1.00  0.00     0.338 C 
ATOM      5  O   UNL A   1      32.959  21.448  26.558  1.00  0.00    -0.246 OA
BRANCH   4   6
ATOM      6  C   UNL A   1      32.478  23.258  25.100  1.00  0.00     0.067 A 
ATOM      7  C   UNL A   1      31.216  25.635  24.185  1.00  0.00     0.116 A 
ATOM      8  C   UNL A   1      31.151  24.441  23.452  1.00  0.00     0.034 A 
ATOM      9  C   UNL A   1      31.890  25.582  25.420  1.00  0.00     0.293 A 
ATOM     10  C   UNL A   1      31.757  23.269  23.902  1.00  0.00     0.018 A 
ATOM     11  C   UNL A   1      32.537  24.417  25.878  1.00  0.00     0.103 A 
BRANCH   7  12
ATOM     12  N   UNL A   1      30.713  26.796  23.619  1.00  0.00    -0.366 N 
BRANCH  12  13
ATOM     13  C   UNL A   1      31.462  27.394  22.502  1.00  0.00     0.116 C 
BRANCH  13  14
ATOM     14  C   UNL A   1      32.424  28.482  22.995  1.00  0.00     0.018 C 
ATOM     15  C   UNL A   1      33.892  28.160  22.748  1.00  0.00     0.006 C 
ENDBRANCH  13  14
ENDBRANCH  12  13
BRANCH  12  16
ATOM     16  C   UNL A   1      29.295  27.148  23.794  1.00  0.00     0.116 C 
BRANCH  16  17
ATOM     17  C   UNL A   1      28.889  28.423  23.043  1.00  0.00     0.018 C 
ATOM     18  C   UNL A   1      27.384  28.666  23.076  1.00  0.00     0.006 C 
ENDBRANCH  16  17
ENDBRANCH  12  16
ENDBRANCH   7  12
BRANCH   9  19
ATOM     19  N   UNL A   1      32.025  26.776  26.239  1.00  0.00     0.065 N 
ATOM     20  O   UNL A   1      33.129  27.343  26.223  1.00  0.00    -0.258 OA
ATOM     21  O   UNL A   1      31.071  27.097  26.961  1.00  0.00    -0.258 OA
ENDBRANCH   9  19
ENDBRANCH   4   6
ENDBRANCH   3   4
ENDBRANCH   2   3
ENDBRANCH   1   2
BRANCH   1  22
ATOM     22  O   UNL A   1      37.582  21.472  25.422  1.00  0.00    -0.374 OA
BRANCH  22  23
ATOM     23  C   UNL A   1      37.846  20.157  24.927  1.00  0.00     0.202 C 
BRANCH  23  24
ATOM     24  C   UNL A   1      39.107  19.460  25.454  1.00  0.00     0.261 C 
BRANCH  24  25
ATOM     25  O   UNL A   1      39.583  20.063  26.674  1.00  0.00    -0.460 OA
BRANCH  25  26
ATOM     26  C   UNL A   1      40.899  20.387  26.668  1.00  0.00     0.338 C 
ATOM     27  O   UNL A   1      41.820  19.745  26.195  1.00  0.00    -0.246 OA
BRANCH  26  28
ATOM     28  C   UNL A   1      41.082  21.765  27.164  1.00  0.00     0.060 A 
ATOM     29  C   UNL A   1      40.501  22.799  26.419  1.00  0.00     0.016 A 
ATOM     30  C   UNL A   1      41.883  22.048  28.271  1.00  0.00     0.016 A 
ATOM     31  C   UNL A   1      40.760  24.128  26.750  1.00  0.00     0.010 A 
ATOM     32  C   UNL A   1      42.152  23.384  28.594  1.00  0.00     0.010 A 
ATOM     33  C   UNL A   1      41.621  24.427  27.813  1.00  0.00    -0.014 A 
BRANCH  33  34
ATOM     34  C   UNL A   1      42.078  25.825  28.000  1.00  0.00     0.031 A 
ATOM     35  C   UNL A   1      43.409  26.240  27.435  1.00  0.00     0.074 A 
ATOM     36  C   UNL A   1      41.298  26.727  28.621  1.00  0.00     0.049 A 
ATOM     37  N   UNL A   1      43.996  27.410  27.464  1.00  0.00    -0.248 NA
ATOM     38  C   UNL A   1      44.180  25.196  26.743  1.00  0.00     0.031 C 
ATOM     39  C   UNL A   1      39.976  26.455  29.179  1.00  0.00     0.029 A 
ATOM     40  N   UNL A   1      41.509  28.057  28.883  1.00  0.00    -0.354 N 
ATOM     41  C   UNL A   1      45.201  27.243  26.795  1.00  0.00     0.074 A 
ATOM     42  C   UNL A   1      45.277  25.853  26.399  1.00  0.00     0.031 C 
ATOM     43  C   UNL A   1      39.494  27.584  29.728  1.00  0.00     0.029 A 
ATOM     44  C   UNL A   1      40.484  28.650  29.576  1.00  0.00     0.049 A 
ATOM     45  H   UNL A   1      42.319  28.540  28.600  1.00  0.00     0.167 HD
ATOM     46  C   UNL A   1      46.154  28.168  26.525  1.00  0.00     0.037 A 
ATOM     47  C   UNL A   1      40.366  29.907  30.046  1.00  0.00     0.037 A 
ATOM     48  C   UNL A   1      46.078  29.550  26.919  1.00  0.00     0.049 A 
ATOM     49  C   UNL A   1      41.469  30.901  29.788  1.00  0.00     0.074 A 
ATOM     50  C   UNL A   1      46.982  30.569  26.673  1.00  0.00     0.029 A 
ATOM     51  N   UNL A   1      45.040  30.104  27.652  1.00  0.00    -0.354 N 
ATOM     52  N   UNL A   1      42.587  30.744  29.123  1.00  0.00    -0.248 NA
ATOM     53  C   UNL A   1      41.288  32.250  30.344  1.00  0.00     0.031 C 
ATOM     54  C   UNL A   1      46.513  31.730  27.295  1.00  0.00     0.029 A 
ATOM     55  C   UNL A   1      45.293  31.446  27.890  1.00  0.00     0.049 A 
ATOM     56  H   UNL A   1      44.241  29.618  27.958  1.00  0.00     0.167 HD
ATOM     57  C   UNL A   1      43.229  31.974  29.159  1.00  0.00     0.074 A 
ATOM     58  C   UNL A   1      42.369  32.873  29.899  1.00  0.00     0.031 C 
ATOM     59  C   UNL A   1      44.425  32.328  28.625  1.00  0.00     0.037 A 
BRANCH  46  60
ATOM     60  C   UNL A   1      47.372  27.707  25.782  1.00  0.00     0.064 A 
ATOM     61  C   UNL A   1      47.434  27.735  24.381  1.00  0.00     0.173 A 
ATOM     62  C   UNL A   1      48.506  27.265  26.482  1.00  0.00     0.173 A 
ATOM     63  F   UNL A   1      46.371  28.137  23.667  1.00  0.00    -0.203 F 
ATOM     64  C   UNL A   1      48.577  27.316  23.706  1.00  0.00     0.198 A 
ATOM     65  C   UNL A   1      49.656  26.871  25.804  1.00  0.00     0.198 A 
ATOM     66  F   UNL A   1      48.499  27.223  27.823  1.00  0.00    -0.203 F 
ATOM     67  F   UNL A   1      48.599  27.313  22.367  1.00  0.00    -0.200 F 
ATOM     68  C   UNL A   1      49.689  26.891  24.418  1.00  0.00     0.200 A 
ATOM     69  F   UNL A   1      50.733  26.470  26.493  1.00  0.00    -0.200 F 
ATOM     70  F   UNL A   1      50.791  26.494  23.767  1.00  0.00    -0.200 F 
ENDBRANCH  46  60
BRANCH  47  71
ATOM     71  C   UNL A   1      39.157  30.300  30.814  1.00  0.00     0.064 A 
ATOM     72  C   UNL A   1      38.044  30.863  30.175  1.00  0.00     0.173 A 
ATOM     73  C   UNL A   1      39.099  30.139  32.207  1.00  0.00     0.173 A 
ATOM     74  F   UNL A   1      38.063  31.061  28.849  1.00  0.00    -0.203 F 
ATOM     75  C   UNL A   1      36.925  31.264  30.902  1.00  0.00     0.198 A 
ATOM     76  C   UNL A   1      37.969  30.517  32.928  1.00  0.00     0.198 A 
ATOM     77  F   UNL A   1      40.140  29.609  32.864  1.00  0.00    -0.203 F 
ATOM     78  F   UNL A   1      35.892  31.841  30.272  1.00  0.00    -0.200 F 
ATOM     79  C   UNL A   1      36.886  31.086  32.277  1.00  0.00     0.200 A 
ATOM     80  F   UNL A   1      37.932  30.334  34.255  1.00  0.00    -0.200 F 
ATOM     81  F   UNL A   1      35.809  31.471  32.974  1.00  0.00    -0.200 F 
ENDBRANCH  47  71
BRANCH  59  82
ATOM     82  C   UNL A   1      44.861  33.754  28.798  1.00  0.00     0.064 A 
ATOM     83  C   UNL A   1      44.496  34.751  27.881  1.00  0.00     0.173 A 
ATOM     84  C   UNL A   1      45.619  34.133  29.916  1.00  0.00     0.173 A 
ATOM     85  F   UNL A   1      43.785  34.435  26.789  1.00  0.00    -0.203 F 
ATOM     86  C   UNL A   1      44.894  36.073  28.067  1.00  0.00     0.198 A 
ATOM     87  C   UNL A   1      45.991  35.461  30.113  1.00  0.00     0.198 A 
ATOM     88  F   UNL A   1      45.988  33.219  30.826  1.00  0.00    -0.203 F 
ATOM     89  F   UNL A   1      44.571  37.002  27.156  1.00  0.00    -0.200 F 
ATOM     90  C   UNL A   1      45.634  36.428  29.185  1.00  0.00     0.200 A 
ATOM     91  F   UNL A   1      46.695  35.804  31.200  1.00  0.00    -0.200 F 
ATOM     92  F   UNL A   1      46.010  37.701  29.365  1.00  0.00    -0.200 F 
ENDBRANCH  59  82
ENDBRANCH  33  34
ENDBRANCH  26  28
ENDBRANCH  25  26
ENDBRANCH  24  25
ENDBRANCH  23  24
ENDBRANCH  22  23
ENDBRANCH   1  22
TORSDOF 20
ENDMDL
MODEL 3
REMARK VINA RESULT:     -10.1      1.718      3.132
REMARK SMILES CCCN(CCC)c1ccc(C(=O)OCCOCCOC(=O)c2ccc(-c3c4nc(c(-c5c(F)c(F)c(F)c(F)c5F)c5ccc([nH]5)c(-c5c(F)c(F)c(F)c(F)c5F)c5nc(c(-c6c(F)c(F)c(F)c(F)c6F)c6ccc3[nH]6)C=C5)C=C4)cc2)cc1[N+](=O)[O-]
REMARK SMILES IDX 16 1 15 2 14 3 12 4 13 5 11 6 8 7 9 8 87 9 10 10 86 11 4 12
REMARK SMILES IDX 3 13 2 14 1 15 5 16 6 17 7 18 88 19 89 20 90 21 17 22 18 23
REMARK SMILES IDX 19 24 20 25 21 26 22 27 23 28 24 29 85 30 25 31 84 32 26 33
REMARK SMILES IDX 27 34 28 35 78 36 29 37 83 38 77 39 79 40 30 41 82 42 76 43
REMARK SMILES IDX 75 44 31 46 63 47 43 48 62 49 44 50 47 51 61 52 80 53 45 54
REMARK SMILES IDX 46 55 60 57 81 58 48 59 32 60 33 61 41 62 34 63 35 64 39 65
REMARK SMILES IDX 42 66 36 67 37 68 40 69 38 70 64 71 65 72 73 73 66 74 67 75
REMARK SMILES IDX 71 76 74 77 68 78 69 79 72 80 70 81 49 82 50 83 58 84 51 85
REMARK SMILES IDX 52 86 56 87 59 88 53 89 54 90 57 91 55 92
REMARK H PARENT 79 45 47 56
REMARK Flexibility Score: inf
ROOT
ATOM      1  C   UNL A   1      33.153  29.412  26.897  1.00  0.00     0.202 C 
ENDROOT
BRANCH   1   2
ATOM      2  C   UNL A   1      33.299  28.680  25.561  1.00  0.00     0.261 C 
BRANCH   2   3
ATOM      3  O   UNL A   1      32.054  28.107  25.138  1.00  0.00    -0.460 OA
BRANCH   3   4
ATOM      4  C   UNL A   1      32.148  27.291  24.059  1.00  0.00     0.338 C 
ATOM      5  O   UNL A   1      32.006  27.614  22.891  1.00  0.00    -0.246 OA
BRANCH   4   6
ATOM      6  C   UNL A   1      32.551  25.918  24.459  1.00  0.00     0.067 A 
ATOM      7  C   UNL A   1      33.443  23.284  25.046  1.00  0.00     0.116 A 
ATOM      8  C   UNL A   1      34.141  24.114  24.157  1.00  0.00     0.034 A 
ATOM      9  C   UNL A   1      32.311  23.839  25.672  1.00  0.00     0.293 A 
ATOM     10  C   UNL A   1      33.716  25.411  23.876  1.00  0.00     0.018 A 
ATOM     11  C   UNL A   1      31.845  25.136  25.378  1.00  0.00     0.103 A 
BRANCH   7  12
ATOM     12  N   UNL A   1      33.838  21.961  25.176  1.00  0.00    -0.366 N 
BRANCH  12  13
ATOM     13  C   UNL A   1      33.287  20.984  24.222  1.00  0.00     0.116 C 
BRANCH  13  14
ATOM     14  C   UNL A   1      32.548  19.852  24.947  1.00  0.00     0.018 C 
ATOM     15  C   UNL A   1      33.109  18.467  24.653  1.00  0.00     0.006 C 
ENDBRANCH  13  14
ENDBRANCH  12  13
BRANCH  12  16
ATOM     16  C   UNL A   1      35.073  21.628  25.903  1.00  0.00     0.116 C 
BRANCH  16  17
ATOM     17  C   UNL A   1      36.126  20.940  25.025  1.00  0.00     0.018 C 
ATOM     18  C   UNL A   1      37.299  21.856  24.694  1.00  0.00     0.006 C 
ENDBRANCH  16  17
ENDBRANCH  12  16
ENDBRANCH   7  12
BRANCH   9  19
ATOM     19  N   UNL A   1      31.512  23.045  26.592  1.00  0.00     0.065 N 
ATOM     20  O   UNL A   1      30.451  22.577  26.151  1.00  0.00    -0.258 OA
ATOM     21  O   UNL A   1      31.892  22.963  27.769  1.00  0.00    -0.258 OA
ENDBRANCH   9  19
ENDBRANCH   4   6
ENDBRANCH   3   4
ENDBRANCH   2   3
ENDBRANCH   1   2
BRANCH   1  22
ATOM     22  O   UNL A   1      32.615  30.731  26.843  1.00  0.00    -0.374 OA
BRANCH  22  23
ATOM     23  C   UNL A   1      33.259  31.745  27.619  1.00  0.00     0.202 C 
BRANCH  23  24
ATOM     24  C   UNL A   1      32.965  33.200  27.234  1.00  0.00     0.261 C 
BRANCH  24  25
ATOM     25  O   UNL A   1      32.280  33.906  28.288  1.00  0.00    -0.460 OA
BRANCH  25  26
ATOM     26  C   UNL A   1      32.940  34.988  28.767  1.00  0.00     0.338 C 
ATOM     27  O   UNL A   1      32.591  36.154  28.715  1.00  0.00    -0.246 OA
BRANCH  26  28
ATOM     28  C   UNL A   1      34.105  34.556  29.564  1.00  0.00     0.060 A 
ATOM     29  C   UNL A   1      35.363  34.623  28.953  1.00  0.00     0.016 A 
ATOM     30  C   UNL A   1      33.960  34.006  30.839  1.00  0.00     0.016 A 
ATOM     31  C   UNL A   1      36.480  34.093  29.596  1.00  0.00     0.010 A 
ATOM     32  C   UNL A   1      35.082  33.463  31.478  1.00  0.00     0.010 A 
ATOM     33  C   UNL A   1      36.338  33.472  30.844  1.00  0.00    -0.014 A 
BRANCH  33  34
ATOM     34  C   UNL A   1      37.477  32.703  31.401  1.00  0.00     0.031 A 
ATOM     35  C   UNL A   1      37.993  33.051  32.770  1.00  0.00     0.074 A 
ATOM     36  C   UNL A   1      38.015  31.678  30.718  1.00  0.00     0.049 A 
ATOM     37  N   UNL A   1      38.962  32.503  33.458  1.00  0.00    -0.248 NA
ATOM     38  C   UNL A   1      37.323  34.167  33.458  1.00  0.00     0.031 C 
ATOM     39  C   UNL A   1      37.580  31.224  29.399  1.00  0.00     0.029 A 
ATOM     40  N   UNL A   1      39.044  30.833  31.045  1.00  0.00    -0.354 N 
ATOM     41  C   UNL A   1      39.018  33.203  34.656  1.00  0.00     0.074 A 
ATOM     42  C   UNL A   1      38.007  34.236  34.590  1.00  0.00     0.031 C 
ATOM     43  C   UNL A   1      38.345  30.184  29.023  1.00  0.00     0.029 A 
ATOM     44  C   UNL A   1      39.335  29.916  30.066  1.00  0.00     0.049 A 
ATOM     45  H   UNL A   1      39.530  30.880  31.901  1.00  0.00     0.167 HD
ATOM     46  C   UNL A   1      39.831  32.996  35.719  1.00  0.00     0.037 A 
ATOM     47  C   UNL A   1      40.299  28.976  30.014  1.00  0.00     0.037 A 
ATOM     48  C   UNL A   1      40.837  31.969  35.784  1.00  0.00     0.049 A 
ATOM     49  C   UNL A   1      41.233  28.808  31.184  1.00  0.00     0.074 A 
ATOM     50  C   UNL A   1      41.695  31.665  36.827  1.00  0.00     0.029 A 
ATOM     51  N   UNL A   1      41.125  31.083  34.757  1.00  0.00    -0.354 N 
ATOM     52  N   UNL A   1      41.254  29.450  32.327  1.00  0.00    -0.248 NA
ATOM     53  C   UNL A   1      42.275  27.779  31.057  1.00  0.00     0.031 C 
ATOM     54  C   UNL A   1      42.533  30.624  36.415  1.00  0.00     0.029 A 
ATOM     55  C   UNL A   1      42.166  30.248  35.132  1.00  0.00     0.049 A 
ATOM     56  H   UNL A   1      40.659  31.050  33.891  1.00  0.00     0.167 HD
ATOM     57  C   UNL A   1      42.290  28.888  33.061  1.00  0.00     0.074 A 
ATOM     58  C   UNL A   1      42.866  27.844  32.241  1.00  0.00     0.031 C 
ATOM     59  C   UNL A   1      42.725  29.209  34.306  1.00  0.00     0.037 A 
BRANCH  46  60
ATOM     60  C   UNL A   1      39.678  33.915  36.894  1.00  0.00     0.064 A 
ATOM     61  C   UNL A   1      38.918  33.553  38.016  1.00  0.00     0.173 A 
ATOM     62  C   UNL A   1      40.329  35.157  36.913  1.00  0.00     0.173 A 
ATOM     63  F   UNL A   1      38.266  32.380  38.040  1.00  0.00    -0.203 F 
ATOM     64  C   UNL A   1      38.796  34.412  39.105  1.00  0.00     0.198 A 
ATOM     65  C   UNL A   1      40.225  36.003  38.015  1.00  0.00     0.198 A 
ATOM     66  F   UNL A   1      41.072  35.548  35.867  1.00  0.00    -0.203 F 
ATOM     67  F   UNL A   1      38.031  34.064  40.149  1.00  0.00    -0.200 F 
ATOM     68  C   UNL A   1      39.455  35.632  39.106  1.00  0.00     0.200 A 
ATOM     69  F   UNL A   1      40.870  37.178  38.019  1.00  0.00    -0.200 F 
ATOM     70  F   UNL A   1      39.342  36.455  40.158  1.00  0.00    -0.200 F 
ENDBRANCH  46  60
BRANCH  47  71
ATOM     71  C   UNL A   1      40.435  28.121  28.807  1.00  0.00     0.064 A 
ATOM     72  C   UNL A   1      41.213  28.529  27.715  1.00  0.00     0.173 A 
ATOM     73  C   UNL A   1      39.772  26.888  28.714  1.00  0.00     0.173 A 
ATOM     74  F   UNL A   1      41.843  29.712  27.746  1.00  0.00    -0.203 F 
ATOM     75  C   UNL A   1      41.310  27.742  26.569  1.00  0.00     0.198 A 
ATOM     76  C   UNL A   1      39.892  26.091  27.578  1.00  0.00     0.198 A 
ATOM     77  F   UNL A   1      39.013  26.456  29.731  1.00  0.00    -0.203 F 
ATOM     78  F   UNL A   1      42.024  28.176  25.521  1.00  0.00    -0.200 F 
ATOM     79  C   UNL A   1      40.654  26.522  26.504  1.00  0.00     0.200 A 
ATOM     80  F   UNL A   1      39.264  24.908  27.523  1.00  0.00    -0.200 F 
ATOM     81  F   UNL A   1      40.749  25.765  25.401  1.00  0.00    -0.200 F 
ENDBRANCH  47  71
BRANCH  59  82
ATOM     82  C   UNL A   1      43.861  28.404  34.867  1.00  0.00     0.064 A 
ATOM     83  C   UNL A   1      43.639  27.211  35.570  1.00  0.00     0.173 A 
ATOM     84  C   UNL A   1      45.188  28.812  34.662  1.00  0.00     0.173 A 
ATOM     85  F   UNL A   1      42.388  26.788  35.803  1.00  0.00    -0.203 F 
ATOM     86  C   UNL A   1      44.706  26.467  36.067  1.00  0.00     0.198 A 
ATOM     87  C   UNL A   1      46.252  28.050  35.138  1.00  0.00     0.198 A 
ATOM     88  F   UNL A   1      45.453  29.942  33.991  1.00  0.00    -0.203 F 
ATOM     89  F   UNL A   1      44.470  25.352  36.775  1.00  0.00    -0.200 F 
ATOM     90  C   UNL A   1      46.010  26.882  35.845  1.00  0.00     0.200 A 
ATOM     91  F   UNL A   1      47.512  28.447  34.912  1.00  0.00    -0.200 F 
ATOM     92  F   UNL A   1      47.035  26.161  36.320  1.00  0.00    -0.200 F 
ENDBRANCH  59  82
ENDBRANCH  33  34
ENDBRANCH  26  28
ENDBRANCH  25  26
ENDBRANCH  24  25
ENDBRANCH  23  24
ENDBRANCH  22  23
ENDBRANCH   1  22
TORSDOF 20
ENDMDL
