MODEL 1
REMARK VINA RESULT:     -11.3      0.000      0.000
REMARK SMILES C=CCOc1ccc(C(=O)N2CCC[C@H]2C(=O)OCCOCCOC(=O)c2ccc(-c3c4nc(c(-c5c(F)c(F)c(F)c(F)c5F)c5ccc([nH]5)c(-c5c(F)c(F)c(F)c(F)c5F)c5nc(c(-c6c(F)c(F)c(F)c(F)c6F)c6ccc3[nH]6)C=C5)C=C4)cc2)cc1
REMARK SMILES IDX 19 1 18 2 16 3 17 4 15 5 11 6 12 7 13 8 14 9 9 10 10 11 8 12
REMARK SMILES IDX 5 13 6 14 91 15 7 16 90 17 4 18 3 19 2 20 1 21 20 22 21 23
REMARK SMILES IDX 22 24 23 25 24 26 25 27 26 28 27 29 28 30 89 31 29 32 88 33
REMARK SMILES IDX 30 34 31 35 32 36 82 37 33 38 87 39 81 40 83 41 34 42 86 43
REMARK SMILES IDX 80 44 79 45 35 47 67 48 47 49 66 50 48 51 51 52 65 53 84 54
REMARK SMILES IDX 49 55 50 56 64 58 85 59 52 60 36 61 37 62 45 63 38 64 39 65
REMARK SMILES IDX 43 66 46 67 40 68 41 69 44 70 42 71 68 72 69 73 77 74 70 75
REMARK SMILES IDX 71 76 75 77 78 78 72 79 73 80 76 81 74 82 53 83 54 84 62 85
REMARK SMILES IDX 55 86 56 87 60 88 63 89 57 90 58 91 61 92 59 93
REMARK H PARENT 83 46 51 57
REMARK Flexibility Score: inf
ROOT
ATOM      1  C   UNL A   1      33.607  27.973  22.008  1.00  0.00     0.261 C 
ENDROOT
BRANCH   1   2
ATOM      2  O   UNL A   1      33.662  26.552  21.795  1.00  0.00    -0.462 OA
BRANCH   2   3
ATOM      3  C   UNL A   1      32.453  25.959  21.617  1.00  0.00     0.328 C 
ATOM      4  O   UNL A   1      31.664  26.242  20.717  1.00  0.00    -0.250 OA
BRANCH   3   5
ATOM      5  C   UNL A   1      32.116  24.890  22.661  1.00  0.00     0.195 C 
ATOM      6  N   UNL A   1      33.059  24.520  23.718  1.00  0.00    -0.325 N 
ATOM      7  C   UNL A   1      32.668  25.116  24.981  1.00  0.00     0.121 C 
ATOM      8  C   UNL A   1      31.152  25.146  24.902  1.00  0.00     0.024 C 
ATOM      9  C   UNL A   1      30.856  25.347  23.418  1.00  0.00     0.039 C 
BRANCH   6  10
ATOM     10  C   UNL A   1      33.964  23.495  23.488  1.00  0.00     0.254 C 
ATOM     11  O   UNL A   1      34.941  23.635  22.757  1.00  0.00    -0.269 OA
BRANCH  10  12
ATOM     12  C   UNL A   1      33.664  22.111  23.951  1.00  0.00     0.040 A 
ATOM     13  C   UNL A   1      32.875  19.673  25.116  1.00  0.00     0.119 A 
ATOM     14  C   UNL A   1      32.101  20.251  24.108  1.00  0.00     0.047 A 
ATOM     15  C   UNL A   1      34.048  20.301  25.518  1.00  0.00     0.047 A 
ATOM     16  C   UNL A   1      32.488  21.471  23.532  1.00  0.00     0.017 A 
ATOM     17  C   UNL A   1      34.417  21.525  24.969  1.00  0.00     0.017 A 
BRANCH  13  18
ATOM     18  O   UNL A   1      32.477  18.464  25.617  1.00  0.00    -0.490 OA
BRANCH  18  19
ATOM     19  C   UNL A   1      32.817  17.329  24.804  1.00  0.00     0.257 C 
BRANCH  19  20
ATOM     20  C   UNL A   1      33.134  16.118  25.640  1.00  0.00     0.006 C 
ATOM     21  C   UNL A   1      32.622  14.898  25.424  1.00  0.00     0.007 C 
ENDBRANCH  19  20
ENDBRANCH  18  19
ENDBRANCH  13  18
ENDBRANCH  10  12
ENDBRANCH   6  10
ENDBRANCH   3   5
ENDBRANCH   2   3
ENDBRANCH   1   2
BRANCH   1  22
ATOM     22  C   UNL A   1      33.269  28.347  23.454  1.00  0.00     0.202 C 
BRANCH  22  23
ATOM     23  O   UNL A   1      31.898  28.585  23.758  1.00  0.00    -0.374 OA
BRANCH  23  24
ATOM     24  C   UNL A   1      31.619  29.365  24.924  1.00  0.00     0.202 C 
BRANCH  24  25
ATOM     25  C   UNL A   1      32.822  30.051  25.587  1.00  0.00     0.261 C 
BRANCH  25  26
ATOM     26  O   UNL A   1      32.507  30.536  26.907  1.00  0.00    -0.460 OA
BRANCH  26  27
ATOM     27  C   UNL A   1      33.155  31.651  27.300  1.00  0.00     0.338 C 
ATOM     28  O   UNL A   1      32.695  32.778  27.430  1.00  0.00    -0.246 OA
BRANCH  27  29
ATOM     29  C   UNL A   1      34.512  31.291  27.759  1.00  0.00     0.060 A 
ATOM     30  C   UNL A   1      34.736  29.966  28.156  1.00  0.00     0.016 A 
ATOM     31  C   UNL A   1      35.529  32.242  27.858  1.00  0.00     0.016 A 
ATOM     32  C   UNL A   1      35.960  29.598  28.711  1.00  0.00     0.010 A 
ATOM     33  C   UNL A   1      36.753  31.877  28.428  1.00  0.00     0.010 A 
ATOM     34  C   UNL A   1      36.959  30.564  28.895  1.00  0.00    -0.014 A 
BRANCH  34  35
ATOM     35  C   UNL A   1      38.131  30.264  29.750  1.00  0.00     0.031 A 
ATOM     36  C   UNL A   1      39.195  29.349  29.206  1.00  0.00     0.074 A 
ATOM     37  C   UNL A   1      38.265  30.802  30.975  1.00  0.00     0.049 A 
ATOM     38  N   UNL A   1      40.247  28.848  29.799  1.00  0.00    -0.248 NA
ATOM     39  C   UNL A   1      39.050  28.947  27.796  1.00  0.00     0.031 C 
ATOM     40  C   UNL A   1      37.347  31.760  31.583  1.00  0.00     0.029 A 
ATOM     41  N   UNL A   1      39.231  30.603  31.932  1.00  0.00    -0.354 N 
ATOM     42  C   UNL A   1      40.884  28.070  28.840  1.00  0.00     0.074 A 
ATOM     43  C   UNL A   1      40.090  28.143  27.634  1.00  0.00     0.031 C 
ATOM     44  C   UNL A   1      37.782  32.053  32.822  1.00  0.00     0.029 A 
ATOM     45  C   UNL A   1      38.984  31.271  33.107  1.00  0.00     0.049 A 
ATOM     46  H   UNL A   1      40.023  30.037  31.789  1.00  0.00     0.167 HD
ATOM     47  C   UNL A   1      42.032  27.364  28.955  1.00  0.00     0.037 A 
ATOM     48  C   UNL A   1      39.639  31.223  34.284  1.00  0.00     0.037 A 
ATOM     49  C   UNL A   1      42.818  27.287  30.156  1.00  0.00     0.049 A 
ATOM     50  C   UNL A   1      40.856  30.339  34.419  1.00  0.00     0.074 A 
ATOM     51  C   UNL A   1      43.979  26.569  30.385  1.00  0.00     0.029 A 
ATOM     52  N   UNL A   1      42.518  27.954  31.334  1.00  0.00    -0.354 N 
ATOM     53  N   UNL A   1      41.444  29.593  33.516  1.00  0.00    -0.248 NA
ATOM     54  C   UNL A   1      41.496  30.286  35.743  1.00  0.00     0.031 C 
ATOM     55  C   UNL A   1      44.363  26.774  31.713  1.00  0.00     0.029 A 
ATOM     56  C   UNL A   1      43.469  27.657  32.296  1.00  0.00     0.049 A 
ATOM     57  H   UNL A   1      41.746  28.549  31.467  1.00  0.00     0.167 HD
ATOM     58  C   UNL A   1      42.546  29.026  34.144  1.00  0.00     0.074 A 
ATOM     59  C   UNL A   1      42.543  29.507  35.508  1.00  0.00     0.031 C 
ATOM     60  C   UNL A   1      43.478  28.184  33.635  1.00  0.00     0.037 A 
BRANCH  47  61
ATOM     61  C   UNL A   1      42.503  26.601  27.753  1.00  0.00     0.064 A 
ATOM     62  C   UNL A   1      43.429  27.150  26.855  1.00  0.00     0.173 A 
ATOM     63  C   UNL A   1      42.063  25.289  27.526  1.00  0.00     0.173 A 
ATOM     64  F   UNL A   1      43.869  28.407  27.021  1.00  0.00    -0.203 F 
ATOM     65  C   UNL A   1      43.887  26.417  25.763  1.00  0.00     0.198 A 
ATOM     66  C   UNL A   1      42.542  24.550  26.448  1.00  0.00     0.198 A 
ATOM     67  F   UNL A   1      41.180  24.719  28.359  1.00  0.00    -0.203 F 
ATOM     68  F   UNL A   1      44.745  26.973  24.897  1.00  0.00    -0.200 F 
ATOM     69  C   UNL A   1      43.450  25.116  25.566  1.00  0.00     0.200 A 
ATOM     70  F   UNL A   1      42.129  23.288  26.267  1.00  0.00    -0.200 F 
ATOM     71  F   UNL A   1      43.902  24.406  24.522  1.00  0.00    -0.200 F 
ENDBRANCH  47  61
BRANCH  48  72
ATOM     72  C   UNL A   1      39.153  32.012  35.448  1.00  0.00     0.064 A 
ATOM     73  C   UNL A   1      39.520  33.354  35.613  1.00  0.00     0.173 A 
ATOM     74  C   UNL A   1      38.360  31.426  36.444  1.00  0.00     0.173 A 
ATOM     75  F   UNL A   1      40.303  33.953  34.703  1.00  0.00    -0.203 F 
ATOM     76  C   UNL A   1      39.134  34.073  36.744  1.00  0.00     0.198 A 
ATOM     77  C   UNL A   1      37.948  32.153  37.559  1.00  0.00     0.198 A 
ATOM     78  F   UNL A   1      37.985  30.143  36.338  1.00  0.00    -0.203 F 
ATOM     79  F   UNL A   1      39.547  35.337  36.906  1.00  0.00    -0.200 F 
ATOM     80  C   UNL A   1      38.345  33.473  37.713  1.00  0.00     0.200 A 
ATOM     81  F   UNL A   1      37.178  31.573  38.489  1.00  0.00    -0.200 F 
ATOM     82  F   UNL A   1      37.979  34.161  38.804  1.00  0.00    -0.200 F 
ENDBRANCH  48  72
BRANCH  60  83
ATOM     83  C   UNL A   1      44.624  27.790  34.519  1.00  0.00     0.064 A 
ATOM     84  C   UNL A   1      45.788  28.565  34.613  1.00  0.00     0.173 A 
ATOM     85  C   UNL A   1      44.514  26.661  35.346  1.00  0.00     0.173 A 
ATOM     86  F   UNL A   1      45.945  29.645  33.833  1.00  0.00    -0.203 F 
ATOM     87  C   UNL A   1      46.805  28.218  35.498  1.00  0.00     0.198 A 
ATOM     88  C   UNL A   1      45.522  26.333  36.248  1.00  0.00     0.198 A 
ATOM     89  F   UNL A   1      43.416  25.892  35.298  1.00  0.00    -0.203 F 
ATOM     90  F   UNL A   1      47.923  28.956  35.553  1.00  0.00    -0.200 F 
ATOM     91  C   UNL A   1      46.667  27.109  36.321  1.00  0.00     0.200 A 
ATOM     92  F   UNL A   1      45.379  25.271  37.052  1.00  0.00    -0.200 F 
ATOM     93  F   UNL A   1      47.641  26.789  37.185  1.00  0.00    -0.200 F 
ENDBRANCH  60  83
ENDBRANCH  34  35
ENDBRANCH  27  29
ENDBRANCH  26  27
ENDBRANCH  25  26
ENDBRANCH  24  25
ENDBRANCH  23  24
ENDBRANCH  22  23
ENDBRANCH   1  22
TORSDOF 19
ENDMDL
MODEL 2
REMARK VINA RESULT:     -11.0      1.901      7.794
REMARK SMILES C=CCOc1ccc(C(=O)N2CCC[C@H]2C(=O)OCCOCCOC(=O)c2ccc(-c3c4nc(c(-c5c(F)c(F)c(F)c(F)c5F)c5ccc([nH]5)c(-c5c(F)c(F)c(F)c(F)c5F)c5nc(c(-c6c(F)c(F)c(F)c(F)c6F)c6ccc3[nH]6)C=C5)C=C4)cc2)cc1
REMARK SMILES IDX 19 1 18 2 16 3 17 4 15 5 11 6 12 7 13 8 14 9 9 10 10 11 8 12
REMARK SMILES IDX 5 13 6 14 91 15 7 16 90 17 4 18 3 19 2 20 1 21 20 22 21 23
REMARK SMILES IDX 22 24 23 25 24 26 25 27 26 28 27 29 28 30 89 31 29 32 88 33
REMARK SMILES IDX 30 34 31 35 32 36 82 37 33 38 87 39 81 40 83 41 34 42 86 43
REMARK SMILES IDX 80 44 79 45 35 47 67 48 47 49 66 50 48 51 51 52 65 53 84 54
REMARK SMILES IDX 49 55 50 56 64 58 85 59 52 60 36 61 37 62 45 63 38 64 39 65
REMARK SMILES IDX 43 66 46 67 40 68 41 69 44 70 42 71 68 72 69 73 77 74 70 75
REMARK SMILES IDX 71 76 75 77 78 78 72 79 73 80 76 81 74 82 53 83 54 84 62 85
REMARK SMILES IDX 55 86 56 87 60 88 63 89 57 90 58 91 61 92 59 93
REMARK H PARENT 83 46 51 57
REMARK Flexibility Score: inf
ROOT
ATOM      1  C   UNL A   1      33.263  27.406  25.449  1.00  0.00     0.261 C 
ENDROOT
BRANCH   1   2
ATOM      2  O   UNL A   1      32.400  26.760  26.402  1.00  0.00    -0.462 OA
BRANCH   2   3
ATOM      3  C   UNL A   1      31.903  25.563  25.995  1.00  0.00     0.328 C 
ATOM      4  O   UNL A   1      31.560  24.657  26.754  1.00  0.00    -0.250 OA
BRANCH   3   5
ATOM      5  C   UNL A   1      31.814  25.402  24.475  1.00  0.00     0.195 C 
ATOM      6  N   UNL A   1      32.504  24.319  23.772  1.00  0.00    -0.325 N 
ATOM      7  C   UNL A   1      31.569  23.274  23.403  1.00  0.00     0.121 C 
ATOM      8  C   UNL A   1      30.280  24.032  23.137  1.00  0.00     0.024 C 
ATOM      9  C   UNL A   1      30.332  25.213  24.104  1.00  0.00     0.039 C 
BRANCH   6  10
ATOM     10  C   UNL A   1      33.795  24.527  23.311  1.00  0.00     0.254 C 
ATOM     11  O   UNL A   1      34.027  25.111  22.256  1.00  0.00    -0.269 OA
BRANCH  10  12
ATOM     12  C   UNL A   1      34.948  23.855  23.974  1.00  0.00     0.040 A 
ATOM     13  C   UNL A   1      36.875  22.268  25.273  1.00  0.00     0.119 A 
ATOM     14  C   UNL A   1      36.751  22.222  23.883  1.00  0.00     0.047 A 
ATOM     15  C   UNL A   1      36.056  23.122  26.002  1.00  0.00     0.047 A 
ATOM     16  C   UNL A   1      35.785  23.007  23.235  1.00  0.00     0.017 A 
ATOM     17  C   UNL A   1      35.077  23.877  25.363  1.00  0.00     0.017 A 
BRANCH  13  18
ATOM     18  O   UNL A   1      37.858  21.516  25.854  1.00  0.00    -0.490 OA
BRANCH  18  19
ATOM     19  C   UNL A   1      39.183  22.063  25.749  1.00  0.00     0.257 C 
BRANCH  19  20
ATOM     20  C   UNL A   1      39.585  22.798  27.000  1.00  0.00     0.006 C 
ATOM     21  C   UNL A   1      39.299  24.085  27.242  1.00  0.00     0.007 C 
ENDBRANCH  19  20
ENDBRANCH  18  19
ENDBRANCH  13  18
ENDBRANCH  10  12
ENDBRANCH   6  10
ENDBRANCH   3   5
ENDBRANCH   2   3
ENDBRANCH   1   2
BRANCH   1  22
ATOM     22  C   UNL A   1      32.526  28.417  24.566  1.00  0.00     0.202 C 
BRANCH  22  23
ATOM     23  O   UNL A   1      32.655  29.792  24.912  1.00  0.00    -0.374 OA
BRANCH  23  24
ATOM     24  C   UNL A   1      31.480  30.450  25.398  1.00  0.00     0.202 C 
BRANCH  24  25
ATOM     25  C   UNL A   1      31.692  31.485  26.512  1.00  0.00     0.261 C 
BRANCH  25  26
ATOM     26  O   UNL A   1      32.821  31.155  27.346  1.00  0.00    -0.460 OA
BRANCH  26  27
ATOM     27  C   UNL A   1      33.669  32.166  27.623  1.00  0.00     0.338 C 
ATOM     28  O   UNL A   1      33.409  33.359  27.706  1.00  0.00    -0.246 OA
BRANCH  27  29
ATOM     29  C   UNL A   1      34.979  31.611  28.018  1.00  0.00     0.060 A 
ATOM     30  C   UNL A   1      35.066  30.227  28.222  1.00  0.00     0.016 A 
ATOM     31  C   UNL A   1      36.086  32.431  28.245  1.00  0.00     0.016 A 
ATOM     32  C   UNL A   1      36.242  29.663  28.712  1.00  0.00     0.010 A 
ATOM     33  C   UNL A   1      37.262  31.867  28.750  1.00  0.00     0.010 A 
ATOM     34  C   UNL A   1      37.331  30.488  29.025  1.00  0.00    -0.014 A 
BRANCH  34  35
ATOM     35  C   UNL A   1      38.460  29.954  29.822  1.00  0.00     0.031 A 
ATOM     36  C   UNL A   1      38.642  30.459  31.228  1.00  0.00     0.074 A 
ATOM     37  C   UNL A   1      39.298  29.027  29.324  1.00  0.00     0.049 A 
ATOM     38  N   UNL A   1      39.612  30.234  32.076  1.00  0.00    -0.248 NA
ATOM     39  C   UNL A   1      37.580  31.340  31.747  1.00  0.00     0.031 C 
ATOM     40  C   UNL A   1      39.183  28.402  28.010  1.00  0.00     0.029 A 
ATOM     41  N   UNL A   1      40.422  28.460  29.872  1.00  0.00    -0.354 N 
ATOM     42  C   UNL A   1      39.280  30.946  33.223  1.00  0.00     0.074 A 
ATOM     43  C   UNL A   1      38.036  31.631  32.956  1.00  0.00     0.031 C 
ATOM     44  C   UNL A   1      40.210  27.550  27.843  1.00  0.00     0.029 A 
ATOM     45  C   UNL A   1      41.075  27.602  29.020  1.00  0.00     0.049 A 
ATOM     46  H   UNL A   1      40.732  28.651  30.787  1.00  0.00     0.167 HD
ATOM     47  C   UNL A   1      39.953  31.015  34.395  1.00  0.00     0.037 A 
ATOM     48  C   UNL A   1      42.253  26.964  29.168  1.00  0.00     0.037 A 
ATOM     49  C   UNL A   1      41.194  30.339  34.657  1.00  0.00     0.049 A 
ATOM     50  C   UNL A   1      43.039  27.147  30.445  1.00  0.00     0.074 A 
ATOM     51  C   UNL A   1      41.972  30.374  35.801  1.00  0.00     0.029 A 
ATOM     52  N   UNL A   1      41.837  29.503  33.758  1.00  0.00    -0.354 N 
ATOM     53  N   UNL A   1      42.731  27.834  31.517  1.00  0.00    -0.248 NA
ATOM     54  C   UNL A   1      44.342  26.470  30.526  1.00  0.00     0.031 C 
ATOM     55  C   UNL A   1      43.105  29.586  35.581  1.00  0.00     0.029 A 
ATOM     56  C   UNL A   1      43.008  29.022  34.320  1.00  0.00     0.049 A 
ATOM     57  H   UNL A   1      41.511  29.284  32.856  1.00  0.00     0.167 HD
ATOM     58  C   UNL A   1      43.772  27.632  32.415  1.00  0.00     0.074 A 
ATOM     59  C   UNL A   1      44.725  26.762  31.761  1.00  0.00     0.031 C 
ATOM     60  C   UNL A   1      43.922  28.119  33.671  1.00  0.00     0.037 A 
BRANCH  47  61
ATOM     61  C   UNL A   1      39.369  31.868  35.482  1.00  0.00     0.064 A 
ATOM     62  C   UNL A   1      38.454  31.348  36.407  1.00  0.00     0.173 A 
ATOM     63  C   UNL A   1      39.770  33.204  35.630  1.00  0.00     0.173 A 
ATOM     64  F   UNL A   1      38.028  30.079  36.298  1.00  0.00    -0.203 F 
ATOM     65  C   UNL A   1      37.948  32.141  37.435  1.00  0.00     0.198 A 
ATOM     66  C   UNL A   1      39.282  33.985  36.674  1.00  0.00     0.198 A 
ATOM     67  F   UNL A   1      40.647  33.746  34.772  1.00  0.00    -0.203 F 
ATOM     68  F   UNL A   1      37.047  31.633  38.288  1.00  0.00    -0.200 F 
ATOM     69  C   UNL A   1      38.369  33.454  37.572  1.00  0.00     0.200 A 
ATOM     70  F   UNL A   1      39.701  35.251  36.812  1.00  0.00    -0.200 F 
ATOM     71  F   UNL A   1      37.892  34.211  38.570  1.00  0.00    -0.200 F 
ENDBRANCH  47  61
BRANCH  48  72
ATOM     72  C   UNL A   1      42.788  26.109  28.075  1.00  0.00     0.064 A 
ATOM     73  C   UNL A   1      42.633  24.717  28.106  1.00  0.00     0.173 A 
ATOM     74  C   UNL A   1      43.511  26.660  27.008  1.00  0.00     0.173 A 
ATOM     75  F   UNL A   1      41.975  24.138  29.122  1.00  0.00    -0.203 F 
ATOM     76  C   UNL A   1      43.203  23.906  27.126  1.00  0.00     0.198 A 
ATOM     77  C   UNL A   1      44.055  25.852  26.011  1.00  0.00     0.198 A 
ATOM     78  F   UNL A   1      43.694  27.986  26.932  1.00  0.00    -0.203 F 
ATOM     79  F   UNL A   1      43.090  22.574  27.212  1.00  0.00    -0.200 F 
ATOM     80  C   UNL A   1      43.910  24.475  26.077  1.00  0.00     0.200 A 
ATOM     81  F   UNL A   1      44.729  26.406  24.995  1.00  0.00    -0.200 F 
ATOM     82  F   UNL A   1      44.464  23.695  25.139  1.00  0.00    -0.200 F 
ENDBRANCH  48  72
BRANCH  60  83
ATOM     83  C   UNL A   1      45.113  27.665  34.462  1.00  0.00     0.064 A 
ATOM     84  C   UNL A   1      45.083  26.503  35.245  1.00  0.00     0.173 A 
ATOM     85  C   UNL A   1      46.327  28.363  34.363  1.00  0.00     0.173 A 
ATOM     86  F   UNL A   1      43.942  25.810  35.381  1.00  0.00    -0.203 F 
ATOM     87  C   UNL A   1      46.225  26.062  35.909  1.00  0.00     0.198 A 
ATOM     88  C   UNL A   1      47.472  27.904  35.006  1.00  0.00     0.198 A 
ATOM     89  F   UNL A   1      46.407  29.477  33.619  1.00  0.00    -0.203 F 
ATOM     90  F   UNL A   1      46.168  24.964  36.676  1.00  0.00    -0.200 F 
ATOM     91  C   UNL A   1      47.419  26.756  35.781  1.00  0.00     0.200 A 
ATOM     92  F   UNL A   1      48.628  28.568  34.868  1.00  0.00    -0.200 F 
ATOM     93  F   UNL A   1      48.521  26.317  36.406  1.00  0.00    -0.200 F 
ENDBRANCH  60  83
ENDBRANCH  34  35
ENDBRANCH  27  29
ENDBRANCH  26  27
ENDBRANCH  25  26
ENDBRANCH  24  25
ENDBRANCH  23  24
ENDBRANCH  22  23
ENDBRANCH   1  22
TORSDOF 19
ENDMDL
MODEL 3
REMARK VINA RESULT:     -10.8      2.412      8.572
REMARK SMILES C=CCOc1ccc(C(=O)N2CCC[C@H]2C(=O)OCCOCCOC(=O)c2ccc(-c3c4nc(c(-c5c(F)c(F)c(F)c(F)c5F)c5ccc([nH]5)c(-c5c(F)c(F)c(F)c(F)c5F)c5nc(c(-c6c(F)c(F)c(F)c(F)c6F)c6ccc3[nH]6)C=C5)C=C4)cc2)cc1
REMARK SMILES IDX 19 1 18 2 16 3 17 4 15 5 11 6 12 7 13 8 14 9 9 10 10 11 8 12
REMARK SMILES IDX 5 13 6 14 91 15 7 16 90 17 4 18 3 19 2 20 1 21 20 22 21 23
REMARK SMILES IDX 22 24 23 25 24 26 25 27 26 28 27 29 28 30 89 31 29 32 88 33
REMARK SMILES IDX 30 34 31 35 32 36 82 37 33 38 87 39 81 40 83 41 34 42 86 43
REMARK SMILES IDX 80 44 79 45 35 47 67 48 47 49 66 50 48 51 51 52 65 53 84 54
REMARK SMILES IDX 49 55 50 56 64 58 85 59 52 60 36 61 37 62 45 63 38 64 39 65
REMARK SMILES IDX 43 66 46 67 40 68 41 69 44 70 42 71 68 72 69 73 77 74 70 75
REMARK SMILES IDX 71 76 75 77 78 78 72 79 73 80 76 81 74 82 53 83 54 84 62 85
REMARK SMILES IDX 55 86 56 87 60 88 63 89 57 90 58 91 61 92 59 93
REMARK H PARENT 83 46 51 57
REMARK Flexibility Score: inf
ROOT
ATOM      1  C   UNL A   1      33.613  28.317  25.520  1.00  0.00     0.261 C 
ENDROOT
BRANCH   1   2
ATOM      2  O   UNL A   1      33.705  27.185  26.404  1.00  0.00    -0.462 OA
BRANCH   2   3
ATOM      3  C   UNL A   1      33.698  25.979  25.780  1.00  0.00     0.328 C 
ATOM      4  O   UNL A   1      34.516  25.628  24.931  1.00  0.00    -0.250 OA
BRANCH   3   5
ATOM      5  C   UNL A   1      32.550  25.057  26.206  1.00  0.00     0.195 C 
ATOM      6  N   UNL A   1      31.394  24.816  25.341  1.00  0.00    -0.325 N 
ATOM      7  C   UNL A   1      31.495  23.515  24.707  1.00  0.00     0.121 C 
ATOM      8  C   UNL A   1      32.212  22.671  25.745  1.00  0.00     0.024 C 
ATOM      9  C   UNL A   1      33.137  23.656  26.457  1.00  0.00     0.039 C 
BRANCH   6  10
ATOM     10  C   UNL A   1      30.287  25.644  25.446  1.00  0.00     0.254 C 
ATOM     11  O   UNL A   1      29.477  25.540  26.363  1.00  0.00    -0.269 OA
BRANCH  10  12
ATOM     12  C   UNL A   1      29.919  26.553  24.325  1.00  0.00     0.040 A 
ATOM     13  C   UNL A   1      29.233  28.569  22.485  1.00  0.00     0.119 A 
ATOM     14  C   UNL A   1      30.575  28.254  22.712  1.00  0.00     0.047 A 
ATOM     15  C   UNL A   1      28.245  27.862  23.158  1.00  0.00     0.047 A 
ATOM     16  C   UNL A   1      30.918  27.255  23.635  1.00  0.00     0.017 A 
ATOM     17  C   UNL A   1      28.585  26.892  24.096  1.00  0.00     0.017 A 
BRANCH  13  18
ATOM     18  O   UNL A   1      28.949  29.522  21.546  1.00  0.00    -0.490 OA
BRANCH  18  19
ATOM     19  C   UNL A   1      29.130  30.879  21.985  1.00  0.00     0.257 C 
BRANCH  19  20
ATOM     20  C   UNL A   1      28.672  31.073  23.405  1.00  0.00     0.006 C 
ATOM     21  C   UNL A   1      27.469  31.554  23.750  1.00  0.00     0.007 C 
ENDBRANCH  19  20
ENDBRANCH  18  19
ENDBRANCH  13  18
ENDBRANCH  10  12
ENDBRANCH   6  10
ENDBRANCH   3   5
ENDBRANCH   2   3
ENDBRANCH   1   2
BRANCH   1  22
ATOM     22  C   UNL A   1      32.755  29.450  26.090  1.00  0.00     0.202 C 
BRANCH  22  23
ATOM     23  O   UNL A   1      33.440  30.517  26.739  1.00  0.00    -0.374 OA
BRANCH  23  24
ATOM     24  C   UNL A   1      32.637  31.583  27.254  1.00  0.00     0.202 C 
BRANCH  24  25
ATOM     25  C   UNL A   1      33.387  32.847  27.698  1.00  0.00     0.261 C 
BRANCH  25  26
ATOM     26  O   UNL A   1      32.495  33.961  27.896  1.00  0.00    -0.460 OA
BRANCH  26  27
ATOM     27  C   UNL A   1      32.972  34.976  28.645  1.00  0.00     0.338 C 
ATOM     28  O   UNL A   1      32.484  36.089  28.796  1.00  0.00    -0.246 OA
BRANCH  27  29
ATOM     29  C   UNL A   1      34.112  34.495  29.451  1.00  0.00     0.060 A 
ATOM     30  C   UNL A   1      35.393  34.590  28.890  1.00  0.00     0.016 A 
ATOM     31  C   UNL A   1      33.929  33.908  30.705  1.00  0.00     0.016 A 
ATOM     32  C   UNL A   1      36.490  34.043  29.553  1.00  0.00     0.010 A 
ATOM     33  C   UNL A   1      35.028  33.347  31.363  1.00  0.00     0.010 A 
ATOM     34  C   UNL A   1      36.305  33.375  30.771  1.00  0.00    -0.014 A 
BRANCH  34  35
ATOM     35  C   UNL A   1      37.392  32.535  31.327  1.00  0.00     0.031 A 
ATOM     36  C   UNL A   1      37.934  32.880  32.688  1.00  0.00     0.074 A 
ATOM     37  C   UNL A   1      37.878  31.477  30.655  1.00  0.00     0.049 A 
ATOM     38  N   UNL A   1      38.953  32.373  33.333  1.00  0.00    -0.248 NA
ATOM     39  C   UNL A   1      37.226  33.944  33.421  1.00  0.00     0.031 C 
ATOM     40  C   UNL A   1      37.387  30.994  29.368  1.00  0.00     0.029 A 
ATOM     41  N   UNL A   1      38.909  30.624  30.966  1.00  0.00    -0.354 N 
ATOM     42  C   UNL A   1      39.010  33.057  34.541  1.00  0.00     0.074 A 
ATOM     43  C   UNL A   1      37.942  34.032  34.531  1.00  0.00     0.031 C 
ATOM     44  C   UNL A   1      38.130  29.939  28.987  1.00  0.00     0.029 A 
ATOM     45  C   UNL A   1      39.174  29.702  29.983  1.00  0.00     0.049 A 
ATOM     46  H   UNL A   1      39.410  30.670  31.812  1.00  0.00     0.167 HD
ATOM     47  C   UNL A   1      39.873  32.882  35.568  1.00  0.00     0.037 A 
ATOM     48  C   UNL A   1      40.168  28.797  29.889  1.00  0.00     0.037 A 
ATOM     49  C   UNL A   1      40.938  31.917  35.574  1.00  0.00     0.049 A 
ATOM     50  C   UNL A   1      41.186  28.697  31.001  1.00  0.00     0.074 A 
ATOM     51  C   UNL A   1      41.889  31.685  36.552  1.00  0.00     0.029 A 
ATOM     52  N   UNL A   1      41.192  31.021  34.546  1.00  0.00    -0.354 N 
ATOM     53  N   UNL A   1      41.246  29.357  32.131  1.00  0.00    -0.248 NA
ATOM     54  C   UNL A   1      42.279  27.730  30.818  1.00  0.00     0.031 C 
ATOM     55  C   UNL A   1      42.740  30.672  36.102  1.00  0.00     0.029 A 
ATOM     56  C   UNL A   1      42.290  30.240  34.865  1.00  0.00     0.049 A 
ATOM     57  H   UNL A   1      40.669  30.950  33.715  1.00  0.00     0.167 HD
ATOM     58  C   UNL A   1      42.347  28.852  32.813  1.00  0.00     0.074 A 
ATOM     59  C   UNL A   1      42.931  27.834  31.967  1.00  0.00     0.031 C 
ATOM     60  C   UNL A   1      42.828  29.198  34.031  1.00  0.00     0.037 A 
BRANCH  47  61
ATOM     61  C   UNL A   1      39.714  33.766  36.769  1.00  0.00     0.064 A 
ATOM     62  C   UNL A   1      40.315  35.031  36.831  1.00  0.00     0.173 A 
ATOM     63  C   UNL A   1      38.910  33.364  37.846  1.00  0.00     0.173 A 
ATOM     64  F   UNL A   1      41.105  35.454  35.832  1.00  0.00    -0.203 F 
ATOM     65  C   UNL A   1      40.128  35.858  37.936  1.00  0.00     0.198 A 
ATOM     66  C   UNL A   1      38.704  34.203  38.937  1.00  0.00     0.198 A 
ATOM     67  F   UNL A   1      38.311  32.165  37.831  1.00  0.00    -0.203 F 
ATOM     68  F   UNL A   1      40.740  37.049  37.990  1.00  0.00    -0.200 F 
ATOM     69  C   UNL A   1      39.317  35.447  38.983  1.00  0.00     0.200 A 
ATOM     70  F   UNL A   1      37.909  33.810  39.941  1.00  0.00    -0.200 F 
ATOM     71  F   UNL A   1      39.127  36.249  40.039  1.00  0.00    -0.200 F 
ENDBRANCH  47  61
BRANCH  48  72
ATOM     72  C   UNL A   1      40.280  27.922  28.691  1.00  0.00     0.064 A 
ATOM     73  C   UNL A   1      39.683  26.655  28.665  1.00  0.00     0.173 A 
ATOM     74  C   UNL A   1      41.029  28.313  27.572  1.00  0.00     0.173 A 
ATOM     75  F   UNL A   1      38.980  26.223  29.723  1.00  0.00    -0.203 F 
ATOM     76  C   UNL A   1      39.853  25.800  27.577  1.00  0.00     0.198 A 
ATOM     77  C   UNL A   1      41.174  27.471  26.472  1.00  0.00     0.198 A 
ATOM     78  F   UNL A   1      41.626  29.513  27.547  1.00  0.00    -0.203 F 
ATOM     79  F   UNL A   1      39.321  24.571  27.603  1.00  0.00    -0.200 F 
ATOM     80  C   UNL A   1      40.595  26.211  26.480  1.00  0.00     0.200 A 
ATOM     81  F   UNL A   1      41.883  27.874  25.410  1.00  0.00    -0.200 F 
ATOM     82  F   UNL A   1      40.765  25.387  25.436  1.00  0.00    -0.200 F 
ENDBRANCH  48  72
BRANCH  60  83
ATOM     83  C   UNL A   1      43.993  28.421  34.573  1.00  0.00     0.064 A 
ATOM     84  C   UNL A   1      43.820  27.231  35.290  1.00  0.00     0.173 A 
ATOM     85  C   UNL A   1      45.303  28.838  34.291  1.00  0.00     0.173 A 
ATOM     86  F   UNL A   1      42.586  26.799  35.595  1.00  0.00    -0.203 F 
ATOM     87  C   UNL A   1      44.919  26.489  35.715  1.00  0.00     0.198 A 
ATOM     88  C   UNL A   1      46.398  28.080  34.695  1.00  0.00     0.198 A 
ATOM     89  F   UNL A   1      45.520  29.968  33.600  1.00  0.00    -0.203 F 
ATOM     90  F   UNL A   1      44.732  25.367  36.425  1.00  0.00    -0.200 F 
ATOM     91  C   UNL A   1      46.205  26.908  35.409  1.00  0.00     0.200 A 
ATOM     92  F   UNL A   1      47.639  28.480  34.384  1.00  0.00    -0.200 F 
ATOM     93  F   UNL A   1      47.260  26.181  35.803  1.00  0.00    -0.200 F 
ENDBRANCH  60  83
ENDBRANCH  34  35
ENDBRANCH  27  29
ENDBRANCH  26  27
ENDBRANCH  25  26
ENDBRANCH  24  25
ENDBRANCH  23  24
ENDBRANCH  22  23
ENDBRANCH   1  22
TORSDOF 19
ENDMDL
