MODEL 1
REMARK VINA RESULT:     -11.5      0.000      0.000
REMARK SMILES O=C(/C=C\c1ccc([N+](=O)[O-])cc1)OCCOCCOC(=O)c1ccc(-c2c3nc(c(-c4c(F)c(F)c(F)c(F)c4F)c4ccc([nH]4)c(-c4c(F)c(F)c(F)c(F)c4F)c4nc(c(-c5c(F)c(F)c(F)c(F)c5F)c5ccc2[nH]5)C=C4)C=C3)cc1
REMARK SMILES IDX 17 1 16 2 15 3 14 4 2 5 1 6 3 7 4 8 5 9 6 10 13 11 7 12
REMARK SMILES IDX 12 13 8 14 9 15 10 16 11 17 18 18 19 19 20 20 21 21 22 22
REMARK SMILES IDX 23 23 24 24 85 25 25 26 84 27 26 28 27 29 28 30 78 31 29 32
REMARK SMILES IDX 83 33 77 34 79 35 30 36 82 37 76 38 75 39 31 41 63 42 43 43
REMARK SMILES IDX 62 44 44 45 47 46 61 47 80 48 45 49 46 50 60 52 81 53 48 54
REMARK SMILES IDX 32 55 33 56 41 57 34 58 35 59 39 60 42 61 36 62 37 63 40 64
REMARK SMILES IDX 38 65 64 66 65 67 73 68 66 69 67 70 71 71 74 72 68 73 69 74
REMARK SMILES IDX 72 75 70 76 49 77 50 78 58 79 51 80 52 81 56 82 59 83 53 84
REMARK SMILES IDX 54 85 57 86 55 87
REMARK H PARENT 79 40 47 51
REMARK Flexibility Score: inf
ROOT
ATOM      1  O   UNL A   1      33.898  28.619  24.740  1.00  0.00    -0.374 OA
ENDROOT
BRANCH   1   2
ATOM      2  C   UNL A   1      33.964  27.257  24.340  1.00  0.00     0.202 C 
BRANCH   2   3
ATOM      3  C   UNL A   1      32.628  26.619  23.959  1.00  0.00     0.261 C 
BRANCH   3   4
ATOM      4  O   UNL A   1      31.887  26.042  25.047  1.00  0.00    -0.460 OA
BRANCH   4   5
ATOM      5  C   UNL A   1      30.649  26.332  25.478  1.00  0.00     0.330 C 
ATOM      6  O   UNL A   1      30.490  26.768  26.617  1.00  0.00    -0.247 OA
BRANCH   5   7
ATOM      7  C   UNL A   1      29.434  26.007  24.713  1.00  0.00     0.094 C 
ATOM      8  C   UNL A   1      28.605  26.608  23.841  1.00  0.00     0.015 C 
BRANCH   8   9
ATOM      9  C   UNL A   1      28.559  27.914  23.177  1.00  0.00    -0.025 A 
ATOM     10  C   UNL A   1      29.738  28.447  22.633  1.00  0.00     0.015 A 
ATOM     11  C   UNL A   1      27.442  28.749  23.293  1.00  0.00     0.015 A 
ATOM     12  C   UNL A   1      29.788  29.775  22.184  1.00  0.00     0.086 A 
ATOM     13  C   UNL A   1      27.465  30.061  22.812  1.00  0.00     0.086 A 
ATOM     14  C   UNL A   1      28.642  30.573  22.262  1.00  0.00     0.269 A 
BRANCH  14  15
ATOM     15  N   UNL A   1      28.676  31.967  21.807  1.00  0.00     0.062 N 
ATOM     16  O   UNL A   1      28.920  32.842  22.648  1.00  0.00    -0.258 OA
ATOM     17  O   UNL A   1      28.460  32.180  20.605  1.00  0.00    -0.258 OA
ENDBRANCH  14  15
ENDBRANCH   8   9
ENDBRANCH   5   7
ENDBRANCH   4   5
ENDBRANCH   3   4
ENDBRANCH   2   3
ENDBRANCH   1   2
BRANCH   1  18
ATOM     18  C   UNL A   1      32.722  29.350  24.382  1.00  0.00     0.202 C 
BRANCH  18  19
ATOM     19  C   UNL A   1      31.899  29.886  25.560  1.00  0.00     0.261 C 
BRANCH  19  20
ATOM     20  O   UNL A   1      32.693  29.890  26.768  1.00  0.00    -0.460 OA
BRANCH  20  21
ATOM     21  C   UNL A   1      33.211  31.080  27.149  1.00  0.00     0.338 C 
ATOM     22  O   UNL A   1      32.638  32.152  27.221  1.00  0.00    -0.246 OA
BRANCH  21  23
ATOM     23  C   UNL A   1      34.598  30.892  27.606  1.00  0.00     0.060 A 
ATOM     24  C   UNL A   1      35.027  29.595  27.910  1.00  0.00     0.016 A 
ATOM     25  C   UNL A   1      35.423  31.988  27.847  1.00  0.00     0.016 A 
ATOM     26  C   UNL A   1      36.275  29.389  28.497  1.00  0.00     0.010 A 
ATOM     27  C   UNL A   1      36.676  31.780  28.431  1.00  0.00     0.010 A 
ATOM     28  C   UNL A   1      37.099  30.484  28.785  1.00  0.00    -0.014 A 
BRANCH  28  29
ATOM     29  C   UNL A   1      38.357  30.331  29.556  1.00  0.00     0.031 A 
ATOM     30  C   UNL A   1      39.442  29.453  29.004  1.00  0.00     0.074 A 
ATOM     31  C   UNL A   1      38.516  30.916  30.755  1.00  0.00     0.049 A 
ATOM     32  N   UNL A   1      40.465  28.909  29.609  1.00  0.00    -0.248 NA
ATOM     33  C   UNL A   1      39.344  29.134  27.572  1.00  0.00     0.031 C 
ATOM     34  C   UNL A   1      37.586  31.859  31.366  1.00  0.00     0.029 A 
ATOM     35  N   UNL A   1      39.513  30.767  31.688  1.00  0.00    -0.354 N 
ATOM     36  C   UNL A   1      41.099  28.133  28.647  1.00  0.00     0.074 A 
ATOM     37  C   UNL A   1      40.354  28.291  27.416  1.00  0.00     0.031 C 
ATOM     38  C   UNL A   1      38.039  32.187  32.586  1.00  0.00     0.029 A 
ATOM     39  C   UNL A   1      39.248  31.416  32.868  1.00  0.00     0.049 A 
ATOM     40  H   UNL A   1      40.334  30.248  31.527  1.00  0.00     0.167 HD
ATOM     41  C   UNL A   1      42.191  27.344  28.793  1.00  0.00     0.037 A 
ATOM     42  C   UNL A   1      39.870  31.342  34.062  1.00  0.00     0.037 A 
ATOM     43  C   UNL A   1      42.939  27.224  30.017  1.00  0.00     0.049 A 
ATOM     44  C   UNL A   1      41.056  30.429  34.222  1.00  0.00     0.074 A 
ATOM     45  C   UNL A   1      44.059  26.455  30.276  1.00  0.00     0.029 A 
ATOM     46  N   UNL A   1      42.643  27.906  31.188  1.00  0.00    -0.354 N 
ATOM     47  N   UNL A   1      41.613  29.635  33.340  1.00  0.00    -0.248 NA
ATOM     48  C   UNL A   1      41.687  30.386  35.549  1.00  0.00     0.031 C 
ATOM     49  C   UNL A   1      44.417  26.642  31.616  1.00  0.00     0.029 A 
ATOM     50  C   UNL A   1      43.548  27.564  32.179  1.00  0.00     0.049 A 
ATOM     51  H   UNL A   1      41.898  28.541  31.300  1.00  0.00     0.167 HD
ATOM     52  C   UNL A   1      42.666  29.010  33.996  1.00  0.00     0.074 A 
ATOM     53  C   UNL A   1      42.675  29.524  35.350  1.00  0.00     0.031 C 
ATOM     54  C   UNL A   1      43.543  28.093  33.520  1.00  0.00     0.037 A 
BRANCH  41  55
ATOM     55  C   UNL A   1      42.591  26.501  27.618  1.00  0.00     0.064 A 
ATOM     56  C   UNL A   1      42.017  25.246  27.367  1.00  0.00     0.173 A 
ATOM     57  C   UNL A   1      43.580  26.957  26.734  1.00  0.00     0.173 A 
ATOM     58  F   UNL A   1      41.080  24.755  28.192  1.00  0.00    -0.203 F 
ATOM     59  C   UNL A   1      42.445  24.465  26.295  1.00  0.00     0.198 A 
ATOM     60  C   UNL A   1      43.985  26.188  25.648  1.00  0.00     0.198 A 
ATOM     61  F   UNL A   1      44.161  28.152  26.926  1.00  0.00    -0.203 F 
ATOM     62  F   UNL A   1      41.927  23.242  26.110  1.00  0.00    -0.200 F 
ATOM     63  C   UNL A   1      43.427  24.938  25.436  1.00  0.00     0.200 A 
ATOM     64  F   UNL A   1      44.927  26.650  24.813  1.00  0.00    -0.200 F 
ATOM     65  F   UNL A   1      43.843  24.181  24.411  1.00  0.00    -0.200 F 
ENDBRANCH  41  55
BRANCH  42  66
ATOM     66  C   UNL A   1      39.333  32.118  35.209  1.00  0.00     0.064 A 
ATOM     67  C   UNL A   1      38.534  31.506  36.184  1.00  0.00     0.173 A 
ATOM     68  C   UNL A   1      39.644  33.476  35.374  1.00  0.00     0.173 A 
ATOM     69  F   UNL A   1      38.188  30.218  36.053  1.00  0.00    -0.203 F 
ATOM     70  C   UNL A   1      38.072  32.223  37.286  1.00  0.00     0.198 A 
ATOM     71  C   UNL A   1      39.204  34.185  36.490  1.00  0.00     0.198 A 
ATOM     72  F   UNL A   1      40.402  34.108  34.466  1.00  0.00    -0.203 F 
ATOM     73  F   UNL A   1      37.293  31.622  38.195  1.00  0.00    -0.200 F 
ATOM     74  C   UNL A   1      38.418  33.558  37.445  1.00  0.00     0.200 A 
ATOM     75  F   UNL A   1      39.552  35.469  36.646  1.00  0.00    -0.200 F 
ATOM     76  F   UNL A   1      37.991  34.240  38.516  1.00  0.00    -0.200 F 
ENDBRANCH  42  66
BRANCH  54  77
ATOM     77  C   UNL A   1      44.612  27.609  34.454  1.00  0.00     0.064 A 
ATOM     78  C   UNL A   1      45.816  28.307  34.618  1.00  0.00     0.173 A 
ATOM     79  C   UNL A   1      44.398  26.467  35.242  1.00  0.00     0.173 A 
ATOM     80  F   UNL A   1      46.070  29.396  33.879  1.00  0.00    -0.203 F 
ATOM     81  C   UNL A   1      46.774  27.873  35.531  1.00  0.00     0.198 A 
ATOM     82  C   UNL A   1      45.348  26.048  36.168  1.00  0.00     0.198 A 
ATOM     83  F   UNL A   1      43.259  25.768  35.123  1.00  0.00    -0.203 F 
ATOM     84  F   UNL A   1      47.930  28.538  35.654  1.00  0.00    -0.200 F 
ATOM     85  C   UNL A   1      46.536  26.749  36.310  1.00  0.00     0.200 A 
ATOM     86  F   UNL A   1      45.112  24.969  36.927  1.00  0.00    -0.200 F 
ATOM     87  F   UNL A   1      47.455  26.340  37.196  1.00  0.00    -0.200 F 
ENDBRANCH  54  77
ENDBRANCH  28  29
ENDBRANCH  21  23
ENDBRANCH  20  21
ENDBRANCH  19  20
ENDBRANCH  18  19
ENDBRANCH   1  18
TORSDOF 16
ENDMDL
MODEL 2
REMARK VINA RESULT:     -11.2      4.014      6.541
REMARK SMILES O=C(/C=C\c1ccc([N+](=O)[O-])cc1)OCCOCCOC(=O)c1ccc(-c2c3nc(c(-c4c(F)c(F)c(F)c(F)c4F)c4ccc([nH]4)c(-c4c(F)c(F)c(F)c(F)c4F)c4nc(c(-c5c(F)c(F)c(F)c(F)c5F)c5ccc2[nH]5)C=C4)C=C3)cc1
REMARK SMILES IDX 17 1 16 2 15 3 14 4 2 5 1 6 3 7 4 8 5 9 6 10 13 11 7 12
REMARK SMILES IDX 12 13 8 14 9 15 10 16 11 17 18 18 19 19 20 20 21 21 22 22
REMARK SMILES IDX 23 23 24 24 85 25 25 26 84 27 26 28 27 29 28 30 78 31 29 32
REMARK SMILES IDX 83 33 77 34 79 35 30 36 82 37 76 38 75 39 31 41 63 42 43 43
REMARK SMILES IDX 62 44 44 45 47 46 61 47 80 48 45 49 46 50 60 52 81 53 48 54
REMARK SMILES IDX 32 55 33 56 41 57 34 58 35 59 39 60 42 61 36 62 37 63 40 64
REMARK SMILES IDX 38 65 64 66 65 67 73 68 66 69 67 70 71 71 74 72 68 73 69 74
REMARK SMILES IDX 72 75 70 76 49 77 50 78 58 79 51 80 52 81 56 82 59 83 53 84
REMARK SMILES IDX 54 85 57 86 55 87
REMARK H PARENT 79 40 47 51
REMARK Flexibility Score: inf
ROOT
ATOM      1  O   UNL A   1      32.528  36.928  30.877  1.00  0.00    -0.374 OA
ENDROOT
BRANCH   1   2
ATOM      2  C   UNL A   1      33.390  37.654  31.744  1.00  0.00     0.202 C 
BRANCH   2   3
ATOM      3  C   UNL A   1      33.996  36.848  32.893  1.00  0.00     0.261 C 
BRANCH   3   4
ATOM      4  O   UNL A   1      34.582  35.590  32.522  1.00  0.00    -0.460 OA
BRANCH   4   5
ATOM      5  C   UNL A   1      34.727  34.473  33.254  1.00  0.00     0.330 C 
ATOM      6  O   UNL A   1      33.826  33.636  33.267  1.00  0.00    -0.247 OA
BRANCH   5   7
ATOM      7  C   UNL A   1      35.850  34.260  34.183  1.00  0.00     0.094 C 
ATOM      8  C   UNL A   1      36.711  33.281  34.510  1.00  0.00     0.015 C 
BRANCH   8   9
ATOM      9  C   UNL A   1      36.974  31.921  34.028  1.00  0.00    -0.025 A 
ATOM     10  C   UNL A   1      38.104  31.234  34.499  1.00  0.00     0.015 A 
ATOM     11  C   UNL A   1      36.281  31.392  32.934  1.00  0.00     0.015 A 
ATOM     12  C   UNL A   1      38.512  30.029  33.911  1.00  0.00     0.086 A 
ATOM     13  C   UNL A   1      36.651  30.170  32.363  1.00  0.00     0.086 A 
ATOM     14  C   UNL A   1      37.771  29.494  32.851  1.00  0.00     0.269 A 
BRANCH  14  15
ATOM     15  N   UNL A   1      38.186  28.238  32.215  1.00  0.00     0.062 N 
ATOM     16  O   UNL A   1      38.789  27.411  32.912  1.00  0.00    -0.258 OA
ATOM     17  O   UNL A   1      37.905  28.085  31.018  1.00  0.00    -0.258 OA
ENDBRANCH  14  15
ENDBRANCH   8   9
ENDBRANCH   5   7
ENDBRANCH   4   5
ENDBRANCH   3   4
ENDBRANCH   2   3
ENDBRANCH   1   2
BRANCH   1  18
ATOM     18  C   UNL A   1      33.092  36.429  29.662  1.00  0.00     0.202 C 
BRANCH  18  19
ATOM     19  C   UNL A   1      32.995  34.910  29.471  1.00  0.00     0.261 C 
BRANCH  19  20
ATOM     20  O   UNL A   1      33.564  34.525  28.199  1.00  0.00    -0.460 OA
BRANCH  20  21
ATOM     21  C   UNL A   1      33.657  33.198  27.953  1.00  0.00     0.338 C 
ATOM     22  O   UNL A   1      32.815  32.472  27.457  1.00  0.00    -0.246 OA
BRANCH  21  23
ATOM     23  C   UNL A   1      35.019  32.733  28.264  1.00  0.00     0.060 A 
ATOM     24  C   UNL A   1      35.171  31.472  28.853  1.00  0.00     0.016 A 
ATOM     25  C   UNL A   1      36.117  33.573  28.090  1.00  0.00     0.016 A 
ATOM     26  C   UNL A   1      36.423  31.058  29.310  1.00  0.00     0.010 A 
ATOM     27  C   UNL A   1      37.371  33.155  28.543  1.00  0.00     0.010 A 
ATOM     28  C   UNL A   1      37.528  31.908  29.180  1.00  0.00    -0.014 A 
BRANCH  28  29
ATOM     29  C   UNL A   1      38.837  31.583  29.796  1.00  0.00     0.031 A 
ATOM     30  C   UNL A   1      39.573  30.362  29.330  1.00  0.00     0.074 A 
ATOM     31  C   UNL A   1      39.343  32.327  30.795  1.00  0.00     0.049 A 
ATOM     32  N   UNL A   1      40.539  29.696  29.909  1.00  0.00    -0.248 NA
ATOM     33  C   UNL A   1      39.144  29.808  28.038  1.00  0.00     0.031 C 
ATOM     34  C   UNL A   1      38.780  33.583  31.283  1.00  0.00     0.029 A 
ATOM     35  N   UNL A   1      40.433  32.107  31.600  1.00  0.00    -0.354 N 
ATOM     36  C   UNL A   1      40.792  28.610  29.082  1.00  0.00     0.074 A 
ATOM     37  C   UNL A   1      39.889  28.715  27.954  1.00  0.00     0.031 C 
ATOM     38  C   UNL A   1      39.512  34.010  32.324  1.00  0.00     0.029 A 
ATOM     39  C   UNL A   1      40.544  33.019  32.620  1.00  0.00     0.049 A 
ATOM     40  H   UNL A   1      41.070  31.369  31.461  1.00  0.00     0.167 HD
ATOM     41  C   UNL A   1      41.683  27.606  29.266  1.00  0.00     0.037 A 
ATOM     42  C   UNL A   1      41.341  33.018  33.707  1.00  0.00     0.037 A 
ATOM     43  C   UNL A   1      42.595  27.534  30.377  1.00  0.00     0.049 A 
ATOM     44  C   UNL A   1      42.296  31.874  33.923  1.00  0.00     0.074 A 
ATOM     45  C   UNL A   1      43.539  26.563  30.662  1.00  0.00     0.029 A 
ATOM     46  N   UNL A   1      42.682  28.484  31.384  1.00  0.00    -0.354 N 
ATOM     47  N   UNL A   1      42.486  30.806  33.187  1.00  0.00    -0.248 NA
ATOM     48  C   UNL A   1      43.133  31.926  35.130  1.00  0.00     0.031 C 
ATOM     49  C   UNL A   1      44.169  26.906  31.863  1.00  0.00     0.029 A 
ATOM     50  C   UNL A   1      43.652  28.116  32.302  1.00  0.00     0.049 A 
ATOM     51  H   UNL A   1      42.135  29.301  31.439  1.00  0.00     0.167 HD
ATOM     52  C   UNL A   1      43.471  30.067  33.829  1.00  0.00     0.074 A 
ATOM     53  C   UNL A   1      43.845  30.813  35.013  1.00  0.00     0.031 C 
ATOM     54  C   UNL A   1      44.013  28.877  33.471  1.00  0.00     0.037 A 
BRANCH  41  55
ATOM     55  C   UNL A   1      41.658  26.476  28.279  1.00  0.00     0.064 A 
ATOM     56  C   UNL A   1      40.646  25.504  28.279  1.00  0.00     0.173 A 
ATOM     57  C   UNL A   1      42.678  26.359  27.323  1.00  0.00     0.173 A 
ATOM     58  F   UNL A   1      39.657  25.559  29.184  1.00  0.00    -0.203 F 
ATOM     59  C   UNL A   1      40.678  24.438  27.382  1.00  0.00     0.198 A 
ATOM     60  C   UNL A   1      42.691  25.310  26.409  1.00  0.00     0.198 A 
ATOM     61  F   UNL A   1      43.669  27.263  27.278  1.00  0.00    -0.203 F 
ATOM     62  F   UNL A   1      39.735  23.487  27.440  1.00  0.00    -0.200 F 
ATOM     63  C   UNL A   1      41.698  24.344  26.447  1.00  0.00     0.200 A 
ATOM     64  F   UNL A   1      43.674  25.226  25.501  1.00  0.00    -0.200 F 
ATOM     65  F   UNL A   1      41.731  23.313  25.591  1.00  0.00    -0.200 F 
ENDBRANCH  41  55
BRANCH  42  66
ATOM     66  C   UNL A   1      41.214  34.115  34.700  1.00  0.00     0.064 A 
ATOM     67  C   UNL A   1      40.528  33.922  35.906  1.00  0.00     0.173 A 
ATOM     68  C   UNL A   1      41.814  35.365  34.481  1.00  0.00     0.173 A 
ATOM     69  F   UNL A   1      39.915  32.754  36.148  1.00  0.00    -0.203 F 
ATOM     70  C   UNL A   1      40.453  34.936  36.860  1.00  0.00     0.198 A 
ATOM     71  C   UNL A   1      41.761  36.368  35.445  1.00  0.00     0.198 A 
ATOM     72  F   UNL A   1      42.479  35.599  33.339  1.00  0.00    -0.203 F 
ATOM     73  F   UNL A   1      39.773  34.735  37.996  1.00  0.00    -0.200 F 
ATOM     74  C   UNL A   1      41.079  36.154  36.633  1.00  0.00     0.200 A 
ATOM     75  F   UNL A   1      42.379  37.537  35.228  1.00  0.00    -0.200 F 
ATOM     76  F   UNL A   1      41.025  37.120  37.560  1.00  0.00    -0.200 F 
ENDBRANCH  42  66
BRANCH  54  77
ATOM     77  C   UNL A   1      45.096  28.321  34.348  1.00  0.00     0.064 A 
ATOM     78  C   UNL A   1      44.821  27.371  35.341  1.00  0.00     0.173 A 
ATOM     79  C   UNL A   1      46.433  28.696  34.144  1.00  0.00     0.173 A 
ATOM     80  F   UNL A   1      43.558  26.991  35.580  1.00  0.00    -0.203 F 
ATOM     81  C   UNL A   1      45.847  26.824  36.109  1.00  0.00     0.198 A 
ATOM     82  C   UNL A   1      47.457  28.132  34.899  1.00  0.00     0.198 A 
ATOM     83  F   UNL A   1      46.745  29.598  33.202  1.00  0.00    -0.203 F 
ATOM     84  F   UNL A   1      45.561  25.938  37.072  1.00  0.00    -0.200 F 
ATOM     85  C   UNL A   1      47.163  27.198  35.882  1.00  0.00     0.200 A 
ATOM     86  F   UNL A   1      48.729  28.486  34.671  1.00  0.00    -0.200 F 
ATOM     87  F   UNL A   1      48.149  26.663  36.614  1.00  0.00    -0.200 F 
ENDBRANCH  54  77
ENDBRANCH  28  29
ENDBRANCH  21  23
ENDBRANCH  20  21
ENDBRANCH  19  20
ENDBRANCH  18  19
ENDBRANCH   1  18
TORSDOF 16
ENDMDL
MODEL 3
REMARK VINA RESULT:     -11.2      3.957      6.748
REMARK SMILES O=C(/C=C\c1ccc([N+](=O)[O-])cc1)OCCOCCOC(=O)c1ccc(-c2c3nc(c(-c4c(F)c(F)c(F)c(F)c4F)c4ccc([nH]4)c(-c4c(F)c(F)c(F)c(F)c4F)c4nc(c(-c5c(F)c(F)c(F)c(F)c5F)c5ccc2[nH]5)C=C4)C=C3)cc1
REMARK SMILES IDX 17 1 16 2 15 3 14 4 2 5 1 6 3 7 4 8 5 9 6 10 13 11 7 12
REMARK SMILES IDX 12 13 8 14 9 15 10 16 11 17 18 18 19 19 20 20 21 21 22 22
REMARK SMILES IDX 23 23 24 24 85 25 25 26 84 27 26 28 27 29 28 30 78 31 29 32
REMARK SMILES IDX 83 33 77 34 79 35 30 36 82 37 76 38 75 39 31 41 63 42 43 43
REMARK SMILES IDX 62 44 44 45 47 46 61 47 80 48 45 49 46 50 60 52 81 53 48 54
REMARK SMILES IDX 32 55 33 56 41 57 34 58 35 59 39 60 42 61 36 62 37 63 40 64
REMARK SMILES IDX 38 65 64 66 65 67 73 68 66 69 67 70 71 71 74 72 68 73 69 74
REMARK SMILES IDX 72 75 70 76 49 77 50 78 58 79 51 80 52 81 56 82 59 83 53 84
REMARK SMILES IDX 54 85 57 86 55 87
REMARK H PARENT 79 40 47 51
REMARK Flexibility Score: inf
ROOT
ATOM      1  O   UNL A   1      32.534  36.776  30.676  1.00  0.00    -0.374 OA
ENDROOT
BRANCH   1   2
ATOM      2  C   UNL A   1      33.245  37.727  31.459  1.00  0.00     0.202 C 
BRANCH   2   3
ATOM      3  C   UNL A   1      33.876  37.183  32.740  1.00  0.00     0.261 C 
BRANCH   3   4
ATOM      4  O   UNL A   1      34.625  35.966  32.592  1.00  0.00    -0.460 OA
BRANCH   4   5
ATOM      5  C   UNL A   1      34.508  34.811  33.267  1.00  0.00     0.330 C 
ATOM      6  O   UNL A   1      33.636  34.006  32.945  1.00  0.00    -0.247 OA
BRANCH   5   7
ATOM      7  C   UNL A   1      35.273  34.513  34.489  1.00  0.00     0.094 C 
ATOM      8  C   UNL A   1      36.169  33.608  34.918  1.00  0.00     0.015 C 
BRANCH   8   9
ATOM      9  C   UNL A   1      36.874  32.472  34.315  1.00  0.00    -0.025 A 
ATOM     10  C   UNL A   1      36.326  31.848  33.183  1.00  0.00     0.015 A 
ATOM     11  C   UNL A   1      37.933  31.841  34.977  1.00  0.00     0.015 A 
ATOM     12  C   UNL A   1      36.846  30.637  32.706  1.00  0.00     0.086 A 
ATOM     13  C   UNL A   1      38.488  30.654  34.489  1.00  0.00     0.086 A 
ATOM     14  C   UNL A   1      37.938  30.052  33.355  1.00  0.00     0.269 A 
BRANCH  14  15
ATOM     15  N   UNL A   1      38.491  28.780  32.877  1.00  0.00     0.062 N 
ATOM     16  O   UNL A   1      39.665  28.773  32.484  1.00  0.00    -0.258 OA
ATOM     17  O   UNL A   1      37.746  27.790  32.899  1.00  0.00    -0.258 OA
ENDBRANCH  14  15
ENDBRANCH   8   9
ENDBRANCH   5   7
ENDBRANCH   4   5
ENDBRANCH   3   4
ENDBRANCH   2   3
ENDBRANCH   1   2
BRANCH   1  18
ATOM     18  C   UNL A   1      33.197  36.254  29.522  1.00  0.00     0.202 C 
BRANCH  18  19
ATOM     19  C   UNL A   1      33.289  34.724  29.456  1.00  0.00     0.261 C 
BRANCH  19  20
ATOM     20  O   UNL A   1      33.624  34.297  28.116  1.00  0.00    -0.460 OA
BRANCH  20  21
ATOM     21  C   UNL A   1      33.721  32.964  27.911  1.00  0.00     0.338 C 
ATOM     22  O   UNL A   1      32.874  32.217  27.453  1.00  0.00    -0.246 OA
BRANCH  21  23
ATOM     23  C   UNL A   1      35.090  32.515  28.212  1.00  0.00     0.060 A 
ATOM     24  C   UNL A   1      35.265  31.243  28.768  1.00  0.00     0.016 A 
ATOM     25  C   UNL A   1      36.173  33.379  28.062  1.00  0.00     0.016 A 
ATOM     26  C   UNL A   1      36.523  30.839  29.217  1.00  0.00     0.010 A 
ATOM     27  C   UNL A   1      37.434  32.972  28.507  1.00  0.00     0.010 A 
ATOM     28  C   UNL A   1      37.612  31.713  29.112  1.00  0.00    -0.014 A 
BRANCH  28  29
ATOM     29  C   UNL A   1      38.927  31.396  29.722  1.00  0.00     0.031 A 
ATOM     30  C   UNL A   1      39.663  30.173  29.260  1.00  0.00     0.074 A 
ATOM     31  C   UNL A   1      39.436  32.148  30.712  1.00  0.00     0.049 A 
ATOM     32  N   UNL A   1      40.634  29.514  29.837  1.00  0.00    -0.248 NA
ATOM     33  C   UNL A   1      39.227  29.609  27.974  1.00  0.00     0.031 C 
ATOM     34  C   UNL A   1      38.873  33.405  31.194  1.00  0.00     0.029 A 
ATOM     35  N   UNL A   1      40.532  31.937  31.511  1.00  0.00    -0.354 N 
ATOM     36  C   UNL A   1      40.884  28.422  29.016  1.00  0.00     0.074 A 
ATOM     37  C   UNL A   1      39.975  28.518  27.894  1.00  0.00     0.031 C 
ATOM     38  C   UNL A   1      39.611  33.843  32.228  1.00  0.00     0.029 A 
ATOM     39  C   UNL A   1      40.647  32.856  32.524  1.00  0.00     0.049 A 
ATOM     40  H   UNL A   1      41.170  31.200  31.374  1.00  0.00     0.167 HD
ATOM     41  C   UNL A   1      41.779  27.423  29.202  1.00  0.00     0.037 A 
ATOM     42  C   UNL A   1      41.451  32.865  33.606  1.00  0.00     0.037 A 
ATOM     43  C   UNL A   1      42.699  27.361  30.307  1.00  0.00     0.049 A 
ATOM     44  C   UNL A   1      42.411  31.726  33.824  1.00  0.00     0.074 A 
ATOM     45  C   UNL A   1      43.647  26.394  30.594  1.00  0.00     0.029 A 
ATOM     46  N   UNL A   1      42.790  28.318  31.307  1.00  0.00    -0.354 N 
ATOM     47  N   UNL A   1      42.599  30.653  33.094  1.00  0.00    -0.248 NA
ATOM     48  C   UNL A   1      43.255  31.788  35.025  1.00  0.00     0.031 C 
ATOM     49  C   UNL A   1      44.284  26.748  31.788  1.00  0.00     0.029 A 
ATOM     50  C   UNL A   1      43.766  27.959  32.221  1.00  0.00     0.049 A 
ATOM     51  H   UNL A   1      42.240  29.134  31.360  1.00  0.00     0.167 HD
ATOM     52  C   UNL A   1      43.589  29.921  33.735  1.00  0.00     0.074 A 
ATOM     53  C   UNL A   1      43.969  30.676  34.911  1.00  0.00     0.031 C 
ATOM     54  C   UNL A   1      44.133  28.730  33.383  1.00  0.00     0.037 A 
BRANCH  41  55
ATOM     55  C   UNL A   1      41.751  26.285  28.223  1.00  0.00     0.064 A 
ATOM     56  C   UNL A   1      42.732  26.123  27.235  1.00  0.00     0.173 A 
ATOM     57  C   UNL A   1      40.709  25.346  28.272  1.00  0.00     0.173 A 
ATOM     58  F   UNL A   1      43.740  27.003  27.133  1.00  0.00    -0.203 F 
ATOM     59  C   UNL A   1      42.651  25.084  26.309  1.00  0.00     0.198 A 
ATOM     60  C   UNL A   1      40.647  24.293  27.365  1.00  0.00     0.198 A 
ATOM     61  F   UNL A   1      39.745  25.453  29.200  1.00  0.00    -0.203 F 
ATOM     62  F   UNL A   1      43.566  24.984  25.334  1.00  0.00    -0.200 F 
ATOM     63  C   UNL A   1      41.610  24.169  26.377  1.00  0.00     0.200 A 
ATOM     64  F   UNL A   1      39.645  23.405  27.438  1.00  0.00    -0.200 F 
ATOM     65  F   UNL A   1      41.530  23.176  25.481  1.00  0.00    -0.200 F 
ENDBRANCH  41  55
BRANCH  42  66
ATOM     66  C   UNL A   1      41.327  33.969  34.592  1.00  0.00     0.064 A 
ATOM     67  C   UNL A   1      41.751  35.267  34.281  1.00  0.00     0.173 A 
ATOM     68  C   UNL A   1      40.742  33.755  35.850  1.00  0.00     0.173 A 
ATOM     69  F   UNL A   1      42.342  35.513  33.103  1.00  0.00    -0.203 F 
ATOM     70  C   UNL A   1      41.588  36.312  35.189  1.00  0.00     0.198 A 
ATOM     71  C   UNL A   1      40.555  34.805  36.745  1.00  0.00     0.198 A 
ATOM     72  F   UNL A   1      40.323  32.528  36.196  1.00  0.00    -0.203 F 
ATOM     73  F   UNL A   1      42.021  37.541  34.876  1.00  0.00    -0.200 F 
ATOM     74  C   UNL A   1      40.980  36.083  36.415  1.00  0.00     0.200 A 
ATOM     75  F   UNL A   1      39.954  34.581  37.922  1.00  0.00    -0.200 F 
ATOM     76  F   UNL A   1      40.803  37.093  37.277  1.00  0.00    -0.200 F 
ENDBRANCH  42  66
BRANCH  54  77
ATOM     77  C   UNL A   1      45.223  28.183  34.256  1.00  0.00     0.064 A 
ATOM     78  C   UNL A   1      46.558  28.582  34.102  1.00  0.00     0.173 A 
ATOM     79  C   UNL A   1      44.914  27.297  35.300  1.00  0.00     0.173 A 
ATOM     80  F   UNL A   1      46.902  29.416  33.111  1.00  0.00    -0.203 F 
ATOM     81  C   UNL A   1      47.549  28.105  34.957  1.00  0.00     0.198 A 
ATOM     82  C   UNL A   1      45.903  26.840  36.166  1.00  0.00     0.198 A 
ATOM     83  F   UNL A   1      43.650  26.890  35.490  1.00  0.00    -0.203 F 
ATOM     84  F   UNL A   1      48.823  28.477  34.777  1.00  0.00    -0.200 F 
ATOM     85  C   UNL A   1      47.219  27.242  35.993  1.00  0.00     0.200 A 
ATOM     86  F   UNL A   1      45.582  26.014  37.172  1.00  0.00    -0.200 F 
ATOM     87  F   UNL A   1      48.172  26.793  36.821  1.00  0.00    -0.200 F 
ENDBRANCH  54  77
ENDBRANCH  28  29
ENDBRANCH  21  23
ENDBRANCH  20  21
ENDBRANCH  19  20
ENDBRANCH  18  19
ENDBRANCH   1  18
TORSDOF 16
ENDMDL
