MODEL 1
REMARK VINA RESULT:     -10.4      0.000      0.000
REMARK SMILES [NH3+]C[C@@H](Cc1ccc(Br)cc1)C(=O)OCCOCCOC(=O)c1ccc(-c2c3nc(c(-c4c(F)c(F)c(F)c(F)c4F)c4ccc([nH]4)c(-c4c(F)c(F)c(F)c(F)c4F)c4nc(c(-c5c(F)c(F)c(F)c(F)c5F)c5ccc2[nH]5)C=C4)C=C3)cc1
REMARK SMILES IDX 17 1 16 2 15 3 14 4 12 5 13 6 3 7 2 8 1 9 4 13 5 14 6 15
REMARK SMILES IDX 11 16 7 17 10 18 8 19 9 20 18 21 19 22 20 23 21 24 22 25
REMARK SMILES IDX 23 26 24 27 85 28 25 29 84 30 26 31 27 32 28 33 78 34 29 35
REMARK SMILES IDX 83 36 77 37 79 38 30 39 82 40 76 41 75 42 31 44 63 45 43 46
REMARK SMILES IDX 62 47 44 48 47 49 61 50 80 51 45 52 46 53 60 55 81 56 48 57
REMARK SMILES IDX 32 58 33 59 41 60 34 61 35 62 39 63 42 64 36 65 37 66 40 67
REMARK SMILES IDX 38 68 64 69 65 70 73 71 66 72 67 73 71 74 74 75 68 76 69 77
REMARK SMILES IDX 72 78 70 79 49 80 50 81 58 82 51 83 52 84 56 85 59 86 53 87
REMARK SMILES IDX 54 88 57 89 55 90
REMARK H PARENT 1 10 1 11 1 12 79 43 47 54
REMARK Flexibility Score: inf
ROOT
ATOM      1  O   UNL A   1      32.041  28.211  24.107  1.00  0.00    -0.374 OA
ENDROOT
BRANCH   1   2
ATOM      2  C   UNL A   1      30.647  28.095  24.406  1.00  0.00     0.202 C 
BRANCH   2   3
ATOM      3  C   UNL A   1      30.072  26.691  24.204  1.00  0.00     0.261 C 
BRANCH   3   4
ATOM      4  O   UNL A   1      30.625  26.113  23.003  1.00  0.00    -0.463 OA
BRANCH   4   5
ATOM      5  C   UNL A   1      31.186  24.885  23.102  1.00  0.00     0.315 C 
ATOM      6  O   UNL A   1      30.606  23.879  23.490  1.00  0.00    -0.252 OA
BRANCH   5   7
ATOM      7  C   UNL A   1      32.641  24.874  22.660  1.00  0.00     0.158 C 
BRANCH   7   8
ATOM      8  C   UNL A   1      32.877  25.667  21.369  1.00  0.00     0.274 C 
BRANCH   8   9
ATOM      9  N   UNL A   1      33.063  27.102  21.570  1.00  0.00    -0.357 N 
ATOM     10  H   UNL A   1      32.456  27.616  20.932  1.00  0.00     0.344 HD
ATOM     11  H   UNL A   1      34.036  27.348  21.387  1.00  0.00     0.344 HD
ATOM     12  H   UNL A   1      32.827  27.343  22.532  1.00  0.00     0.344 HD
ENDBRANCH   8   9
ENDBRANCH   7   8
BRANCH   7  13
ATOM     13  C   UNL A   1      33.602  25.115  23.833  1.00  0.00     0.056 C 
BRANCH  13  14
ATOM     14  C   UNL A   1      34.760  24.207  24.196  1.00  0.00    -0.047 A 
ATOM     15  C   UNL A   1      35.382  23.286  23.346  1.00  0.00     0.005 A 
ATOM     16  C   UNL A   1      35.260  24.327  25.507  1.00  0.00     0.005 A 
ATOM     17  C   UNL A   1      36.480  22.532  23.779  1.00  0.00     0.016 A 
ATOM     18  C   UNL A   1      36.352  23.574  25.946  1.00  0.00     0.016 A 
ATOM     19  C   UNL A   1      36.965  22.684  25.074  1.00  0.00     0.017 A 
ATOM     20  Br  UNL A   1      38.467  21.688  25.642  1.00  0.00    -0.051 Br
ENDBRANCH  13  14
ENDBRANCH   7  13
ENDBRANCH   5   7
ENDBRANCH   4   5
ENDBRANCH   3   4
ENDBRANCH   2   3
ENDBRANCH   1   2
BRANCH   1  21
ATOM     21  C   UNL A   1      32.724  29.320  24.685  1.00  0.00     0.202 C 
BRANCH  21  22
ATOM     22  C   UNL A   1      31.874  30.187  25.618  1.00  0.00     0.261 C 
BRANCH  22  23
ATOM     23  O   UNL A   1      32.432  30.250  26.942  1.00  0.00    -0.460 OA
BRANCH  23  24
ATOM     24  C   UNL A   1      33.106  31.393  27.209  1.00  0.00     0.338 C 
ATOM     25  O   UNL A   1      32.667  32.535  27.189  1.00  0.00    -0.246 OA
BRANCH  24  26
ATOM     26  C   UNL A   1      34.470  31.090  27.679  1.00  0.00     0.060 A 
ATOM     27  C   UNL A   1      34.769  29.751  27.954  1.00  0.00     0.016 A 
ATOM     28  C   UNL A   1      35.406  32.094  27.943  1.00  0.00     0.016 A 
ATOM     29  C   UNL A   1      35.979  29.414  28.554  1.00  0.00     0.010 A 
ATOM     30  C   UNL A   1      36.622  31.754  28.549  1.00  0.00     0.010 A 
ATOM     31  C   UNL A   1      36.894  30.419  28.896  1.00  0.00    -0.014 A 
BRANCH  31  32
ATOM     32  C   UNL A   1      38.059  30.075  29.746  1.00  0.00     0.031 A 
ATOM     33  C   UNL A   1      39.113  29.147  29.205  1.00  0.00     0.074 A 
ATOM     34  C   UNL A   1      38.206  30.623  30.965  1.00  0.00     0.049 A 
ATOM     35  N   UNL A   1      40.213  28.717  29.771  1.00  0.00    -0.248 NA
ATOM     36  C   UNL A   1      38.899  28.636  27.842  1.00  0.00     0.031 C 
ATOM     37  C   UNL A   1      37.278  31.567  31.582  1.00  0.00     0.029 A 
ATOM     38  N   UNL A   1      39.197  30.461  31.900  1.00  0.00    -0.354 N 
ATOM     39  C   UNL A   1      40.817  27.885  28.837  1.00  0.00     0.074 A 
ATOM     40  C   UNL A   1      39.950  27.846  27.679  1.00  0.00     0.031 C 
ATOM     41  C   UNL A   1      37.740  31.897  32.799  1.00  0.00     0.029 A 
ATOM     42  C   UNL A   1      38.980  31.168  33.056  1.00  0.00     0.049 A 
ATOM     43  H   UNL A   1      39.988  29.892  31.756  1.00  0.00     0.167 HD
ATOM     44  C   UNL A   1      41.995  27.222  28.934  1.00  0.00     0.037 A 
ATOM     45  C   UNL A   1      39.697  31.208  34.197  1.00  0.00     0.037 A 
ATOM     46  C   UNL A   1      42.862  27.268  30.081  1.00  0.00     0.049 A 
ATOM     47  C   UNL A   1      40.968  30.407  34.303  1.00  0.00     0.074 A 
ATOM     48  C   UNL A   1      44.090  26.654  30.260  1.00  0.00     0.029 A 
ATOM     49  N   UNL A   1      42.589  27.964  31.249  1.00  0.00    -0.354 N 
ATOM     50  N   UNL A   1      41.548  29.650  33.405  1.00  0.00    -0.248 NA
ATOM     51  C   UNL A   1      41.687  30.473  35.584  1.00  0.00     0.031 C 
ATOM     52  C   UNL A   1      44.537  26.938  31.554  1.00  0.00     0.029 A 
ATOM     53  C   UNL A   1      43.611  27.771  32.164  1.00  0.00     0.049 A 
ATOM     54  H   UNL A   1      41.787  28.513  31.405  1.00  0.00     0.167 HD
ATOM     55  C   UNL A   1      42.709  29.172  33.999  1.00  0.00     0.074 A 
ATOM     56  C   UNL A   1      42.758  29.734  35.332  1.00  0.00     0.031 C 
ATOM     57  C   UNL A   1      43.652  28.343  33.485  1.00  0.00     0.037 A 
BRANCH  44  58
ATOM     58  C   UNL A   1      42.406  26.365  27.773  1.00  0.00     0.064 A 
ATOM     59  C   UNL A   1      43.309  26.822  26.802  1.00  0.00     0.173 A 
ATOM     60  C   UNL A   1      41.921  25.054  27.654  1.00  0.00     0.173 A 
ATOM     61  F   UNL A   1      43.791  28.073  26.864  1.00  0.00    -0.203 F 
ATOM     62  C   UNL A   1      43.696  26.004  25.744  1.00  0.00     0.198 A 
ATOM     63  C   UNL A   1      42.331  24.231  26.608  1.00  0.00     0.198 A 
ATOM     64  F   UNL A   1      41.058  24.567  28.558  1.00  0.00    -0.203 F 
ATOM     65  F   UNL A   1      44.530  26.475  24.806  1.00  0.00    -0.200 F 
ATOM     66  C   UNL A   1      43.212  24.708  25.652  1.00  0.00     0.200 A 
ATOM     67  F   UNL A   1      41.871  22.975  26.527  1.00  0.00    -0.200 F 
ATOM     68  F   UNL A   1      43.593  23.919  24.636  1.00  0.00    -0.200 F 
ENDBRANCH  44  58
BRANCH  45  69
ATOM     69  C   UNL A   1      39.225  32.033  35.337  1.00  0.00     0.064 A 
ATOM     70  C   UNL A   1      39.570  33.387  35.443  1.00  0.00     0.173 A 
ATOM     71  C   UNL A   1      38.433  31.479  36.355  1.00  0.00     0.173 A 
ATOM     72  F   UNL A   1      40.349  33.954  34.509  1.00  0.00    -0.203 F 
ATOM     73  C   UNL A   1      39.156  34.152  36.531  1.00  0.00     0.198 A 
ATOM     74  C   UNL A   1      37.997  32.252  37.428  1.00  0.00     0.198 A 
ATOM     75  F   UNL A   1      38.083  30.186  36.304  1.00  0.00    -0.203 F 
ATOM     76  F   UNL A   1      39.540  35.432  36.632  1.00  0.00    -0.200 F 
ATOM     77  C   UNL A   1      38.366  33.586  37.519  1.00  0.00     0.200 A 
ATOM     78  F   UNL A   1      37.227  31.704  38.377  1.00  0.00    -0.200 F 
ATOM     79  F   UNL A   1      37.967  34.323  38.566  1.00  0.00    -0.200 F 
ENDBRANCH  45  69
BRANCH  57  80
ATOM     80  C   UNL A   1      44.834  28.020  34.351  1.00  0.00     0.064 A 
ATOM     81  C   UNL A   1      45.981  28.827  34.363  1.00  0.00     0.173 A 
ATOM     82  C   UNL A   1      44.801  26.912  35.212  1.00  0.00     0.173 A 
ATOM     83  F   UNL A   1      46.066  29.889  33.548  1.00  0.00    -0.203 F 
ATOM     84  C   UNL A   1      47.061  28.524  35.187  1.00  0.00     0.198 A 
ATOM     85  C   UNL A   1      45.871  26.628  36.056  1.00  0.00     0.198 A 
ATOM     86  F   UNL A   1      43.725  26.112  35.245  1.00  0.00    -0.203 F 
ATOM     87  F   UNL A   1      48.164  29.282  35.150  1.00  0.00    -0.200 F 
ATOM     88  C   UNL A   1      47.003  27.429  36.038  1.00  0.00     0.200 A 
ATOM     89  F   UNL A   1      45.807  25.577  36.886  1.00  0.00    -0.200 F 
ATOM     90  F   UNL A   1      48.041  27.143  36.835  1.00  0.00    -0.200 F 
ENDBRANCH  57  80
ENDBRANCH  31  32
ENDBRANCH  24  26
ENDBRANCH  23  24
ENDBRANCH  22  23
ENDBRANCH  21  22
ENDBRANCH   1  21
TORSDOF 18
ENDMDL
MODEL 2
REMARK VINA RESULT:     -10.4      2.296      8.164
REMARK SMILES [NH3+]C[C@@H](Cc1ccc(Br)cc1)C(=O)OCCOCCOC(=O)c1ccc(-c2c3nc(c(-c4c(F)c(F)c(F)c(F)c4F)c4ccc([nH]4)c(-c4c(F)c(F)c(F)c(F)c4F)c4nc(c(-c5c(F)c(F)c(F)c(F)c5F)c5ccc2[nH]5)C=C4)C=C3)cc1
REMARK SMILES IDX 17 1 16 2 15 3 14 4 12 5 13 6 3 7 2 8 1 9 4 13 5 14 6 15
REMARK SMILES IDX 11 16 7 17 10 18 8 19 9 20 18 21 19 22 20 23 21 24 22 25
REMARK SMILES IDX 23 26 24 27 85 28 25 29 84 30 26 31 27 32 28 33 78 34 29 35
REMARK SMILES IDX 83 36 77 37 79 38 30 39 82 40 76 41 75 42 31 44 63 45 43 46
REMARK SMILES IDX 62 47 44 48 47 49 61 50 80 51 45 52 46 53 60 55 81 56 48 57
REMARK SMILES IDX 32 58 33 59 41 60 34 61 35 62 39 63 42 64 36 65 37 66 40 67
REMARK SMILES IDX 38 68 64 69 65 70 73 71 66 72 67 73 71 74 74 75 68 76 69 77
REMARK SMILES IDX 72 78 70 79 49 80 50 81 58 82 51 83 52 84 56 85 59 86 53 87
REMARK SMILES IDX 54 88 57 89 55 90
REMARK H PARENT 1 10 1 11 1 12 79 43 47 54
REMARK Flexibility Score: inf
ROOT
ATOM      1  O   UNL A   1      31.512  28.845  26.453  1.00  0.00    -0.374 OA
ENDROOT
BRANCH   1   2
ATOM      2  C   UNL A   1      32.529  27.861  26.663  1.00  0.00     0.202 C 
BRANCH   2   3
ATOM      3  C   UNL A   1      33.273  27.440  25.393  1.00  0.00     0.261 C 
BRANCH   3   4
ATOM      4  O   UNL A   1      32.649  26.262  24.839  1.00  0.00    -0.463 OA
BRANCH   4   5
ATOM      5  C   UNL A   1      32.410  26.250  23.507  1.00  0.00     0.315 C 
ATOM      6  O   UNL A   1      33.251  26.466  22.643  1.00  0.00    -0.252 OA
BRANCH   5   7
ATOM      7  C   UNL A   1      30.963  25.920  23.179  1.00  0.00     0.158 C 
BRANCH   7   8
ATOM      8  C   UNL A   1      30.647  24.426  23.316  1.00  0.00     0.274 C 
BRANCH   8   9
ATOM      9  N   UNL A   1      31.664  23.542  22.751  1.00  0.00    -0.357 N 
ATOM     10  H   UNL A   1      32.504  23.578  23.329  1.00  0.00     0.344 HD
ATOM     11  H   UNL A   1      31.890  23.845  21.803  1.00  0.00     0.344 HD
ATOM     12  H   UNL A   1      31.308  22.587  22.726  1.00  0.00     0.344 HD
ENDBRANCH   8   9
ENDBRANCH   7   8
BRANCH   7  13
ATOM     13  C   UNL A   1      29.986  26.919  23.816  1.00  0.00     0.056 C 
BRANCH  13  14
ATOM     14  C   UNL A   1      29.407  28.126  23.106  1.00  0.00    -0.047 A 
ATOM     15  C   UNL A   1      28.069  28.532  23.126  1.00  0.00     0.005 A 
ATOM     16  C   UNL A   1      30.318  28.918  22.378  1.00  0.00     0.005 A 
ATOM     17  C   UNL A   1      27.658  29.698  22.468  1.00  0.00     0.016 A 
ATOM     18  C   UNL A   1      29.914  30.079  21.717  1.00  0.00     0.016 A 
ATOM     19  C   UNL A   1      28.582  30.471  21.772  1.00  0.00     0.017 A 
ATOM     20  Br  UNL A   1      28.029  32.060  20.915  1.00  0.00    -0.051 Br
ENDBRANCH  13  14
ENDBRANCH   7  13
ENDBRANCH   5   7
ENDBRANCH   4   5
ENDBRANCH   3   4
ENDBRANCH   2   3
ENDBRANCH   1   2
BRANCH   1  21
ATOM     21  C   UNL A   1      31.856  29.945  25.614  1.00  0.00     0.202 C 
BRANCH  21  22
ATOM     22  C   UNL A   1      31.779  31.318  26.287  1.00  0.00     0.261 C 
BRANCH  22  23
ATOM     23  O   UNL A   1      32.494  31.341  27.535  1.00  0.00    -0.460 OA
BRANCH  23  24
ATOM     24  C   UNL A   1      33.389  32.350  27.647  1.00  0.00     0.338 C 
ATOM     25  O   UNL A   1      33.166  33.551  27.576  1.00  0.00    -0.246 OA
BRANCH  24  26
ATOM     26  C   UNL A   1      34.717  31.824  28.012  1.00  0.00     0.060 A 
ATOM     27  C   UNL A   1      34.805  30.458  28.301  1.00  0.00     0.016 A 
ATOM     28  C   UNL A   1      35.829  32.656  28.166  1.00  0.00     0.016 A 
ATOM     29  C   UNL A   1      35.988  29.927  28.810  1.00  0.00     0.010 A 
ATOM     30  C   UNL A   1      37.017  32.122  28.681  1.00  0.00     0.010 A 
ATOM     31  C   UNL A   1      37.087  30.765  29.044  1.00  0.00    -0.014 A 
BRANCH  31  32
ATOM     32  C   UNL A   1      38.246  30.240  29.806  1.00  0.00     0.031 A 
ATOM     33  C   UNL A   1      38.442  30.672  31.234  1.00  0.00     0.074 A 
ATOM     34  C   UNL A   1      39.085  29.348  29.251  1.00  0.00     0.049 A 
ATOM     35  N   UNL A   1      39.379  30.334  32.084  1.00  0.00    -0.248 NA
ATOM     36  C   UNL A   1      37.446  31.608  31.778  1.00  0.00     0.031 C 
ATOM     37  C   UNL A   1      38.977  28.821  27.893  1.00  0.00     0.029 A 
ATOM     38  N   UNL A   1      40.195  28.728  29.768  1.00  0.00    -0.354 N 
ATOM     39  C   UNL A   1      39.089  31.019  33.257  1.00  0.00     0.074 A 
ATOM     40  C   UNL A   1      37.906  31.813  33.004  1.00  0.00     0.031 C 
ATOM     41  C   UNL A   1      39.986  27.960  27.680  1.00  0.00     0.029 A 
ATOM     42  C   UNL A   1      40.824  27.897  28.876  1.00  0.00     0.049 A 
ATOM     43  H   UNL A   1      40.510  28.869  30.690  1.00  0.00     0.167 HD
ATOM     44  C   UNL A   1      39.744  30.979  34.442  1.00  0.00     0.037 A 
ATOM     45  C   UNL A   1      41.956  27.179  29.008  1.00  0.00     0.037 A 
ATOM     46  C   UNL A   1      40.914  30.182  34.698  1.00  0.00     0.049 A 
ATOM     47  C   UNL A   1      42.703  27.206  30.315  1.00  0.00     0.074 A 
ATOM     48  C   UNL A   1      41.631  30.054  35.875  1.00  0.00     0.029 A 
ATOM     49  N   UNL A   1      41.546  29.383  33.757  1.00  0.00    -0.354 N 
ATOM     50  N   UNL A   1      42.404  27.829  31.428  1.00  0.00    -0.248 NA
ATOM     51  C   UNL A   1      43.946  26.423  30.384  1.00  0.00     0.031 C 
ATOM     52  C   UNL A   1      42.724  29.215  35.634  1.00  0.00     0.029 A 
ATOM     53  C   UNL A   1      42.660  28.780  34.319  1.00  0.00     0.049 A 
ATOM     54  H   UNL A   1      41.247  29.262  32.827  1.00  0.00     0.167 HD
ATOM     55  C   UNL A   1      43.402  27.494  32.335  1.00  0.00     0.074 A 
ATOM     56  C   UNL A   1      44.310  26.602  31.645  1.00  0.00     0.031 C 
ATOM     57  C   UNL A   1      43.551  27.888  33.624  1.00  0.00     0.037 A 
BRANCH  44  58
ATOM     58  C   UNL A   1      39.224  31.844  35.552  1.00  0.00     0.064 A 
ATOM     59  C   UNL A   1      38.351  31.345  36.529  1.00  0.00     0.173 A 
ATOM     60  C   UNL A   1      39.638  33.180  35.661  1.00  0.00     0.173 A 
ATOM     61  F   UNL A   1      37.916  30.078  36.461  1.00  0.00    -0.203 F 
ATOM     62  C   UNL A   1      37.896  32.157  37.565  1.00  0.00     0.198 A 
ATOM     63  C   UNL A   1      39.201  33.982  36.713  1.00  0.00     0.198 A 
ATOM     64  F   UNL A   1      40.475  33.706  34.755  1.00  0.00    -0.203 F 
ATOM     65  F   UNL A   1      37.032  31.669  38.466  1.00  0.00    -0.200 F 
ATOM     66  C   UNL A   1      38.327  33.471  37.660  1.00  0.00     0.200 A 
ATOM     67  F   UNL A   1      39.627  35.249  36.810  1.00  0.00    -0.200 F 
ATOM     68  F   UNL A   1      37.894  34.250  38.662  1.00  0.00    -0.200 F 
ENDBRANCH  44  58
BRANCH  45  69
ATOM     69  C   UNL A   1      42.459  26.375  27.865  1.00  0.00     0.064 A 
ATOM     70  C   UNL A   1      43.299  26.940  26.897  1.00  0.00     0.173 A 
ATOM     71  C   UNL A   1      42.095  25.028  27.710  1.00  0.00     0.173 A 
ATOM     72  F   UNL A   1      43.651  28.231  26.988  1.00  0.00    -0.203 F 
ATOM     73  C   UNL A   1      43.743  26.195  25.807  1.00  0.00     0.198 A 
ATOM     74  C   UNL A   1      42.562  24.277  26.634  1.00  0.00     0.198 A 
ATOM     75  F   UNL A   1      41.286  24.444  28.605  1.00  0.00    -0.203 F 
ATOM     76  F   UNL A   1      44.507  26.773  24.869  1.00  0.00    -0.200 F 
ATOM     77  C   UNL A   1      43.379  24.863  25.680  1.00  0.00     0.200 A 
ATOM     78  F   UNL A   1      42.214  22.988  26.519  1.00  0.00    -0.200 F 
ATOM     79  F   UNL A   1      43.808  24.146  24.631  1.00  0.00    -0.200 F 
ENDBRANCH  45  69
BRANCH  57  80
ATOM     80  C   UNL A   1      44.718  27.333  34.386  1.00  0.00     0.064 A 
ATOM     81  C   UNL A   1      45.946  28.008  34.448  1.00  0.00     0.173 A 
ATOM     82  C   UNL A   1      44.594  26.130  35.098  1.00  0.00     0.173 A 
ATOM     83  F   UNL A   1      46.120  29.155  33.772  1.00  0.00    -0.203 F 
ATOM     84  C   UNL A   1      47.013  27.488  35.175  1.00  0.00     0.198 A 
ATOM     85  C   UNL A   1      45.653  25.627  35.848  1.00  0.00     0.198 A 
ATOM     86  F   UNL A   1      43.438  25.448  35.078  1.00  0.00    -0.203 F 
ATOM     87  F   UNL A   1      48.190  28.127  35.185  1.00  0.00    -0.200 F 
ATOM     88  C   UNL A   1      46.864  26.303  35.880  1.00  0.00     0.200 A 
ATOM     89  F   UNL A   1      45.503  24.488  36.538  1.00  0.00    -0.200 F 
ATOM     90  F   UNL A   1      47.890  25.808  36.586  1.00  0.00    -0.200 F 
ENDBRANCH  57  80
ENDBRANCH  31  32
ENDBRANCH  24  26
ENDBRANCH  23  24
ENDBRANCH  22  23
ENDBRANCH  21  22
ENDBRANCH   1  21
TORSDOF 18
ENDMDL
MODEL 3
REMARK VINA RESULT:     -10.2      1.072      7.568
REMARK SMILES [NH3+]C[C@@H](Cc1ccc(Br)cc1)C(=O)OCCOCCOC(=O)c1ccc(-c2c3nc(c(-c4c(F)c(F)c(F)c(F)c4F)c4ccc([nH]4)c(-c4c(F)c(F)c(F)c(F)c4F)c4nc(c(-c5c(F)c(F)c(F)c(F)c5F)c5ccc2[nH]5)C=C4)C=C3)cc1
REMARK SMILES IDX 17 1 16 2 15 3 14 4 12 5 13 6 3 7 2 8 1 9 4 13 5 14 6 15
REMARK SMILES IDX 11 16 7 17 10 18 8 19 9 20 18 21 19 22 20 23 21 24 22 25
REMARK SMILES IDX 23 26 24 27 85 28 25 29 84 30 26 31 27 32 28 33 78 34 29 35
REMARK SMILES IDX 83 36 77 37 79 38 30 39 82 40 76 41 75 42 31 44 63 45 43 46
REMARK SMILES IDX 62 47 44 48 47 49 61 50 80 51 45 52 46 53 60 55 81 56 48 57
REMARK SMILES IDX 32 58 33 59 41 60 34 61 35 62 39 63 42 64 36 65 37 66 40 67
REMARK SMILES IDX 38 68 64 69 65 70 73 71 66 72 67 73 71 74 74 75 68 76 69 77
REMARK SMILES IDX 72 78 70 79 49 80 50 81 58 82 51 83 52 84 56 85 59 86 53 87
REMARK SMILES IDX 54 88 57 89 55 90
REMARK H PARENT 1 10 1 11 1 12 79 43 47 54
REMARK Flexibility Score: inf
ROOT
ATOM      1  O   UNL A   1      32.600  28.513  24.641  1.00  0.00    -0.374 OA
ENDROOT
BRANCH   1   2
ATOM      2  C   UNL A   1      33.605  27.789  23.926  1.00  0.00     0.202 C 
BRANCH   2   3
ATOM      3  C   UNL A   1      33.473  27.859  22.403  1.00  0.00     0.261 C 
BRANCH   3   4
ATOM      4  O   UNL A   1      34.031  26.664  21.817  1.00  0.00    -0.463 OA
BRANCH   4   5
ATOM      5  C   UNL A   1      33.169  25.685  21.453  1.00  0.00     0.315 C 
ATOM      6  O   UNL A   1      32.888  25.394  20.297  1.00  0.00    -0.252 OA
BRANCH   5   7
ATOM      7  C   UNL A   1      32.580  24.956  22.649  1.00  0.00     0.158 C 
BRANCH   7   8
ATOM      8  C   UNL A   1      31.048  24.916  22.629  1.00  0.00     0.274 C 
BRANCH   8   9
ATOM      9  N   UNL A   1      30.470  23.707  23.211  1.00  0.00    -0.357 N 
ATOM     10  H   UNL A   1      29.982  23.944  24.075  1.00  0.00     0.344 HD
ATOM     11  H   UNL A   1      31.214  23.038  23.414  1.00  0.00     0.344 HD
ATOM     12  H   UNL A   1      29.812  23.293  22.551  1.00  0.00     0.344 HD
ENDBRANCH   8   9
ENDBRANCH   7   8
BRANCH   7  13
ATOM     13  C   UNL A   1      33.325  23.647  22.951  1.00  0.00     0.056 C 
BRANCH  13  14
ATOM     14  C   UNL A   1      34.626  23.558  23.724  1.00  0.00    -0.047 A 
ATOM     15  C   UNL A   1      35.791  22.906  23.305  1.00  0.00     0.005 A 
ATOM     16  C   UNL A   1      34.658  24.217  24.969  1.00  0.00     0.005 A 
ATOM     17  C   UNL A   1      36.953  22.933  24.087  1.00  0.00     0.016 A 
ATOM     18  C   UNL A   1      35.812  24.243  25.754  1.00  0.00     0.016 A 
ATOM     19  C   UNL A   1      36.962  23.606  25.304  1.00  0.00     0.017 A 
ATOM     20  Br  UNL A   1      38.542  23.667  26.338  1.00  0.00    -0.051 Br
ENDBRANCH  13  14
ENDBRANCH   7  13
ENDBRANCH   5   7
ENDBRANCH   4   5
ENDBRANCH   3   4
ENDBRANCH   2   3
ENDBRANCH   1   2
BRANCH   1  21
ATOM     21  C   UNL A   1      32.971  29.801  25.128  1.00  0.00     0.202 C 
BRANCH  21  22
ATOM     22  C   UNL A   1      32.009  30.404  26.156  1.00  0.00     0.261 C 
BRANCH  22  23
ATOM     23  O   UNL A   1      32.631  30.549  27.445  1.00  0.00    -0.460 OA
BRANCH  23  24
ATOM     24  C   UNL A   1      33.441  31.627  27.555  1.00  0.00     0.338 C 
ATOM     25  O   UNL A   1      33.119  32.807  27.494  1.00  0.00    -0.246 OA
BRANCH  24  26
ATOM     26  C   UNL A   1      34.810  31.211  27.905  1.00  0.00     0.060 A 
ATOM     27  C   UNL A   1      35.014  29.854  28.182  1.00  0.00     0.016 A 
ATOM     28  C   UNL A   1      35.851  32.130  28.060  1.00  0.00     0.016 A 
ATOM     29  C   UNL A   1      36.241  29.419  28.677  1.00  0.00     0.010 A 
ATOM     30  C   UNL A   1      37.084  31.692  28.560  1.00  0.00     0.010 A 
ATOM     31  C   UNL A   1      37.268  30.343  28.911  1.00  0.00    -0.014 A 
BRANCH  31  32
ATOM     32  C   UNL A   1      38.473  29.908  29.659  1.00  0.00     0.031 A 
ATOM     33  C   UNL A   1      38.700  30.433  31.051  1.00  0.00     0.074 A 
ATOM     34  C   UNL A   1      39.328  29.018  29.127  1.00  0.00     0.049 A 
ATOM     35  N   UNL A   1      39.679  30.183  31.885  1.00  0.00    -0.248 NA
ATOM     36  C   UNL A   1      37.687  31.362  31.575  1.00  0.00     0.031 C 
ATOM     37  C   UNL A   1      39.194  28.406  27.807  1.00  0.00     0.029 A 
ATOM     38  N   UNL A   1      40.479  28.473  29.638  1.00  0.00    -0.354 N 
ATOM     39  C   UNL A   1      39.402  30.926  33.025  1.00  0.00     0.074 A 
ATOM     40  C   UNL A   1      38.180  31.657  32.769  1.00  0.00     0.031 C 
ATOM     41  C   UNL A   1      40.229  27.573  27.609  1.00  0.00     0.029 A 
ATOM     42  C   UNL A   1      41.109  27.614  28.775  1.00  0.00     0.049 A 
ATOM     43  H   UNL A   1      40.820  28.680  30.539  1.00  0.00     0.167 HD
ATOM     44  C   UNL A   1      40.099  30.983  34.186  1.00  0.00     0.037 A 
ATOM     45  C   UNL A   1      42.274  26.948  28.907  1.00  0.00     0.037 A 
ATOM     46  C   UNL A   1      41.308  30.248  34.445  1.00  0.00     0.049 A 
ATOM     47  C   UNL A   1      43.064  27.083  30.182  1.00  0.00     0.074 A 
ATOM     48  C   UNL A   1      42.069  30.218  35.600  1.00  0.00     0.029 A 
ATOM     49  N   UNL A   1      41.938  29.418  33.530  1.00  0.00    -0.354 N 
ATOM     50  N   UNL A   1      42.778  27.760  31.267  1.00  0.00    -0.248 NA
ATOM     51  C   UNL A   1      44.339  26.353  30.251  1.00  0.00     0.031 C 
ATOM     52  C   UNL A   1      43.186  29.408  35.369  1.00  0.00     0.029 A 
ATOM     53  C   UNL A   1      43.094  28.893  34.086  1.00  0.00     0.049 A 
ATOM     54  H   UNL A   1      41.613  29.229  32.620  1.00  0.00     0.167 HD
ATOM     55  C   UNL A   1      43.819  27.519  32.155  1.00  0.00     0.074 A 
ATOM     56  C   UNL A   1      44.739  26.622  31.486  1.00  0.00     0.031 C 
ATOM     57  C   UNL A   1      43.996  27.995  33.412  1.00  0.00     0.037 A 
BRANCH  44  58
ATOM     58  C   UNL A   1      39.582  31.893  35.261  1.00  0.00     0.064 A 
ATOM     59  C   UNL A   1      38.659  31.452  36.220  1.00  0.00     0.173 A 
ATOM     60  C   UNL A   1      40.051  33.212  35.357  1.00  0.00     0.173 A 
ATOM     61  F   UNL A   1      38.171  30.204  36.163  1.00  0.00    -0.203 F 
ATOM     62  C   UNL A   1      38.208  32.305  37.224  1.00  0.00     0.198 A 
ATOM     63  C   UNL A   1      39.617  34.053  36.378  1.00  0.00     0.198 A 
ATOM     64  F   UNL A   1      40.938  33.681  34.468  1.00  0.00    -0.203 F 
ATOM     65  F   UNL A   1      37.296  31.874  38.107  1.00  0.00    -0.200 F 
ATOM     66  C   UNL A   1      38.693  33.601  37.306  1.00  0.00     0.200 A 
ATOM     67  F   UNL A   1      40.094  35.303  36.463  1.00  0.00    -0.200 F 
ATOM     68  F   UNL A   1      38.263  34.418  38.279  1.00  0.00    -0.200 F 
ENDBRANCH  44  58
BRANCH  45  69
ATOM     69  C   UNL A   1      42.769  26.097  27.797  1.00  0.00     0.064 A 
ATOM     70  C   UNL A   1      43.664  26.599  26.843  1.00  0.00     0.173 A 
ATOM     71  C   UNL A   1      42.343  24.767  27.656  1.00  0.00     0.173 A 
ATOM     72  F   UNL A   1      44.078  27.873  26.919  1.00  0.00    -0.203 F 
ATOM     73  C   UNL A   1      44.103  25.810  25.782  1.00  0.00     0.198 A 
ATOM     74  C   UNL A   1      42.803  23.971  26.610  1.00  0.00     0.198 A 
ATOM     75  F   UNL A   1      41.480  24.243  28.538  1.00  0.00    -0.203 F 
ATOM     76  F   UNL A   1      44.922  26.330  24.857  1.00  0.00    -0.200 F 
ATOM     77  C   UNL A   1      43.676  24.496  25.669  1.00  0.00     0.200 A 
ATOM     78  F   UNL A   1      42.395  22.699  26.509  1.00  0.00    -0.200 F 
ATOM     79  F   UNL A   1      44.099  23.737  24.648  1.00  0.00    -0.200 F 
ENDBRANCH  45  69
BRANCH  57  80
ATOM     80  C   UNL A   1      45.211  27.531  34.162  1.00  0.00     0.064 A 
ATOM     81  C   UNL A   1      46.414  28.252  34.132  1.00  0.00     0.173 A 
ATOM     82  C   UNL A   1      45.157  26.374  34.955  1.00  0.00     0.173 A 
ATOM     83  F   UNL A   1      46.520  29.356  33.378  1.00  0.00    -0.203 F 
ATOM     84  C   UNL A   1      47.526  27.818  34.849  1.00  0.00     0.198 A 
ATOM     85  C   UNL A   1      46.261  25.959  35.693  1.00  0.00     0.198 A 
ATOM     86  F   UNL A   1      44.027  25.654  35.023  1.00  0.00    -0.203 F 
ATOM     87  F   UNL A   1      48.678  28.496  34.772  1.00  0.00    -0.200 F 
ATOM     88  C   UNL A   1      47.447  26.677  35.635  1.00  0.00     0.200 A 
ATOM     89  F   UNL A   1      46.179  24.863  36.461  1.00  0.00    -0.200 F 
ATOM     90  F   UNL A   1      48.515  26.265  36.330  1.00  0.00    -0.200 F 
ENDBRANCH  57  80
ENDBRANCH  31  32
ENDBRANCH  24  26
ENDBRANCH  23  24
ENDBRANCH  22  23
ENDBRANCH  21  22
ENDBRANCH   1  21
TORSDOF 18
ENDMDL
