MODEL 1
REMARK VINA RESULT:     -11.4      0.000      0.000
REMARK SMILES CC1(C)CC[N@H+](CCOc2ccc(C(=O)OCCOCCOC(=O)c3ccc(-c4c5nc(c(-c6c(F)c(F)c(F)c(F)c6F)c6ccc([nH]6)c(-c6c(F)c(F)c(F)c(F)c6F)c6nc(c(-c7c(F)c(F)c(F)c(F)c7F)c7ccc4[nH]7)C=C6)C=C5)cc3)cc2)C1
REMARK SMILES IDX 18 1 17 2 16 3 14 4 15 5 13 6 10 7 11 8 89 9 12 10 88 11
REMARK SMILES IDX 9 12 8 13 7 14 6 15 1 16 2 17 3 18 4 19 90 20 5 21 19 23
REMARK SMILES IDX 20 24 21 25 22 26 23 27 24 28 25 29 26 30 87 31 27 32 86 33
REMARK SMILES IDX 28 34 29 35 30 36 80 37 31 38 85 39 79 40 81 41 32 42 84 43
REMARK SMILES IDX 78 44 77 45 33 47 65 48 45 49 64 50 46 51 49 52 63 53 82 54
REMARK SMILES IDX 47 55 48 56 62 58 83 59 50 60 34 61 35 62 43 63 36 64 37 65
REMARK SMILES IDX 41 66 44 67 38 68 39 69 42 70 40 71 66 72 67 73 75 74 68 75
REMARK SMILES IDX 69 76 73 77 76 78 70 79 71 80 74 81 72 82 51 83 52 84 60 85
REMARK SMILES IDX 53 86 54 87 58 88 61 89 55 90 56 91 59 92 57 93
REMARK H PARENT 6 22 81 46 49 57
REMARK Flexibility Score: inf
ROOT
ATOM      1  C   UNL A   1      40.851  21.105  27.088  1.00  0.00     0.202 C 
ENDROOT
BRANCH   1   2
ATOM      2  C   UNL A   1      40.147  22.013  26.077  1.00  0.00     0.261 C 
BRANCH   2   3
ATOM      3  O   UNL A   1      38.766  22.218  26.396  1.00  0.00    -0.460 OA
BRANCH   3   4
ATOM      4  C   UNL A   1      38.322  23.496  26.257  1.00  0.00     0.338 C 
ATOM      5  O   UNL A   1      38.768  24.485  26.810  1.00  0.00    -0.246 OA
BRANCH   4   6
ATOM      6  C   UNL A   1      37.121  23.521  25.383  1.00  0.00     0.060 A 
ATOM      7  C   UNL A   1      34.633  22.967  24.335  1.00  0.00     0.119 A 
ATOM      8  C   UNL A   1      34.747  23.939  25.328  1.00  0.00     0.047 A 
ATOM      9  C   UNL A   1      35.761  22.489  23.671  1.00  0.00     0.047 A 
ATOM     10  C   UNL A   1      36.003  24.214  25.860  1.00  0.00     0.019 A 
ATOM     11  C   UNL A   1      37.019  22.740  24.220  1.00  0.00     0.019 A 
BRANCH   7  12
ATOM     12  O   UNL A   1      33.448  22.323  24.088  1.00  0.00    -0.488 OA
BRANCH  12  13
ATOM     13  C   UNL A   1      33.536  20.902  24.370  1.00  0.00     0.290 C 
BRANCH  13  14
ATOM     14  C   UNL A   1      32.480  20.066  23.597  1.00  0.00     0.304 C 
BRANCH  14  15
ATOM     15  N   UNL A   1      32.208  18.655  23.949  1.00  0.00    -0.332 N 
ATOM     16  C   UNL A   1      33.033  15.539  24.972  1.00  0.00     0.017 C 
ATOM     17  C   UNL A   1      33.727  16.852  24.581  1.00  0.00     0.019 C 
ATOM     18  C   UNL A   1      35.184  16.815  25.058  1.00  0.00     0.017 C 
ATOM     19  C   UNL A   1      33.652  17.018  23.071  1.00  0.00     0.073 C 
ATOM     20  C   UNL A   1      32.987  18.113  25.081  1.00  0.00     0.268 C 
ATOM     21  C   UNL A   1      32.329  17.717  22.840  1.00  0.00     0.263 C 
ATOM     22  H   UNL A   1      31.231  18.723  24.237  1.00  0.00     0.348 HD
ENDBRANCH  14  15
ENDBRANCH  13  14
ENDBRANCH  12  13
ENDBRANCH   7  12
ENDBRANCH   4   6
ENDBRANCH   3   4
ENDBRANCH   2   3
ENDBRANCH   1   2
BRANCH   1  23
ATOM     23  O   UNL A   1      42.274  21.042  27.083  1.00  0.00    -0.374 OA
BRANCH  23  24
ATOM     24  C   UNL A   1      42.957  20.868  25.845  1.00  0.00     0.202 C 
BRANCH  24  25
ATOM     25  C   UNL A   1      43.949  21.940  25.367  1.00  0.00     0.261 C 
BRANCH  25  26
ATOM     26  O   UNL A   1      43.357  23.120  24.809  1.00  0.00    -0.460 OA
BRANCH  26  27
ATOM     27  C   UNL A   1      44.054  24.252  25.080  1.00  0.00     0.338 C 
ATOM     28  O   UNL A   1      45.129  24.589  24.614  1.00  0.00    -0.246 OA
BRANCH  27  29
ATOM     29  C   UNL A   1      43.275  25.142  25.959  1.00  0.00     0.060 A 
ATOM     30  C   UNL A   1      43.675  26.481  26.040  1.00  0.00     0.016 A 
ATOM     31  C   UNL A   1      42.256  24.651  26.778  1.00  0.00     0.016 A 
ATOM     32  C   UNL A   1      43.095  27.325  26.984  1.00  0.00     0.010 A 
ATOM     33  C   UNL A   1      41.679  25.498  27.730  1.00  0.00     0.010 A 
ATOM     34  C   UNL A   1      42.123  26.827  27.863  1.00  0.00    -0.014 A 
BRANCH  34  35
ATOM     35  C   UNL A   1      41.684  27.656  29.011  1.00  0.00     0.031 A 
ATOM     36  C   UNL A   1      42.460  27.595  30.298  1.00  0.00     0.074 A 
ATOM     37  C   UNL A   1      40.631  28.484  28.896  1.00  0.00     0.049 A 
ATOM     38  N   UNL A   1      42.237  28.202  31.436  1.00  0.00    -0.248 NA
ATOM     39  C   UNL A   1      43.655  26.735  30.301  1.00  0.00     0.031 C 
ATOM     40  C   UNL A   1      39.833  28.671  27.687  1.00  0.00     0.029 A 
ATOM     41  N   UNL A   1      40.053  29.323  29.816  1.00  0.00    -0.354 N 
ATOM     42  C   UNL A   1      43.259  27.802  32.286  1.00  0.00     0.074 A 
ATOM     43  C   UNL A   1      44.085  26.872  31.547  1.00  0.00     0.031 C 
ATOM     44  C   UNL A   1      38.861  29.565  27.940  1.00  0.00     0.029 A 
ATOM     45  C   UNL A   1      38.950  29.986  29.336  1.00  0.00     0.049 A 
ATOM     46  H   UNL A   1      40.396  29.439  30.731  1.00  0.00     0.167 HD
ATOM     47  C   UNL A   1      43.495  28.186  33.563  1.00  0.00     0.037 A 
ATOM     48  C   UNL A   1      38.097  30.819  29.965  1.00  0.00     0.037 A 
ATOM     49  C   UNL A   1      42.670  29.107  34.299  1.00  0.00     0.049 A 
ATOM     50  C   UNL A   1      38.328  31.151  31.417  1.00  0.00     0.074 A 
ATOM     51  C   UNL A   1      42.820  29.552  35.601  1.00  0.00     0.029 A 
ATOM     52  N   UNL A   1      41.534  29.721  33.795  1.00  0.00    -0.354 N 
ATOM     53  N   UNL A   1      39.301  30.775  32.211  1.00  0.00    -0.248 NA
ATOM     54  C   UNL A   1      37.337  32.028  32.061  1.00  0.00     0.031 C 
ATOM     55  C   UNL A   1      41.750  30.402  35.898  1.00  0.00     0.029 A 
ATOM     56  C   UNL A   1      40.961  30.527  34.766  1.00  0.00     0.049 A 
ATOM     57  H   UNL A   1      41.185  29.603  32.882  1.00  0.00     0.167 HD
ATOM     58  C   UNL A   1      39.060  31.393  33.432  1.00  0.00     0.074 A 
ATOM     59  C   UNL A   1      37.854  32.179  33.270  1.00  0.00     0.031 C 
ATOM     60  C   UNL A   1      39.770  31.316  34.584  1.00  0.00     0.037 A 
BRANCH  47  61
ATOM     61  C   UNL A   1      44.691  27.597  34.254  1.00  0.00     0.064 A 
ATOM     62  C   UNL A   1      44.617  26.371  34.933  1.00  0.00     0.173 A 
ATOM     63  C   UNL A   1      45.936  28.243  34.199  1.00  0.00     0.173 A 
ATOM     64  F   UNL A   1      43.447  25.721  35.025  1.00  0.00    -0.203 F 
ATOM     65  C   UNL A   1      45.740  25.825  35.548  1.00  0.00     0.198 A 
ATOM     66  C   UNL A   1      47.062  27.679  34.792  1.00  0.00     0.198 A 
ATOM     67  F   UNL A   1      46.062  29.416  33.559  1.00  0.00    -0.203 F 
ATOM     68  F   UNL A   1      45.636  24.673  36.225  1.00  0.00    -0.200 F 
ATOM     69  C   UNL A   1      46.963  26.475  35.472  1.00  0.00     0.200 A 
ATOM     70  F   UNL A   1      48.245  28.303  34.706  1.00  0.00    -0.200 F 
ATOM     71  F   UNL A   1      48.044  25.942  36.056  1.00  0.00    -0.200 F 
ENDBRANCH  47  61
BRANCH  48  72
ATOM     72  C   UNL A   1      36.934  31.389  29.237  1.00  0.00     0.064 A 
ATOM     73  C   UNL A   1      36.892  32.747  28.892  1.00  0.00     0.173 A 
ATOM     74  C   UNL A   1      35.824  30.598  28.907  1.00  0.00     0.173 A 
ATOM     75  F   UNL A   1      37.917  33.550  29.211  1.00  0.00    -0.203 F 
ATOM     76  C   UNL A   1      35.774  33.298  28.270  1.00  0.00     0.198 A 
ATOM     77  C   UNL A   1      34.718  31.143  28.256  1.00  0.00     0.198 A 
ATOM     78  F   UNL A   1      35.811  29.293  29.217  1.00  0.00    -0.203 F 
ATOM     79  F   UNL A   1      35.736  34.611  28.003  1.00  0.00    -0.200 F 
ATOM     80  C   UNL A   1      34.690  32.494  27.948  1.00  0.00     0.200 A 
ATOM     81  F   UNL A   1      33.678  30.361  27.938  1.00  0.00    -0.200 F 
ATOM     82  F   UNL A   1      33.613  33.025  27.352  1.00  0.00    -0.200 F 
ENDBRANCH  48  72
BRANCH  60  83
ATOM     83  C   UNL A   1      39.291  32.137  35.747  1.00  0.00     0.064 A 
ATOM     84  C   UNL A   1      38.392  31.623  36.692  1.00  0.00     0.173 A 
ATOM     85  C   UNL A   1      39.767  33.444  35.935  1.00  0.00     0.173 A 
ATOM     86  F   UNL A   1      37.896  30.384  36.548  1.00  0.00    -0.203 F 
ATOM     87  C   UNL A   1      37.965  32.396  37.769  1.00  0.00     0.198 A 
ATOM     88  C   UNL A   1      39.362  34.202  37.030  1.00  0.00     0.198 A 
ATOM     89  F   UNL A   1      40.634  33.980  35.064  1.00  0.00    -0.203 F 
ATOM     90  F   UNL A   1      37.068  31.902  38.631  1.00  0.00    -0.200 F 
ATOM     91  C   UNL A   1      38.457  33.682  37.941  1.00  0.00     0.200 A 
ATOM     92  F   UNL A   1      39.849  35.440  37.202  1.00  0.00    -0.200 F 
ATOM     93  F   UNL A   1      38.049  34.422  38.981  1.00  0.00    -0.200 F 
ENDBRANCH  60  83
ENDBRANCH  34  35
ENDBRANCH  27  29
ENDBRANCH  26  27
ENDBRANCH  25  26
ENDBRANCH  24  25
ENDBRANCH  23  24
ENDBRANCH   1  23
TORSDOF 18
ENDMDL
MODEL 2
REMARK VINA RESULT:     -11.3      1.658      3.158
REMARK SMILES CC1(C)CC[N@H+](CCOc2ccc(C(=O)OCCOCCOC(=O)c3ccc(-c4c5nc(c(-c6c(F)c(F)c(F)c(F)c6F)c6ccc([nH]6)c(-c6c(F)c(F)c(F)c(F)c6F)c6nc(c(-c7c(F)c(F)c(F)c(F)c7F)c7ccc4[nH]7)C=C6)C=C5)cc3)cc2)C1
REMARK SMILES IDX 18 1 17 2 16 3 14 4 15 5 13 6 10 7 11 8 89 9 12 10 88 11
REMARK SMILES IDX 9 12 8 13 7 14 6 15 1 16 2 17 3 18 4 19 90 20 5 21 19 23
REMARK SMILES IDX 20 24 21 25 22 26 23 27 24 28 25 29 26 30 87 31 27 32 86 33
REMARK SMILES IDX 28 34 29 35 30 36 80 37 31 38 85 39 79 40 81 41 32 42 84 43
REMARK SMILES IDX 78 44 77 45 33 47 65 48 45 49 64 50 46 51 49 52 63 53 82 54
REMARK SMILES IDX 47 55 48 56 62 58 83 59 50 60 34 61 35 62 43 63 36 64 37 65
REMARK SMILES IDX 41 66 44 67 38 68 39 69 42 70 40 71 66 72 67 73 75 74 68 75
REMARK SMILES IDX 69 76 73 77 76 78 70 79 71 80 74 81 72 82 51 83 52 84 60 85
REMARK SMILES IDX 53 86 54 87 58 88 61 89 55 90 56 91 59 92 57 93
REMARK H PARENT 6 22 81 46 49 57
REMARK Flexibility Score: inf
ROOT
ATOM      1  C   UNL A   1      41.046  20.946  26.955  1.00  0.00     0.202 C 
ENDROOT
BRANCH   1   2
ATOM      2  C   UNL A   1      40.170  21.635  25.906  1.00  0.00     0.261 C 
BRANCH   2   3
ATOM      3  O   UNL A   1      38.780  21.601  26.248  1.00  0.00    -0.460 OA
BRANCH   3   4
ATOM      4  C   UNL A   1      37.985  20.915  25.384  1.00  0.00     0.338 C 
ATOM      5  O   UNL A   1      38.177  19.791  24.956  1.00  0.00    -0.246 OA
BRANCH   4   6
ATOM      6  C   UNL A   1      36.859  21.777  24.941  1.00  0.00     0.060 A 
ATOM      7  C   UNL A   1      34.857  22.886  23.404  1.00  0.00     0.119 A 
ATOM      8  C   UNL A   1      34.567  21.771  24.190  1.00  0.00     0.047 A 
ATOM      9  C   UNL A   1      36.032  23.610  23.600  1.00  0.00     0.047 A 
ATOM     10  C   UNL A   1      35.580  21.209  24.961  1.00  0.00     0.019 A 
ATOM     11  C   UNL A   1      37.059  23.034  24.348  1.00  0.00     0.019 A 
BRANCH   7  12
ATOM     12  O   UNL A   1      34.099  23.217  22.311  1.00  0.00    -0.488 OA
BRANCH  12  13
ATOM     13  C   UNL A   1      32.792  23.718  22.692  1.00  0.00     0.290 C 
BRANCH  13  14
ATOM     14  C   UNL A   1      32.626  25.238  22.421  1.00  0.00     0.304 C 
BRANCH  14  15
ATOM     15  N   UNL A   1      32.610  26.220  23.530  1.00  0.00    -0.332 N 
ATOM     16  C   UNL A   1      31.422  27.606  26.376  1.00  0.00     0.017 C 
ATOM     17  C   UNL A   1      31.026  26.521  25.362  1.00  0.00     0.019 C 
ATOM     18  C   UNL A   1      29.930  25.637  25.970  1.00  0.00     0.017 C 
ATOM     19  C   UNL A   1      30.542  27.193  24.087  1.00  0.00     0.073 C 
ATOM     20  C   UNL A   1      32.225  25.689  24.852  1.00  0.00     0.268 C 
ATOM     21  C   UNL A   1      31.803  27.407  23.277  1.00  0.00     0.263 C 
ATOM     22  H   UNL A   1      33.597  26.476  23.563  1.00  0.00     0.348 HD
ENDBRANCH  14  15
ENDBRANCH  13  14
ENDBRANCH  12  13
ENDBRANCH   7  12
ENDBRANCH   4   6
ENDBRANCH   3   4
ENDBRANCH   2   3
ENDBRANCH   1   2
BRANCH   1  23
ATOM     23  O   UNL A   1      42.449  21.196  26.951  1.00  0.00    -0.374 OA
BRANCH  23  24
ATOM     24  C   UNL A   1      43.214  20.843  25.803  1.00  0.00     0.202 C 
BRANCH  24  25
ATOM     25  C   UNL A   1      43.941  21.938  25.009  1.00  0.00     0.261 C 
BRANCH  25  26
ATOM     26  O   UNL A   1      43.177  23.123  24.754  1.00  0.00    -0.460 OA
BRANCH  26  27
ATOM     27  C   UNL A   1      43.864  24.269  24.991  1.00  0.00     0.338 C 
ATOM     28  O   UNL A   1      44.923  24.614  24.495  1.00  0.00    -0.246 OA
BRANCH  27  29
ATOM     29  C   UNL A   1      43.093  25.160  25.876  1.00  0.00     0.060 A 
ATOM     30  C   UNL A   1      43.530  26.485  25.997  1.00  0.00     0.016 A 
ATOM     31  C   UNL A   1      42.044  24.681  26.662  1.00  0.00     0.016 A 
ATOM     32  C   UNL A   1      42.955  27.323  26.949  1.00  0.00     0.010 A 
ATOM     33  C   UNL A   1      41.473  25.522  27.623  1.00  0.00     0.010 A 
ATOM     34  C   UNL A   1      41.952  26.834  27.796  1.00  0.00    -0.014 A 
BRANCH  34  35
ATOM     35  C   UNL A   1      41.513  27.648  28.955  1.00  0.00     0.031 A 
ATOM     36  C   UNL A   1      42.281  27.558  30.246  1.00  0.00     0.074 A 
ATOM     37  C   UNL A   1      40.469  28.489  28.847  1.00  0.00     0.049 A 
ATOM     38  N   UNL A   1      42.056  28.149  31.392  1.00  0.00    -0.248 NA
ATOM     39  C   UNL A   1      43.467  26.687  30.242  1.00  0.00     0.031 C 
ATOM     40  C   UNL A   1      39.681  28.703  27.636  1.00  0.00     0.029 A 
ATOM     41  N   UNL A   1      39.893  29.318  29.777  1.00  0.00    -0.354 N 
ATOM     42  C   UNL A   1      43.069  27.725  32.242  1.00  0.00     0.074 A 
ATOM     43  C   UNL A   1      43.890  26.799  31.492  1.00  0.00     0.031 C 
ATOM     44  C   UNL A   1      38.717  29.603  27.897  1.00  0.00     0.029 A 
ATOM     45  C   UNL A   1      38.800  30.000  29.301  1.00  0.00     0.049 A 
ATOM     46  H   UNL A   1      40.232  29.416  30.695  1.00  0.00     0.167 HD
ATOM     47  C   UNL A   1      43.301  28.086  33.527  1.00  0.00     0.037 A 
ATOM     48  C   UNL A   1      37.952  30.830  29.938  1.00  0.00     0.037 A 
ATOM     49  C   UNL A   1      42.479  29.003  34.272  1.00  0.00     0.049 A 
ATOM     50  C   UNL A   1      38.176  31.137  31.397  1.00  0.00     0.074 A 
ATOM     51  C   UNL A   1      42.625  29.426  35.582  1.00  0.00     0.029 A 
ATOM     52  N   UNL A   1      41.352  29.637  33.771  1.00  0.00    -0.354 N 
ATOM     53  N   UNL A   1      39.141  30.739  32.191  1.00  0.00    -0.248 NA
ATOM     54  C   UNL A   1      37.190  32.013  32.048  1.00  0.00     0.031 C 
ATOM     55  C   UNL A   1      41.561  30.281  35.887  1.00  0.00     0.029 A 
ATOM     56  C   UNL A   1      40.782  30.432  34.752  1.00  0.00     0.049 A 
ATOM     57  H   UNL A   1      41.008  29.537  32.854  1.00  0.00     0.167 HD
ATOM     58  C   UNL A   1      38.897  31.338  33.420  1.00  0.00     0.074 A 
ATOM     59  C   UNL A   1      37.700  32.139  33.264  1.00  0.00     0.031 C 
ATOM     60  C   UNL A   1      39.599  31.236  34.575  1.00  0.00     0.037 A 
BRANCH  47  61
ATOM     61  C   UNL A   1      44.486  27.474  34.216  1.00  0.00     0.064 A 
ATOM     62  C   UNL A   1      45.736  28.112  34.230  1.00  0.00     0.173 A 
ATOM     63  C   UNL A   1      44.360  26.260  34.908  1.00  0.00     0.173 A 
ATOM     64  F   UNL A   1      45.911  29.268  33.572  1.00  0.00    -0.203 F 
ATOM     65  C   UNL A   1      46.821  27.544  34.894  1.00  0.00     0.198 A 
ATOM     66  C   UNL A   1      45.440  25.711  35.593  1.00  0.00     0.198 A 
ATOM     67  F   UNL A   1      43.185  25.612  34.929  1.00  0.00    -0.203 F 
ATOM     68  F   UNL A   1      48.016  28.151  34.860  1.00  0.00    -0.200 F 
ATOM     69  C   UNL A   1      46.670  26.349  35.581  1.00  0.00     0.200 A 
ATOM     70  F   UNL A   1      45.289  24.562  36.267  1.00  0.00    -0.200 F 
ATOM     71  F   UNL A   1      47.713  25.810  36.227  1.00  0.00    -0.200 F 
ENDBRANCH  47  61
BRANCH  48  72
ATOM     72  C   UNL A   1      36.799  31.424  29.213  1.00  0.00     0.064 A 
ATOM     73  C   UNL A   1      36.769  32.790  28.897  1.00  0.00     0.173 A 
ATOM     74  C   UNL A   1      35.686  30.648  28.855  1.00  0.00     0.173 A 
ATOM     75  F   UNL A   1      37.796  33.579  29.241  1.00  0.00    -0.203 F 
ATOM     76  C   UNL A   1      35.660  33.361  28.276  1.00  0.00     0.198 A 
ATOM     77  C   UNL A   1      34.590  31.214  28.207  1.00  0.00     0.198 A 
ATOM     78  F   UNL A   1      35.663  29.337  29.137  1.00  0.00    -0.203 F 
ATOM     79  F   UNL A   1      35.633  34.679  28.037  1.00  0.00    -0.200 F 
ATOM     80  C   UNL A   1      34.574  32.572  27.927  1.00  0.00     0.200 A 
ATOM     81  F   UNL A   1      33.548  30.446  27.863  1.00  0.00    -0.200 F 
ATOM     82  F   UNL A   1      33.506  33.123  27.333  1.00  0.00    -0.200 F 
ENDBRANCH  48  72
BRANCH  60  83
ATOM     83  C   UNL A   1      39.121  32.042  35.748  1.00  0.00     0.064 A 
ATOM     84  C   UNL A   1      38.272  31.497  36.721  1.00  0.00     0.173 A 
ATOM     85  C   UNL A   1      39.548  33.369  35.917  1.00  0.00     0.173 A 
ATOM     86  F   UNL A   1      37.825  30.238  36.597  1.00  0.00    -0.203 F 
ATOM     87  C   UNL A   1      37.846  32.257  37.807  1.00  0.00     0.198 A 
ATOM     88  C   UNL A   1      39.144  34.116  37.020  1.00  0.00     0.198 A 
ATOM     89  F   UNL A   1      40.366  33.936  35.018  1.00  0.00    -0.203 F 
ATOM     90  F   UNL A   1      36.996  31.731  38.698  1.00  0.00    -0.200 F 
ATOM     91  C   UNL A   1      38.288  33.563  37.960  1.00  0.00     0.200 A 
ATOM     92  F   UNL A   1      39.583  35.373  37.173  1.00  0.00    -0.200 F 
ATOM     93  F   UNL A   1      37.881  34.291  39.008  1.00  0.00    -0.200 F 
ENDBRANCH  60  83
ENDBRANCH  34  35
ENDBRANCH  27  29
ENDBRANCH  26  27
ENDBRANCH  25  26
ENDBRANCH  24  25
ENDBRANCH  23  24
ENDBRANCH   1  23
TORSDOF 18
ENDMDL
MODEL 3
REMARK VINA RESULT:     -11.2      1.857      3.390
REMARK SMILES CC1(C)CC[N@H+](CCOc2ccc(C(=O)OCCOCCOC(=O)c3ccc(-c4c5nc(c(-c6c(F)c(F)c(F)c(F)c6F)c6ccc([nH]6)c(-c6c(F)c(F)c(F)c(F)c6F)c6nc(c(-c7c(F)c(F)c(F)c(F)c7F)c7ccc4[nH]7)C=C6)C=C5)cc3)cc2)C1
REMARK SMILES IDX 18 1 17 2 16 3 14 4 15 5 13 6 10 7 11 8 89 9 12 10 88 11
REMARK SMILES IDX 9 12 8 13 7 14 6 15 1 16 2 17 3 18 4 19 90 20 5 21 19 23
REMARK SMILES IDX 20 24 21 25 22 26 23 27 24 28 25 29 26 30 87 31 27 32 86 33
REMARK SMILES IDX 28 34 29 35 30 36 80 37 31 38 85 39 79 40 81 41 32 42 84 43
REMARK SMILES IDX 78 44 77 45 33 47 65 48 45 49 64 50 46 51 49 52 63 53 82 54
REMARK SMILES IDX 47 55 48 56 62 58 83 59 50 60 34 61 35 62 43 63 36 64 37 65
REMARK SMILES IDX 41 66 44 67 38 68 39 69 42 70 40 71 66 72 67 73 75 74 68 75
REMARK SMILES IDX 69 76 73 77 76 78 70 79 71 80 74 81 72 82 51 83 52 84 60 85
REMARK SMILES IDX 53 86 54 87 58 88 61 89 55 90 56 91 59 92 57 93
REMARK H PARENT 6 22 81 46 49 57
REMARK Flexibility Score: inf
ROOT
ATOM      1  C   UNL A   1      40.496  20.875  26.807  1.00  0.00     0.202 C 
ENDROOT
BRANCH   1   2
ATOM      2  C   UNL A   1      39.695  21.879  25.974  1.00  0.00     0.261 C 
BRANCH   2   3
ATOM      3  O   UNL A   1      38.293  21.834  26.266  1.00  0.00    -0.460 OA
BRANCH   3   4
ATOM      4  C   UNL A   1      37.504  21.377  25.258  1.00  0.00     0.338 C 
ATOM      5  O   UNL A   1      37.738  20.435  24.522  1.00  0.00    -0.246 OA
BRANCH   4   6
ATOM      6  C   UNL A   1      36.319  22.259  25.104  1.00  0.00     0.060 A 
ATOM      7  C   UNL A   1      33.745  23.236  25.243  1.00  0.00     0.119 A 
ATOM      8  C   UNL A   1      34.620  23.482  26.302  1.00  0.00     0.047 A 
ATOM      9  C   UNL A   1      34.221  22.770  24.019  1.00  0.00     0.047 A 
ATOM     10  C   UNL A   1      35.917  22.984  26.233  1.00  0.00     0.019 A 
ATOM     11  C   UNL A   1      35.511  22.244  23.956  1.00  0.00     0.019 A 
BRANCH   7  12
ATOM     12  O   UNL A   1      32.385  23.276  25.406  1.00  0.00    -0.488 OA
BRANCH  12  13
ATOM     13  C   UNL A   1      31.991  24.232  26.424  1.00  0.00     0.290 C 
BRANCH  13  14
ATOM     14  C   UNL A   1      30.999  25.303  25.894  1.00  0.00     0.304 C 
BRANCH  14  15
ATOM     15  N   UNL A   1      31.344  26.743  25.902  1.00  0.00    -0.332 N 
ATOM     16  C   UNL A   1      32.914  29.521  24.784  1.00  0.00     0.017 C 
ATOM     17  C   UNL A   1      32.918  28.006  24.530  1.00  0.00     0.019 C 
ATOM     18  C   UNL A   1      33.635  27.719  23.205  1.00  0.00     0.017 C 
ATOM     19  C   UNL A   1      33.616  27.315  25.690  1.00  0.00     0.073 C 
ATOM     20  C   UNL A   1      31.510  27.370  24.575  1.00  0.00     0.268 C 
ATOM     21  C   UNL A   1      32.515  27.082  26.702  1.00  0.00     0.263 C 
ATOM     22  H   UNL A   1      30.506  27.130  26.336  1.00  0.00     0.348 HD
ENDBRANCH  14  15
ENDBRANCH  13  14
ENDBRANCH  12  13
ENDBRANCH   7  12
ENDBRANCH   4   6
ENDBRANCH   3   4
ENDBRANCH   2   3
ENDBRANCH   1   2
BRANCH   1  23
ATOM     23  O   UNL A   1      41.897  21.079  26.968  1.00  0.00    -0.374 OA
BRANCH  23  24
ATOM     24  C   UNL A   1      42.785  20.632  25.949  1.00  0.00     0.202 C 
BRANCH  24  25
ATOM     25  C   UNL A   1      43.653  21.652  25.196  1.00  0.00     0.261 C 
BRANCH  25  26
ATOM     26  O   UNL A   1      42.977  22.844  24.778  1.00  0.00    -0.460 OA
BRANCH  26  27
ATOM     27  C   UNL A   1      43.711  23.971  24.959  1.00  0.00     0.338 C 
ATOM     28  O   UNL A   1      44.772  24.256  24.432  1.00  0.00    -0.246 OA
BRANCH  27  29
ATOM     29  C   UNL A   1      42.990  24.925  25.821  1.00  0.00     0.060 A 
ATOM     30  C   UNL A   1      43.522  26.214  25.944  1.00  0.00     0.016 A 
ATOM     31  C   UNL A   1      41.892  24.532  26.588  1.00  0.00     0.016 A 
ATOM     32  C   UNL A   1      42.992  27.100  26.878  1.00  0.00     0.010 A 
ATOM     33  C   UNL A   1      41.364  25.421  27.530  1.00  0.00     0.010 A 
ATOM     34  C   UNL A   1      41.937  26.694  27.706  1.00  0.00    -0.014 A 
BRANCH  34  35
ATOM     35  C   UNL A   1      41.536  27.548  28.850  1.00  0.00     0.031 A 
ATOM     36  C   UNL A   1      42.341  27.497  30.120  1.00  0.00     0.074 A 
ATOM     37  C   UNL A   1      40.491  28.389  28.745  1.00  0.00     0.049 A 
ATOM     38  N   UNL A   1      42.152  28.126  31.252  1.00  0.00    -0.248 NA
ATOM     39  C   UNL A   1      43.523  26.621  30.110  1.00  0.00     0.031 C 
ATOM     40  C   UNL A   1      39.668  28.568  27.551  1.00  0.00     0.029 A 
ATOM     41  N   UNL A   1      39.947  29.251  29.664  1.00  0.00    -0.354 N 
ATOM     42  C   UNL A   1      43.189  27.725  32.084  1.00  0.00     0.074 A 
ATOM     43  C   UNL A   1      43.984  26.772  31.342  1.00  0.00     0.031 C 
ATOM     44  C   UNL A   1      38.716  29.479  27.812  1.00  0.00     0.029 A 
ATOM     45  C   UNL A   1      38.843  29.922  29.199  1.00  0.00     0.049 A 
ATOM     46  H   UNL A   1      40.313  29.378  30.568  1.00  0.00     0.167 HD
ATOM     47  C   UNL A   1      43.460  28.127  33.350  1.00  0.00     0.037 A 
ATOM     48  C   UNL A   1      38.016  30.777  29.833  1.00  0.00     0.037 A 
ATOM     49  C   UNL A   1      42.664  29.072  34.088  1.00  0.00     0.049 A 
ATOM     50  C   UNL A   1      38.285  31.130  31.273  1.00  0.00     0.074 A 
ATOM     51  C   UNL A   1      42.850  29.537  35.378  1.00  0.00     0.029 A 
ATOM     52  N   UNL A   1      41.525  29.694  33.600  1.00  0.00    -0.354 N 
ATOM     53  N   UNL A   1      39.271  30.754  32.051  1.00  0.00    -0.248 NA
ATOM     54  C   UNL A   1      37.322  32.031  31.924  1.00  0.00     0.031 C 
ATOM     55  C   UNL A   1      41.799  30.407  35.686  1.00  0.00     0.029 A 
ATOM     56  C   UNL A   1      40.987  30.524  34.571  1.00  0.00     0.049 A 
ATOM     57  H   UNL A   1      41.154  29.566  32.697  1.00  0.00     0.167 HD
ATOM     58  C   UNL A   1      39.067  31.394  33.266  1.00  0.00     0.074 A 
ATOM     59  C   UNL A   1      37.869  32.195  33.119  1.00  0.00     0.031 C 
ATOM     60  C   UNL A   1      39.802  31.327  34.403  1.00  0.00     0.037 A 
BRANCH  47  61
ATOM     61  C   UNL A   1      44.663  27.533  34.023  1.00  0.00     0.064 A 
ATOM     62  C   UNL A   1      44.576  26.346  34.765  1.00  0.00     0.173 A 
ATOM     63  C   UNL A   1      45.925  28.132  33.886  1.00  0.00     0.173 A 
ATOM     64  F   UNL A   1      43.391  25.742  34.937  1.00  0.00    -0.203 F 
ATOM     65  C   UNL A   1      45.706  25.793  35.364  1.00  0.00     0.198 A 
ATOM     66  C   UNL A   1      47.055  27.561  34.463  1.00  0.00     0.198 A 
ATOM     67  F   UNL A   1      46.062  29.266  33.182  1.00  0.00    -0.203 F 
ATOM     68  F   UNL A   1      45.592  24.680  36.103  1.00  0.00    -0.200 F 
ATOM     69  C   UNL A   1      46.944  26.396  35.206  1.00  0.00     0.200 A 
ATOM     70  F   UNL A   1      48.253  28.138  34.299  1.00  0.00    -0.200 F 
ATOM     71  F   UNL A   1      48.031  25.856  35.775  1.00  0.00    -0.200 F 
ENDBRANCH  47  61
BRANCH  48  72
ATOM     72  C   UNL A   1      36.845  31.351  29.122  1.00  0.00     0.064 A 
ATOM     73  C   UNL A   1      36.810  32.706  28.762  1.00  0.00     0.173 A 
ATOM     74  C   UNL A   1      35.719  30.569  28.823  1.00  0.00     0.173 A 
ATOM     75  F   UNL A   1      37.850  33.501  29.051  1.00  0.00    -0.203 F 
ATOM     76  C   UNL A   1      35.685  33.262  28.156  1.00  0.00     0.198 A 
ATOM     77  C   UNL A   1      34.606  31.119  28.190  1.00  0.00     0.198 A 
ATOM     78  F   UNL A   1      35.699  29.268  29.149  1.00  0.00    -0.203 F 
ATOM     79  F   UNL A   1      35.656  34.572  27.876  1.00  0.00    -0.200 F 
ATOM     80  C   UNL A   1      34.586  32.467  27.866  1.00  0.00     0.200 A 
ATOM     81  F   UNL A   1      33.552  30.344  27.902  1.00  0.00    -0.200 F 
ATOM     82  F   UNL A   1      33.503  33.003  27.286  1.00  0.00    -0.200 F 
ENDBRANCH  48  72
BRANCH  60  83
ATOM     83  C   UNL A   1      39.362  32.173  35.562  1.00  0.00     0.064 A 
ATOM     84  C   UNL A   1      39.793  33.499  35.713  1.00  0.00     0.173 A 
ATOM     85  C   UNL A   1      38.468  31.660  36.515  1.00  0.00     0.173 A 
ATOM     86  F   UNL A   1      40.658  34.031  34.837  1.00  0.00    -0.203 F 
ATOM     87  C   UNL A   1      39.366  34.272  36.790  1.00  0.00     0.198 A 
ATOM     88  C   UNL A   1      38.020  32.446  37.573  1.00  0.00     0.198 A 
ATOM     89  F   UNL A   1      38.020  30.400  36.413  1.00  0.00    -0.203 F 
ATOM     90  F   UNL A   1      39.829  35.520  36.941  1.00  0.00    -0.200 F 
ATOM     91  C   UNL A   1      38.475  33.748  37.714  1.00  0.00     0.200 A 
ATOM     92  F   UNL A   1      37.148  31.942  38.458  1.00  0.00    -0.200 F 
ATOM     93  F   UNL A   1      38.062  34.495  38.747  1.00  0.00    -0.200 F 
ENDBRANCH  60  83
ENDBRANCH  34  35
ENDBRANCH  27  29
ENDBRANCH  26  27
ENDBRANCH  25  26
ENDBRANCH  24  25
ENDBRANCH  23  24
ENDBRANCH   1  23
TORSDOF 18
ENDMDL
