MODEL 1
REMARK VINA RESULT:      -9.5      0.000      0.000
REMARK SMILES C/C=C/c1cncc(-c2ccc([C@@H](C)C(=O)OCCOCCOC(=O)c3ccc(-c4c5nc(c(-c6c(F)c(F)c(F)c(F)c6F)c6ccc([nH]6)c(-c6c(F)c(F)c(F)c(F)c6F)c6nc(c(-c7c(F)c(F)c(F)c(F)c7F)c7ccc4[nH]7)C=C6)C=C5)cc3)cc2)c1
REMARK SMILES IDX 19 1 18 2 17 3 15 4 16 5 13 6 14 7 12 8 9 9 10 10 90 11
REMARK SMILES IDX 11 12 89 13 8 14 4 15 5 16 91 17 6 18 7 19 3 20 1 21 2 22
REMARK SMILES IDX 20 23 21 24 22 25 23 26 24 27 25 28 26 29 27 30 88 31 28 32
REMARK SMILES IDX 87 33 29 34 30 35 31 36 81 37 32 38 86 39 80 40 82 41 33 42
REMARK SMILES IDX 85 43 79 44 78 45 34 47 66 48 46 49 65 50 47 51 50 52 64 53
REMARK SMILES IDX 83 54 48 55 49 56 63 58 84 59 51 60 35 61 36 62 44 63 37 64
REMARK SMILES IDX 38 65 42 66 45 67 39 68 40 69 43 70 41 71 67 72 68 73 76 74
REMARK SMILES IDX 69 75 70 76 74 77 77 78 71 79 72 80 75 81 73 82 52 83 53 84
REMARK SMILES IDX 61 85 54 86 55 87 59 88 62 89 56 90 57 91 60 92 58 93
REMARK H PARENT 82 46 50 57
REMARK Flexibility Score: inf
ROOT
ATOM      1  C   UNL A   1      42.701  19.219  25.700  1.00  0.00     0.202 C 
ENDROOT
BRANCH   1   2
ATOM      2  C   UNL A   1      43.925  20.078  25.379  1.00  0.00     0.261 C 
BRANCH   2   3
ATOM      3  O   UNL A   1      43.529  21.380  24.909  1.00  0.00    -0.463 OA
BRANCH   3   4
ATOM      4  C   UNL A   1      43.997  22.438  25.620  1.00  0.00     0.313 C 
ATOM      5  O   UNL A   1      43.920  22.538  26.842  1.00  0.00    -0.252 OA
BRANCH   4   6
ATOM      6  C   UNL A   1      44.599  23.540  24.764  1.00  0.00     0.126 C 
ATOM      7  C   UNL A   1      45.916  23.044  24.170  1.00  0.00     0.025 C 
BRANCH   6   8
ATOM      8  C   UNL A   1      44.744  24.929  25.379  1.00  0.00    -0.034 A 
ATOM      9  C   UNL A   1      45.072  27.633  26.231  1.00  0.00    -0.017 A 
ATOM     10  C   UNL A   1      46.059  26.663  26.476  1.00  0.00     0.009 A 
ATOM     11  C   UNL A   1      43.890  27.209  25.609  1.00  0.00     0.009 A 
ATOM     12  C   UNL A   1      45.900  25.335  26.056  1.00  0.00     0.005 A 
ATOM     13  C   UNL A   1      43.728  25.881  25.189  1.00  0.00     0.005 A 
BRANCH   9  14
ATOM     14  C   UNL A   1      45.314  29.055  26.528  1.00  0.00     0.001 A 
ATOM     15  C   UNL A   1      44.735  31.183  27.568  1.00  0.00    -0.007 A 
ATOM     16  C   UNL A   1      45.839  31.732  26.919  1.00  0.00     0.119 A 
ATOM     17  C   UNL A   1      44.475  29.822  27.353  1.00  0.00     0.020 A 
ATOM     18  N   UNL A   1      46.678  31.040  26.120  1.00  0.00    -0.263 NA
ATOM     19  C   UNL A   1      46.392  29.728  25.945  1.00  0.00     0.119 A 
BRANCH  15  20
ATOM     20  C   UNL A   1      43.882  32.055  28.383  1.00  0.00     0.005 C 
ATOM     21  C   UNL A   1      42.788  34.222  28.972  1.00  0.00     0.035 C 
ATOM     22  C   UNL A   1      43.707  33.366  28.159  1.00  0.00    -0.030 C 
ENDBRANCH  15  20
ENDBRANCH   9  14
ENDBRANCH   6   8
ENDBRANCH   4   6
ENDBRANCH   3   4
ENDBRANCH   2   3
ENDBRANCH   1   2
BRANCH   1  23
ATOM     23  O   UNL A   1      42.313  19.182  27.073  1.00  0.00    -0.374 OA
BRANCH  23  24
ATOM     24  C   UNL A   1      41.406  20.189  27.523  1.00  0.00     0.202 C 
BRANCH  24  25
ATOM     25  C   UNL A   1      40.442  20.745  26.470  1.00  0.00     0.261 C 
BRANCH  25  26
ATOM     26  O   UNL A   1      40.590  22.165  26.296  1.00  0.00    -0.460 OA
BRANCH  26  27
ATOM     27  C   UNL A   1      39.434  22.843  26.129  1.00  0.00     0.338 C 
ATOM     28  O   UNL A   1      38.402  22.437  25.609  1.00  0.00    -0.246 OA
BRANCH  27  29
ATOM     29  C   UNL A   1      39.500  24.144  26.819  1.00  0.00     0.060 A 
ATOM     30  C   UNL A   1      40.228  25.166  26.195  1.00  0.00     0.016 A 
ATOM     31  C   UNL A   1      38.941  24.341  28.084  1.00  0.00     0.016 A 
ATOM     32  C   UNL A   1      40.450  26.370  26.858  1.00  0.00     0.010 A 
ATOM     33  C   UNL A   1      39.173  25.550  28.753  1.00  0.00     0.010 A 
ATOM     34  C   UNL A   1      39.961  26.553  28.159  1.00  0.00    -0.014 A 
BRANCH  34  35
ATOM     35  C   UNL A   1      40.414  27.727  28.943  1.00  0.00     0.031 A 
ATOM     36  C   UNL A   1      41.833  27.768  29.441  1.00  0.00     0.074 A 
ATOM     37  C   UNL A   1      39.590  28.765  29.170  1.00  0.00     0.049 A 
ATOM     38  N   UNL A   1      42.442  28.690  30.144  1.00  0.00    -0.248 NA
ATOM     39  C   UNL A   1      42.680  26.615  29.099  1.00  0.00     0.031 C 
ATOM     40  C   UNL A   1      38.209  28.864  28.704  1.00  0.00     0.029 A 
ATOM     41  N   UNL A   1      39.802  29.938  29.852  1.00  0.00    -0.354 N 
ATOM     42  C   UNL A   1      43.738  28.228  30.329  1.00  0.00     0.074 A 
ATOM     43  C   UNL A   1      43.822  26.932  29.690  1.00  0.00     0.031 C 
ATOM     44  C   UNL A   1      37.692  30.032  29.122  1.00  0.00     0.029 A 
ATOM     45  C   UNL A   1      38.697  30.749  29.906  1.00  0.00     0.049 A 
ATOM     46  H   UNL A   1      40.666  30.173  30.263  1.00  0.00     0.167 HD
ATOM     47  C   UNL A   1      44.769  28.836  30.963  1.00  0.00     0.037 A 
ATOM     48  C   UNL A   1      38.515  31.929  30.531  1.00  0.00     0.037 A 
ATOM     49  C   UNL A   1      44.689  30.124  31.596  1.00  0.00     0.049 A 
ATOM     50  C   UNL A   1      39.658  32.551  31.291  1.00  0.00     0.074 A 
ATOM     51  C   UNL A   1      45.685  30.831  32.247  1.00  0.00     0.029 A 
ATOM     52  N   UNL A   1      43.541  30.900  31.662  1.00  0.00    -0.354 N 
ATOM     53  N   UNL A   1      40.888  32.120  31.436  1.00  0.00    -0.248 NA
ATOM     54  C   UNL A   1      39.387  33.826  31.970  1.00  0.00     0.031 C 
ATOM     55  C   UNL A   1      45.128  32.013  32.748  1.00  0.00     0.029 A 
ATOM     56  C   UNL A   1      43.798  32.065  32.366  1.00  0.00     0.049 A 
ATOM     57  H   UNL A   1      42.673  30.657  31.267  1.00  0.00     0.167 HD
ATOM     58  C   UNL A   1      41.541  33.080  32.198  1.00  0.00     0.074 A 
ATOM     59  C   UNL A   1      40.577  34.123  32.475  1.00  0.00     0.031 C 
ATOM     60  C   UNL A   1      42.828  33.097  32.628  1.00  0.00     0.037 A 
BRANCH  47  61
ATOM     61  C   UNL A   1      46.073  28.097  31.024  1.00  0.00     0.064 A 
ATOM     62  C   UNL A   1      46.277  27.035  31.918  1.00  0.00     0.173 A 
ATOM     63  C   UNL A   1      47.120  28.432  30.152  1.00  0.00     0.173 A 
ATOM     64  F   UNL A   1      45.311  26.685  32.781  1.00  0.00    -0.203 F 
ATOM     65  C   UNL A   1      47.489  26.351  31.953  1.00  0.00     0.198 A 
ATOM     66  C   UNL A   1      48.322  27.729  30.172  1.00  0.00     0.198 A 
ATOM     67  F   UNL A   1      46.974  29.437  29.275  1.00  0.00    -0.203 F 
ATOM     68  F   UNL A   1      47.677  25.367  32.844  1.00  0.00    -0.200 F 
ATOM     69  C   UNL A   1      48.508  26.695  31.076  1.00  0.00     0.200 A 
ATOM     70  F   UNL A   1      49.302  28.056  29.317  1.00  0.00    -0.200 F 
ATOM     71  F   UNL A   1      49.672  26.032  31.106  1.00  0.00    -0.200 F 
ENDBRANCH  47  61
BRANCH  48  72
ATOM     72  C   UNL A   1      37.190  32.599  30.477  1.00  0.00     0.064 A 
ATOM     73  C   UNL A   1      36.851  33.448  29.415  1.00  0.00     0.173 A 
ATOM     74  C   UNL A   1      36.244  32.417  31.496  1.00  0.00     0.173 A 
ATOM     75  F   UNL A   1      37.734  33.674  28.431  1.00  0.00    -0.203 F 
ATOM     76  C   UNL A   1      35.623  34.105  29.383  1.00  0.00     0.198 A 
ATOM     77  C   UNL A   1      35.005  33.054  31.450  1.00  0.00     0.198 A 
ATOM     78  F   UNL A   1      36.522  31.617  32.536  1.00  0.00    -0.203 F 
ATOM     79  F   UNL A   1      35.341  34.946  28.379  1.00  0.00    -0.200 F 
ATOM     80  C   UNL A   1      34.698  33.901  30.398  1.00  0.00     0.200 A 
ATOM     81  F   UNL A   1      34.112  32.847  32.427  1.00  0.00    -0.200 F 
ATOM     82  F   UNL A   1      33.515  34.530  30.365  1.00  0.00    -0.200 F 
ENDBRANCH  48  72
BRANCH  60  83
ATOM     83  C   UNL A   1      43.277  34.293  33.416  1.00  0.00     0.064 A 
ATOM     84  C   UNL A   1      43.100  34.368  34.805  1.00  0.00     0.173 A 
ATOM     85  C   UNL A   1      43.933  35.357  32.778  1.00  0.00     0.173 A 
ATOM     86  F   UNL A   1      42.465  33.383  35.458  1.00  0.00    -0.203 F 
ATOM     87  C   UNL A   1      43.543  35.475  35.524  1.00  0.00     0.198 A 
ATOM     88  C   UNL A   1      44.399  36.450  33.504  1.00  0.00     0.198 A 
ATOM     89  F   UNL A   1      44.133  35.331  31.452  1.00  0.00    -0.203 F 
ATOM     90  F   UNL A   1      43.326  35.545  36.844  1.00  0.00    -0.200 F 
ATOM     91  C   UNL A   1      44.199  36.511  34.874  1.00  0.00     0.200 A 
ATOM     92  F   UNL A   1      45.042  37.444  32.877  1.00  0.00    -0.200 F 
ATOM     93  F   UNL A   1      44.631  37.571  35.569  1.00  0.00    -0.200 F 
ENDBRANCH  60  83
ENDBRANCH  34  35
ENDBRANCH  27  29
ENDBRANCH  26  27
ENDBRANCH  25  26
ENDBRANCH  24  25
ENDBRANCH  23  24
ENDBRANCH   1  23
TORSDOF 17
ENDMDL
MODEL 2
REMARK VINA RESULT:      -9.5      1.882      3.361
REMARK SMILES C/C=C/c1cncc(-c2ccc([C@@H](C)C(=O)OCCOCCOC(=O)c3ccc(-c4c5nc(c(-c6c(F)c(F)c(F)c(F)c6F)c6ccc([nH]6)c(-c6c(F)c(F)c(F)c(F)c6F)c6nc(c(-c7c(F)c(F)c(F)c(F)c7F)c7ccc4[nH]7)C=C6)C=C5)cc3)cc2)c1
REMARK SMILES IDX 19 1 18 2 17 3 15 4 16 5 13 6 14 7 12 8 9 9 10 10 90 11
REMARK SMILES IDX 11 12 89 13 8 14 4 15 5 16 91 17 6 18 7 19 3 20 1 21 2 22
REMARK SMILES IDX 20 23 21 24 22 25 23 26 24 27 25 28 26 29 27 30 88 31 28 32
REMARK SMILES IDX 87 33 29 34 30 35 31 36 81 37 32 38 86 39 80 40 82 41 33 42
REMARK SMILES IDX 85 43 79 44 78 45 34 47 66 48 46 49 65 50 47 51 50 52 64 53
REMARK SMILES IDX 83 54 48 55 49 56 63 58 84 59 51 60 35 61 36 62 44 63 37 64
REMARK SMILES IDX 38 65 42 66 45 67 39 68 40 69 43 70 41 71 67 72 68 73 76 74
REMARK SMILES IDX 69 75 70 76 74 77 77 78 71 79 72 80 75 81 73 82 52 83 53 84
REMARK SMILES IDX 61 85 54 86 55 87 59 88 62 89 56 90 57 91 60 92 58 93
REMARK H PARENT 82 46 50 57
REMARK Flexibility Score: inf
ROOT
ATOM      1  C   UNL A   1      42.706  18.774  25.749  1.00  0.00     0.202 C 
ENDROOT
BRANCH   1   2
ATOM      2  C   UNL A   1      44.020  19.409  25.292  1.00  0.00     0.261 C 
BRANCH   2   3
ATOM      3  O   UNL A   1      43.794  20.727  24.757  1.00  0.00    -0.463 OA
BRANCH   3   4
ATOM      4  C   UNL A   1      44.650  21.695  25.176  1.00  0.00     0.313 C 
ATOM      5  O   UNL A   1      45.874  21.606  25.122  1.00  0.00    -0.252 OA
BRANCH   4   6
ATOM      6  C   UNL A   1      43.962  22.911  25.775  1.00  0.00     0.126 C 
ATOM      7  C   UNL A   1      44.324  24.143  24.947  1.00  0.00     0.025 C 
BRANCH   6   8
ATOM      8  C   UNL A   1      44.127  23.166  27.270  1.00  0.00    -0.034 A 
ATOM      9  C   UNL A   1      44.271  23.913  30.020  1.00  0.00    -0.017 A 
ATOM     10  C   UNL A   1      45.389  24.013  29.175  1.00  0.00     0.009 A 
ATOM     11  C   UNL A   1      43.098  23.370  29.479  1.00  0.00     0.009 A 
ATOM     12  C   UNL A   1      45.320  23.648  27.823  1.00  0.00     0.005 A 
ATOM     13  C   UNL A   1      43.026  23.003  28.128  1.00  0.00     0.005 A 
BRANCH   9  14
ATOM     14  C   UNL A   1      44.305  24.449  31.392  1.00  0.00     0.001 A 
ATOM     15  C   UNL A   1      44.384  26.274  33.007  1.00  0.00    -0.007 A 
ATOM     16  C   UNL A   1      44.466  25.306  34.007  1.00  0.00     0.119 A 
ATOM     17  C   UNL A   1      44.312  25.823  31.681  1.00  0.00     0.020 A 
ATOM     18  N   UNL A   1      44.460  23.975  33.784  1.00  0.00    -0.263 NA
ATOM     19  C   UNL A   1      44.383  23.585  32.489  1.00  0.00     0.119 A 
BRANCH  15  20
ATOM     20  C   UNL A   1      44.437  27.691  33.383  1.00  0.00     0.005 C 
ATOM     21  C   UNL A   1      44.243  30.143  32.949  1.00  0.00     0.035 C 
ATOM     22  C   UNL A   1      44.237  28.707  32.529  1.00  0.00    -0.030 C 
ENDBRANCH  15  20
ENDBRANCH   9  14
ENDBRANCH   6   8
ENDBRANCH   4   6
ENDBRANCH   3   4
ENDBRANCH   2   3
ENDBRANCH   1   2
BRANCH   1  23
ATOM     23  O   UNL A   1      42.403  18.906  27.138  1.00  0.00    -0.374 OA
BRANCH  23  24
ATOM     24  C   UNL A   1      41.439  19.893  27.506  1.00  0.00     0.202 C 
BRANCH  24  25
ATOM     25  C   UNL A   1      40.553  20.421  26.374  1.00  0.00     0.261 C 
BRANCH  25  26
ATOM     26  O   UNL A   1      40.619  21.854  26.257  1.00  0.00    -0.460 OA
BRANCH  26  27
ATOM     27  C   UNL A   1      39.424  22.484  26.277  1.00  0.00     0.338 C 
ATOM     28  O   UNL A   1      38.323  21.997  26.054  1.00  0.00    -0.246 OA
BRANCH  27  29
ATOM     29  C   UNL A   1      39.581  23.862  26.776  1.00  0.00     0.060 A 
ATOM     30  C   UNL A   1      40.181  24.792  25.918  1.00  0.00     0.016 A 
ATOM     31  C   UNL A   1      39.233  24.221  28.081  1.00  0.00     0.016 A 
ATOM     32  C   UNL A   1      40.489  26.069  26.378  1.00  0.00     0.010 A 
ATOM     33  C   UNL A   1      39.552  25.503  28.545  1.00  0.00     0.010 A 
ATOM     34  C   UNL A   1      40.216  26.419  27.708  1.00  0.00    -0.014 A 
BRANCH  34  35
ATOM     35  C   UNL A   1      40.772  27.681  28.253  1.00  0.00     0.031 A 
ATOM     36  C   UNL A   1      42.265  27.856  28.309  1.00  0.00     0.074 A 
ATOM     37  C   UNL A   1      39.961  28.678  28.649  1.00  0.00     0.049 A 
ATOM     38  N   UNL A   1      42.968  28.871  28.746  1.00  0.00    -0.248 NA
ATOM     39  C   UNL A   1      43.075  26.737  27.803  1.00  0.00     0.031 C 
ATOM     40  C   UNL A   1      38.502  28.647  28.604  1.00  0.00     0.029 A 
ATOM     41  N   UNL A   1      40.258  29.914  29.167  1.00  0.00    -0.354 N 
ATOM     42  C   UNL A   1      44.298  28.512  28.569  1.00  0.00     0.074 A 
ATOM     43  C   UNL A   1      44.306  27.176  28.013  1.00  0.00     0.031 C 
ATOM     44  C   UNL A   1      38.027  29.809  29.085  1.00  0.00     0.029 A 
ATOM     45  C   UNL A   1      39.150  30.653  29.495  1.00  0.00     0.049 A 
ATOM     46  H   UNL A   1      41.180  30.239  29.292  1.00  0.00     0.167 HD
ATOM     47  C   UNL A   1      45.411  29.236  28.835  1.00  0.00     0.037 A 
ATOM     48  C   UNL A   1      39.053  31.866  30.074  1.00  0.00     0.037 A 
ATOM     49  C   UNL A   1      45.405  30.564  29.385  1.00  0.00     0.049 A 
ATOM     50  C   UNL A   1      40.308  32.622  30.426  1.00  0.00     0.074 A 
ATOM     51  C   UNL A   1      46.481  31.386  29.672  1.00  0.00     0.029 A 
ATOM     52  N   UNL A   1      44.261  31.266  29.739  1.00  0.00    -0.354 N 
ATOM     53  N   UNL A   1      41.560  32.287  30.230  1.00  0.00    -0.248 NA
ATOM     54  C   UNL A   1      40.134  33.928  31.078  1.00  0.00     0.031 C 
ATOM     55  C   UNL A   1      45.991  32.567  30.243  1.00  0.00     0.029 A 
ATOM     56  C   UNL A   1      44.608  32.500  30.266  1.00  0.00     0.049 A 
ATOM     57  H   UNL A   1      43.341  30.935  29.632  1.00  0.00     0.167 HD
ATOM     58  C   UNL A   1      42.319  33.347  30.707  1.00  0.00     0.074 A 
ATOM     59  C   UNL A   1      41.389  34.343  31.192  1.00  0.00     0.031 C 
ATOM     60  C   UNL A   1      43.669  33.484  30.739  1.00  0.00     0.037 A 
BRANCH  47  61
ATOM     61  C   UNL A   1      46.736  28.592  28.555  1.00  0.00     0.064 A 
ATOM     62  C   UNL A   1      47.394  27.812  29.517  1.00  0.00     0.173 A 
ATOM     63  C   UNL A   1      47.339  28.728  27.295  1.00  0.00     0.173 A 
ATOM     64  F   UNL A   1      46.866  27.663  30.742  1.00  0.00    -0.203 F 
ATOM     65  C   UNL A   1      48.618  27.211  29.237  1.00  0.00     0.198 A 
ATOM     66  C   UNL A   1      48.550  28.104  27.009  1.00  0.00     0.198 A 
ATOM     67  F   UNL A   1      46.748  29.460  26.339  1.00  0.00    -0.203 F 
ATOM     68  F   UNL A   1      49.250  26.504  30.185  1.00  0.00    -0.200 F 
ATOM     69  C   UNL A   1      49.191  27.352  27.981  1.00  0.00     0.200 A 
ATOM     70  F   UNL A   1      49.098  28.233  25.793  1.00  0.00    -0.200 F 
ATOM     71  F   UNL A   1      50.366  26.767  27.710  1.00  0.00    -0.200 F 
ENDBRANCH  47  61
BRANCH  48  72
ATOM     72  C   UNL A   1      37.716  32.441  30.371  1.00  0.00     0.064 A 
ATOM     73  C   UNL A   1      37.071  33.285  29.458  1.00  0.00     0.173 A 
ATOM     74  C   UNL A   1      37.064  32.171  31.584  1.00  0.00     0.173 A 
ATOM     75  F   UNL A   1      37.667  33.594  28.297  1.00  0.00    -0.203 F 
ATOM     76  C   UNL A   1      35.834  33.853  29.752  1.00  0.00     0.198 A 
ATOM     77  C   UNL A   1      35.815  32.718  31.866  1.00  0.00     0.198 A 
ATOM     78  F   UNL A   1      37.641  31.371  32.493  1.00  0.00    -0.203 F 
ATOM     79  F   UNL A   1      35.259  34.692  28.880  1.00  0.00    -0.200 F 
ATOM     80  C   UNL A   1      35.203  33.563  30.954  1.00  0.00     0.200 A 
ATOM     81  F   UNL A   1      35.205  32.428  33.024  1.00  0.00    -0.200 F 
ATOM     82  F   UNL A   1      34.011  34.107  31.235  1.00  0.00    -0.200 F 
ENDBRANCH  48  72
BRANCH  60  83
ATOM     83  C   UNL A   1      44.220  34.768  31.287  1.00  0.00     0.064 A 
ATOM     84  C   UNL A   1      44.312  35.924  30.499  1.00  0.00     0.173 A 
ATOM     85  C   UNL A   1      44.618  34.854  32.630  1.00  0.00     0.173 A 
ATOM     86  F   UNL A   1      43.958  35.889  29.205  1.00  0.00    -0.203 F 
ATOM     87  C   UNL A   1      44.805  37.113  31.029  1.00  0.00     0.198 A 
ATOM     88  C   UNL A   1      45.084  36.052  33.164  1.00  0.00     0.198 A 
ATOM     89  F   UNL A   1      44.543  33.778  33.428  1.00  0.00    -0.203 F 
ATOM     90  F   UNL A   1      44.925  38.194  30.247  1.00  0.00    -0.200 F 
ATOM     91  C   UNL A   1      45.183  37.178  32.362  1.00  0.00     0.200 A 
ATOM     92  F   UNL A   1      45.438  36.116  34.455  1.00  0.00    -0.200 F 
ATOM     93  F   UNL A   1      45.650  38.326  32.872  1.00  0.00    -0.200 F 
ENDBRANCH  60  83
ENDBRANCH  34  35
ENDBRANCH  27  29
ENDBRANCH  26  27
ENDBRANCH  25  26
ENDBRANCH  24  25
ENDBRANCH  23  24
ENDBRANCH   1  23
TORSDOF 17
ENDMDL
MODEL 3
REMARK VINA RESULT:      -9.2      4.615      7.797
REMARK SMILES C/C=C/c1cncc(-c2ccc([C@@H](C)C(=O)OCCOCCOC(=O)c3ccc(-c4c5nc(c(-c6c(F)c(F)c(F)c(F)c6F)c6ccc([nH]6)c(-c6c(F)c(F)c(F)c(F)c6F)c6nc(c(-c7c(F)c(F)c(F)c(F)c7F)c7ccc4[nH]7)C=C6)C=C5)cc3)cc2)c1
REMARK SMILES IDX 19 1 18 2 17 3 15 4 16 5 13 6 14 7 12 8 9 9 10 10 90 11
REMARK SMILES IDX 11 12 89 13 8 14 4 15 5 16 91 17 6 18 7 19 3 20 1 21 2 22
REMARK SMILES IDX 20 23 21 24 22 25 23 26 24 27 25 28 26 29 27 30 88 31 28 32
REMARK SMILES IDX 87 33 29 34 30 35 31 36 81 37 32 38 86 39 80 40 82 41 33 42
REMARK SMILES IDX 85 43 79 44 78 45 34 47 66 48 46 49 65 50 47 51 50 52 64 53
REMARK SMILES IDX 83 54 48 55 49 56 63 58 84 59 51 60 35 61 36 62 44 63 37 64
REMARK SMILES IDX 38 65 42 66 45 67 39 68 40 69 43 70 41 71 67 72 68 73 76 74
REMARK SMILES IDX 69 75 70 76 74 77 77 78 71 79 72 80 75 81 73 82 52 83 53 84
REMARK SMILES IDX 61 85 54 86 55 87 59 88 62 89 56 90 57 91 60 92 58 93
REMARK H PARENT 82 46 50 57
REMARK Flexibility Score: inf
ROOT
ATOM      1  C   UNL A   1      36.912  22.030  25.613  1.00  0.00     0.202 C 
ENDROOT
BRANCH   1   2
ATOM      2  C   UNL A   1      35.541  21.448  25.961  1.00  0.00     0.261 C 
BRANCH   2   3
ATOM      3  O   UNL A   1      34.677  21.447  24.809  1.00  0.00    -0.463 OA
BRANCH   3   4
ATOM      4  C   UNL A   1      33.954  20.314  24.609  1.00  0.00     0.313 C 
ATOM      5  O   UNL A   1      34.399  19.177  24.743  1.00  0.00    -0.252 OA
BRANCH   4   6
ATOM      6  C   UNL A   1      32.527  20.566  24.149  1.00  0.00     0.126 C 
ATOM      7  C   UNL A   1      32.218  19.650  22.966  1.00  0.00     0.025 C 
BRANCH   6   8
ATOM      8  C   UNL A   1      32.105  22.007  23.874  1.00  0.00    -0.034 A 
ATOM      9  C   UNL A   1      31.618  24.782  23.426  1.00  0.00    -0.017 A 
ATOM     10  C   UNL A   1      31.153  24.135  24.583  1.00  0.00     0.009 A 
ATOM     11  C   UNL A   1      32.274  24.000  22.467  1.00  0.00     0.009 A 
ATOM     12  C   UNL A   1      31.393  22.772  24.806  1.00  0.00     0.005 A 
ATOM     13  C   UNL A   1      32.515  22.636  22.687  1.00  0.00     0.005 A 
BRANCH   9  14
ATOM     14  C   UNL A   1      31.504  26.243  23.275  1.00  0.00     0.001 A 
ATOM     15  C   UNL A   1      30.233  28.322  23.173  1.00  0.00    -0.007 A 
ATOM     16  C   UNL A   1      31.431  28.969  22.875  1.00  0.00     0.119 A 
ATOM     17  C   UNL A   1      30.284  26.933  23.365  1.00  0.00     0.020 A 
ATOM     18  N   UNL A   1      32.629  28.354  22.780  1.00  0.00    -0.263 NA
ATOM     19  C   UNL A   1      32.632  27.015  22.978  1.00  0.00     0.119 A 
BRANCH  15  20
ATOM     20  C   UNL A   1      28.992  29.103  23.213  1.00  0.00     0.005 C 
ATOM     21  C   UNL A   1      27.663  31.217  23.263  1.00  0.00     0.035 C 
ATOM     22  C   UNL A   1      28.943  30.442  23.279  1.00  0.00    -0.030 C 
ENDBRANCH  15  20
ENDBRANCH   9  14
ENDBRANCH   6   8
ENDBRANCH   4   6
ENDBRANCH   3   4
ENDBRANCH   2   3
ENDBRANCH   1   2
BRANCH   1  23
ATOM     23  O   UNL A   1      37.699  21.260  24.703  1.00  0.00    -0.374 OA
BRANCH  23  24
ATOM     24  C   UNL A   1      37.820  19.861  24.965  1.00  0.00     0.202 C 
BRANCH  24  25
ATOM     25  C   UNL A   1      39.126  19.413  25.628  1.00  0.00     0.261 C 
BRANCH  25  26
ATOM     26  O   UNL A   1      40.060  20.498  25.772  1.00  0.00    -0.460 OA
BRANCH  26  27
ATOM     27  C   UNL A   1      40.772  20.488  26.920  1.00  0.00     0.338 C 
ATOM     28  O   UNL A   1      41.302  19.525  27.458  1.00  0.00    -0.246 OA
BRANCH  27  29
ATOM     29  C   UNL A   1      40.987  21.866  27.400  1.00  0.00     0.060 A 
ATOM     30  C   UNL A   1      40.321  22.894  26.721  1.00  0.00     0.016 A 
ATOM     31  C   UNL A   1      41.883  22.159  28.430  1.00  0.00     0.016 A 
ATOM     32  C   UNL A   1      40.591  24.224  27.030  1.00  0.00     0.010 A 
ATOM     33  C   UNL A   1      42.160  23.499  28.734  1.00  0.00     0.010 A 
ATOM     34  C   UNL A   1      41.545  24.536  28.008  1.00  0.00    -0.014 A 
BRANCH  34  35
ATOM     35  C   UNL A   1      42.005  25.938  28.150  1.00  0.00     0.031 A 
ATOM     36  C   UNL A   1      43.330  26.335  27.560  1.00  0.00     0.074 A 
ATOM     37  C   UNL A   1      41.233  26.860  28.753  1.00  0.00     0.049 A 
ATOM     38  N   UNL A   1      43.929  27.499  27.566  1.00  0.00    -0.248 NA
ATOM     39  C   UNL A   1      44.082  25.275  26.869  1.00  0.00     0.031 C 
ATOM     40  C   UNL A   1      39.913  26.611  29.326  1.00  0.00     0.029 A 
ATOM     41  N   UNL A   1      41.455  28.195  28.982  1.00  0.00    -0.354 N 
ATOM     42  C   UNL A   1      45.124  27.311  26.883  1.00  0.00     0.074 A 
ATOM     43  C   UNL A   1      45.181  25.917  26.503  1.00  0.00     0.031 C 
ATOM     44  C   UNL A   1      39.444  27.756  29.850  1.00  0.00     0.029 A 
ATOM     45  C   UNL A   1      40.442  28.811  29.672  1.00  0.00     0.049 A 
ATOM     46  H   UNL A   1      42.265  28.666  28.679  1.00  0.00     0.167 HD
ATOM     47  C   UNL A   1      46.081  28.224  26.590  1.00  0.00     0.037 A 
ATOM     48  C   UNL A   1      40.340  30.076  30.122  1.00  0.00     0.037 A 
ATOM     49  C   UNL A   1      46.026  29.610  26.965  1.00  0.00     0.049 A 
ATOM     50  C   UNL A   1      41.452  31.054  29.844  1.00  0.00     0.074 A 
ATOM     51  C   UNL A   1      46.938  30.616  26.697  1.00  0.00     0.029 A 
ATOM     52  N   UNL A   1      44.999  30.188  27.697  1.00  0.00    -0.354 N 
ATOM     53  N   UNL A   1      42.565  30.876  29.174  1.00  0.00    -0.248 NA
ATOM     54  C   UNL A   1      41.290  32.413  30.383  1.00  0.00     0.031 C 
ATOM     55  C   UNL A   1      46.487  31.792  27.307  1.00  0.00     0.029 A 
ATOM     56  C   UNL A   1      45.269  31.530  27.912  1.00  0.00     0.049 A 
ATOM     57  H   UNL A   1      44.197  29.715  28.016  1.00  0.00     0.167 HD
ATOM     58  C   UNL A   1      43.221  32.100  29.189  1.00  0.00     0.074 A 
ATOM     59  C   UNL A   1      42.377  33.018  29.923  1.00  0.00     0.031 C 
ATOM     60  C   UNL A   1      44.416  32.433  28.640  1.00  0.00     0.037 A 
BRANCH  47  61
ATOM     61  C   UNL A   1      47.289  27.740  25.843  1.00  0.00     0.064 A 
ATOM     62  C   UNL A   1      47.336  27.741  24.441  1.00  0.00     0.173 A 
ATOM     63  C   UNL A   1      48.426  27.303  26.538  1.00  0.00     0.173 A 
ATOM     64  F   UNL A   1      46.268  28.137  23.730  1.00  0.00    -0.203 F 
ATOM     65  C   UNL A   1      48.469  27.301  23.762  1.00  0.00     0.198 A 
ATOM     66  C   UNL A   1      49.567  26.888  25.856  1.00  0.00     0.198 A 
ATOM     67  F   UNL A   1      48.433  27.287  27.880  1.00  0.00    -0.203 F 
ATOM     68  F   UNL A   1      48.477  27.271  22.422  1.00  0.00    -0.200 F 
ATOM     69  C   UNL A   1      49.585  26.881  24.470  1.00  0.00     0.200 A 
ATOM     70  F   UNL A   1      50.649  26.492  26.542  1.00  0.00    -0.200 F 
ATOM     71  F   UNL A   1      50.677  26.464  23.816  1.00  0.00    -0.200 F 
ENDBRANCH  47  61
BRANCH  48  72
ATOM     72  C   UNL A   1      39.142  30.493  30.896  1.00  0.00     0.064 A 
ATOM     73  C   UNL A   1      38.018  31.032  30.256  1.00  0.00     0.173 A 
ATOM     74  C   UNL A   1      39.107  30.379  32.293  1.00  0.00     0.173 A 
ATOM     75  F   UNL A   1      38.016  31.186  28.924  1.00  0.00    -0.203 F 
ATOM     76  C   UNL A   1      36.909  31.456  30.985  1.00  0.00     0.198 A 
ATOM     77  C   UNL A   1      37.987  30.779  33.020  1.00  0.00     0.198 A 
ATOM     78  F   UNL A   1      40.159  29.874  32.953  1.00  0.00    -0.203 F 
ATOM     79  F   UNL A   1      35.865  32.008  30.353  1.00  0.00    -0.200 F 
ATOM     80  C   UNL A   1      36.892  31.323  32.367  1.00  0.00     0.200 A 
ATOM     81  F   UNL A   1      37.971  30.641  34.352  1.00  0.00    -0.200 F 
ATOM     82  F   UNL A   1      35.825  31.728  33.068  1.00  0.00    -0.200 F 
ENDBRANCH  48  72
BRANCH  60  83
ATOM     83  C   UNL A   1      44.868  33.857  28.784  1.00  0.00     0.064 A 
ATOM     84  C   UNL A   1      44.502  34.842  27.856  1.00  0.00     0.173 A 
ATOM     85  C   UNL A   1      45.639  34.249  29.889  1.00  0.00     0.173 A 
ATOM     86  F   UNL A   1      43.778  34.515  26.775  1.00  0.00    -0.203 F 
ATOM     87  C   UNL A   1      44.911  36.164  28.017  1.00  0.00     0.198 A 
ATOM     88  C   UNL A   1      46.023  35.576  30.062  1.00  0.00     0.198 A 
ATOM     89  F   UNL A   1      46.010  33.346  30.810  1.00  0.00    -0.203 F 
ATOM     90  F   UNL A   1      44.586  37.080  27.095  1.00  0.00    -0.200 F 
ATOM     91  C   UNL A   1      45.664  36.530  29.122  1.00  0.00     0.200 A 
ATOM     92  F   UNL A   1      46.740  35.931  31.136  1.00  0.00    -0.200 F 
ATOM     93  F   UNL A   1      46.050  37.804  29.278  1.00  0.00    -0.200 F 
ENDBRANCH  60  83
ENDBRANCH  34  35
ENDBRANCH  27  29
ENDBRANCH  26  27
ENDBRANCH  25  26
ENDBRANCH  24  25
ENDBRANCH  23  24
ENDBRANCH   1  23
TORSDOF 17
ENDMDL
