MODEL 1
REMARK VINA RESULT:     -11.7      0.000      0.000
REMARK SMILES O=C(OCCOCCOC(=O)[C@@H]1CS[C@@H](c2ncc(-c3cccc(Br)c3)s2)[NH2+]1)c1ccc(-c2c3nc(c(-c4c(F)c(F)c(F)c(F)c4F)c4ccc([nH]4)c(-c4c(F)c(F)c(F)c(F)c4F)c4nc(c(-c5c(F)c(F)c(F)c(F)c5F)c5ccc2[nH]5)C=C4)C=C3)cc1
REMARK SMILES IDX 6 1 5 2 4 3 3 4 2 5 1 6 29 7 30 8 91 9 31 10 90 11 32 12
REMARK SMILES IDX 33 13 34 14 84 15 35 16 89 17 83 18 85 19 36 20 88 21 82 22
REMARK SMILES IDX 81 23 37 25 69 26 49 27 68 28 50 29 53 30 67 31 86 32 51 33
REMARK SMILES IDX 52 34 66 36 87 37 54 38 38 39 39 40 47 41 40 42 41 43 45 44
REMARK SMILES IDX 48 45 42 46 43 47 46 48 44 49 70 50 71 51 79 52 72 53 73 54
REMARK SMILES IDX 77 55 80 56 74 57 75 58 78 59 76 60 55 61 56 62 64 63 57 64
REMARK SMILES IDX 58 65 62 66 65 67 59 68 60 69 63 70 61 71 7 72 8 73 9 74
REMARK SMILES IDX 10 75 11 76 12 77 13 78 28 79 14 80 15 81 16 84 17 85 27 86
REMARK SMILES IDX 18 87 19 88 20 89 21 90 26 91 22 92 24 93 23 94 25 95
REMARK H PARENT 85 24 53 35 28 82 28 83
REMARK Flexibility Score: inf
ROOT
ATOM      1  O   UNL A   1      34.044  31.222  27.961  1.00  0.00    -0.374 OA
ENDROOT
BRANCH   1   2
ATOM      2  C   UNL A   1      32.724  31.600  27.551  1.00  0.00     0.202 C 
BRANCH   2   3
ATOM      3  C   UNL A   1      32.581  32.975  26.882  1.00  0.00     0.261 C 
BRANCH   3   4
ATOM      4  O   UNL A   1      32.153  33.976  27.822  1.00  0.00    -0.460 OA
BRANCH   4   5
ATOM      5  C   UNL A   1      32.911  34.787  28.596  1.00  0.00     0.338 C 
ATOM      6  O   UNL A   1      32.564  35.956  28.751  1.00  0.00    -0.246 OA
BRANCH   5   7
ATOM      7  C   UNL A   1      34.146  34.327  29.298  1.00  0.00     0.060 A 
ATOM      8  C   UNL A   1      35.440  34.463  28.800  1.00  0.00     0.016 A 
ATOM      9  C   UNL A   1      33.991  33.761  30.576  1.00  0.00     0.016 A 
ATOM     10  C   UNL A   1      36.537  33.976  29.476  1.00  0.00     0.010 A 
ATOM     11  C   UNL A   1      35.098  33.298  31.292  1.00  0.00     0.010 A 
ATOM     12  C   UNL A   1      36.369  33.376  30.716  1.00  0.00    -0.014 A 
BRANCH  12  13
ATOM     13  C   UNL A   1      37.550  32.688  31.251  1.00  0.00     0.031 A 
ATOM     14  C   UNL A   1      37.949  32.997  32.659  1.00  0.00     0.074 A 
ATOM     15  C   UNL A   1      38.062  31.651  30.566  1.00  0.00     0.049 A 
ATOM     16  N   UNL A   1      38.899  32.476  33.384  1.00  0.00    -0.248 NA
ATOM     17  C   UNL A   1      37.144  34.015  33.360  1.00  0.00     0.031 C 
ATOM     18  C   UNL A   1      37.585  31.189  29.258  1.00  0.00     0.029 A 
ATOM     19  N   UNL A   1      39.043  30.761  30.899  1.00  0.00    -0.354 N 
ATOM     20  C   UNL A   1      38.830  33.126  34.608  1.00  0.00     0.074 A 
ATOM     21  C   UNL A   1      37.745  34.076  34.536  1.00  0.00     0.031 C 
ATOM     22  C   UNL A   1      38.255  30.077  28.917  1.00  0.00     0.029 A 
ATOM     23  C   UNL A   1      39.252  29.798  29.943  1.00  0.00     0.049 A 
ATOM     24  H   UNL A   1      39.552  30.807  31.740  1.00  0.00     0.167 HD
ATOM     25  C   UNL A   1      39.623  32.944  35.687  1.00  0.00     0.037 A 
ATOM     26  C   UNL A   1      40.175  28.821  29.906  1.00  0.00     0.037 A 
ATOM     27  C   UNL A   1      40.689  31.979  35.715  1.00  0.00     0.049 A 
ATOM     28  C   UNL A   1      41.114  28.712  31.077  1.00  0.00     0.074 A 
ATOM     29  C   UNL A   1      41.619  31.741  36.707  1.00  0.00     0.029 A 
ATOM     30  N   UNL A   1      40.958  31.087  34.683  1.00  0.00    -0.354 N 
ATOM     31  N   UNL A   1      41.116  29.391  32.202  1.00  0.00    -0.248 NA
ATOM     32  C   UNL A   1      42.186  27.718  30.972  1.00  0.00     0.031 C 
ATOM     33  C   UNL A   1      42.485  30.740  36.251  1.00  0.00     0.029 A 
ATOM     34  C   UNL A   1      42.054  30.308  35.005  1.00  0.00     0.049 A 
ATOM     35  H   UNL A   1      40.444  31.020  33.846  1.00  0.00     0.167 HD
ATOM     36  C   UNL A   1      42.168  28.887  32.952  1.00  0.00     0.074 A 
ATOM     37  C   UNL A   1      42.770  27.834  32.156  1.00  0.00     0.031 C 
ATOM     38  C   UNL A   1      42.604  29.257  34.183  1.00  0.00     0.037 A 
BRANCH  25  39
ATOM     39  C   UNL A   1      39.421  33.872  36.848  1.00  0.00     0.064 A 
ATOM     40  C   UNL A   1      39.997  35.150  36.900  1.00  0.00     0.173 A 
ATOM     41  C   UNL A   1      38.680  33.443  37.960  1.00  0.00     0.173 A 
ATOM     42  F   UNL A   1      40.746  35.595  35.879  1.00  0.00    -0.203 F 
ATOM     43  C   UNL A   1      39.869  35.949  38.035  1.00  0.00     0.198 A 
ATOM     44  C   UNL A   1      38.528  34.255  39.080  1.00  0.00     0.198 A 
ATOM     45  F   UNL A   1      38.119  32.225  37.969  1.00  0.00    -0.203 F 
ATOM     46  F   UNL A   1      40.488  37.136  38.090  1.00  0.00    -0.200 F 
ATOM     47  C   UNL A   1      39.133  35.502  39.121  1.00  0.00     0.200 A 
ATOM     48  F   UNL A   1      37.814  33.821  40.128  1.00  0.00    -0.200 F 
ATOM     49  F   UNL A   1      39.019  36.266  40.217  1.00  0.00    -0.200 F 
ENDBRANCH  25  39
BRANCH  26  50
ATOM     50  C   UNL A   1      40.283  27.924  28.725  1.00  0.00     0.064 A 
ATOM     51  C   UNL A   1      39.649  26.674  28.693  1.00  0.00     0.173 A 
ATOM     52  C   UNL A   1      41.045  28.290  27.604  1.00  0.00     0.173 A 
ATOM     53  F   UNL A   1      38.923  26.265  29.744  1.00  0.00    -0.203 F 
ATOM     54  C   UNL A   1      39.792  25.820  27.600  1.00  0.00     0.198 A 
ATOM     55  C   UNL A   1      41.161  27.450  26.498  1.00  0.00     0.198 A 
ATOM     56  F   UNL A   1      41.678  29.473  27.577  1.00  0.00    -0.203 F 
ATOM     57  F   UNL A   1      39.219  24.609  27.620  1.00  0.00    -0.200 F 
ATOM     58  C   UNL A   1      40.543  26.210  26.502  1.00  0.00     0.200 A 
ATOM     59  F   UNL A   1      41.876  27.840  25.434  1.00  0.00    -0.200 F 
ATOM     60  F   UNL A   1      40.681  25.388  25.452  1.00  0.00    -0.200 F 
ENDBRANCH  26  50
BRANCH  38  61
ATOM     61  C   UNL A   1      43.744  28.472  34.756  1.00  0.00     0.064 A 
ATOM     62  C   UNL A   1      45.077  28.874  34.589  1.00  0.00     0.173 A 
ATOM     63  C   UNL A   1      43.489  27.321  35.516  1.00  0.00     0.173 A 
ATOM     64  F   UNL A   1      45.369  29.959  33.858  1.00  0.00    -0.203 F 
ATOM     65  C   UNL A   1      46.117  28.129  35.136  1.00  0.00     0.198 A 
ATOM     66  C   UNL A   1      44.530  26.601  36.093  1.00  0.00     0.198 A 
ATOM     67  F   UNL A   1      42.229  26.904  35.712  1.00  0.00    -0.203 F 
ATOM     68  F   UNL A   1      47.387  28.497  34.917  1.00  0.00    -0.200 F 
ATOM     69  C   UNL A   1      45.843  27.000  35.894  1.00  0.00     0.200 A 
ATOM     70  F   UNL A   1      44.261  25.521  36.839  1.00  0.00    -0.200 F 
ATOM     71  F   UNL A   1      46.846  26.290  36.426  1.00  0.00    -0.200 F 
ENDBRANCH  38  61
ENDBRANCH  12  13
ENDBRANCH   5   7
ENDBRANCH   4   5
ENDBRANCH   3   4
ENDBRANCH   2   3
ENDBRANCH   1   2
BRANCH   1  72
ATOM     72  C   UNL A   1      34.586  30.072  27.296  1.00  0.00     0.202 C 
BRANCH  72  73
ATOM     73  C   UNL A   1      33.478  29.088  26.936  1.00  0.00     0.261 C 
BRANCH  73  74
ATOM     74  O   UNL A   1      33.973  28.247  25.885  1.00  0.00    -0.459 OA
BRANCH  74  75
ATOM     75  C   UNL A   1      33.216  28.221  24.760  1.00  0.00     0.365 C 
ATOM     76  O   UNL A   1      32.272  28.977  24.534  1.00  0.00    -0.245 OA
BRANCH  75  77
ATOM     77  C   UNL A   1      33.653  27.142  23.768  1.00  0.00     0.304 C 
ATOM     78  C   UNL A   1      32.658  27.007  22.633  1.00  0.00     0.153 C 
ATOM     79  N   UNL A   1      33.925  25.806  24.359  1.00  0.00    -0.317 N 
ATOM     80  S   UNL A   1      31.667  25.536  23.017  1.00  0.00    -0.085 SA
ATOM     81  C   UNL A   1      32.651  25.077  24.473  1.00  0.00     0.303 C 
ATOM     82  H   UNL A   1      34.341  25.917  25.283  1.00  0.00     0.348 HD
ATOM     83  H   UNL A   1      34.571  25.287  23.765  1.00  0.00     0.348 HD
BRANCH  81  84
ATOM     84  C   UNL A   1      32.895  23.589  24.700  1.00  0.00     0.162 A 
ATOM     85  N   UNL A   1      33.262  23.086  25.866  1.00  0.00    -0.242 NA
ATOM     86  S   UNL A   1      32.818  22.433  23.423  1.00  0.00    -0.112 S 
ATOM     87  C   UNL A   1      33.432  21.717  25.768  1.00  0.00     0.132 A 
ATOM     88  C   UNL A   1      33.202  21.171  24.521  1.00  0.00     0.055 A 
BRANCH  88  89
ATOM     89  C   UNL A   1      33.202  19.777  24.082  1.00  0.00    -0.006 A 
ATOM     90  C   UNL A   1      32.423  19.390  22.981  1.00  0.00     0.010 A 
ATOM     91  C   UNL A   1      34.001  18.815  24.717  1.00  0.00     0.025 A 
ATOM     92  C   UNL A   1      32.468  18.078  22.502  1.00  0.00     0.002 A 
ATOM     93  C   UNL A   1      34.040  17.506  24.234  1.00  0.00     0.018 A 
ATOM     94  C   UNL A   1      33.282  17.135  23.126  1.00  0.00     0.016 A 
ATOM     95  Br  UNL A   1      35.146  16.230  25.085  1.00  0.00    -0.051 Br
ENDBRANCH  88  89
ENDBRANCH  81  84
ENDBRANCH  75  77
ENDBRANCH  74  75
ENDBRANCH  73  74
ENDBRANCH  72  73
ENDBRANCH   1  72
TORSDOF 16
ENDMDL
MODEL 2
REMARK VINA RESULT:     -11.4      1.738      2.787
REMARK SMILES O=C(OCCOCCOC(=O)[C@@H]1CS[C@@H](c2ncc(-c3cccc(Br)c3)s2)[NH2+]1)c1ccc(-c2c3nc(c(-c4c(F)c(F)c(F)c(F)c4F)c4ccc([nH]4)c(-c4c(F)c(F)c(F)c(F)c4F)c4nc(c(-c5c(F)c(F)c(F)c(F)c5F)c5ccc2[nH]5)C=C4)C=C3)cc1
REMARK SMILES IDX 6 1 5 2 4 3 3 4 2 5 1 6 29 7 30 8 91 9 31 10 90 11 32 12
REMARK SMILES IDX 33 13 34 14 84 15 35 16 89 17 83 18 85 19 36 20 88 21 82 22
REMARK SMILES IDX 81 23 37 25 69 26 49 27 68 28 50 29 53 30 67 31 86 32 51 33
REMARK SMILES IDX 52 34 66 36 87 37 54 38 38 39 39 40 47 41 40 42 41 43 45 44
REMARK SMILES IDX 48 45 42 46 43 47 46 48 44 49 70 50 71 51 79 52 72 53 73 54
REMARK SMILES IDX 77 55 80 56 74 57 75 58 78 59 76 60 55 61 56 62 64 63 57 64
REMARK SMILES IDX 58 65 62 66 65 67 59 68 60 69 63 70 61 71 7 72 8 73 9 74
REMARK SMILES IDX 10 75 11 76 12 77 13 78 28 79 14 80 15 81 16 84 17 85 27 86
REMARK SMILES IDX 18 87 19 88 20 89 21 90 26 91 22 92 24 93 23 94 25 95
REMARK H PARENT 85 24 53 35 28 82 28 83
REMARK Flexibility Score: inf
ROOT
ATOM      1  O   UNL A   1      31.398  29.918  26.202  1.00  0.00    -0.374 OA
ENDROOT
BRANCH   1   2
ATOM      2  C   UNL A   1      32.356  30.728  26.896  1.00  0.00     0.202 C 
BRANCH   2   3
ATOM      3  C   UNL A   1      32.176  32.249  26.786  1.00  0.00     0.261 C 
BRANCH   3   4
ATOM      4  O   UNL A   1      32.735  32.929  27.924  1.00  0.00    -0.460 OA
BRANCH   4   5
ATOM      5  C   UNL A   1      33.946  33.520  28.044  1.00  0.00     0.338 C 
ATOM      6  O   UNL A   1      34.048  34.721  27.800  1.00  0.00    -0.246 OA
BRANCH   5   7
ATOM      7  C   UNL A   1      35.172  32.791  28.483  1.00  0.00     0.060 A 
ATOM      8  C   UNL A   1      35.191  31.481  28.955  1.00  0.00     0.016 A 
ATOM      9  C   UNL A   1      36.402  33.462  28.361  1.00  0.00     0.016 A 
ATOM     10  C   UNL A   1      36.351  30.878  29.389  1.00  0.00     0.010 A 
ATOM     11  C   UNL A   1      37.594  32.850  28.760  1.00  0.00     0.010 A 
ATOM     12  C   UNL A   1      37.554  31.565  29.309  1.00  0.00    -0.014 A 
BRANCH  12  13
ATOM     13  C   UNL A   1      38.687  30.940  30.000  1.00  0.00     0.031 A 
ATOM     14  C   UNL A   1      38.837  31.211  31.463  1.00  0.00     0.074 A 
ATOM     15  C   UNL A   1      39.379  29.975  29.370  1.00  0.00     0.049 A 
ATOM     16  N   UNL A   1      39.701  30.726  32.312  1.00  0.00    -0.248 NA
ATOM     17  C   UNL A   1      37.856  32.135  32.063  1.00  0.00     0.031 C 
ATOM     18  C   UNL A   1      39.149  29.541  27.988  1.00  0.00     0.029 A 
ATOM     19  N   UNL A   1      40.363  29.143  29.823  1.00  0.00    -0.354 N 
ATOM     20  C   UNL A   1      39.393  31.312  33.531  1.00  0.00     0.074 A 
ATOM     21  C   UNL A   1      38.260  32.184  33.321  1.00  0.00     0.031 C 
ATOM     22  C   UNL A   1      39.949  28.497  27.719  1.00  0.00     0.029 A 
ATOM     23  C   UNL A   1      40.793  28.242  28.880  1.00  0.00     0.049 A 
ATOM     24  H   UNL A   1      40.730  29.186  30.735  1.00  0.00     0.167 HD
ATOM     25  C   UNL A   1      40.020  31.138  34.715  1.00  0.00     0.037 A 
ATOM     26  C   UNL A   1      41.783  27.337  28.956  1.00  0.00     0.037 A 
ATOM     27  C   UNL A   1      41.141  30.252  34.879  1.00  0.00     0.049 A 
ATOM     28  C   UNL A   1      42.535  27.242  30.257  1.00  0.00     0.074 A 
ATOM     29  C   UNL A   1      41.921  30.036  35.997  1.00  0.00     0.029 A 
ATOM     30  N   UNL A   1      41.635  29.430  33.871  1.00  0.00    -0.354 N 
ATOM     31  N   UNL A   1      42.309  27.866  31.391  1.00  0.00    -0.248 NA
ATOM     32  C   UNL A   1      43.684  26.333  30.288  1.00  0.00     0.031 C 
ATOM     33  C   UNL A   1      42.923  29.122  35.649  1.00  0.00     0.029 A 
ATOM     34  C   UNL A   1      42.726  28.718  34.336  1.00  0.00     0.049 A 
ATOM     35  H   UNL A   1      41.264  29.365  32.962  1.00  0.00     0.167 HD
ATOM     36  C   UNL A   1      43.268  27.405  32.280  1.00  0.00     0.074 A 
ATOM     37  C   UNL A   1      44.067  26.436  31.553  1.00  0.00     0.031 C 
ATOM     38  C   UNL A   1      43.477  27.748  33.576  1.00  0.00     0.037 A 
BRANCH  25  39
ATOM     39  C   UNL A   1      39.568  31.994  35.860  1.00  0.00     0.064 A 
ATOM     40  C   UNL A   1      38.507  31.628  36.702  1.00  0.00     0.173 A 
ATOM     41  C   UNL A   1      40.176  33.240  36.078  1.00  0.00     0.173 A 
ATOM     42  F   UNL A   1      37.866  30.465  36.514  1.00  0.00    -0.203 F 
ATOM     43  C   UNL A   1      38.050  32.492  37.696  1.00  0.00     0.198 A 
ATOM     44  C   UNL A   1      39.738  34.088  37.092  1.00  0.00     0.198 A 
ATOM     45  F   UNL A   1      41.186  33.646  35.294  1.00  0.00    -0.203 F 
ATOM     46  F   UNL A   1      36.990  32.152  38.442  1.00  0.00    -0.200 F 
ATOM     47  C   UNL A   1      38.668  33.718  37.892  1.00  0.00     0.200 A 
ATOM     48  F   UNL A   1      40.338  35.272  37.279  1.00  0.00    -0.200 F 
ATOM     49  F   UNL A   1      38.221  34.552  38.841  1.00  0.00    -0.200 F 
ENDBRANCH  25  39
BRANCH  26  50
ATOM     50  C   UNL A   1      42.143  26.506  27.776  1.00  0.00     0.064 A 
ATOM     51  C   UNL A   1      41.532  25.267  27.539  1.00  0.00     0.173 A 
ATOM     52  C   UNL A   1      43.129  26.925  26.867  1.00  0.00     0.173 A 
ATOM     53  F   UNL A   1      40.598  24.808  28.385  1.00  0.00    -0.203 F 
ATOM     54  C   UNL A   1      41.907  24.473  26.456  1.00  0.00     0.198 A 
ATOM     55  C   UNL A   1      43.480  26.147  25.767  1.00  0.00     0.198 A 
ATOM     56  F   UNL A   1      43.751  28.101  27.044  1.00  0.00    -0.203 F 
ATOM     57  F   UNL A   1      41.345  23.270  26.284  1.00  0.00    -0.200 F 
ATOM     58  C   UNL A   1      42.877  24.915  25.568  1.00  0.00     0.200 A 
ATOM     59  F   UNL A   1      44.405  26.587  24.905  1.00  0.00    -0.200 F 
ATOM     60  F   UNL A   1      43.237  24.151  24.527  1.00  0.00    -0.200 F 
ENDBRANCH  26  50
BRANCH  38  61
ATOM     61  C   UNL A   1      44.573  27.021  34.295  1.00  0.00     0.064 A 
ATOM     62  C   UNL A   1      44.352  25.791  34.931  1.00  0.00     0.173 A 
ATOM     63  C   UNL A   1      45.870  27.553  34.313  1.00  0.00     0.173 A 
ATOM     64  F   UNL A   1      43.124  25.252  34.952  1.00  0.00    -0.203 F 
ATOM     65  C   UNL A   1      45.388  25.136  35.588  1.00  0.00     0.198 A 
ATOM     66  C   UNL A   1      46.911  26.875  34.939  1.00  0.00     0.198 A 
ATOM     67  F   UNL A   1      46.131  28.723  33.710  1.00  0.00    -0.203 F 
ATOM     68  F   UNL A   1      45.145  23.989  36.238  1.00  0.00    -0.200 F 
ATOM     69  C   UNL A   1      46.667  25.673  35.584  1.00  0.00     0.200 A 
ATOM     70  F   UNL A   1      48.148  27.389  34.918  1.00  0.00    -0.200 F 
ATOM     71  F   UNL A   1      47.664  25.034  36.210  1.00  0.00    -0.200 F 
ENDBRANCH  38  61
ENDBRANCH  12  13
ENDBRANCH   5   7
ENDBRANCH   4   5
ENDBRANCH   3   4
ENDBRANCH   2   3
ENDBRANCH   1   2
BRANCH   1  72
ATOM     72  C   UNL A   1      30.886  30.483  24.987  1.00  0.00     0.202 C 
BRANCH  72  73
ATOM     73  C   UNL A   1      30.579  29.387  23.972  1.00  0.00     0.261 C 
BRANCH  73  74
ATOM     74  O   UNL A   1      31.147  28.167  24.470  1.00  0.00    -0.459 OA
BRANCH  74  75
ATOM     75  C   UNL A   1      30.349  27.075  24.369  1.00  0.00     0.365 C 
ATOM     76  O   UNL A   1      29.488  26.914  23.506  1.00  0.00    -0.245 OA
BRANCH  75  77
ATOM     77  C   UNL A   1      30.626  26.030  25.451  1.00  0.00     0.304 C 
ATOM     78  C   UNL A   1      31.601  26.557  26.484  1.00  0.00     0.153 C 
ATOM     79  N   UNL A   1      31.085  24.706  24.956  1.00  0.00    -0.317 N 
ATOM     80  S   UNL A   1      33.205  25.815  26.072  1.00  0.00    -0.085 SA
ATOM     81  C   UNL A   1      32.541  24.764  24.748  1.00  0.00     0.303 C 
ATOM     82  H   UNL A   1      30.620  24.488  24.076  1.00  0.00     0.348 HD
ATOM     83  H   UNL A   1      30.859  23.982  25.638  1.00  0.00     0.348 HD
BRANCH  81  84
ATOM     84  C   UNL A   1      33.127  23.362  24.619  1.00  0.00     0.162 A 
ATOM     85  N   UNL A   1      34.402  23.088  24.841  1.00  0.00    -0.242 NA
ATOM     86  S   UNL A   1      32.200  22.018  24.068  1.00  0.00    -0.112 S 
ATOM     87  C   UNL A   1      34.650  21.745  24.626  1.00  0.00     0.132 A 
ATOM     88  C   UNL A   1      33.564  20.989  24.232  1.00  0.00     0.055 A 
BRANCH  88  89
ATOM     89  C   UNL A   1      33.442  19.550  24.005  1.00  0.00    -0.006 A 
ATOM     90  C   UNL A   1      32.519  19.064  23.067  1.00  0.00     0.010 A 
ATOM     91  C   UNL A   1      34.263  18.637  24.683  1.00  0.00     0.025 A 
ATOM     92  C   UNL A   1      32.441  17.698  22.784  1.00  0.00     0.002 A 
ATOM     93  C   UNL A   1      34.178  17.273  24.397  1.00  0.00     0.018 A 
ATOM     94  C   UNL A   1      33.277  16.801  23.446  1.00  0.00     0.016 A 
ATOM     95  Br  UNL A   1      35.313  16.058  25.299  1.00  0.00    -0.051 Br
ENDBRANCH  88  89
ENDBRANCH  81  84
ENDBRANCH  75  77
ENDBRANCH  74  75
ENDBRANCH  73  74
ENDBRANCH  72  73
ENDBRANCH   1  72
TORSDOF 16
ENDMDL
MODEL 3
REMARK VINA RESULT:     -11.4      0.643      1.754
REMARK SMILES O=C(OCCOCCOC(=O)[C@@H]1CS[C@@H](c2ncc(-c3cccc(Br)c3)s2)[NH2+]1)c1ccc(-c2c3nc(c(-c4c(F)c(F)c(F)c(F)c4F)c4ccc([nH]4)c(-c4c(F)c(F)c(F)c(F)c4F)c4nc(c(-c5c(F)c(F)c(F)c(F)c5F)c5ccc2[nH]5)C=C4)C=C3)cc1
REMARK SMILES IDX 6 1 5 2 4 3 3 4 2 5 1 6 29 7 30 8 91 9 31 10 90 11 32 12
REMARK SMILES IDX 33 13 34 14 84 15 35 16 89 17 83 18 85 19 36 20 88 21 82 22
REMARK SMILES IDX 81 23 37 25 69 26 49 27 68 28 50 29 53 30 67 31 86 32 51 33
REMARK SMILES IDX 52 34 66 36 87 37 54 38 38 39 39 40 47 41 40 42 41 43 45 44
REMARK SMILES IDX 48 45 42 46 43 47 46 48 44 49 70 50 71 51 79 52 72 53 73 54
REMARK SMILES IDX 77 55 80 56 74 57 75 58 78 59 76 60 55 61 56 62 64 63 57 64
REMARK SMILES IDX 58 65 62 66 65 67 59 68 60 69 63 70 61 71 7 72 8 73 9 74
REMARK SMILES IDX 10 75 11 76 12 77 13 78 28 79 14 80 15 81 16 84 17 85 27 86
REMARK SMILES IDX 18 87 19 88 20 89 21 90 26 91 22 92 24 93 23 94 25 95
REMARK H PARENT 85 24 53 35 28 82 28 83
REMARK Flexibility Score: inf
ROOT
ATOM      1  O   UNL A   1      31.017  31.538  26.063  1.00  0.00    -0.374 OA
ENDROOT
BRANCH   1   2
ATOM      2  C   UNL A   1      31.766  31.876  27.238  1.00  0.00     0.202 C 
BRANCH   2   3
ATOM      3  C   UNL A   1      32.708  33.085  27.127  1.00  0.00     0.261 C 
BRANCH   3   4
ATOM      4  O   UNL A   1      32.239  34.190  27.919  1.00  0.00    -0.460 OA
BRANCH   4   5
ATOM      5  C   UNL A   1      32.932  34.959  28.790  1.00  0.00     0.338 C 
ATOM      6  O   UNL A   1      32.526  36.093  29.036  1.00  0.00    -0.246 OA
BRANCH   5   7
ATOM      7  C   UNL A   1      34.164  34.492  29.492  1.00  0.00     0.060 A 
ATOM      8  C   UNL A   1      35.459  34.622  28.996  1.00  0.00     0.016 A 
ATOM      9  C   UNL A   1      34.005  33.926  30.769  1.00  0.00     0.016 A 
ATOM     10  C   UNL A   1      36.553  34.128  29.672  1.00  0.00     0.010 A 
ATOM     11  C   UNL A   1      35.110  33.456  31.486  1.00  0.00     0.010 A 
ATOM     12  C   UNL A   1      36.381  33.528  30.911  1.00  0.00    -0.014 A 
BRANCH  12  13
ATOM     13  C   UNL A   1      37.558  32.833  31.446  1.00  0.00     0.031 A 
ATOM     14  C   UNL A   1      37.969  33.153  32.848  1.00  0.00     0.074 A 
ATOM     15  C   UNL A   1      38.054  31.783  30.770  1.00  0.00     0.049 A 
ATOM     16  N   UNL A   1      38.918  32.630  33.573  1.00  0.00    -0.248 NA
ATOM     17  C   UNL A   1      37.180  34.188  33.542  1.00  0.00     0.031 C 
ATOM     18  C   UNL A   1      37.564  31.312  29.470  1.00  0.00     0.029 A 
ATOM     19  N   UNL A   1      39.028  30.886  31.106  1.00  0.00    -0.354 N 
ATOM     20  C   UNL A   1      38.865  33.295  34.789  1.00  0.00     0.074 A 
ATOM     21  C   UNL A   1      37.789  34.255  34.714  1.00  0.00     0.031 C 
ATOM     22  C   UNL A   1      38.220  30.189  29.137  1.00  0.00     0.029 A 
ATOM     23  C   UNL A   1      39.220  29.910  30.160  1.00  0.00     0.049 A 
ATOM     24  H   UNL A   1      39.542  30.936  31.943  1.00  0.00     0.167 HD
ATOM     25  C   UNL A   1      39.662  33.116  35.865  1.00  0.00     0.037 A 
ATOM     26  C   UNL A   1      40.131  28.923  30.128  1.00  0.00     0.037 A 
ATOM     27  C   UNL A   1      40.718  32.140  35.898  1.00  0.00     0.049 A 
ATOM     28  C   UNL A   1      41.077  28.817  31.295  1.00  0.00     0.074 A 
ATOM     29  C   UNL A   1      41.651  31.903  36.887  1.00  0.00     0.029 A 
ATOM     30  N   UNL A   1      40.970  31.233  34.874  1.00  0.00    -0.354 N 
ATOM     31  N   UNL A   1      41.094  29.508  32.412  1.00  0.00    -0.248 NA
ATOM     32  C   UNL A   1      42.137  27.809  31.194  1.00  0.00     0.031 C 
ATOM     33  C   UNL A   1      42.504  30.887  36.436  1.00  0.00     0.029 A 
ATOM     34  C   UNL A   1      42.060  30.446  35.198  1.00  0.00     0.049 A 
ATOM     35  H   UNL A   1      40.450  31.162  34.041  1.00  0.00     0.167 HD
ATOM     36  C   UNL A   1      42.146  29.001  33.161  1.00  0.00     0.074 A 
ATOM     37  C   UNL A   1      42.731  27.932  32.372  1.00  0.00     0.031 C 
ATOM     38  C   UNL A   1      42.593  29.380  34.384  1.00  0.00     0.037 A 
BRANCH  25  39
ATOM     39  C   UNL A   1      39.478  34.059  37.017  1.00  0.00     0.064 A 
ATOM     40  C   UNL A   1      40.078  35.327  37.056  1.00  0.00     0.173 A 
ATOM     41  C   UNL A   1      38.731  33.655  38.134  1.00  0.00     0.173 A 
ATOM     42  F   UNL A   1      40.833  35.748  36.030  1.00  0.00    -0.203 F 
ATOM     43  C   UNL A   1      39.965  36.139  38.183  1.00  0.00     0.198 A 
ATOM     44  C   UNL A   1      38.594  34.481  39.246  1.00  0.00     0.198 A 
ATOM     45  F   UNL A   1      38.147  32.447  38.156  1.00  0.00    -0.203 F 
ATOM     46  F   UNL A   1      40.605  37.315  38.226  1.00  0.00    -0.200 F 
ATOM     47  C   UNL A   1      39.221  35.717  39.274  1.00  0.00     0.200 A 
ATOM     48  F   UNL A   1      37.873  34.070  40.299  1.00  0.00    -0.200 F 
ATOM     49  F   UNL A   1      39.122  36.494  40.362  1.00  0.00    -0.200 F 
ENDBRANCH  25  39
BRANCH  26  50
ATOM     50  C   UNL A   1      40.222  28.011  28.956  1.00  0.00     0.064 A 
ATOM     51  C   UNL A   1      40.950  28.361  27.810  1.00  0.00     0.173 A 
ATOM     52  C   UNL A   1      39.561  26.772  28.948  1.00  0.00     0.173 A 
ATOM     53  F   UNL A   1      41.586  29.541  27.756  1.00  0.00    -0.203 F 
ATOM     54  C   UNL A   1      40.993  27.521  26.698  1.00  0.00     0.198 A 
ATOM     55  C   UNL A   1      39.632  25.919  27.850  1.00  0.00     0.198 A 
ATOM     56  F   UNL A   1      38.846  26.384  30.015  1.00  0.00    -0.203 F 
ATOM     57  F   UNL A   1      41.652  27.906  25.597  1.00  0.00    -0.200 F 
ATOM     58  C   UNL A   1      40.339  26.299  26.720  1.00  0.00     0.200 A 
ATOM     59  F   UNL A   1      39.010  24.733  27.884  1.00  0.00    -0.200 F 
ATOM     60  F   UNL A   1      40.380  25.492  25.650  1.00  0.00    -0.200 F 
ENDBRANCH  26  50
BRANCH  38  61
ATOM     61  C   UNL A   1      43.729  28.589  34.959  1.00  0.00     0.064 A 
ATOM     62  C   UNL A   1      43.513  27.469  35.774  1.00  0.00     0.173 A 
ATOM     63  C   UNL A   1      45.051  28.942  34.655  1.00  0.00     0.173 A 
ATOM     64  F   UNL A   1      42.265  27.103  36.104  1.00  0.00    -0.203 F 
ATOM     65  C   UNL A   1      44.585  26.750  36.291  1.00  0.00     0.198 A 
ATOM     66  C   UNL A   1      46.119  28.197  35.143  1.00  0.00     0.198 A 
ATOM     67  F   UNL A   1      45.306  30.001  33.871  1.00  0.00    -0.203 F 
ATOM     68  F   UNL A   1      44.360  25.716  37.115  1.00  0.00    -0.200 F 
ATOM     69  C   UNL A   1      45.886  27.109  35.969  1.00  0.00     0.200 A 
ATOM     70  F   UNL A   1      47.373  28.536  34.816  1.00  0.00    -0.200 F 
ATOM     71  F   UNL A   1      46.916  26.408  36.462  1.00  0.00    -0.200 F 
ENDBRANCH  38  61
ENDBRANCH  12  13
ENDBRANCH   5   7
ENDBRANCH   4   5
ENDBRANCH   3   4
ENDBRANCH   2   3
ENDBRANCH   1   2
BRANCH   1  72
ATOM     72  C   UNL A   1      31.440  30.343  25.391  1.00  0.00     0.202 C 
BRANCH  72  73
ATOM     73  C   UNL A   1      32.889  30.016  25.737  1.00  0.00     0.261 C 
BRANCH  73  74
ATOM     74  O   UNL A   1      33.374  29.103  24.742  1.00  0.00    -0.459 OA
BRANCH  74  75
ATOM     75  C   UNL A   1      33.655  27.855  25.191  1.00  0.00     0.365 C 
ATOM     76  O   UNL A   1      34.049  27.591  26.326  1.00  0.00    -0.245 OA
BRANCH  75  77
ATOM     77  C   UNL A   1      33.428  26.772  24.134  1.00  0.00     0.304 C 
ATOM     78  C   UNL A   1      31.978  26.733  23.695  1.00  0.00     0.153 C 
ATOM     79  N   UNL A   1      33.875  25.407  24.513  1.00  0.00    -0.317 N 
ATOM     80  S   UNL A   1      31.237  25.323  24.565  1.00  0.00    -0.085 SA
ATOM     81  C   UNL A   1      32.805  24.763  25.292  1.00  0.00     0.303 C 
ATOM     82  H   UNL A   1      34.722  25.468  25.077  1.00  0.00     0.348 HD
ATOM     83  H   UNL A   1      34.074  24.861  23.676  1.00  0.00     0.348 HD
BRANCH  81  84
ATOM     84  C   UNL A   1      33.027  23.257  25.378  1.00  0.00     0.162 A 
ATOM     85  N   UNL A   1      33.393  22.643  26.490  1.00  0.00    -0.242 NA
ATOM     86  S   UNL A   1      32.922  22.226  24.001  1.00  0.00    -0.112 S 
ATOM     87  C   UNL A   1      33.541  21.286  26.264  1.00  0.00     0.132 A 
ATOM     88  C   UNL A   1      33.293  20.862  24.974  1.00  0.00     0.055 A 
BRANCH  88  89
ATOM     89  C   UNL A   1      33.268  19.515  24.408  1.00  0.00    -0.006 A 
ATOM     90  C   UNL A   1      32.513  19.254  23.255  1.00  0.00     0.010 A 
ATOM     91  C   UNL A   1      34.019  18.474  24.974  1.00  0.00     0.025 A 
ATOM     92  C   UNL A   1      32.535  17.991  22.658  1.00  0.00     0.002 A 
ATOM     93  C   UNL A   1      34.036  17.214  24.374  1.00  0.00     0.018 A 
ATOM     94  C   UNL A   1      33.303  16.970  23.215  1.00  0.00     0.016 A 
ATOM     95  Br  UNL A   1      35.079  15.832  25.135  1.00  0.00    -0.051 Br
ENDBRANCH  88  89
ENDBRANCH  81  84
ENDBRANCH  75  77
ENDBRANCH  74  75
ENDBRANCH  73  74
ENDBRANCH  72  73
ENDBRANCH   1  72
TORSDOF 16
ENDMDL
