MODEL 1
REMARK VINA RESULT:     -12.1      0.000      0.000
REMARK SMILES O=C(N[C@@H](Cc1c[nH]c2ccccc12)C(=O)N[C@@H](CO)C(=O)OCCOCCOC(=O)c1ccc(-c2c3nc(c(-c4c(F)c(F)c(F)c(F)c4F)c4ccc([nH]4)c(-c4c(F)c(F)c(F)c(F)c4F)c4nc(c(-c5c(F)c(F)c(F)c(F)c5F)c5ccc2[nH]5)C=C4)C=C3)cc1)c1ccc(F)cc1
REMARK SMILES IDX 25 1 24 2 23 3 21 4 22 5 18 6 17 7 15 8 16 9 4 11 3 12 1 13
REMARK SMILES IDX 2 14 95 16 96 17 101 18 97 19 100 20 98 21 99 22 5 23 6 24
REMARK SMILES IDX 7 25 14 26 8 27 9 28 13 29 10 31 12 32 11 33 19 34 20 35
REMARK SMILES IDX 26 37 27 38 28 39 29 40 30 41 31 42 32 43 33 44 94 45 34 46
REMARK SMILES IDX 93 47 35 48 36 49 37 50 87 51 38 52 92 53 86 54 88 55 39 56
REMARK SMILES IDX 91 57 85 58 84 59 40 61 72 62 52 63 71 64 53 65 56 66 70 67
REMARK SMILES IDX 89 68 54 69 55 70 69 72 90 73 57 74 41 75 42 76 50 77 43 78
REMARK SMILES IDX 44 79 48 80 51 81 45 82 46 83 49 84 47 85 73 86 74 87 82 88
REMARK SMILES IDX 75 89 76 90 80 91 83 92 77 93 78 94 81 95 79 96 58 97 59 98
REMARK SMILES IDX 67 99 60 100 61 101 65 102 68 103 62 104 63 105 66 106
REMARK SMILES IDX 64 107
REMARK H PARENT 17 10 3 15 8 30 20 36 88 60 56 71
REMARK Flexibility Score: inf
ROOT
ATOM      1  C   UNL A   1      35.308  21.832  26.653  1.00  0.00     0.202 C 
ENDROOT
BRANCH   1   2
ATOM      2  C   UNL A   1      33.918  21.221  26.871  1.00  0.00     0.261 C 
BRANCH   2   3
ATOM      3  O   UNL A   1      32.885  22.203  27.029  1.00  0.00    -0.462 OA
BRANCH   3   4
ATOM      4  C   UNL A   1      32.034  22.303  25.967  1.00  0.00     0.331 C 
ATOM      5  O   UNL A   1      31.364  21.375  25.519  1.00  0.00    -0.250 OA
BRANCH   4   6
ATOM      6  C   UNL A   1      31.959  23.728  25.394  1.00  0.00     0.218 C 
BRANCH   6   7
ATOM      7  N   UNL A   1      31.808  24.829  26.345  1.00  0.00    -0.339 N 
ATOM      8  C   UNL A   1      31.361  26.103  26.156  1.00  0.00     0.243 C 
ATOM      9  O   UNL A   1      31.320  26.812  27.170  1.00  0.00    -0.273 OA
ATOM     10  H   UNL A   1      32.071  24.615  27.269  1.00  0.00     0.164 HD
BRANCH   8  11
ATOM     11  C   UNL A   1      30.918  26.712  24.788  1.00  0.00     0.176 C 
BRANCH  11  12
ATOM     12  N   UNL A   1      32.038  26.965  23.881  1.00  0.00    -0.340 N 
ATOM     13  O   UNL A   1      33.674  28.159  22.916  1.00  0.00    -0.269 OA
ATOM     14  C   UNL A   1      32.947  27.995  23.892  1.00  0.00     0.251 C 
ATOM     15  H   UNL A   1      32.157  26.304  23.162  1.00  0.00     0.164 HD
BRANCH  14  16
ATOM     16  C   UNL A   1      33.047  28.929  25.040  1.00  0.00     0.040 A 
ATOM     17  C   UNL A   1      32.063  29.896  25.285  1.00  0.00     0.017 A 
ATOM     18  C   UNL A   1      34.118  28.779  25.930  1.00  0.00     0.017 A 
ATOM     19  C   UNL A   1      32.186  30.748  26.385  1.00  0.00     0.040 A 
ATOM     20  C   UNL A   1      34.231  29.627  27.035  1.00  0.00     0.040 A 
ATOM     21  C   UNL A   1      33.268  30.608  27.247  1.00  0.00     0.123 A 
ATOM     22  F   UNL A   1      33.381  31.426  28.303  1.00  0.00    -0.207 F 
ENDBRANCH  14  16
ENDBRANCH  11  12
BRANCH  11  23
ATOM     23  C   UNL A   1      29.637  26.182  24.095  1.00  0.00     0.072 C 
BRANCH  23  24
ATOM     24  C   UNL A   1      28.552  27.134  23.669  1.00  0.00    -0.020 A 
ATOM     25  C   UNL A   1      27.180  27.013  23.795  1.00  0.00     0.087 A 
ATOM     26  C   UNL A   1      28.754  28.364  22.950  1.00  0.00     0.003 A 
ATOM     27  N   UNL A   1      26.624  28.245  23.554  1.00  0.00    -0.361 N 
ATOM     28  C   UNL A   1      27.575  29.100  23.058  1.00  0.00     0.046 A 
ATOM     29  C   UNL A   1      29.850  28.964  22.295  1.00  0.00     0.010 A 
ATOM     30  H   UNL A   1      25.682  28.480  23.715  1.00  0.00     0.166 HD
ATOM     31  C   UNL A   1      27.484  30.450  22.702  1.00  0.00     0.026 A 
ATOM     32  C   UNL A   1      29.767  30.303  21.892  1.00  0.00     0.001 A 
ATOM     33  C   UNL A   1      28.612  31.043  22.132  1.00  0.00     0.002 A 
ENDBRANCH  23  24
ENDBRANCH  11  23
ENDBRANCH   8  11
ENDBRANCH   6   7
BRANCH   6  34
ATOM     34  C   UNL A   1      33.127  23.940  24.431  1.00  0.00     0.193 C 
BRANCH  34  35
ATOM     35  O   UNL A   1      33.552  22.718  23.840  1.00  0.00    -0.394 OA
ATOM     36  H   UNL A   1      32.952  22.484  23.114  1.00  0.00     0.210 HD
ENDBRANCH  34  35
ENDBRANCH   6  34
ENDBRANCH   4   6
ENDBRANCH   3   4
ENDBRANCH   2   3
ENDBRANCH   1   2
BRANCH   1  37
ATOM     37  O   UNL A   1      35.956  21.715  25.396  1.00  0.00    -0.374 OA
BRANCH  37  38
ATOM     38  C   UNL A   1      36.467  20.456  24.982  1.00  0.00     0.202 C 
BRANCH  38  39
ATOM     39  C   UNL A   1      37.974  20.220  25.004  1.00  0.00     0.261 C 
BRANCH  39  40
ATOM     40  O   UNL A   1      38.712  21.381  25.370  1.00  0.00    -0.460 OA
BRANCH  40  41
ATOM     41  C   UNL A   1      39.695  21.128  26.261  1.00  0.00     0.338 C 
ATOM     42  O   UNL A   1      40.346  20.102  26.400  1.00  0.00    -0.246 OA
BRANCH  41  43
ATOM     43  C   UNL A   1      40.031  22.378  26.944  1.00  0.00     0.060 A 
ATOM     44  C   UNL A   1      39.286  23.514  26.605  1.00  0.00     0.016 A 
ATOM     45  C   UNL A   1      41.084  22.438  27.856  1.00  0.00     0.016 A 
ATOM     46  C   UNL A   1      39.633  24.741  27.137  1.00  0.00     0.010 A 
ATOM     47  C   UNL A   1      41.448  23.676  28.375  1.00  0.00     0.010 A 
ATOM     48  C   UNL A   1      40.752  24.830  27.972  1.00  0.00    -0.014 A 
BRANCH  48  49
ATOM     49  C   UNL A   1      41.320  26.164  28.225  1.00  0.00     0.031 A 
ATOM     50  C   UNL A   1      42.698  26.451  27.705  1.00  0.00     0.074 A 
ATOM     51  C   UNL A   1      40.583  27.104  28.833  1.00  0.00     0.049 A 
ATOM     52  N   UNL A   1      43.407  27.545  27.793  1.00  0.00    -0.248 NA
ATOM     53  C   UNL A   1      43.368  25.355  26.984  1.00  0.00     0.031 C 
ATOM     54  C   UNL A   1      39.215  26.922  29.317  1.00  0.00     0.029 A 
ATOM     55  N   UNL A   1      40.884  28.402  29.140  1.00  0.00    -0.354 N 
ATOM     56  C   UNL A   1      44.605  27.266  27.148  1.00  0.00     0.074 A 
ATOM     57  C   UNL A   1      44.546  25.891  26.706  1.00  0.00     0.031 C 
ATOM     58  C   UNL A   1      38.794  28.073  29.867  1.00  0.00     0.029 A 
ATOM     59  C   UNL A   1      39.875  29.053  29.801  1.00  0.00     0.049 A 
ATOM     60  H   UNL A   1      41.741  28.828  28.907  1.00  0.00     0.167 HD
ATOM     61  C   UNL A   1      45.653  28.093  26.938  1.00  0.00     0.037 A 
ATOM     62  C   UNL A   1      39.849  30.298  30.311  1.00  0.00     0.037 A 
ATOM     63  C   UNL A   1      45.688  29.458  27.391  1.00  0.00     0.049 A 
ATOM     64  C   UNL A   1      41.059  31.175  30.124  1.00  0.00     0.074 A 
ATOM     65  C   UNL A   1      46.694  30.394  27.240  1.00  0.00     0.029 A 
ATOM     66  N   UNL A   1      44.664  30.078  28.095  1.00  0.00    -0.354 N 
ATOM     67  N   UNL A   1      42.188  30.915  29.507  1.00  0.00    -0.248 NA
ATOM     68  C   UNL A   1      40.987  32.524  30.695  1.00  0.00     0.031 C 
ATOM     69  C   UNL A   1      46.304  31.562  27.905  1.00  0.00     0.029 A 
ATOM     70  C   UNL A   1      45.024  31.379  28.407  1.00  0.00     0.049 A 
ATOM     71  H   UNL A   1      43.808  29.656  28.337  1.00  0.00     0.167 HD
ATOM     72  C   UNL A   1      42.945  32.076  29.585  1.00  0.00     0.074 A 
ATOM     73  C   UNL A   1      42.136  33.047  30.295  1.00  0.00     0.031 C 
ATOM     74  C   UNL A   1      44.193  32.324  29.111  1.00  0.00     0.037 A 
BRANCH  61  75
ATOM     75  C   UNL A   1      46.850  27.532  26.226  1.00  0.00     0.064 A 
ATOM     76  C   UNL A   1      47.001  27.628  24.834  1.00  0.00     0.173 A 
ATOM     77  C   UNL A   1      47.870  26.897  26.952  1.00  0.00     0.173 A 
ATOM     78  F   UNL A   1      46.047  28.206  24.089  1.00  0.00    -0.203 F 
ATOM     79  C   UNL A   1      48.114  27.087  24.194  1.00  0.00     0.198 A 
ATOM     80  C   UNL A   1      48.997  26.387  26.312  1.00  0.00     0.198 A 
ATOM     81  F   UNL A   1      47.776  26.773  28.284  1.00  0.00    -0.203 F 
ATOM     82  F   UNL A   1      48.209  27.141  22.858  1.00  0.00    -0.200 F 
ATOM     83  C   UNL A   1      49.114  26.475  24.934  1.00  0.00     0.200 A 
ATOM     84  F   UNL A   1      49.968  25.807  27.032  1.00  0.00    -0.200 F 
ATOM     85  F   UNL A   1      50.188  25.961  24.318  1.00  0.00    -0.200 F 
ENDBRANCH  61  75
BRANCH  62  86
ATOM     86  C   UNL A   1      38.649  30.778  31.041  1.00  0.00     0.064 A 
ATOM     87  C   UNL A   1      37.552  31.319  30.360  1.00  0.00     0.173 A 
ATOM     88  C   UNL A   1      38.579  30.714  32.441  1.00  0.00     0.173 A 
ATOM     89  F   UNL A   1      37.578  31.418  29.022  1.00  0.00    -0.203 F 
ATOM     90  C   UNL A   1      36.442  31.803  31.049  1.00  0.00     0.198 A 
ATOM     91  C   UNL A   1      37.455  31.167  33.129  1.00  0.00     0.198 A 
ATOM     92  F   UNL A   1      39.600  30.198  33.143  1.00  0.00    -0.203 F 
ATOM     93  F   UNL A   1      35.431  32.366  30.375  1.00  0.00    -0.200 F 
ATOM     94  C   UNL A   1      36.392  31.722  32.433  1.00  0.00     0.200 A 
ATOM     95  F   UNL A   1      37.405  31.069  34.465  1.00  0.00    -0.200 F 
ATOM     96  F   UNL A   1      35.324  32.185  33.096  1.00  0.00    -0.200 F 
ENDBRANCH  62  86
BRANCH  74  97
ATOM     97  C   UNL A   1      44.730  33.713  29.303  1.00  0.00     0.064 A 
ATOM     98  C   UNL A   1      44.498  34.736  28.371  1.00  0.00     0.173 A 
ATOM     99  C   UNL A   1      45.476  34.028  30.451  1.00  0.00     0.173 A 
ATOM    100  F   UNL A   1      43.802  34.485  27.252  1.00  0.00    -0.203 F 
ATOM    101  C   UNL A   1      45.032  36.009  28.559  1.00  0.00     0.198 A 
ATOM    102  C   UNL A   1      45.972  35.312  30.654  1.00  0.00     0.198 A 
ATOM    103  F   UNL A   1      45.716  33.091  31.381  1.00  0.00    -0.203 F 
ATOM    104  F   UNL A   1      44.858  36.949  27.620  1.00  0.00    -0.200 F 
ATOM    105  C   UNL A   1      45.762  36.296  29.702  1.00  0.00     0.200 A 
ATOM    106  F   UNL A   1      46.659  35.593  31.770  1.00  0.00    -0.200 F 
ATOM    107  F   UNL A   1      46.273  37.522  29.881  1.00  0.00    -0.200 F 
ENDBRANCH  74  97
ENDBRANCH  48  49
ENDBRANCH  41  43
ENDBRANCH  40  41
ENDBRANCH  39  40
ENDBRANCH  38  39
ENDBRANCH  37  38
ENDBRANCH   1  37
TORSDOF 22
ENDMDL
MODEL 2
REMARK VINA RESULT:     -11.8      1.409      3.318
REMARK SMILES O=C(N[C@@H](Cc1c[nH]c2ccccc12)C(=O)N[C@@H](CO)C(=O)OCCOCCOC(=O)c1ccc(-c2c3nc(c(-c4c(F)c(F)c(F)c(F)c4F)c4ccc([nH]4)c(-c4c(F)c(F)c(F)c(F)c4F)c4nc(c(-c5c(F)c(F)c(F)c(F)c5F)c5ccc2[nH]5)C=C4)C=C3)cc1)c1ccc(F)cc1
REMARK SMILES IDX 25 1 24 2 23 3 21 4 22 5 18 6 17 7 15 8 16 9 4 11 3 12 1 13
REMARK SMILES IDX 2 14 95 16 96 17 101 18 97 19 100 20 98 21 99 22 5 23 6 24
REMARK SMILES IDX 7 25 14 26 8 27 9 28 13 29 10 31 12 32 11 33 19 34 20 35
REMARK SMILES IDX 26 37 27 38 28 39 29 40 30 41 31 42 32 43 33 44 94 45 34 46
REMARK SMILES IDX 93 47 35 48 36 49 37 50 87 51 38 52 92 53 86 54 88 55 39 56
REMARK SMILES IDX 91 57 85 58 84 59 40 61 72 62 52 63 71 64 53 65 56 66 70 67
REMARK SMILES IDX 89 68 54 69 55 70 69 72 90 73 57 74 41 75 42 76 50 77 43 78
REMARK SMILES IDX 44 79 48 80 51 81 45 82 46 83 49 84 47 85 73 86 74 87 82 88
REMARK SMILES IDX 75 89 76 90 80 91 83 92 77 93 78 94 81 95 79 96 58 97 59 98
REMARK SMILES IDX 67 99 60 100 61 101 65 102 68 103 62 104 63 105 66 106
REMARK SMILES IDX 64 107
REMARK H PARENT 17 10 3 15 8 30 20 36 88 60 56 71
REMARK Flexibility Score: inf
ROOT
ATOM      1  C   UNL A   1      34.247  21.010  25.954  1.00  0.00     0.202 C 
ENDROOT
BRANCH   1   2
ATOM      2  C   UNL A   1      33.501  20.862  24.622  1.00  0.00     0.261 C 
BRANCH   2   3
ATOM      3  O   UNL A   1      32.858  22.072  24.195  1.00  0.00    -0.462 OA
BRANCH   3   4
ATOM      4  C   UNL A   1      33.716  23.069  23.833  1.00  0.00     0.331 C 
ATOM      5  O   UNL A   1      34.515  22.998  22.902  1.00  0.00    -0.250 OA
BRANCH   4   6
ATOM      6  C   UNL A   1      33.559  24.334  24.693  1.00  0.00     0.218 C 
BRANCH   6   7
ATOM      7  N   UNL A   1      32.308  24.492  25.434  1.00  0.00    -0.339 N 
ATOM      8  C   UNL A   1      31.722  25.611  25.947  1.00  0.00     0.243 C 
ATOM      9  O   UNL A   1      30.634  25.435  26.512  1.00  0.00    -0.273 OA
ATOM     10  H   UNL A   1      31.810  23.657  25.587  1.00  0.00     0.164 HD
BRANCH   8  11
ATOM     11  C   UNL A   1      32.315  27.054  25.879  1.00  0.00     0.176 C 
BRANCH  11  12
ATOM     12  N   UNL A   1      32.877  27.384  24.569  1.00  0.00    -0.340 N 
ATOM     13  O   UNL A   1      32.868  27.706  22.349  1.00  0.00    -0.269 OA
ATOM     14  C   UNL A   1      32.227  27.679  23.396  1.00  0.00     0.251 C 
ATOM     15  H   UNL A   1      33.860  27.395  24.522  1.00  0.00     0.164 HD
BRANCH  14  16
ATOM     16  C   UNL A   1      30.767  27.934  23.362  1.00  0.00     0.040 A 
ATOM     17  C   UNL A   1      29.838  26.897  23.517  1.00  0.00     0.017 A 
ATOM     18  C   UNL A   1      30.324  29.259  23.245  1.00  0.00     0.017 A 
ATOM     19  C   UNL A   1      28.470  27.179  23.493  1.00  0.00     0.040 A 
ATOM     20  C   UNL A   1      28.954  29.537  23.232  1.00  0.00     0.040 A 
ATOM     21  C   UNL A   1      28.041  28.495  23.348  1.00  0.00     0.123 A 
ATOM     22  F   UNL A   1      26.728  28.763  23.329  1.00  0.00    -0.207 F 
ENDBRANCH  14  16
ENDBRANCH  11  12
BRANCH  11  23
ATOM     23  C   UNL A   1      31.563  28.222  26.568  1.00  0.00     0.072 C 
BRANCH  23  24
ATOM     24  C   UNL A   1      32.212  29.572  26.703  1.00  0.00    -0.020 A 
ATOM     25  C   UNL A   1      31.686  30.827  26.459  1.00  0.00     0.087 A 
ATOM     26  C   UNL A   1      33.590  29.806  27.051  1.00  0.00     0.003 A 
ATOM     27  N   UNL A   1      32.534  31.755  27.013  1.00  0.00    -0.361 N 
ATOM     28  C   UNL A   1      33.700  31.149  27.406  1.00  0.00     0.046 A 
ATOM     29  C   UNL A   1      34.733  28.991  27.186  1.00  0.00     0.010 A 
ATOM     30  H   UNL A   1      32.334  32.714  27.113  1.00  0.00     0.166 HD
ATOM     31  C   UNL A   1      34.828  31.679  28.042  1.00  0.00     0.026 A 
ATOM     32  C   UNL A   1      35.888  29.512  27.782  1.00  0.00     0.001 A 
ATOM     33  C   UNL A   1      35.916  30.827  28.239  1.00  0.00     0.002 A 
ENDBRANCH  23  24
ENDBRANCH  11  23
ENDBRANCH   8  11
ENDBRANCH   6   7
BRANCH   6  34
ATOM     34  C   UNL A   1      34.792  24.489  25.581  1.00  0.00     0.193 C 
BRANCH  34  35
ATOM     35  O   UNL A   1      35.968  24.010  24.940  1.00  0.00    -0.394 OA
ATOM     36  H   UNL A   1      35.835  24.009  23.980  1.00  0.00     0.210 HD
ENDBRANCH  34  35
ENDBRANCH   6  34
ENDBRANCH   4   6
ENDBRANCH   3   4
ENDBRANCH   2   3
ENDBRANCH   1   2
BRANCH   1  37
ATOM     37  O   UNL A   1      35.652  21.210  25.972  1.00  0.00    -0.374 OA
BRANCH  37  38
ATOM     38  C   UNL A   1      36.467  20.572  24.999  1.00  0.00     0.202 C 
BRANCH  38  39
ATOM     39  C   UNL A   1      37.922  21.003  24.848  1.00  0.00     0.261 C 
BRANCH  39  40
ATOM     40  O   UNL A   1      38.291  22.038  25.753  1.00  0.00    -0.460 OA
BRANCH  40  41
ATOM     41  C   UNL A   1      39.464  21.804  26.380  1.00  0.00     0.338 C 
ATOM     42  O   UNL A   1      40.184  20.819  26.297  1.00  0.00    -0.246 OA
BRANCH  41  43
ATOM     43  C   UNL A   1      39.879  23.034  27.055  1.00  0.00     0.060 A 
ATOM     44  C   UNL A   1      39.194  24.210  26.724  1.00  0.00     0.016 A 
ATOM     45  C   UNL A   1      40.946  23.036  27.954  1.00  0.00     0.016 A 
ATOM     46  C   UNL A   1      39.617  25.416  27.249  1.00  0.00     0.010 A 
ATOM     47  C   UNL A   1      41.386  24.252  28.465  1.00  0.00     0.010 A 
ATOM     48  C   UNL A   1      40.751  25.442  28.069  1.00  0.00    -0.014 A 
BRANCH  48  49
ATOM     49  C   UNL A   1      41.396  26.743  28.312  1.00  0.00     0.031 A 
ATOM     50  C   UNL A   1      42.794  26.939  27.804  1.00  0.00     0.074 A 
ATOM     51  C   UNL A   1      40.711  27.734  28.900  1.00  0.00     0.049 A 
ATOM     52  N   UNL A   1      43.567  27.989  27.886  1.00  0.00    -0.248 NA
ATOM     53  C   UNL A   1      43.404  25.795  27.104  1.00  0.00     0.031 C 
ATOM     54  C   UNL A   1      39.330  27.642  29.371  1.00  0.00     0.029 A 
ATOM     55  N   UNL A   1      41.088  29.015  29.194  1.00  0.00    -0.354 N 
ATOM     56  C   UNL A   1      44.752  27.629  27.258  1.00  0.00     0.074 A 
ATOM     57  C   UNL A   1      44.615  26.256  26.833  1.00  0.00     0.031 C 
ATOM     58  C   UNL A   1      38.974  28.823  29.901  1.00  0.00     0.029 A 
ATOM     59  C   UNL A   1      40.113  29.735  29.836  1.00  0.00     0.049 A 
ATOM     60  H   UNL A   1      41.971  29.385  28.966  1.00  0.00     0.167 HD
ATOM     61  C   UNL A   1      45.851  28.389  27.050  1.00  0.00     0.037 A 
ATOM     62  C   UNL A   1      40.158  30.985  30.330  1.00  0.00     0.037 A 
ATOM     63  C   UNL A   1      45.965  29.755  27.487  1.00  0.00     0.049 A 
ATOM     64  C   UNL A   1      41.421  31.785  30.146  1.00  0.00     0.074 A 
ATOM     65  C   UNL A   1      47.027  30.626  27.335  1.00  0.00     0.029 A 
ATOM     66  N   UNL A   1      44.973  30.445  28.171  1.00  0.00    -0.354 N 
ATOM     67  N   UNL A   1      42.538  31.449  29.545  1.00  0.00    -0.248 NA
ATOM     68  C   UNL A   1      41.424  33.144  30.700  1.00  0.00     0.031 C 
ATOM     69  C   UNL A   1      46.702  31.824  27.981  1.00  0.00     0.029 A 
ATOM     70  C   UNL A   1      45.408  31.725  28.471  1.00  0.00     0.049 A 
ATOM     71  H   UNL A   1      44.090  30.079  28.408  1.00  0.00     0.167 HD
ATOM     72  C   UNL A   1      43.363  32.563  29.617  1.00  0.00     0.074 A 
ATOM     73  C   UNL A   1      42.608  33.590  30.306  1.00  0.00     0.031 C 
ATOM     74  C   UNL A   1      44.629  32.728  29.154  1.00  0.00     0.037 A 
BRANCH  61  75
ATOM     75  C   UNL A   1      47.019  27.747  26.358  1.00  0.00     0.064 A 
ATOM     76  C   UNL A   1      48.061  27.133  27.071  1.00  0.00     0.173 A 
ATOM     77  C   UNL A   1      47.091  27.736  24.956  1.00  0.00     0.173 A 
ATOM     78  F   UNL A   1      48.054  27.133  28.412  1.00  0.00    -0.203 F 
ATOM     79  C   UNL A   1      49.142  26.557  26.408  1.00  0.00     0.198 A 
ATOM     80  C   UNL A   1      48.157  27.130  24.296  1.00  0.00     0.198 A 
ATOM     81  F   UNL A   1      46.127  28.313  24.225  1.00  0.00    -0.203 F 
ATOM     82  F   UNL A   1      50.152  26.026  27.110  1.00  0.00    -0.200 F 
ATOM     83  C   UNL A   1      49.185  26.548  25.021  1.00  0.00     0.200 A 
ATOM     84  F   UNL A   1      48.189  27.112  22.956  1.00  0.00    -0.200 F 
ATOM     85  F   UNL A   1      50.222  25.987  24.384  1.00  0.00    -0.200 F 
ENDBRANCH  61  75
BRANCH  62  86
ATOM     86  C   UNL A   1      38.982  31.547  31.041  1.00  0.00     0.064 A 
ATOM     87  C   UNL A   1      38.701  31.200  32.369  1.00  0.00     0.173 A 
ATOM     88  C   UNL A   1      38.106  32.438  30.402  1.00  0.00     0.173 A 
ATOM     89  F   UNL A   1      39.498  30.338  33.018  1.00  0.00    -0.203 F 
ATOM     90  C   UNL A   1      37.576  31.699  33.022  1.00  0.00     0.198 A 
ATOM     91  C   UNL A   1      37.000  32.964  31.066  1.00  0.00     0.198 A 
ATOM     92  F   UNL A   1      38.332  32.809  29.133  1.00  0.00    -0.203 F 
ATOM     93  F   UNL A   1      37.302  31.307  34.273  1.00  0.00    -0.200 F 
ATOM     94  C   UNL A   1      36.730  32.586  32.372  1.00  0.00     0.200 A 
ATOM     95  F   UNL A   1      36.196  33.834  30.440  1.00  0.00    -0.200 F 
ATOM     96  F   UNL A   1      35.650  33.067  33.002  1.00  0.00    -0.200 F 
ENDBRANCH  62  86
BRANCH  74  97
ATOM     97  C   UNL A   1      45.248  34.085  29.335  1.00  0.00     0.064 A 
ATOM     98  C   UNL A   1      45.112  35.099  28.374  1.00  0.00     0.173 A 
ATOM     99  C   UNL A   1      45.975  34.378  30.500  1.00  0.00     0.173 A 
ATOM    100  F   UNL A   1      44.437  34.867  27.238  1.00  0.00    -0.203 F 
ATOM    101  C   UNL A   1      45.720  36.339  28.553  1.00  0.00     0.198 A 
ATOM    102  C   UNL A   1      46.545  35.632  30.693  1.00  0.00     0.198 A 
ATOM    103  F   UNL A   1      46.124  33.449  31.457  1.00  0.00    -0.203 F 
ATOM    104  F   UNL A   1      45.637  37.266  27.589  1.00  0.00    -0.200 F 
ATOM    105  C   UNL A   1      46.430  36.606  29.714  1.00  0.00     0.200 A 
ATOM    106  F   UNL A   1      47.213  35.895  31.825  1.00  0.00    -0.200 F 
ATOM    107  F   UNL A   1      47.012  37.801  29.884  1.00  0.00    -0.200 F 
ENDBRANCH  74  97
ENDBRANCH  48  49
ENDBRANCH  41  43
ENDBRANCH  40  41
ENDBRANCH  39  40
ENDBRANCH  38  39
ENDBRANCH  37  38
ENDBRANCH   1  37
TORSDOF 22
ENDMDL
MODEL 3
REMARK VINA RESULT:     -11.8      2.087      3.111
REMARK SMILES O=C(N[C@@H](Cc1c[nH]c2ccccc12)C(=O)N[C@@H](CO)C(=O)OCCOCCOC(=O)c1ccc(-c2c3nc(c(-c4c(F)c(F)c(F)c(F)c4F)c4ccc([nH]4)c(-c4c(F)c(F)c(F)c(F)c4F)c4nc(c(-c5c(F)c(F)c(F)c(F)c5F)c5ccc2[nH]5)C=C4)C=C3)cc1)c1ccc(F)cc1
REMARK SMILES IDX 25 1 24 2 23 3 21 4 22 5 18 6 17 7 15 8 16 9 4 11 3 12 1 13
REMARK SMILES IDX 2 14 95 16 96 17 101 18 97 19 100 20 98 21 99 22 5 23 6 24
REMARK SMILES IDX 7 25 14 26 8 27 9 28 13 29 10 31 12 32 11 33 19 34 20 35
REMARK SMILES IDX 26 37 27 38 28 39 29 40 30 41 31 42 32 43 33 44 94 45 34 46
REMARK SMILES IDX 93 47 35 48 36 49 37 50 87 51 38 52 92 53 86 54 88 55 39 56
REMARK SMILES IDX 91 57 85 58 84 59 40 61 72 62 52 63 71 64 53 65 56 66 70 67
REMARK SMILES IDX 89 68 54 69 55 70 69 72 90 73 57 74 41 75 42 76 50 77 43 78
REMARK SMILES IDX 44 79 48 80 51 81 45 82 46 83 49 84 47 85 73 86 74 87 82 88
REMARK SMILES IDX 75 89 76 90 80 91 83 92 77 93 78 94 81 95 79 96 58 97 59 98
REMARK SMILES IDX 67 99 60 100 61 101 65 102 68 103 62 104 63 105 66 106
REMARK SMILES IDX 64 107
REMARK H PARENT 17 10 3 15 8 30 20 36 88 60 56 71
REMARK Flexibility Score: inf
ROOT
ATOM      1  C   UNL A   1      35.847  20.805  25.023  1.00  0.00     0.202 C 
ENDROOT
BRANCH   1   2
ATOM      2  C   UNL A   1      34.723  21.360  25.907  1.00  0.00     0.261 C 
BRANCH   2   3
ATOM      3  O   UNL A   1      33.645  20.435  26.103  1.00  0.00    -0.462 OA
BRANCH   3   4
ATOM      4  C   UNL A   1      32.726  20.417  25.095  1.00  0.00     0.331 C 
ATOM      5  O   UNL A   1      32.163  19.407  24.680  1.00  0.00    -0.250 OA
BRANCH   4   6
ATOM      6  C   UNL A   1      32.422  21.819  24.540  1.00  0.00     0.218 C 
BRANCH   6   7
ATOM      7  N   UNL A   1      32.495  21.999  23.090  1.00  0.00    -0.339 N 
ATOM      8  C   UNL A   1      32.939  23.056  22.354  1.00  0.00     0.243 C 
ATOM      9  O   UNL A   1      32.902  22.907  21.125  1.00  0.00    -0.273 OA
ATOM     10  H   UNL A   1      32.171  21.234  22.562  1.00  0.00     0.164 HD
BRANCH   8  11
ATOM     11  C   UNL A   1      33.470  24.405  22.936  1.00  0.00     0.176 C 
BRANCH  11  12
ATOM     12  N   UNL A   1      34.552  24.227  23.904  1.00  0.00    -0.340 N 
ATOM     13  O   UNL A   1      35.863  24.760  25.645  1.00  0.00    -0.269 OA
ATOM     14  C   UNL A   1      34.779  24.894  25.083  1.00  0.00     0.251 C 
ATOM     15  H   UNL A   1      35.211  23.532  23.679  1.00  0.00     0.164 HD
BRANCH  14  16
ATOM     16  C   UNL A   1      33.759  25.794  25.674  1.00  0.00     0.040 A 
ATOM     17  C   UNL A   1      32.546  25.299  26.172  1.00  0.00     0.017 A 
ATOM     18  C   UNL A   1      34.062  27.157  25.795  1.00  0.00     0.017 A 
ATOM     19  C   UNL A   1      31.616  26.177  26.734  1.00  0.00     0.040 A 
ATOM     20  C   UNL A   1      33.131  28.029  26.368  1.00  0.00     0.040 A 
ATOM     21  C   UNL A   1      31.916  27.532  26.824  1.00  0.00     0.123 A 
ATOM     22  F   UNL A   1      31.022  28.370  27.367  1.00  0.00    -0.207 F 
ENDBRANCH  14  16
ENDBRANCH  11  12
BRANCH  11  23
ATOM     23  C   UNL A   1      33.641  25.627  21.999  1.00  0.00     0.072 C 
BRANCH  23  24
ATOM     24  C   UNL A   1      33.055  26.961  22.372  1.00  0.00    -0.020 A 
ATOM     25  C   UNL A   1      33.656  28.207  22.400  1.00  0.00     0.087 A 
ATOM     26  C   UNL A   1      31.720  27.180  22.865  1.00  0.00     0.003 A 
ATOM     27  N   UNL A   1      32.664  29.152  22.496  1.00  0.00    -0.361 N 
ATOM     28  C   UNL A   1      31.462  28.545  22.758  1.00  0.00     0.046 A 
ATOM     29  C   UNL A   1      30.675  26.342  23.308  1.00  0.00     0.010 A 
ATOM     30  H   UNL A   1      32.797  30.122  22.393  1.00  0.00     0.166 HD
ATOM     31  C   UNL A   1      30.182  29.093  22.903  1.00  0.00     0.026 A 
ATOM     32  C   UNL A   1      29.395  26.877  23.501  1.00  0.00     0.001 A 
ATOM     33  C   UNL A   1      29.148  28.226  23.261  1.00  0.00     0.002 A 
ENDBRANCH  23  24
ENDBRANCH  11  23
ENDBRANCH   8  11
ENDBRANCH   6   7
BRANCH   6  34
ATOM     34  C   UNL A   1      31.100  22.312  25.127  1.00  0.00     0.193 C 
BRANCH  34  35
ATOM     35  O   UNL A   1      31.070  22.182  26.544  1.00  0.00    -0.394 OA
ATOM     36  H   UNL A   1      31.524  22.938  26.947  1.00  0.00     0.210 HD
ENDBRANCH  34  35
ENDBRANCH   6  34
ENDBRANCH   4   6
ENDBRANCH   3   4
ENDBRANCH   2   3
ENDBRANCH   1   2
BRANCH   1  37
ATOM     37  O   UNL A   1      37.179  20.747  25.505  1.00  0.00    -0.374 OA
BRANCH  37  38
ATOM     38  C   UNL A   1      38.102  19.839  24.919  1.00  0.00     0.202 C 
BRANCH  38  39
ATOM     39  C   UNL A   1      39.267  19.317  25.754  1.00  0.00     0.261 C 
BRANCH  39  40
ATOM     40  O   UNL A   1      40.537  19.649  25.204  1.00  0.00    -0.460 OA
BRANCH  40  41
ATOM     41  C   UNL A   1      41.566  19.363  26.030  1.00  0.00     0.338 C 
ATOM     42  O   UNL A   1      41.973  18.264  26.381  1.00  0.00    -0.246 OA
BRANCH  41  43
ATOM     43  C   UNL A   1      42.292  20.602  26.307  1.00  0.00     0.060 A 
ATOM     44  C   UNL A   1      42.323  21.045  27.635  1.00  0.00     0.016 A 
ATOM     45  C   UNL A   1      42.883  21.335  25.277  1.00  0.00     0.016 A 
ATOM     46  C   UNL A   1      42.898  22.265  27.935  1.00  0.00     0.010 A 
ATOM     47  C   UNL A   1      43.444  22.573  25.574  1.00  0.00     0.010 A 
ATOM     48  C   UNL A   1      43.402  23.054  26.895  1.00  0.00    -0.014 A 
BRANCH  48  49
ATOM     49  C   UNL A   1      43.666  24.475  27.174  1.00  0.00     0.031 A 
ATOM     50  C   UNL A   1      45.041  25.004  26.887  1.00  0.00     0.074 A 
ATOM     51  C   UNL A   1      42.675  25.274  27.595  1.00  0.00     0.049 A 
ATOM     52  N   UNL A   1      45.514  26.212  27.040  1.00  0.00    -0.248 NA
ATOM     53  C   UNL A   1      46.016  24.039  26.351  1.00  0.00     0.031 C 
ATOM     54  C   UNL A   1      41.298  24.849  27.842  1.00  0.00     0.029 A 
ATOM     55  N   UNL A   1      42.678  26.610  27.882  1.00  0.00    -0.354 N 
ATOM     56  C   UNL A   1      46.839  26.148  26.629  1.00  0.00     0.074 A 
ATOM     57  C   UNL A   1      47.109  24.779  26.254  1.00  0.00     0.031 C 
ATOM     58  C   UNL A   1      40.584  25.912  28.251  1.00  0.00     0.029 A 
ATOM     59  C   UNL A   1      41.466  27.074  28.324  1.00  0.00     0.049 A 
ATOM     60  H   UNL A   1      43.472  27.183  27.781  1.00  0.00     0.167 HD
ATOM     61  C   UNL A   1      47.742  27.152  26.562  1.00  0.00     0.037 A 
ATOM     62  C   UNL A   1      41.126  28.302  28.757  1.00  0.00     0.037 A 
ATOM     63  C   UNL A   1      47.450  28.508  26.944  1.00  0.00     0.049 A 
ATOM     64  C   UNL A   1      42.172  29.385  28.738  1.00  0.00     0.074 A 
ATOM     65  C   UNL A   1      48.281  29.612  26.922  1.00  0.00     0.029 A 
ATOM     66  N   UNL A   1      46.221  28.940  27.426  1.00  0.00    -0.354 N 
ATOM     67  N   UNL A   1      43.421  29.327  28.341  1.00  0.00    -0.248 NA
ATOM     68  C   UNL A   1      41.756  30.708  29.218  1.00  0.00     0.031 C 
ATOM     69  C   UNL A   1      47.574  30.698  27.448  1.00  0.00     0.029 A 
ATOM     70  C   UNL A   1      46.279  30.290  27.729  1.00  0.00     0.049 A 
ATOM     71  H   UNL A   1      45.425  28.370  27.537  1.00  0.00     0.167 HD
ATOM     72  C   UNL A   1      43.931  30.611  28.490  1.00  0.00     0.074 A 
ATOM     73  C   UNL A   1      42.847  31.427  28.998  1.00  0.00     0.031 C 
ATOM     74  C   UNL A   1      45.179  31.077  28.228  1.00  0.00     0.037 A 
BRANCH  61  75
ATOM     75  C   UNL A   1      49.129  26.811  26.099  1.00  0.00     0.064 A 
ATOM     76  C   UNL A   1      49.522  26.950  24.759  1.00  0.00     0.173 A 
ATOM     77  C   UNL A   1      50.085  26.346  27.016  1.00  0.00     0.173 A 
ATOM     78  F   UNL A   1      48.643  27.369  23.837  1.00  0.00    -0.203 F 
ATOM     79  C   UNL A   1      50.810  26.612  24.350  1.00  0.00     0.198 A 
ATOM     80  C   UNL A   1      51.382  26.042  26.609  1.00  0.00     0.198 A 
ATOM     81  F   UNL A   1      49.764  26.189  28.308  1.00  0.00    -0.203 F 
ATOM     82  F   UNL A   1      51.146  26.700  23.055  1.00  0.00    -0.200 F 
ATOM     83  C   UNL A   1      51.741  26.167  25.276  1.00  0.00     0.200 A 
ATOM     84  F   UNL A   1      52.283  25.623  27.509  1.00  0.00    -0.200 F 
ATOM     85  F   UNL A   1      52.983  25.849  24.883  1.00  0.00    -0.200 F 
ENDBRANCH  61  75
BRANCH  62  86
ATOM     86  C   UNL A   1      39.747  28.564  29.242  1.00  0.00     0.064 A 
ATOM     87  C   UNL A   1      38.759  29.065  28.386  1.00  0.00     0.173 A 
ATOM     88  C   UNL A   1      39.392  28.327  30.579  1.00  0.00     0.173 A 
ATOM     89  F   UNL A   1      39.053  29.325  27.103  1.00  0.00    -0.203 F 
ATOM     90  C   UNL A   1      37.476  29.345  28.852  1.00  0.00     0.198 A 
ATOM     91  C   UNL A   1      38.099  28.576  31.037  1.00  0.00     0.198 A 
ATOM     92  F   UNL A   1      40.298  27.841  31.440  1.00  0.00    -0.203 F 
ATOM     93  F   UNL A   1      36.566  29.876  28.024  1.00  0.00    -0.200 F 
ATOM     94  C   UNL A   1      37.146  29.095  30.176  1.00  0.00     0.200 A 
ATOM     95  F   UNL A   1      37.781  28.315  32.312  1.00  0.00    -0.200 F 
ATOM     96  F   UNL A   1      35.911  29.363  30.623  1.00  0.00    -0.200 F 
ENDBRANCH  62  86
BRANCH  74  97
ATOM     97  C   UNL A   1      45.414  32.546  28.439  1.00  0.00     0.064 A 
ATOM     98  C   UNL A   1      45.170  33.491  27.432  1.00  0.00     0.173 A 
ATOM     99  C   UNL A   1      45.877  33.014  29.680  1.00  0.00     0.173 A 
ATOM    100  F   UNL A   1      44.738  33.095  26.224  1.00  0.00    -0.203 F 
ATOM    101  C   UNL A   1      45.424  34.844  27.643  1.00  0.00     0.198 A 
ATOM    102  C   UNL A   1      46.090  34.371  29.900  1.00  0.00     0.198 A 
ATOM    103  F   UNL A   1      46.114  32.154  30.682  1.00  0.00    -0.203 F 
ATOM    104  F   UNL A   1      45.251  35.718  26.643  1.00  0.00    -0.200 F 
ATOM    105  C   UNL A   1      45.877  35.282  28.878  1.00  0.00     0.200 A 
ATOM    106  F   UNL A   1      46.508  34.795  31.101  1.00  0.00    -0.200 F 
ATOM    107  F   UNL A   1      46.118  36.585  29.080  1.00  0.00    -0.200 F 
ENDBRANCH  74  97
ENDBRANCH  48  49
ENDBRANCH  41  43
ENDBRANCH  40  41
ENDBRANCH  39  40
ENDBRANCH  38  39
ENDBRANCH  37  38
ENDBRANCH   1  37
TORSDOF 22
ENDMDL
