MODEL 1
REMARK VINA RESULT:     -12.1      0.000      0.000
REMARK SMILES Cc1c(CC(=O)OCCOCCOC(=O)c2ccc(-c3c4nc(c(-c5c(F)c(F)c(F)c(F)c5F)c5ccc([nH]5)c(-c5c(F)c(F)c(F)c(F)c5F)c5nc(c(-c6c(F)c(F)c(F)c(F)c6F)c6ccc3[nH]6)C=C5)C=C4)cc2)cccc1-c1ccn(C(F)F)c(=O)c1
REMARK SMILES IDX 9 1 8 2 7 3 5 4 6 5 4 6 3 7 1 8 2 9 82 10 79 11 81 12 80 13
REMARK SMILES IDX 83 14 84 15 92 16 85 17 90 18 86 19 91 20 87 21 88 22 89 23
REMARK SMILES IDX 10 24 11 25 12 26 13 27 14 28 15 29 16 30 17 31 78 32 18 33
REMARK SMILES IDX 77 34 19 35 20 36 21 37 71 38 22 39 76 40 70 41 72 42 23 43
REMARK SMILES IDX 75 44 69 45 68 46 24 48 56 49 36 50 55 51 37 52 40 53 54 54
REMARK SMILES IDX 73 55 38 56 39 57 53 59 74 60 41 61 25 62 26 63 34 64 27 65
REMARK SMILES IDX 28 66 32 67 35 68 29 69 30 70 33 71 31 72 57 73 58 74 66 75
REMARK SMILES IDX 59 76 60 77 64 78 67 79 61 80 62 81 65 82 63 83 42 84 43 85
REMARK SMILES IDX 51 86 44 87 45 88 49 89 52 90 46 91 47 92 50 93 48 94
REMARK H PARENT 72 47 40 58
REMARK Flexibility Score: inf
ROOT
ATOM      1  C   UNL A   1      33.019  36.830  30.121  1.00  0.00     0.202 C 
ENDROOT
BRANCH   1   2
ATOM      2  C   UNL A   1      33.137  35.443  29.570  1.00  0.00     0.261 C 
BRANCH   2   3
ATOM      3  O   UNL A   1      33.899  35.369  28.366  1.00  0.00    -0.463 OA
BRANCH   3   4
ATOM      4  C   UNL A   1      34.465  34.166  28.023  1.00  0.00     0.310 C 
ATOM      5  O   UNL A   1      35.441  34.013  27.323  1.00  0.00    -0.252 OA
BRANCH   4   6
ATOM      6  C   UNL A   1      33.662  33.041  28.658  1.00  0.00     0.158 C 
BRANCH   6   7
ATOM      7  C   UNL A   1      34.074  31.713  28.039  1.00  0.00    -0.033 A 
ATOM      8  C   UNL A   1      31.857  31.564  26.814  1.00  0.00     0.045 C 
ATOM      9  C   UNL A   1      33.186  30.967  27.228  1.00  0.00    -0.039 A 
ATOM     10  C   UNL A   1      33.536  29.640  26.886  1.00  0.00    -0.015 A 
ATOM     11  C   UNL A   1      35.252  31.116  28.525  1.00  0.00     0.004 A 
ATOM     12  C   UNL A   1      34.680  29.045  27.439  1.00  0.00     0.009 A 
ATOM     13  C   UNL A   1      35.533  29.781  28.255  1.00  0.00     0.001 A 
BRANCH  10  14
ATOM     14  C   UNL A   1      32.783  28.914  25.845  1.00  0.00    -0.011 A 
ATOM     15  C   UNL A   1      32.991  29.258  24.452  1.00  0.00     0.027 A 
ATOM     16  C   UNL A   1      31.873  27.979  26.167  1.00  0.00     0.080 A 
ATOM     17  C   UNL A   1      32.226  28.727  23.498  1.00  0.00     0.095 A 
ATOM     18  C   UNL A   1      31.049  27.334  25.100  1.00  0.00     0.255 A 
ATOM     19  N   UNL A   1      31.257  27.797  23.808  1.00  0.00    -0.258 N 
ATOM     20  O   UNL A   1      30.242  26.468  25.424  1.00  0.00    -0.269 OA
BRANCH  19  21
ATOM     21  C   UNL A   1      30.420  27.261  22.768  1.00  0.00     0.451 C 
ATOM     22  F   UNL A   1      29.419  28.118  22.454  1.00  0.00    -0.185 F 
ATOM     23  F   UNL A   1      31.136  27.016  21.643  1.00  0.00    -0.185 F 
ENDBRANCH  19  21
ENDBRANCH  10  14
ENDBRANCH   6   7
ENDBRANCH   4   6
ENDBRANCH   3   4
ENDBRANCH   2   3
ENDBRANCH   1   2
BRANCH   1  24
ATOM     24  O   UNL A   1      32.655  36.692  31.488  1.00  0.00    -0.374 OA
BRANCH  24  25
ATOM     25  C   UNL A   1      33.584  37.235  32.415  1.00  0.00     0.202 C 
BRANCH  25  26
ATOM     26  C   UNL A   1      34.216  36.210  33.373  1.00  0.00     0.261 C 
BRANCH  26  27
ATOM     27  O   UNL A   1      34.966  35.236  32.618  1.00  0.00    -0.460 OA
BRANCH  27  28
ATOM     28  C   UNL A   1      34.382  34.017  32.465  1.00  0.00     0.338 C 
ATOM     29  O   UNL A   1      33.328  33.666  32.978  1.00  0.00    -0.246 OA
BRANCH  28  30
ATOM     30  C   UNL A   1      35.361  33.078  31.846  1.00  0.00     0.060 A 
ATOM     31  C   UNL A   1      35.408  31.731  32.259  1.00  0.00     0.016 A 
ATOM     32  C   UNL A   1      36.426  33.620  31.133  1.00  0.00     0.016 A 
ATOM     33  C   UNL A   1      36.585  30.983  32.091  1.00  0.00     0.010 A 
ATOM     34  C   UNL A   1      37.613  32.923  31.083  1.00  0.00     0.010 A 
ATOM     35  C   UNL A   1      37.718  31.611  31.578  1.00  0.00    -0.014 A 
BRANCH  35  36
ATOM     36  C   UNL A   1      39.081  31.064  31.570  1.00  0.00     0.031 A 
ATOM     37  C   UNL A   1      39.339  29.889  30.704  1.00  0.00     0.074 A 
ATOM     38  C   UNL A   1      40.134  31.711  32.133  1.00  0.00     0.049 A 
ATOM     39  N   UNL A   1      40.332  29.085  30.860  1.00  0.00    -0.248 NA
ATOM     40  C   UNL A   1      38.466  29.491  29.605  1.00  0.00     0.031 C 
ATOM     41  C   UNL A   1      41.560  31.530  31.850  1.00  0.00     0.029 A 
ATOM     42  N   UNL A   1      40.153  32.713  33.119  1.00  0.00    -0.354 N 
ATOM     43  C   UNL A   1      40.418  28.300  29.730  1.00  0.00     0.074 A 
ATOM     44  C   UNL A   1      39.175  28.516  29.036  1.00  0.00     0.031 C 
ATOM     45  C   UNL A   1      42.290  32.117  32.817  1.00  0.00     0.029 A 
ATOM     46  C   UNL A   1      41.362  32.601  33.825  1.00  0.00     0.049 A 
ATOM     47  H   UNL A   1      39.445  33.376  33.285  1.00  0.00     0.167 HD
ATOM     48  C   UNL A   1      41.602  27.681  29.457  1.00  0.00     0.037 A 
ATOM     49  C   UNL A   1      41.378  32.381  35.167  1.00  0.00     0.037 A 
ATOM     50  C   UNL A   1      42.583  27.982  30.512  1.00  0.00     0.049 A 
ATOM     51  C   UNL A   1      42.026  31.057  35.423  1.00  0.00     0.074 A 
ATOM     52  C   UNL A   1      43.636  28.880  30.573  1.00  0.00     0.029 A 
ATOM     53  N   UNL A   1      42.331  27.589  31.829  1.00  0.00    -0.354 N 
ATOM     54  N   UNL A   1      42.130  30.156  34.487  1.00  0.00    -0.248 NA
ATOM     55  C   UNL A   1      42.636  30.640  36.679  1.00  0.00     0.031 C 
ATOM     56  C   UNL A   1      43.974  29.070  31.940  1.00  0.00     0.029 A 
ATOM     57  C   UNL A   1      43.147  28.272  32.716  1.00  0.00     0.049 A 
ATOM     58  H   UNL A   1      41.662  26.916  32.092  1.00  0.00     0.167 HD
ATOM     59  C   UNL A   1      42.826  29.092  34.953  1.00  0.00     0.074 A 
ATOM     60  C   UNL A   1      43.104  29.423  36.340  1.00  0.00     0.031 C 
ATOM     61  C   UNL A   1      43.090  28.023  34.152  1.00  0.00     0.037 A 
BRANCH  48  62
ATOM     62  C   UNL A   1      41.980  27.052  28.122  1.00  0.00     0.064 A 
ATOM     63  C   UNL A   1      42.257  25.668  28.039  1.00  0.00     0.173 A 
ATOM     64  C   UNL A   1      42.119  27.734  26.895  1.00  0.00     0.173 A 
ATOM     65  F   UNL A   1      42.081  24.855  29.087  1.00  0.00    -0.203 F 
ATOM     66  C   UNL A   1      42.716  25.053  26.867  1.00  0.00     0.198 A 
ATOM     67  C   UNL A   1      42.622  27.131  25.736  1.00  0.00     0.198 A 
ATOM     68  F   UNL A   1      41.703  28.992  26.731  1.00  0.00    -0.203 F 
ATOM     69  F   UNL A   1      42.957  23.734  26.860  1.00  0.00    -0.200 F 
ATOM     70  C   UNL A   1      42.925  25.790  25.722  1.00  0.00     0.200 A 
ATOM     71  F   UNL A   1      42.788  27.866  24.626  1.00  0.00    -0.200 F 
ATOM     72  F   UNL A   1      43.379  25.206  24.605  1.00  0.00    -0.200 F 
ENDBRANCH  48  62
BRANCH  49  73
ATOM     73  C   UNL A   1      40.192  32.979  35.847  1.00  0.00     0.064 A 
ATOM     74  C   UNL A   1      39.163  32.093  36.240  1.00  0.00     0.173 A 
ATOM     75  C   UNL A   1      40.274  34.204  36.525  1.00  0.00     0.173 A 
ATOM     76  F   UNL A   1      39.051  30.894  35.644  1.00  0.00    -0.203 F 
ATOM     77  C   UNL A   1      38.363  32.350  37.354  1.00  0.00     0.198 A 
ATOM     78  C   UNL A   1      39.466  34.459  37.640  1.00  0.00     0.198 A 
ATOM     79  F   UNL A   1      41.228  35.090  36.207  1.00  0.00    -0.203 F 
ATOM     80  F   UNL A   1      37.523  31.408  37.807  1.00  0.00    -0.200 F 
ATOM     81  C   UNL A   1      38.546  33.516  38.078  1.00  0.00     0.200 A 
ATOM     82  F   UNL A   1      39.658  35.574  38.361  1.00  0.00    -0.200 F 
ATOM     83  F   UNL A   1      37.896  33.694  39.237  1.00  0.00    -0.200 F 
ENDBRANCH  49  73
BRANCH  61  84
ATOM     84  C   UNL A   1      43.415  26.673  34.702  1.00  0.00     0.064 A 
ATOM     85  C   UNL A   1      42.421  25.751  35.074  1.00  0.00     0.173 A 
ATOM     86  C   UNL A   1      44.742  26.200  34.715  1.00  0.00     0.173 A 
ATOM     87  F   UNL A   1      41.117  26.041  34.959  1.00  0.00    -0.203 F 
ATOM     88  C   UNL A   1      42.741  24.477  35.530  1.00  0.00     0.198 A 
ATOM     89  C   UNL A   1      45.051  24.902  35.104  1.00  0.00     0.198 A 
ATOM     90  F   UNL A   1      45.766  26.972  34.323  1.00  0.00    -0.203 F 
ATOM     91  F   UNL A   1      41.762  23.657  35.938  1.00  0.00    -0.200 F 
ATOM     92  C   UNL A   1      44.054  24.050  35.539  1.00  0.00     0.200 A 
ATOM     93  F   UNL A   1      46.319  24.475  35.039  1.00  0.00    -0.200 F 
ATOM     94  F   UNL A   1      44.356  22.810  35.943  1.00  0.00    -0.200 F 
ENDBRANCH  61  84
ENDBRANCH  35  36
ENDBRANCH  28  30
ENDBRANCH  27  28
ENDBRANCH  26  27
ENDBRANCH  25  26
ENDBRANCH  24  25
ENDBRANCH   1  24
TORSDOF 17
ENDMDL
MODEL 2
REMARK VINA RESULT:     -11.9      3.609      5.722
REMARK SMILES Cc1c(CC(=O)OCCOCCOC(=O)c2ccc(-c3c4nc(c(-c5c(F)c(F)c(F)c(F)c5F)c5ccc([nH]5)c(-c5c(F)c(F)c(F)c(F)c5F)c5nc(c(-c6c(F)c(F)c(F)c(F)c6F)c6ccc3[nH]6)C=C5)C=C4)cc2)cccc1-c1ccn(C(F)F)c(=O)c1
REMARK SMILES IDX 9 1 8 2 7 3 5 4 6 5 4 6 3 7 1 8 2 9 82 10 79 11 81 12 80 13
REMARK SMILES IDX 83 14 84 15 92 16 85 17 90 18 86 19 91 20 87 21 88 22 89 23
REMARK SMILES IDX 10 24 11 25 12 26 13 27 14 28 15 29 16 30 17 31 78 32 18 33
REMARK SMILES IDX 77 34 19 35 20 36 21 37 71 38 22 39 76 40 70 41 72 42 23 43
REMARK SMILES IDX 75 44 69 45 68 46 24 48 56 49 36 50 55 51 37 52 40 53 54 54
REMARK SMILES IDX 73 55 38 56 39 57 53 59 74 60 41 61 25 62 26 63 34 64 27 65
REMARK SMILES IDX 28 66 32 67 35 68 29 69 30 70 33 71 31 72 57 73 58 74 66 75
REMARK SMILES IDX 59 76 60 77 64 78 67 79 61 80 62 81 65 82 63 83 42 84 43 85
REMARK SMILES IDX 51 86 44 87 45 88 49 89 52 90 46 91 47 92 50 93 48 94
REMARK H PARENT 72 47 40 58
REMARK Flexibility Score: inf
ROOT
ATOM      1  C   UNL A   1      31.268  28.802  24.850  1.00  0.00     0.202 C 
ENDROOT
BRANCH   1   2
ATOM      2  C   UNL A   1      31.020  28.794  23.374  1.00  0.00     0.261 C 
BRANCH   2   3
ATOM      3  O   UNL A   1      32.097  28.243  22.617  1.00  0.00    -0.463 OA
BRANCH   3   4
ATOM      4  C   UNL A   1      32.112  26.889  22.390  1.00  0.00     0.310 C 
ATOM      5  O   UNL A   1      31.142  26.188  22.207  1.00  0.00    -0.252 OA
BRANCH   4   6
ATOM      6  C   UNL A   1      33.552  26.398  22.412  1.00  0.00     0.158 C 
BRANCH   6   7
ATOM      7  C   UNL A   1      33.778  25.553  23.658  1.00  0.00    -0.033 A 
ATOM      8  C   UNL A   1      33.560  23.427  22.290  1.00  0.00     0.045 C 
ATOM      9  C   UNL A   1      33.699  24.141  23.619  1.00  0.00    -0.039 A 
ATOM     10  C   UNL A   1      33.676  23.430  24.842  1.00  0.00    -0.015 A 
ATOM     11  C   UNL A   1      33.784  26.222  24.896  1.00  0.00     0.004 A 
ATOM     12  C   UNL A   1      33.612  24.122  26.061  1.00  0.00     0.009 A 
ATOM     13  C   UNL A   1      33.667  25.513  26.086  1.00  0.00     0.001 A 
BRANCH  10  14
ATOM     14  C   UNL A   1      33.854  21.966  24.858  1.00  0.00    -0.011 A 
ATOM     15  C   UNL A   1      35.191  21.417  24.971  1.00  0.00     0.027 A 
ATOM     16  C   UNL A   1      32.807  21.135  24.719  1.00  0.00     0.080 A 
ATOM     17  C   UNL A   1      35.402  20.107  24.844  1.00  0.00     0.095 A 
ATOM     18  C   UNL A   1      33.025  19.659  24.633  1.00  0.00     0.255 A 
ATOM     19  N   UNL A   1      34.348  19.238  24.658  1.00  0.00    -0.258 N 
ATOM     20  O   UNL A   1      32.047  18.926  24.528  1.00  0.00    -0.269 OA
BRANCH  19  21
ATOM     21  C   UNL A   1      34.601  17.831  24.489  1.00  0.00     0.451 C 
ATOM     22  F   UNL A   1      34.300  17.427  23.232  1.00  0.00    -0.185 F 
ATOM     23  F   UNL A   1      35.902  17.538  24.730  1.00  0.00    -0.185 F 
ENDBRANCH  19  21
ENDBRANCH  10  14
ENDBRANCH   6   7
ENDBRANCH   4   6
ENDBRANCH   3   4
ENDBRANCH   2   3
ENDBRANCH   1   2
BRANCH   1  24
ATOM     24  O   UNL A   1      32.112  29.914  25.114  1.00  0.00    -0.374 OA
BRANCH  24  25
ATOM     25  C   UNL A   1      33.239  29.634  25.931  1.00  0.00     0.202 C 
BRANCH  25  26
ATOM     26  C   UNL A   1      33.271  30.391  27.271  1.00  0.00     0.261 C 
BRANCH  26  27
ATOM     27  O   UNL A   1      34.461  31.203  27.342  1.00  0.00    -0.460 OA
BRANCH  27  28
ATOM     28  C   UNL A   1      35.110  31.212  28.537  1.00  0.00     0.338 C 
ATOM     29  O   UNL A   1      35.074  32.119  29.357  1.00  0.00    -0.246 OA
BRANCH  28  30
ATOM     30  C   UNL A   1      36.111  30.108  28.560  1.00  0.00     0.060 A 
ATOM     31  C   UNL A   1      36.448  29.482  29.777  1.00  0.00     0.016 A 
ATOM     32  C   UNL A   1      36.938  29.951  27.451  1.00  0.00     0.016 A 
ATOM     33  C   UNL A   1      37.687  28.835  29.919  1.00  0.00     0.010 A 
ATOM     34  C   UNL A   1      38.198  29.424  27.633  1.00  0.00     0.010 A 
ATOM     35  C   UNL A   1      38.598  28.882  28.867  1.00  0.00    -0.014 A 
BRANCH  35  36
ATOM     36  C   UNL A   1      40.011  28.486  28.928  1.00  0.00     0.031 A 
ATOM     37  C   UNL A   1      40.349  27.101  28.525  1.00  0.00     0.074 A 
ATOM     38  C   UNL A   1      41.015  29.381  29.118  1.00  0.00     0.049 A 
ATOM     39  N   UNL A   1      41.434  26.496  28.866  1.00  0.00    -0.248 NA
ATOM     40  C   UNL A   1      39.465  26.254  27.731  1.00  0.00     0.031 C 
ATOM     41  C   UNL A   1      42.434  29.227  28.786  1.00  0.00     0.029 A 
ATOM     42  N   UNL A   1      40.978  30.673  29.669  1.00  0.00    -0.354 N 
ATOM     43  C   UNL A   1      41.543  25.360  28.093  1.00  0.00     0.074 A 
ATOM     44  C   UNL A   1      40.246  25.201  27.488  1.00  0.00     0.031 C 
ATOM     45  C   UNL A   1      43.147  30.188  29.404  1.00  0.00     0.029 A 
ATOM     46  C   UNL A   1      42.230  30.930  30.251  1.00  0.00     0.049 A 
ATOM     47  H   UNL A   1      40.211  31.289  29.650  1.00  0.00     0.167 HD
ATOM     48  C   UNL A   1      42.771  24.785  27.952  1.00  0.00     0.037 A 
ATOM     49  C   UNL A   1      42.347  31.223  31.574  1.00  0.00     0.037 A 
ATOM     50  C   UNL A   1      43.770  25.535  28.730  1.00  0.00     0.049 A 
ATOM     51  C   UNL A   1      43.153  30.146  32.229  1.00  0.00     0.074 A 
ATOM     52  C   UNL A   1      44.718  26.477  28.363  1.00  0.00     0.029 A 
ATOM     53  N   UNL A   1      43.640  25.635  30.118  1.00  0.00    -0.354 N 
ATOM     54  N   UNL A   1      43.304  28.975  31.676  1.00  0.00    -0.248 NA
ATOM     55  C   UNL A   1      43.877  30.273  33.487  1.00  0.00     0.031 C 
ATOM     56  C   UNL A   1      45.110  27.184  29.531  1.00  0.00     0.029 A 
ATOM     57  C   UNL A   1      44.423  26.663  30.617  1.00  0.00     0.049 A 
ATOM     58  H   UNL A   1      43.067  25.053  30.667  1.00  0.00     0.167 HD
ATOM     59  C   UNL A   1      44.140  28.220  32.426  1.00  0.00     0.074 A 
ATOM     60  C   UNL A   1      44.458  29.061  33.568  1.00  0.00     0.031 C 
ATOM     61  C   UNL A   1      44.476  26.957  32.045  1.00  0.00     0.037 A 
BRANCH  48  62
ATOM     62  C   UNL A   1      43.140  23.742  26.905  1.00  0.00     0.064 A 
ATOM     63  C   UNL A   1      42.795  22.385  27.098  1.00  0.00     0.173 A 
ATOM     64  C   UNL A   1      43.851  23.983  25.711  1.00  0.00     0.173 A 
ATOM     65  F   UNL A   1      42.037  21.996  28.130  1.00  0.00    -0.203 F 
ATOM     66  C   UNL A   1      43.202  21.365  26.228  1.00  0.00     0.198 A 
ATOM     67  C   UNL A   1      44.299  22.961  24.865  1.00  0.00     0.198 A 
ATOM     68  F   UNL A   1      44.081  25.218  25.258  1.00  0.00    -0.203 F 
ATOM     69  F   UNL A   1      42.834  20.099  26.472  1.00  0.00    -0.200 F 
ATOM     70  C   UNL A   1      43.977  21.650  25.126  1.00  0.00     0.200 A 
ATOM     71  F   UNL A   1      45.028  23.268  23.782  1.00  0.00    -0.200 F 
ATOM     72  F   UNL A   1      44.381  20.673  24.302  1.00  0.00    -0.200 F 
ENDBRANCH  48  62
BRANCH  49  73
ATOM     73  C   UNL A   1      41.142  31.929  32.101  1.00  0.00     0.064 A 
ATOM     74  C   UNL A   1      40.209  31.151  32.824  1.00  0.00     0.173 A 
ATOM     75  C   UNL A   1      41.146  33.310  32.341  1.00  0.00     0.173 A 
ATOM     76  F   UNL A   1      40.176  29.819  32.655  1.00  0.00    -0.203 F 
ATOM     77  C   UNL A   1      39.435  31.704  33.845  1.00  0.00     0.198 A 
ATOM     78  C   UNL A   1      40.364  33.859  33.364  1.00  0.00     0.198 A 
ATOM     79  F   UNL A   1      42.008  34.106  31.693  1.00  0.00    -0.203 F 
ATOM     80  F   UNL A   1      38.696  30.906  34.632  1.00  0.00    -0.200 F 
ATOM     81  C   UNL A   1      39.546  33.052  34.141  1.00  0.00     0.200 A 
ATOM     82  F   UNL A   1      40.488  35.159  33.673  1.00  0.00    -0.200 F 
ATOM     83  F   UNL A   1      38.929  33.554  35.221  1.00  0.00    -0.200 F 
ENDBRANCH  49  73
BRANCH  61  84
ATOM     84  C   UNL A   1      44.981  25.937  33.011  1.00  0.00     0.064 A 
ATOM     85  C   UNL A   1      46.314  25.490  33.009  1.00  0.00     0.173 A 
ATOM     86  C   UNL A   1      44.176  25.496  34.080  1.00  0.00     0.173 A 
ATOM     87  F   UNL A   1      47.209  25.959  32.128  1.00  0.00    -0.203 F 
ATOM     88  C   UNL A   1      46.781  24.582  33.953  1.00  0.00     0.198 A 
ATOM     89  C   UNL A   1      44.668  24.643  35.062  1.00  0.00     0.198 A 
ATOM     90  F   UNL A   1      42.906  25.905  34.218  1.00  0.00    -0.203 F 
ATOM     91  F   UNL A   1      48.041  24.134  33.871  1.00  0.00    -0.200 F 
ATOM     92  C   UNL A   1      45.961  24.164  34.983  1.00  0.00     0.200 A 
ATOM     93  F   UNL A   1      43.886  24.303  36.096  1.00  0.00    -0.200 F 
ATOM     94  F   UNL A   1      46.424  23.319  35.911  1.00  0.00    -0.200 F 
ENDBRANCH  61  84
ENDBRANCH  35  36
ENDBRANCH  28  30
ENDBRANCH  27  28
ENDBRANCH  26  27
ENDBRANCH  25  26
ENDBRANCH  24  25
ENDBRANCH   1  24
TORSDOF 17
ENDMDL
MODEL 3
REMARK VINA RESULT:     -11.7      3.914      6.016
REMARK SMILES Cc1c(CC(=O)OCCOCCOC(=O)c2ccc(-c3c4nc(c(-c5c(F)c(F)c(F)c(F)c5F)c5ccc([nH]5)c(-c5c(F)c(F)c(F)c(F)c5F)c5nc(c(-c6c(F)c(F)c(F)c(F)c6F)c6ccc3[nH]6)C=C5)C=C4)cc2)cccc1-c1ccn(C(F)F)c(=O)c1
REMARK SMILES IDX 9 1 8 2 7 3 5 4 6 5 4 6 3 7 1 8 2 9 82 10 79 11 81 12 80 13
REMARK SMILES IDX 83 14 84 15 92 16 85 17 90 18 86 19 91 20 87 21 88 22 89 23
REMARK SMILES IDX 10 24 11 25 12 26 13 27 14 28 15 29 16 30 17 31 78 32 18 33
REMARK SMILES IDX 77 34 19 35 20 36 21 37 71 38 22 39 76 40 70 41 72 42 23 43
REMARK SMILES IDX 75 44 69 45 68 46 24 48 56 49 36 50 55 51 37 52 40 53 54 54
REMARK SMILES IDX 73 55 38 56 39 57 53 59 74 60 41 61 25 62 26 63 34 64 27 65
REMARK SMILES IDX 28 66 32 67 35 68 29 69 30 70 33 71 31 72 57 73 58 74 66 75
REMARK SMILES IDX 59 76 60 77 64 78 67 79 61 80 62 81 65 82 63 83 42 84 43 85
REMARK SMILES IDX 51 86 44 87 45 88 49 89 52 90 46 91 47 92 50 93 48 94
REMARK H PARENT 72 47 40 58
REMARK Flexibility Score: inf
ROOT
ATOM      1  C   UNL A   1      32.395  29.585  25.069  1.00  0.00     0.202 C 
ENDROOT
BRANCH   1   2
ATOM      2  C   UNL A   1      32.553  28.217  25.655  1.00  0.00     0.261 C 
BRANCH   2   3
ATOM      3  O   UNL A   1      31.328  27.490  25.747  1.00  0.00    -0.463 OA
BRANCH   3   4
ATOM      4  C   UNL A   1      31.374  26.181  26.159  1.00  0.00     0.310 C 
ATOM      5  O   UNL A   1      30.426  25.507  26.494  1.00  0.00    -0.252 OA
BRANCH   4   6
ATOM      6  C   UNL A   1      32.819  25.704  26.136  1.00  0.00     0.158 C 
BRANCH   6   7
ATOM      7  C   UNL A   1      32.989  24.661  25.040  1.00  0.00    -0.033 A 
ATOM      8  C   UNL A   1      33.379  22.856  26.781  1.00  0.00     0.045 C 
ATOM      9  C   UNL A   1      33.339  23.323  25.340  1.00  0.00    -0.039 A 
ATOM     10  C   UNL A   1      33.719  22.469  24.279  1.00  0.00    -0.015 A 
ATOM     11  C   UNL A   1      33.070  25.128  23.715  1.00  0.00     0.004 A 
ATOM     12  C   UNL A   1      33.858  22.976  22.978  1.00  0.00     0.009 A 
ATOM     13  C   UNL A   1      33.535  24.301  22.699  1.00  0.00     0.001 A 
BRANCH  10  14
ATOM     14  C   UNL A   1      33.841  21.015  24.497  1.00  0.00    -0.011 A 
ATOM     15  C   UNL A   1      35.153  20.440  24.717  1.00  0.00     0.027 A 
ATOM     16  C   UNL A   1      32.765  20.210  24.444  1.00  0.00     0.080 A 
ATOM     17  C   UNL A   1      35.316  19.117  24.773  1.00  0.00     0.095 A 
ATOM     18  C   UNL A   1      32.929  18.730  24.565  1.00  0.00     0.255 A 
ATOM     19  N   UNL A   1      34.233  18.269  24.680  1.00  0.00    -0.258 N 
ATOM     20  O   UNL A   1      31.925  18.023  24.534  1.00  0.00    -0.269 OA
BRANCH  19  21
ATOM     21  C   UNL A   1      34.435  16.845  24.709  1.00  0.00     0.451 C 
ATOM     22  F   UNL A   1      34.369  16.315  23.464  1.00  0.00    -0.185 F 
ATOM     23  F   UNL A   1      35.643  16.534  25.239  1.00  0.00    -0.185 F 
ENDBRANCH  19  21
ENDBRANCH  10  14
ENDBRANCH   6   7
ENDBRANCH   4   6
ENDBRANCH   3   4
ENDBRANCH   2   3
ENDBRANCH   1   2
BRANCH   1  24
ATOM     24  O   UNL A   1      32.179  30.471  26.159  1.00  0.00    -0.374 OA
BRANCH  24  25
ATOM     25  C   UNL A   1      33.168  30.426  27.176  1.00  0.00     0.202 C 
BRANCH  25  26
ATOM     26  C   UNL A   1      33.775  31.791  27.549  1.00  0.00     0.261 C 
BRANCH  26  27
ATOM     27  O   UNL A   1      35.184  31.640  27.817  1.00  0.00    -0.460 OA
BRANCH  27  28
ATOM     28  C   UNL A   1      35.515  31.244  29.076  1.00  0.00     0.338 C 
ATOM     29  O   UNL A   1      35.272  31.864  30.102  1.00  0.00    -0.246 OA
BRANCH  28  30
ATOM     30  C   UNL A   1      36.485  30.114  28.995  1.00  0.00     0.060 A 
ATOM     31  C   UNL A   1      36.775  29.346  30.140  1.00  0.00     0.016 A 
ATOM     32  C   UNL A   1      37.333  30.058  27.893  1.00  0.00     0.016 A 
ATOM     33  C   UNL A   1      37.991  28.649  30.235  1.00  0.00     0.010 A 
ATOM     34  C   UNL A   1      38.573  29.476  28.040  1.00  0.00     0.010 A 
ATOM     35  C   UNL A   1      38.929  28.787  29.213  1.00  0.00    -0.014 A 
BRANCH  35  36
ATOM     36  C   UNL A   1      40.328  28.345  29.259  1.00  0.00     0.031 A 
ATOM     37  C   UNL A   1      40.629  26.980  28.766  1.00  0.00     0.074 A 
ATOM     38  C   UNL A   1      41.357  29.193  29.518  1.00  0.00     0.049 A 
ATOM     39  N   UNL A   1      41.691  26.320  29.074  1.00  0.00    -0.248 NA
ATOM     40  C   UNL A   1      39.727  26.216  27.909  1.00  0.00     0.031 C 
ATOM     41  C   UNL A   1      42.774  29.018  29.188  1.00  0.00     0.029 A 
ATOM     42  N   UNL A   1      41.353  30.446  30.155  1.00  0.00    -0.354 N 
ATOM     43  C   UNL A   1      41.773  25.236  28.226  1.00  0.00     0.074 A 
ATOM     44  C   UNL A   1      40.478  25.158  27.602  1.00  0.00     0.031 C 
ATOM     45  C   UNL A   1      43.510  29.912  29.875  1.00  0.00     0.029 A 
ATOM     46  C   UNL A   1      42.606  30.624  30.763  1.00  0.00     0.049 A 
ATOM     47  H   UNL A   1      40.606  31.085  30.172  1.00  0.00     0.167 HD
ATOM     48  C   UNL A   1      42.985  24.634  28.056  1.00  0.00     0.037 A 
ATOM     49  C   UNL A   1      42.719  30.822  32.104  1.00  0.00     0.037 A 
ATOM     50  C   UNL A   1      43.998  25.298  28.892  1.00  0.00     0.049 A 
ATOM     51  C   UNL A   1      43.485  29.679  32.691  1.00  0.00     0.074 A 
ATOM     52  C   UNL A   1      44.978  26.233  28.598  1.00  0.00     0.029 A 
ATOM     53  N   UNL A   1      43.857  25.309  30.282  1.00  0.00    -0.354 N 
ATOM     54  N   UNL A   1      43.606  28.544  32.061  1.00  0.00    -0.248 NA
ATOM     55  C   UNL A   1      44.199  29.698  33.960  1.00  0.00     0.031 C 
ATOM     56  C   UNL A   1      45.378  26.847  29.814  1.00  0.00     0.029 A 
ATOM     57  C   UNL A   1      44.665  26.275  30.856  1.00  0.00     0.049 A 
ATOM     58  H   UNL A   1      43.260  24.709  30.786  1.00  0.00     0.167 HD
ATOM     59  C   UNL A   1      44.411  27.715  32.765  1.00  0.00     0.074 A 
ATOM     60  C   UNL A   1      44.743  28.466  33.964  1.00  0.00     0.031 C 
ATOM     61  C   UNL A   1      44.713  26.470  32.301  1.00  0.00     0.037 A 
BRANCH  48  62
ATOM     62  C   UNL A   1      43.333  23.653  26.944  1.00  0.00     0.064 A 
ATOM     63  C   UNL A   1      42.921  22.303  27.029  1.00  0.00     0.173 A 
ATOM     64  C   UNL A   1      44.084  23.947  25.787  1.00  0.00     0.173 A 
ATOM     65  F   UNL A   1      42.121  21.877  28.014  1.00  0.00    -0.203 F 
ATOM     66  C   UNL A   1      43.304  21.331  26.096  1.00  0.00     0.198 A 
ATOM     67  C   UNL A   1      44.506  22.968  24.879  1.00  0.00     0.198 A 
ATOM     68  F   UNL A   1      44.380  25.199  25.431  1.00  0.00    -0.203 F 
ATOM     69  F   UNL A   1      42.873  20.069  26.239  1.00  0.00    -0.200 F 
ATOM     70  C   UNL A   1      44.119  21.658  25.035  1.00  0.00     0.200 A 
ATOM     71  F   UNL A   1      45.276  23.318  23.838  1.00  0.00    -0.200 F 
ATOM     72  F   UNL A   1      44.499  20.726  24.151  1.00  0.00    -0.200 F 
ENDBRANCH  48  62
BRANCH  49  73
ATOM     73  C   UNL A   1      41.530  31.528  32.668  1.00  0.00     0.064 A 
ATOM     74  C   UNL A   1      41.439  32.919  32.431  1.00  0.00     0.173 A 
ATOM     75  C   UNL A   1      40.338  30.847  32.949  1.00  0.00     0.173 A 
ATOM     76  F   UNL A   1      42.546  33.619  32.131  1.00  0.00    -0.203 F 
ATOM     77  C   UNL A   1      40.205  33.561  32.326  1.00  0.00     0.198 A 
ATOM     78  C   UNL A   1      39.102  31.498  32.846  1.00  0.00     0.198 A 
ATOM     79  F   UNL A   1      40.351  29.527  33.179  1.00  0.00    -0.203 F 
ATOM     80  F   UNL A   1      40.148  34.839  31.921  1.00  0.00    -0.200 F 
ATOM     81  C   UNL A   1      39.036  32.838  32.492  1.00  0.00     0.200 A 
ATOM     82  F   UNL A   1      37.966  30.797  32.978  1.00  0.00    -0.200 F 
ATOM     83  F   UNL A   1      37.852  33.412  32.233  1.00  0.00    -0.200 F 
ENDBRANCH  49  73
BRANCH  61  84
ATOM     84  C   UNL A   1      45.176  25.372  33.201  1.00  0.00     0.064 A 
ATOM     85  C   UNL A   1      46.527  24.996  33.298  1.00  0.00     0.173 A 
ATOM     86  C   UNL A   1      44.293  24.771  34.118  1.00  0.00     0.173 A 
ATOM     87  F   UNL A   1      47.479  25.608  32.578  1.00  0.00    -0.203 F 
ATOM     88  C   UNL A   1      46.949  24.010  34.182  1.00  0.00     0.198 A 
ATOM     89  C   UNL A   1      44.732  23.836  35.050  1.00  0.00     0.198 A 
ATOM     90  F   UNL A   1      42.992  25.096  34.158  1.00  0.00    -0.203 F 
ATOM     91  F   UNL A   1      48.237  23.638  34.192  1.00  0.00    -0.200 F 
ATOM     92  C   UNL A   1      46.053  23.435  35.062  1.00  0.00     0.200 A 
ATOM     93  F   UNL A   1      43.869  23.340  35.947  1.00  0.00    -0.200 F 
ATOM     94  F   UNL A   1      46.468  22.512  35.939  1.00  0.00    -0.200 F 
ENDBRANCH  61  84
ENDBRANCH  35  36
ENDBRANCH  28  30
ENDBRANCH  27  28
ENDBRANCH  26  27
ENDBRANCH  25  26
ENDBRANCH  24  25
ENDBRANCH   1  24
TORSDOF 17
ENDMDL
