MODEL 1
REMARK VINA RESULT:      -9.2      0.000      0.000
REMARK SMILES COc1cc(/C=C2/SC(=S)N(c3ccc(C)cc3C)C2=O)ccc1O[C@@H](C)C(=O)OCCOCCOC(=O)c1ccc(-c2c3nc(c(-c4c(F)c(F)c(F)c(F)c4F)c4ccc([nH]4)c(-c4c(F)c(F)c(F)c(F)c4F)c4nc(c(-c5c(F)c(F)c(F)c(F)c5F)c5ccc2[nH]5)C=C4)C=C3)cc1
REMARK SMILES IDX 32 1 31 2 30 3 28 4 29 5 26 6 27 7 25 8 24 9 3 10 4 11 5 12
REMARK SMILES IDX 23 13 22 14 2 15 1 16 6 17 7 18 8 19 20 20 9 21 11 22 21 23
REMARK SMILES IDX 10 24 12 25 13 26 18 27 14 28 17 29 19 30 15 31 16 32 33 33
REMARK SMILES IDX 34 34 35 35 36 36 37 37 38 38 39 39 40 40 101 41 41 42
REMARK SMILES IDX 100 43 42 44 43 45 44 46 94 47 45 48 99 49 93 50 95 51 46 52
REMARK SMILES IDX 98 53 92 54 91 55 47 57 79 58 59 59 78 60 60 61 63 62 77 63
REMARK SMILES IDX 96 64 61 65 62 66 76 68 97 69 64 70 48 71 49 72 57 73 50 74
REMARK SMILES IDX 51 75 55 76 58 77 52 78 53 79 56 80 54 81 80 82 81 83 89 84
REMARK SMILES IDX 82 85 83 86 87 87 90 88 84 89 85 90 88 91 86 92 65 93 66 94
REMARK SMILES IDX 74 95 67 96 68 97 72 98 75 99 69 100 70 101 73 102 71 103
REMARK H PARENT 95 56 63 67
REMARK Flexibility Score: inf
ROOT
ATOM      1  C   UNL A   1      34.389  34.529  31.949  1.00  0.00     0.202 C 
ENDROOT
BRANCH   1   2
ATOM      2  C   UNL A   1      34.173  33.410  32.966  1.00  0.00     0.261 C 
BRANCH   2   3
ATOM      3  O   UNL A   1      35.256  32.479  32.874  1.00  0.00    -0.461 OA
BRANCH   3   4
ATOM      4  C   UNL A   1      36.333  32.743  33.656  1.00  0.00     0.347 C 
ATOM      5  O   UNL A   1      36.278  32.975  34.858  1.00  0.00    -0.248 OA
BRANCH   4   6
ATOM      6  C   UNL A   1      37.641  32.553  32.863  1.00  0.00     0.279 C 
ATOM      7  C   UNL A   1      37.475  32.776  31.362  1.00  0.00     0.066 C 
BRANCH   6   8
ATOM      8  O   UNL A   1      38.572  31.519  33.109  1.00  0.00    -0.475 OA
BRANCH   8   9
ATOM      9  C   UNL A   1      39.549  31.538  34.054  1.00  0.00     0.162 A 
ATOM     10  C   UNL A   1      40.616  32.420  34.232  1.00  0.00     0.161 A 
ATOM     11  C   UNL A   1      41.665  32.088  35.119  1.00  0.00     0.058 A 
ATOM     12  C   UNL A   1      41.633  30.903  35.873  1.00  0.00    -0.020 A 
ATOM     13  C   UNL A   1      39.480  30.415  34.888  1.00  0.00     0.051 A 
ATOM     14  C   UNL A   1      40.485  30.116  35.810  1.00  0.00     0.012 A 
BRANCH  10  15
ATOM     15  O   UNL A   1      40.781  33.531  33.456  1.00  0.00    -0.493 OA
ATOM     16  C   UNL A   1      40.649  34.744  34.195  1.00  0.00     0.278 C 
ENDBRANCH  10  15
BRANCH  12  17
ATOM     17  C   UNL A   1      42.792  30.477  36.680  1.00  0.00     0.029 C 
ATOM     18  C   UNL A   1      43.485  29.328  36.551  1.00  0.00     0.081 C 
ATOM     19  S   UNL A   1      44.901  28.985  37.481  1.00  0.00    -0.054 SA
ATOM     20  C   UNL A   1      43.278  28.221  35.562  1.00  0.00     0.270 C 
ATOM     21  C   UNL A   1      45.364  27.601  36.481  1.00  0.00     0.152 C 
ATOM     22  N   UNL A   1      44.365  27.350  35.558  1.00  0.00    -0.261 N 
ATOM     23  O   UNL A   1      42.281  28.118  34.861  1.00  0.00    -0.268 OA
ATOM     24  S   UNL A   1      46.853  26.865  36.662  1.00  0.00    -0.051 S 
BRANCH  22  25
ATOM     25  C   UNL A   1      44.403  26.325  34.561  1.00  0.00     0.054 A 
ATOM     26  C   UNL A   1      44.779  26.701  33.260  1.00  0.00     0.027 A 
ATOM     27  C   UNL A   1      43.972  25.006  34.784  1.00  0.00    -0.027 A 
ATOM     28  C   UNL A   1      44.727  25.810  32.189  1.00  0.00     0.005 A 
ATOM     29  C   UNL A   1      43.940  24.107  33.693  1.00  0.00     0.009 A 
ATOM     30  C   UNL A   1      43.478  24.491  36.106  1.00  0.00     0.046 C 
ATOM     31  C   UNL A   1      44.295  24.504  32.396  1.00  0.00    -0.051 A 
ATOM     32  C   UNL A   1      44.153  23.576  31.226  1.00  0.00     0.044 C 
ENDBRANCH  22  25
ENDBRANCH  12  17
ENDBRANCH   8   9
ENDBRANCH   6   8
ENDBRANCH   4   6
ENDBRANCH   3   4
ENDBRANCH   2   3
ENDBRANCH   1   2
BRANCH   1  33
ATOM     33  O   UNL A   1      33.610  34.449  30.753  1.00  0.00    -0.374 OA
BRANCH  33  34
ATOM     34  C   UNL A   1      34.288  34.501  29.497  1.00  0.00     0.202 C 
BRANCH  34  35
ATOM     35  C   UNL A   1      34.235  33.247  28.614  1.00  0.00     0.261 C 
BRANCH  35  36
ATOM     36  O   UNL A   1      34.813  32.080  29.218  1.00  0.00    -0.460 OA
BRANCH  36  37
ATOM     37  C   UNL A   1      34.742  30.958  28.462  1.00  0.00     0.338 C 
ATOM     38  O   UNL A   1      33.807  30.593  27.768  1.00  0.00    -0.246 OA
BRANCH  37  39
ATOM     39  C   UNL A   1      36.005  30.188  28.532  1.00  0.00     0.060 A 
ATOM     40  C   UNL A   1      36.420  29.697  29.776  1.00  0.00     0.016 A 
ATOM     41  C   UNL A   1      36.844  30.078  27.425  1.00  0.00     0.016 A 
ATOM     42  C   UNL A   1      37.711  29.188  29.937  1.00  0.00     0.010 A 
ATOM     43  C   UNL A   1      38.143  29.599  27.593  1.00  0.00     0.010 A 
ATOM     44  C   UNL A   1      38.599  29.201  28.857  1.00  0.00    -0.014 A 
BRANCH  44  45
ATOM     45  C   UNL A   1      40.034  28.887  29.035  1.00  0.00     0.031 A 
ATOM     46  C   UNL A   1      40.965  29.931  29.587  1.00  0.00     0.074 A 
ATOM     47  C   UNL A   1      40.516  27.713  28.595  1.00  0.00     0.049 A 
ATOM     48  N   UNL A   1      42.260  29.874  29.768  1.00  0.00    -0.248 NA
ATOM     49  C   UNL A   1      40.361  31.219  29.956  1.00  0.00     0.031 C 
ATOM     50  C   UNL A   1      39.715  26.651  27.993  1.00  0.00     0.029 A 
ATOM     51  N   UNL A   1      41.800  27.232  28.564  1.00  0.00    -0.354 N 
ATOM     52  C   UNL A   1      42.633  31.125  30.247  1.00  0.00     0.074 A 
ATOM     53  C   UNL A   1      41.424  31.918  30.331  1.00  0.00     0.031 C 
ATOM     54  C   UNL A   1      40.529  25.644  27.635  1.00  0.00     0.029 A 
ATOM     55  C   UNL A   1      41.904  25.995  27.985  1.00  0.00     0.049 A 
ATOM     56  H   UNL A   1      42.570  27.728  28.924  1.00  0.00     0.167 HD
ATOM     57  C   UNL A   1      43.871  31.569  30.575  1.00  0.00     0.037 A 
ATOM     58  C   UNL A   1      42.988  25.228  27.767  1.00  0.00     0.037 A 
ATOM     59  C   UNL A   1      45.065  30.764  30.507  1.00  0.00     0.049 A 
ATOM     60  C   UNL A   1      44.338  25.706  28.228  1.00  0.00     0.074 A 
ATOM     61  C   UNL A   1      46.349  31.085  30.912  1.00  0.00     0.029 A 
ATOM     62  N   UNL A   1      45.122  29.480  29.985  1.00  0.00    -0.354 N 
ATOM     63  N   UNL A   1      44.666  26.850  28.777  1.00  0.00    -0.248 NA
ATOM     64  C   UNL A   1      45.464  24.777  28.059  1.00  0.00     0.031 C 
ATOM     65  C   UNL A   1      47.191  30.013  30.599  1.00  0.00     0.029 A 
ATOM     66  C   UNL A   1      46.421  29.001  30.047  1.00  0.00     0.049 A 
ATOM     67  H   UNL A   1      44.353  28.982  29.625  1.00  0.00     0.167 HD
ATOM     68  C   UNL A   1      46.025  26.766  29.050  1.00  0.00     0.074 A 
ATOM     69  C   UNL A   1      46.458  25.456  28.612  1.00  0.00     0.031 C 
ATOM     70  C   UNL A   1      46.838  27.693  29.615  1.00  0.00     0.037 A 
BRANCH  57  71
ATOM     71  C   UNL A   1      44.014  32.994  31.032  1.00  0.00     0.064 A 
ATOM     72  C   UNL A   1      44.007  34.064  30.126  1.00  0.00     0.173 A 
ATOM     73  C   UNL A   1      44.079  33.299  32.402  1.00  0.00     0.173 A 
ATOM     74  F   UNL A   1      43.942  33.832  28.806  1.00  0.00    -0.203 F 
ATOM     75  C   UNL A   1      44.084  35.382  30.570  1.00  0.00     0.198 A 
ATOM     76  C   UNL A   1      44.128  34.618  32.844  1.00  0.00     0.198 A 
ATOM     77  F   UNL A   1      44.063  32.316  33.316  1.00  0.00    -0.203 F 
ATOM     78  F   UNL A   1      44.106  36.387  29.683  1.00  0.00    -0.200 F 
ATOM     79  C   UNL A   1      44.135  35.658  31.928  1.00  0.00     0.200 A 
ATOM     80  F   UNL A   1      44.150  34.885  34.158  1.00  0.00    -0.200 F 
ATOM     81  F   UNL A   1      44.187  36.928  32.353  1.00  0.00    -0.200 F 
ENDBRANCH  57  71
BRANCH  58  82
ATOM     82  C   UNL A   1      42.823  23.895  27.141  1.00  0.00     0.064 A 
ATOM     83  C   UNL A   1      43.204  23.681  25.810  1.00  0.00     0.173 A 
ATOM     84  C   UNL A   1      42.311  22.807  27.862  1.00  0.00     0.173 A 
ATOM     85  F   UNL A   1      43.685  24.697  25.080  1.00  0.00    -0.203 F 
ATOM     86  C   UNL A   1      43.065  22.429  25.216  1.00  0.00     0.198 A 
ATOM     87  C   UNL A   1      42.195  21.549  27.273  1.00  0.00     0.198 A 
ATOM     88  F   UNL A   1      41.945  22.961  29.143  1.00  0.00    -0.203 F 
ATOM     89  F   UNL A   1      43.409  22.258  23.932  1.00  0.00    -0.200 F 
ATOM     90  C   UNL A   1      42.567  21.363  25.950  1.00  0.00     0.200 A 
ATOM     91  F   UNL A   1      41.727  20.517  27.989  1.00  0.00    -0.200 F 
ATOM     92  F   UNL A   1      42.444  20.156  25.381  1.00  0.00    -0.200 F 
ENDBRANCH  58  82
BRANCH  70  93
ATOM     93  C   UNL A   1      48.273  27.309  29.831  1.00  0.00     0.064 A 
ATOM     94  C   UNL A   1      48.711  26.737  31.035  1.00  0.00     0.173 A 
ATOM     95  C   UNL A   1      49.214  27.483  28.805  1.00  0.00     0.173 A 
ATOM     96  F   UNL A   1      47.852  26.563  32.051  1.00  0.00    -0.203 F 
ATOM     97  C   UNL A   1      50.045  26.378  31.213  1.00  0.00     0.198 A 
ATOM     98  C   UNL A   1      50.542  27.099  28.977  1.00  0.00     0.198 A 
ATOM     99  F   UNL A   1      48.846  28.021  27.633  1.00  0.00    -0.203 F 
ATOM    100  F   UNL A   1      50.451  25.878  32.388  1.00  0.00    -0.200 F 
ATOM    101  C   UNL A   1      50.957  26.554  30.183  1.00  0.00     0.200 A 
ATOM    102  F   UNL A   1      51.419  27.259  27.977  1.00  0.00    -0.200 F 
ATOM    103  F   UNL A   1      52.239  26.206  30.356  1.00  0.00    -0.200 F 
ENDBRANCH  70  93
ENDBRANCH  44  45
ENDBRANCH  37  39
ENDBRANCH  36  37
ENDBRANCH  35  36
ENDBRANCH  34  35
ENDBRANCH  33  34
ENDBRANCH   1  33
TORSDOF 19
ENDMDL
MODEL 2
REMARK VINA RESULT:      -9.0      6.106     11.512
REMARK SMILES COc1cc(/C=C2/SC(=S)N(c3ccc(C)cc3C)C2=O)ccc1O[C@@H](C)C(=O)OCCOCCOC(=O)c1ccc(-c2c3nc(c(-c4c(F)c(F)c(F)c(F)c4F)c4ccc([nH]4)c(-c4c(F)c(F)c(F)c(F)c4F)c4nc(c(-c5c(F)c(F)c(F)c(F)c5F)c5ccc2[nH]5)C=C4)C=C3)cc1
REMARK SMILES IDX 32 1 31 2 30 3 28 4 29 5 26 6 27 7 25 8 24 9 3 10 4 11 5 12
REMARK SMILES IDX 23 13 22 14 2 15 1 16 6 17 7 18 8 19 20 20 9 21 11 22 21 23
REMARK SMILES IDX 10 24 12 25 13 26 18 27 14 28 17 29 19 30 15 31 16 32 33 33
REMARK SMILES IDX 34 34 35 35 36 36 37 37 38 38 39 39 40 40 101 41 41 42
REMARK SMILES IDX 100 43 42 44 43 45 44 46 94 47 45 48 99 49 93 50 95 51 46 52
REMARK SMILES IDX 98 53 92 54 91 55 47 57 79 58 59 59 78 60 60 61 63 62 77 63
REMARK SMILES IDX 96 64 61 65 62 66 76 68 97 69 64 70 48 71 49 72 57 73 50 74
REMARK SMILES IDX 51 75 55 76 58 77 52 78 53 79 56 80 54 81 80 82 81 83 89 84
REMARK SMILES IDX 82 85 83 86 87 87 90 88 84 89 85 90 88 91 86 92 65 93 66 94
REMARK SMILES IDX 74 95 67 96 68 97 72 98 75 99 69 100 70 101 73 102 71 103
REMARK H PARENT 95 56 63 67
REMARK Flexibility Score: inf
ROOT
ATOM      1  C   UNL A   1      37.343  23.310  25.250  1.00  0.00     0.202 C 
ENDROOT
BRANCH   1   2
ATOM      2  C   UNL A   1      36.250  22.678  24.390  1.00  0.00     0.261 C 
BRANCH   2   3
ATOM      3  O   UNL A   1      35.345  21.963  25.236  1.00  0.00    -0.461 OA
BRANCH   3   4
ATOM      4  C   UNL A   1      35.226  20.633  24.989  1.00  0.00     0.347 C 
ATOM      5  O   UNL A   1      36.160  19.840  25.001  1.00  0.00    -0.248 OA
BRANCH   4   6
ATOM      6  C   UNL A   1      33.744  20.236  24.851  1.00  0.00     0.279 C 
ATOM      7  C   UNL A   1      33.502  18.738  25.011  1.00  0.00     0.066 C 
BRANCH   6   8
ATOM      8  O   UNL A   1      32.866  20.778  23.885  1.00  0.00    -0.475 OA
BRANCH   8   9
ATOM      9  C   UNL A   1      32.270  21.998  23.948  1.00  0.00     0.162 A 
ATOM     10  C   UNL A   1      31.343  22.503  24.861  1.00  0.00     0.161 A 
ATOM     11  C   UNL A   1      30.652  23.703  24.575  1.00  0.00     0.058 A 
ATOM     12  C   UNL A   1      30.918  24.433  23.405  1.00  0.00    -0.020 A 
ATOM     13  C   UNL A   1      32.599  22.790  22.840  1.00  0.00     0.051 A 
ATOM     14  C   UNL A   1      31.961  24.006  22.587  1.00  0.00     0.012 A 
BRANCH  10  15
ATOM     15  O   UNL A   1      30.944  21.798  25.961  1.00  0.00    -0.493 OA
ATOM     16  C   UNL A   1      30.157  22.578  26.859  1.00  0.00     0.278 C 
ENDBRANCH  10  15
BRANCH  12  17
ATOM     17  C   UNL A   1      30.095  25.597  23.026  1.00  0.00     0.029 C 
ATOM     18  C   UNL A   1      30.151  26.832  23.564  1.00  0.00     0.081 C 
ATOM     19  S   UNL A   1      29.214  28.154  22.961  1.00  0.00    -0.054 SA
ATOM     20  C   UNL A   1      31.058  27.338  24.645  1.00  0.00     0.270 C 
ATOM     21  C   UNL A   1      30.120  29.366  23.878  1.00  0.00     0.152 C 
ATOM     22  N   UNL A   1      31.013  28.728  24.720  1.00  0.00    -0.261 N 
ATOM     23  O   UNL A   1      31.739  26.609  25.352  1.00  0.00    -0.268 OA
ATOM     24  S   UNL A   1      29.904  30.999  23.598  1.00  0.00    -0.051 S 
BRANCH  22  25
ATOM     25  C   UNL A   1      31.936  29.386  25.592  1.00  0.00     0.054 A 
ATOM     26  C   UNL A   1      31.403  30.232  26.581  1.00  0.00     0.027 A 
ATOM     27  C   UNL A   1      33.332  29.327  25.436  1.00  0.00    -0.027 A 
ATOM     28  C   UNL A   1      32.216  31.017  27.398  1.00  0.00     0.005 A 
ATOM     29  C   UNL A   1      34.146  30.114  26.283  1.00  0.00     0.009 A 
ATOM     30  C   UNL A   1      34.030  28.520  24.378  1.00  0.00     0.046 C 
ATOM     31  C   UNL A   1      33.598  30.972  27.247  1.00  0.00    -0.051 A 
ATOM     32  C   UNL A   1      34.462  31.885  28.065  1.00  0.00     0.044 C 
ENDBRANCH  22  25
ENDBRANCH  12  17
ENDBRANCH   8   9
ENDBRANCH   6   8
ENDBRANCH   4   6
ENDBRANCH   3   4
ENDBRANCH   2   3
ENDBRANCH   1   2
BRANCH   1  33
ATOM     33  O   UNL A   1      37.890  22.480  26.280  1.00  0.00    -0.374 OA
BRANCH  33  34
ATOM     34  C   UNL A   1      39.229  22.008  26.131  1.00  0.00     0.202 C 
BRANCH  34  35
ATOM     35  C   UNL A   1      39.418  20.534  25.751  1.00  0.00     0.261 C 
BRANCH  35  36
ATOM     36  O   UNL A   1      40.253  19.798  26.657  1.00  0.00    -0.460 OA
BRANCH  36  37
ATOM     37  C   UNL A   1      41.513  19.574  26.210  1.00  0.00     0.338 C 
ATOM     38  O   UNL A   1      41.924  18.585  25.624  1.00  0.00    -0.246 OA
BRANCH  37  39
ATOM     39  C   UNL A   1      42.388  20.736  26.483  1.00  0.00     0.060 A 
ATOM     40  C   UNL A   1      42.558  21.148  27.811  1.00  0.00     0.016 A 
ATOM     41  C   UNL A   1      42.915  21.502  25.444  1.00  0.00     0.016 A 
ATOM     42  C   UNL A   1      43.164  22.375  28.095  1.00  0.00     0.010 A 
ATOM     43  C   UNL A   1      43.491  22.740  25.727  1.00  0.00     0.010 A 
ATOM     44  C   UNL A   1      43.572  23.204  27.047  1.00  0.00    -0.014 A 
BRANCH  44  45
ATOM     45  C   UNL A   1      44.006  24.598  27.290  1.00  0.00     0.031 A 
ATOM     46  C   UNL A   1      43.007  25.623  27.751  1.00  0.00     0.074 A 
ATOM     47  C   UNL A   1      45.263  24.964  26.988  1.00  0.00     0.049 A 
ATOM     48  N   UNL A   1      43.173  26.904  27.967  1.00  0.00    -0.248 NA
ATOM     49  C   UNL A   1      41.633  25.148  27.968  1.00  0.00     0.031 C 
ATOM     50  C   UNL A   1      46.298  24.066  26.483  1.00  0.00     0.029 A 
ATOM     51  N   UNL A   1      45.870  26.192  27.038  1.00  0.00    -0.354 N 
ATOM     52  C   UNL A   1      41.921  27.395  28.320  1.00  0.00     0.074 A 
ATOM     53  C   UNL A   1      41.007  26.272  28.292  1.00  0.00     0.031 C 
ATOM     54  C   UNL A   1      47.414  24.779  26.252  1.00  0.00     0.029 A 
ATOM     55  C   UNL A   1      47.166  26.177  26.595  1.00  0.00     0.049 A 
ATOM     56  H   UNL A   1      45.417  27.005  27.362  1.00  0.00     0.167 HD
ATOM     57  C   UNL A   1      41.570  28.667  28.629  1.00  0.00     0.037 A 
ATOM     58  C   UNL A   1      48.056  27.181  26.485  1.00  0.00     0.037 A 
ATOM     59  C   UNL A   1      42.493  29.775  28.674  1.00  0.00     0.049 A 
ATOM     60  C   UNL A   1      47.668  28.566  26.924  1.00  0.00     0.074 A 
ATOM     61  C   UNL A   1      42.259  31.079  29.073  1.00  0.00     0.029 A 
ATOM     62  N   UNL A   1      43.824  29.707  28.292  1.00  0.00    -0.354 N 
ATOM     63  N   UNL A   1      46.510  29.002  27.358  1.00  0.00    -0.248 NA
ATOM     64  C   UNL A   1      48.718  29.594  26.881  1.00  0.00     0.031 C 
ATOM     65  C   UNL A   1      43.438  31.812  28.894  1.00  0.00     0.029 A 
ATOM     66  C   UNL A   1      44.421  30.951  28.434  1.00  0.00     0.049 A 
ATOM     67  H   UNL A   1      44.279  28.897  27.969  1.00  0.00     0.167 HD
ATOM     68  C   UNL A   1      46.699  30.342  27.669  1.00  0.00     0.074 A 
ATOM     69  C   UNL A   1      48.085  30.646  27.383  1.00  0.00     0.031 C 
ATOM     70  C   UNL A   1      45.803  31.238  28.152  1.00  0.00     0.037 A 
BRANCH  57  71
ATOM     71  C   UNL A   1      40.126  28.949  28.936  1.00  0.00     0.064 A 
ATOM     72  C   UNL A   1      39.212  29.300  27.932  1.00  0.00     0.173 A 
ATOM     73  C   UNL A   1      39.631  28.787  30.241  1.00  0.00     0.173 A 
ATOM     74  F   UNL A   1      39.628  29.463  26.666  1.00  0.00    -0.203 F 
ATOM     75  C   UNL A   1      37.865  29.501  28.224  1.00  0.00     0.198 A 
ATOM     76  C   UNL A   1      38.280  28.963  30.526  1.00  0.00     0.198 A 
ATOM     77  F   UNL A   1      40.455  28.426  31.237  1.00  0.00    -0.203 F 
ATOM     78  F   UNL A   1      37.017  29.866  27.253  1.00  0.00    -0.200 F 
ATOM     79  C   UNL A   1      37.399  29.325  29.519  1.00  0.00     0.200 A 
ATOM     80  F   UNL A   1      37.825  28.765  31.771  1.00  0.00    -0.200 F 
ATOM     81  F   UNL A   1      36.099  29.498  29.793  1.00  0.00    -0.200 F 
ENDBRANCH  57  71
BRANCH  58  82
ATOM     82  C   UNL A   1      49.425  26.889  25.999  1.00  0.00     0.064 A 
ATOM     83  C   UNL A   1      49.751  27.050  24.646  1.00  0.00     0.173 A 
ATOM     84  C   UNL A   1      50.438  26.474  26.875  1.00  0.00     0.173 A 
ATOM     85  F   UNL A   1      48.808  27.432  23.772  1.00  0.00    -0.203 F 
ATOM     86  C   UNL A   1      51.037  26.792  24.181  1.00  0.00     0.198 A 
ATOM     87  C   UNL A   1      51.732  26.238  26.412  1.00  0.00     0.198 A 
ATOM     88  F   UNL A   1      50.178  26.319  28.181  1.00  0.00    -0.203 F 
ATOM     89  F   UNL A   1      51.315  26.924  22.877  1.00  0.00    -0.200 F 
ATOM     90  C   UNL A   1      52.028  26.392  25.066  1.00  0.00     0.200 A 
ATOM     91  F   UNL A   1      52.691  25.868  27.271  1.00  0.00    -0.200 F 
ATOM     92  F   UNL A   1      53.269  26.154  24.620  1.00  0.00    -0.200 F 
ENDBRANCH  58  82
BRANCH  70  93
ATOM     93  C   UNL A   1      46.303  32.624  28.442  1.00  0.00     0.064 A 
ATOM     94  C   UNL A   1      46.844  32.968  29.690  1.00  0.00     0.173 A 
ATOM     95  C   UNL A   1      46.271  33.609  27.444  1.00  0.00     0.173 A 
ATOM     96  F   UNL A   1      46.884  32.064  30.680  1.00  0.00    -0.203 F 
ATOM     97  C   UNL A   1      47.312  34.256  29.935  1.00  0.00     0.198 A 
ATOM     98  C   UNL A   1      46.764  34.889  27.685  1.00  0.00     0.198 A 
ATOM     99  F   UNL A   1      45.768  33.330  26.232  1.00  0.00    -0.203 F 
ATOM    100  F   UNL A   1      47.781  34.576  31.149  1.00  0.00    -0.200 F 
ATOM    101  C   UNL A   1      47.277  35.213  28.932  1.00  0.00     0.200 A 
ATOM    102  F   UNL A   1      46.739  35.809  26.711  1.00  0.00    -0.200 F 
ATOM    103  F   UNL A   1      47.729  36.452  29.170  1.00  0.00    -0.200 F 
ENDBRANCH  70  93
ENDBRANCH  44  45
ENDBRANCH  37  39
ENDBRANCH  36  37
ENDBRANCH  35  36
ENDBRANCH  34  35
ENDBRANCH  33  34
ENDBRANCH   1  33
TORSDOF 19
ENDMDL
MODEL 3
REMARK VINA RESULT:      -8.7      5.831     11.823
REMARK SMILES COc1cc(/C=C2/SC(=S)N(c3ccc(C)cc3C)C2=O)ccc1O[C@@H](C)C(=O)OCCOCCOC(=O)c1ccc(-c2c3nc(c(-c4c(F)c(F)c(F)c(F)c4F)c4ccc([nH]4)c(-c4c(F)c(F)c(F)c(F)c4F)c4nc(c(-c5c(F)c(F)c(F)c(F)c5F)c5ccc2[nH]5)C=C4)C=C3)cc1
REMARK SMILES IDX 32 1 31 2 30 3 28 4 29 5 26 6 27 7 25 8 24 9 3 10 4 11 5 12
REMARK SMILES IDX 23 13 22 14 2 15 1 16 6 17 7 18 8 19 20 20 9 21 11 22 21 23
REMARK SMILES IDX 10 24 12 25 13 26 18 27 14 28 17 29 19 30 15 31 16 32 33 33
REMARK SMILES IDX 34 34 35 35 36 36 37 37 38 38 39 39 40 40 101 41 41 42
REMARK SMILES IDX 100 43 42 44 43 45 44 46 94 47 45 48 99 49 93 50 95 51 46 52
REMARK SMILES IDX 98 53 92 54 91 55 47 57 79 58 59 59 78 60 60 61 63 62 77 63
REMARK SMILES IDX 96 64 61 65 62 66 76 68 97 69 64 70 48 71 49 72 57 73 50 74
REMARK SMILES IDX 51 75 55 76 58 77 52 78 53 79 56 80 54 81 80 82 81 83 89 84
REMARK SMILES IDX 82 85 83 86 87 87 90 88 84 89 85 90 88 91 86 92 65 93 66 94
REMARK SMILES IDX 74 95 67 96 68 97 72 98 75 99 69 100 70 101 73 102 71 103
REMARK H PARENT 95 56 63 67
REMARK Flexibility Score: inf
ROOT
ATOM      1  C   UNL A   1      38.119  23.364  26.315  1.00  0.00     0.202 C 
ENDROOT
BRANCH   1   2
ATOM      2  C   UNL A   1      36.757  23.112  25.672  1.00  0.00     0.261 C 
BRANCH   2   3
ATOM      3  O   UNL A   1      36.363  21.761  25.926  1.00  0.00    -0.461 OA
BRANCH   3   4
ATOM      4  C   UNL A   1      36.339  20.937  24.848  1.00  0.00     0.347 C 
ATOM      5  O   UNL A   1      37.144  20.979  23.924  1.00  0.00    -0.248 OA
BRANCH   4   6
ATOM      6  C   UNL A   1      35.266  19.845  25.021  1.00  0.00     0.279 C 
ATOM      7  C   UNL A   1      35.758  18.449  24.651  1.00  0.00     0.066 C 
BRANCH   6   8
ATOM      8  O   UNL A   1      33.910  20.003  24.657  1.00  0.00    -0.475 OA
BRANCH   8   9
ATOM      9  C   UNL A   1      33.243  21.185  24.569  1.00  0.00     0.162 A 
ATOM     10  C   UNL A   1      32.590  21.927  25.554  1.00  0.00     0.161 A 
ATOM     11  C   UNL A   1      31.730  22.987  25.186  1.00  0.00     0.058 A 
ATOM     12  C   UNL A   1      31.556  23.347  23.839  1.00  0.00    -0.020 A 
ATOM     13  C   UNL A   1      33.142  21.622  23.243  1.00  0.00     0.051 A 
ATOM     14  C   UNL A   1      32.341  22.707  22.882  1.00  0.00     0.012 A 
BRANCH  10  15
ATOM     15  O   UNL A   1      32.613  21.570  26.873  1.00  0.00    -0.493 OA
ATOM     16  C   UNL A   1      33.276  22.532  27.692  1.00  0.00     0.278 C 
ENDBRANCH  10  15
BRANCH  12  17
ATOM     17  C   UNL A   1      30.547  24.344  23.438  1.00  0.00     0.029 C 
ATOM     18  C   UNL A   1      30.464  25.622  23.860  1.00  0.00     0.081 C 
ATOM     19  S   UNL A   1      29.302  26.738  23.233  1.00  0.00    -0.054 SA
ATOM     20  C   UNL A   1      31.370  26.351  24.807  1.00  0.00     0.270 C 
ATOM     21  C   UNL A   1      30.091  28.146  23.957  1.00  0.00     0.152 C 
ATOM     22  N   UNL A   1      31.130  27.722  24.767  1.00  0.00    -0.261 N 
ATOM     23  O   UNL A   1      32.202  25.794  25.509  1.00  0.00    -0.268 OA
ATOM     24  S   UNL A   1      29.620  29.699  23.559  1.00  0.00    -0.051 S 
BRANCH  22  25
ATOM     25  C   UNL A   1      32.013  28.582  25.492  1.00  0.00     0.054 A 
ATOM     26  C   UNL A   1      31.564  29.077  26.729  1.00  0.00     0.027 A 
ATOM     27  C   UNL A   1      33.237  29.050  24.982  1.00  0.00    -0.027 A 
ATOM     28  C   UNL A   1      32.291  30.020  27.454  1.00  0.00     0.005 A 
ATOM     29  C   UNL A   1      33.973  29.993  25.736  1.00  0.00     0.009 A 
ATOM     30  C   UNL A   1      33.800  28.658  23.645  1.00  0.00     0.046 C 
ATOM     31  C   UNL A   1      33.499  30.495  26.957  1.00  0.00    -0.051 A 
ATOM     32  C   UNL A   1      34.231  31.576  27.696  1.00  0.00     0.044 C 
ENDBRANCH  22  25
ENDBRANCH  12  17
ENDBRANCH   8   9
ENDBRANCH   6   8
ENDBRANCH   4   6
ENDBRANCH   3   4
ENDBRANCH   2   3
ENDBRANCH   1   2
BRANCH   1  33
ATOM     33  O   UNL A   1      38.816  22.206  26.784  1.00  0.00    -0.374 OA
BRANCH  33  34
ATOM     34  C   UNL A   1      39.851  21.660  25.966  1.00  0.00     0.202 C 
BRANCH  34  35
ATOM     35  C   UNL A   1      39.924  20.132  25.848  1.00  0.00     0.261 C 
BRANCH  35  36
ATOM     36  O   UNL A   1      41.032  19.543  26.545  1.00  0.00    -0.460 OA
BRANCH  36  37
ATOM     37  C   UNL A   1      42.229  19.686  25.927  1.00  0.00     0.338 C 
ATOM     38  O   UNL A   1      42.713  18.959  25.075  1.00  0.00    -0.246 OA
BRANCH  37  39
ATOM     39  C   UNL A   1      42.922  20.912  26.387  1.00  0.00     0.060 A 
ATOM     40  C   UNL A   1      42.770  21.305  27.722  1.00  0.00     0.016 A 
ATOM     41  C   UNL A   1      43.586  21.745  25.488  1.00  0.00     0.016 A 
ATOM     42  C   UNL A   1      43.191  22.571  28.136  1.00  0.00     0.010 A 
ATOM     43  C   UNL A   1      43.978  23.020  25.893  1.00  0.00     0.010 A 
ATOM     44  C   UNL A   1      43.737  23.458  27.203  1.00  0.00    -0.014 A 
BRANCH  44  45
ATOM     45  C   UNL A   1      43.985  24.877  27.541  1.00  0.00     0.031 A 
ATOM     46  C   UNL A   1      45.397  25.383  27.654  1.00  0.00     0.074 A 
ATOM     47  C   UNL A   1      42.952  25.675  27.858  1.00  0.00     0.049 A 
ATOM     48  N   UNL A   1      45.827  26.572  27.993  1.00  0.00    -0.248 NA
ATOM     49  C   UNL A   1      46.465  24.411  27.378  1.00  0.00     0.031 C 
ATOM     50  C   UNL A   1      41.547  25.275  27.836  1.00  0.00     0.029 A 
ATOM     51  N   UNL A   1      42.930  26.977  28.284  1.00  0.00    -0.354 N 
ATOM     52  C   UNL A   1      47.215  26.488  27.997  1.00  0.00     0.074 A 
ATOM     53  C   UNL A   1      47.553  25.130  27.623  1.00  0.00     0.031 C 
ATOM     54  C   UNL A   1      40.797  26.309  28.249  1.00  0.00     0.029 A 
ATOM     55  C   UNL A   1      41.670  27.438  28.561  1.00  0.00     0.049 A 
ATOM     56  H   UNL A   1      43.741  27.527  28.381  1.00  0.00     0.167 HD
ATOM     57  C   UNL A   1      48.118  27.453  28.294  1.00  0.00     0.037 A 
ATOM     58  C   UNL A   1      41.266  28.641  29.011  1.00  0.00     0.037 A 
ATOM     59  C   UNL A   1      47.770  28.808  28.646  1.00  0.00     0.049 A 
ATOM     60  C   UNL A   1      42.283  29.724  29.242  1.00  0.00     0.074 A 
ATOM     61  C   UNL A   1      48.609  29.887  28.866  1.00  0.00     0.029 A 
ATOM     62  N   UNL A   1      46.475  29.264  28.842  1.00  0.00    -0.354 N 
ATOM     63  N   UNL A   1      43.589  29.668  29.142  1.00  0.00    -0.248 NA
ATOM     64  C   UNL A   1      41.768  31.046  29.628  1.00  0.00     0.031 C 
ATOM     65  C   UNL A   1      47.826  30.986  29.235  1.00  0.00     0.029 A 
ATOM     66  C   UNL A   1      46.494  30.605  29.193  1.00  0.00     0.049 A 
ATOM     67  H   UNL A   1      45.663  28.717  28.746  1.00  0.00     0.167 HD
ATOM     68  C   UNL A   1      44.049  30.948  29.418  1.00  0.00     0.074 A 
ATOM     69  C   UNL A   1      42.882  31.763  29.682  1.00  0.00     0.031 C 
ATOM     70  C   UNL A   1      45.325  31.406  29.446  1.00  0.00     0.037 A 
BRANCH  57  71
ATOM     71  C   UNL A   1      49.577  27.091  28.267  1.00  0.00     0.064 A 
ATOM     72  C   UNL A   1      50.259  26.688  29.424  1.00  0.00     0.173 A 
ATOM     73  C   UNL A   1      50.282  27.070  27.052  1.00  0.00     0.173 A 
ATOM     74  F   UNL A   1      49.634  26.684  30.611  1.00  0.00    -0.203 F 
ATOM     75  C   UNL A   1      51.597  26.301  29.371  1.00  0.00     0.198 A 
ATOM     76  C   UNL A   1      51.610  26.657  26.998  1.00  0.00     0.198 A 
ATOM     77  F   UNL A   1      49.672  27.421  25.909  1.00  0.00    -0.203 F 
ATOM     78  F   UNL A   1      52.236  25.949  30.495  1.00  0.00    -0.200 F 
ATOM     79  C   UNL A   1      52.268  26.278  28.157  1.00  0.00     0.200 A 
ATOM     80  F   UNL A   1      52.250  26.609  25.821  1.00  0.00    -0.200 F 
ATOM     81  F   UNL A   1      53.548  25.884  28.106  1.00  0.00    -0.200 F 
ENDBRANCH  57  71
BRANCH  58  82
ATOM     82  C   UNL A   1      39.819  28.898  29.201  1.00  0.00     0.064 A 
ATOM     83  C   UNL A   1      39.013  29.273  28.118  1.00  0.00     0.173 A 
ATOM     84  C   UNL A   1      39.209  28.749  30.454  1.00  0.00     0.173 A 
ATOM     85  F   UNL A   1      39.560  29.441  26.905  1.00  0.00    -0.203 F 
ATOM     86  C   UNL A   1      37.650  29.503  28.283  1.00  0.00     0.198 A 
ATOM     87  C   UNL A   1      37.840  28.957  30.613  1.00  0.00     0.198 A 
ATOM     88  F   UNL A   1      39.937  28.379  31.517  1.00  0.00    -0.203 F 
ATOM     89  F   UNL A   1      36.908  29.890  27.236  1.00  0.00    -0.200 F 
ATOM     90  C   UNL A   1      37.064  29.339  29.528  1.00  0.00     0.200 A 
ATOM     91  F   UNL A   1      37.273  28.783  31.815  1.00  0.00    -0.200 F 
ATOM     92  F   UNL A   1      35.750  29.551  29.685  1.00  0.00    -0.200 F 
ENDBRANCH  58  82
BRANCH  70  93
ATOM     93  C   UNL A   1      45.527  32.866  29.734  1.00  0.00     0.064 A 
ATOM     94  C   UNL A   1      45.544  33.825  28.710  1.00  0.00     0.173 A 
ATOM     95  C   UNL A   1      45.668  33.313  31.057  1.00  0.00     0.173 A 
ATOM     96  F   UNL A   1      45.427  33.446  27.429  1.00  0.00    -0.203 F 
ATOM     97  C   UNL A   1      45.722  35.175  28.999  1.00  0.00     0.198 A 
ATOM     98  C   UNL A   1      45.819  34.667  31.344  1.00  0.00     0.198 A 
ATOM     99  F   UNL A   1      45.653  32.437  32.072  1.00  0.00    -0.203 F 
ATOM    100  F   UNL A   1      45.783  36.069  28.002  1.00  0.00    -0.200 F 
ATOM    101  C   UNL A   1      45.853  35.596  30.314  1.00  0.00     0.200 A 
ATOM    102  F   UNL A   1      45.935  35.072  32.615  1.00  0.00    -0.200 F 
ATOM    103  F   UNL A   1      46.022  36.896  30.589  1.00  0.00    -0.200 F 
ENDBRANCH  70  93
ENDBRANCH  44  45
ENDBRANCH  37  39
ENDBRANCH  36  37
ENDBRANCH  35  36
ENDBRANCH  34  35
ENDBRANCH  33  34
ENDBRANCH   1  33
TORSDOF 19
ENDMDL
