MODEL 1
REMARK VINA RESULT:     -11.5      0.000      0.000
REMARK SMILES Cc1ccccc1CSc1cccc(C(=O)OCCOCCOC(=O)c2ccc(-c3c4nc(c(-c5c(F)c(F)c(F)c(F)c5F)c5ccc([nH]5)c(-c5c(F)c(F)c(F)c(F)c5F)c5nc(c(-c6c(F)c(F)c(F)c(F)c6F)c6ccc3[nH]6)C=C5)C=C4)cc2)n1
REMARK SMILES IDX 19 1 18 2 17 3 15 4 16 5 14 6 10 7 11 8 89 9 12 10 13 11
REMARK SMILES IDX 9 12 8 13 7 14 1 15 2 16 3 17 4 18 6 19 5 20 20 21 21 22
REMARK SMILES IDX 22 23 23 24 24 25 25 26 26 27 27 28 88 29 28 30 87 31 29 32
REMARK SMILES IDX 30 33 31 34 81 35 32 36 86 37 80 38 82 39 33 40 85 41 79 42
REMARK SMILES IDX 78 43 34 45 66 46 46 47 65 48 47 49 50 50 64 51 83 52 48 53
REMARK SMILES IDX 49 54 63 56 84 57 51 58 35 59 36 60 44 61 37 62 38 63 42 64
REMARK SMILES IDX 45 65 39 66 40 67 43 68 41 69 67 70 68 71 76 72 69 73 70 74
REMARK SMILES IDX 74 75 77 76 71 77 72 78 75 79 73 80 52 81 53 82 61 83 54 84
REMARK SMILES IDX 55 85 59 86 62 87 56 88 57 89 60 90 58 91
REMARK H PARENT 82 44 50 55
REMARK Flexibility Score: inf
ROOT
ATOM      1  C   UNL A   1      33.066  35.762  29.121  1.00  0.00     0.202 C 
ENDROOT
BRANCH   1   2
ATOM      2  C   UNL A   1      33.264  34.596  28.199  1.00  0.00     0.261 C 
BRANCH   2   3
ATOM      3  O   UNL A   1      33.834  33.474  28.900  1.00  0.00    -0.459 OA
BRANCH   3   4
ATOM      4  C   UNL A   1      35.016  32.943  28.450  1.00  0.00     0.357 C 
ATOM      5  O   UNL A   1      36.106  33.459  28.519  1.00  0.00    -0.244 OA
BRANCH   4   6
ATOM      6  C   UNL A   1      34.728  31.561  27.950  1.00  0.00     0.149 A 
ATOM      7  C   UNL A   1      33.344  30.216  26.678  1.00  0.00     0.097 A 
ATOM      8  C   UNL A   1      34.264  29.173  26.728  1.00  0.00     0.035 A 
ATOM      9  N   UNL A   1      33.565  31.403  27.271  1.00  0.00    -0.234 NA
ATOM     10  C   UNL A   1      35.444  29.342  27.445  1.00  0.00     0.005 A 
ATOM     11  C   UNL A   1      35.673  30.548  28.087  1.00  0.00     0.036 A 
BRANCH   7  12
ATOM     12  S   UNL A   1      31.767  29.941  25.897  1.00  0.00    -0.102 SA
BRANCH  12  13
ATOM     13  C   UNL A   1      32.230  28.821  24.534  1.00  0.00     0.112 C 
BRANCH  13  14
ATOM     14  C   UNL A   1      31.716  27.396  24.581  1.00  0.00    -0.035 A 
ATOM     15  C   UNL A   1      32.881  26.832  22.372  1.00  0.00     0.044 C 
ATOM     16  C   UNL A   1      32.020  26.474  23.553  1.00  0.00    -0.047 A 
ATOM     17  C   UNL A   1      31.466  25.181  23.595  1.00  0.00     0.004 A 
ATOM     18  C   UNL A   1      30.685  24.771  24.673  1.00  0.00     0.000 A 
ATOM     19  C   UNL A   1      30.971  26.939  25.686  1.00  0.00     0.005 A 
ATOM     20  C   UNL A   1      30.455  25.643  25.728  1.00  0.00     0.000 A 
ENDBRANCH  13  14
ENDBRANCH  12  13
ENDBRANCH   7  12
ENDBRANCH   4   6
ENDBRANCH   3   4
ENDBRANCH   2   3
ENDBRANCH   1   2
BRANCH   1  21
ATOM     21  O   UNL A   1      32.844  35.172  30.388  1.00  0.00    -0.374 OA
BRANCH  21  22
ATOM     22  C   UNL A   1      32.269  35.992  31.377  1.00  0.00     0.202 C 
BRANCH  22  23
ATOM     23  C   UNL A   1      33.156  37.181  31.749  1.00  0.00     0.261 C 
BRANCH  23  24
ATOM     24  O   UNL A   1      34.470  36.716  32.135  1.00  0.00    -0.460 OA
BRANCH  24  25
ATOM     25  C   UNL A   1      34.509  35.875  33.209  1.00  0.00     0.338 C 
ATOM     26  O   UNL A   1      34.260  36.197  34.359  1.00  0.00    -0.246 OA
BRANCH  25  27
ATOM     27  C   UNL A   1      35.164  34.590  32.827  1.00  0.00     0.060 A 
ATOM     28  C   UNL A   1      35.013  33.449  33.642  1.00  0.00     0.016 A 
ATOM     29  C   UNL A   1      36.187  34.636  31.887  1.00  0.00     0.016 A 
ATOM     30  C   UNL A   1      35.989  32.439  33.632  1.00  0.00     0.010 A 
ATOM     31  C   UNL A   1      37.213  33.726  31.996  1.00  0.00     0.010 A 
ATOM     32  C   UNL A   1      37.140  32.632  32.877  1.00  0.00    -0.014 A 
BRANCH  32  33
ATOM     33  C   UNL A   1      38.364  31.824  32.900  1.00  0.00     0.031 A 
ATOM     34  C   UNL A   1      38.353  30.586  32.080  1.00  0.00     0.074 A 
ATOM     35  C   UNL A   1      39.550  32.345  33.307  1.00  0.00     0.049 A 
ATOM     36  N   UNL A   1      39.348  29.782  31.974  1.00  0.00    -0.248 NA
ATOM     37  C   UNL A   1      37.196  30.126  31.314  1.00  0.00     0.031 C 
ATOM     38  C   UNL A   1      40.888  32.018  32.801  1.00  0.00     0.029 A 
ATOM     39  N   UNL A   1      39.837  33.346  34.253  1.00  0.00    -0.354 N 
ATOM     40  C   UNL A   1      39.124  28.962  30.894  1.00  0.00     0.074 A 
ATOM     41  C   UNL A   1      37.726  29.128  30.600  1.00  0.00     0.031 C 
ATOM     42  C   UNL A   1      41.824  32.523  33.625  1.00  0.00     0.029 A 
ATOM     43  C   UNL A   1      41.121  33.080  34.762  1.00  0.00     0.049 A 
ATOM     44  H   UNL A   1      39.249  34.092  34.510  1.00  0.00     0.167 HD
ATOM     45  C   UNL A   1      40.211  28.354  30.335  1.00  0.00     0.037 A 
ATOM     46  C   UNL A   1      41.319  32.810  36.078  1.00  0.00     0.037 A 
ATOM     47  C   UNL A   1      41.403  28.616  31.158  1.00  0.00     0.049 A 
ATOM     48  C   UNL A   1      41.893  31.432  36.192  1.00  0.00     0.074 A 
ATOM     49  C   UNL A   1      42.517  29.426  31.007  1.00  0.00     0.029 A 
ATOM     50  N   UNL A   1      41.381  28.238  32.501  1.00  0.00    -0.354 N 
ATOM     51  N   UNL A   1      41.685  30.514  35.286  1.00  0.00    -0.248 NA
ATOM     52  C   UNL A   1      42.841  31.015  37.215  1.00  0.00     0.031 C 
ATOM     53  C   UNL A   1      43.150  29.541  32.281  1.00  0.00     0.029 A 
ATOM     54  C   UNL A   1      42.432  28.791  33.202  1.00  0.00     0.049 A 
ATOM     55  H   UNL A   1      40.698  27.651  32.899  1.00  0.00     0.167 HD
ATOM     56  C   UNL A   1      42.536  29.473  35.497  1.00  0.00     0.074 A 
ATOM     57  C   UNL A   1      43.203  29.805  36.745  1.00  0.00     0.031 C 
ATOM     58  C   UNL A   1      42.656  28.448  34.604  1.00  0.00     0.037 A 
BRANCH  45  59
ATOM     59  C   UNL A   1      40.283  27.665  28.979  1.00  0.00     0.064 A 
ATOM     60  C   UNL A   1      39.655  26.410  28.789  1.00  0.00     0.173 A 
ATOM     61  C   UNL A   1      40.967  28.137  27.840  1.00  0.00     0.173 A 
ATOM     62  F   UNL A   1      38.939  25.830  29.762  1.00  0.00    -0.203 F 
ATOM     63  C   UNL A   1      39.734  25.692  27.589  1.00  0.00     0.198 A 
ATOM     64  C   UNL A   1      41.041  27.422  26.639  1.00  0.00     0.198 A 
ATOM     65  F   UNL A   1      41.592  29.313  27.812  1.00  0.00    -0.203 F 
ATOM     66  F   UNL A   1      39.128  24.501  27.488  1.00  0.00    -0.200 F 
ATOM     67  C   UNL A   1      40.429  26.198  26.513  1.00  0.00     0.200 A 
ATOM     68  F   UNL A   1      41.715  27.942  25.601  1.00  0.00    -0.200 F 
ATOM     69  F   UNL A   1      40.501  25.515  25.362  1.00  0.00    -0.200 F 
ENDBRANCH  45  59
BRANCH  46  70
ATOM     70  C   UNL A   1      40.324  33.521  36.934  1.00  0.00     0.064 A 
ATOM     71  C   UNL A   1      39.251  32.734  37.415  1.00  0.00     0.173 A 
ATOM     72  C   UNL A   1      40.697  34.632  37.704  1.00  0.00     0.173 A 
ATOM     73  F   UNL A   1      38.859  31.647  36.729  1.00  0.00    -0.203 F 
ATOM     74  C   UNL A   1      38.713  32.935  38.686  1.00  0.00     0.198 A 
ATOM     75  C   UNL A   1      40.147  34.833  38.977  1.00  0.00     0.198 A 
ATOM     76  F   UNL A   1      41.704  35.421  37.308  1.00  0.00    -0.203 F 
ATOM     77  F   UNL A   1      37.835  32.054  39.189  1.00  0.00    -0.200 F 
ATOM     78  C   UNL A   1      39.200  33.955  39.486  1.00  0.00     0.200 A 
ATOM     79  F   UNL A   1      40.620  35.810  39.764  1.00  0.00    -0.200 F 
ATOM     80  F   UNL A   1      38.813  34.043  40.768  1.00  0.00    -0.200 F 
ENDBRANCH  46  70
BRANCH  58  81
ATOM     81  C   UNL A   1      43.064  27.037  34.960  1.00  0.00     0.064 A 
ATOM     82  C   UNL A   1      42.158  25.975  35.116  1.00  0.00     0.173 A 
ATOM     83  C   UNL A   1      44.432  26.662  34.964  1.00  0.00     0.173 A 
ATOM     84  F   UNL A   1      40.836  26.146  34.998  1.00  0.00    -0.203 F 
ATOM     85  C   UNL A   1      42.581  24.664  35.334  1.00  0.00     0.198 A 
ATOM     86  C   UNL A   1      44.847  25.340  35.096  1.00  0.00     0.198 A 
ATOM     87  F   UNL A   1      45.421  27.551  34.798  1.00  0.00    -0.203 F 
ATOM     88  F   UNL A   1      41.668  23.704  35.535  1.00  0.00    -0.200 F 
ATOM     89  C   UNL A   1      43.922  24.343  35.305  1.00  0.00     0.200 A 
ATOM     90  F   UNL A   1      46.149  25.041  34.989  1.00  0.00    -0.200 F 
ATOM     91  F   UNL A   1      44.320  23.075  35.455  1.00  0.00    -0.200 F 
ENDBRANCH  58  81
ENDBRANCH  32  33
ENDBRANCH  25  27
ENDBRANCH  24  25
ENDBRANCH  23  24
ENDBRANCH  22  23
ENDBRANCH  21  22
ENDBRANCH   1  21
TORSDOF 17
ENDMDL
MODEL 2
REMARK VINA RESULT:     -11.2      3.591      6.027
REMARK SMILES Cc1ccccc1CSc1cccc(C(=O)OCCOCCOC(=O)c2ccc(-c3c4nc(c(-c5c(F)c(F)c(F)c(F)c5F)c5ccc([nH]5)c(-c5c(F)c(F)c(F)c(F)c5F)c5nc(c(-c6c(F)c(F)c(F)c(F)c6F)c6ccc3[nH]6)C=C5)C=C4)cc2)n1
REMARK SMILES IDX 19 1 18 2 17 3 15 4 16 5 14 6 10 7 11 8 89 9 12 10 13 11
REMARK SMILES IDX 9 12 8 13 7 14 1 15 2 16 3 17 4 18 6 19 5 20 20 21 21 22
REMARK SMILES IDX 22 23 23 24 24 25 25 26 26 27 27 28 88 29 28 30 87 31 29 32
REMARK SMILES IDX 30 33 31 34 81 35 32 36 86 37 80 38 82 39 33 40 85 41 79 42
REMARK SMILES IDX 78 43 34 45 66 46 46 47 65 48 47 49 50 50 64 51 83 52 48 53
REMARK SMILES IDX 49 54 63 56 84 57 51 58 35 59 36 60 44 61 37 62 38 63 42 64
REMARK SMILES IDX 45 65 39 66 40 67 43 68 41 69 67 70 68 71 76 72 69 73 70 74
REMARK SMILES IDX 74 75 77 76 71 77 72 78 75 79 73 80 52 81 53 82 61 83 54 84
REMARK SMILES IDX 55 85 59 86 62 87 56 88 57 89 60 90 58 91
REMARK H PARENT 82 44 50 55
REMARK Flexibility Score: inf
ROOT
ATOM      1  C   UNL A   1      32.909  29.141  23.708  1.00  0.00     0.202 C 
ENDROOT
BRANCH   1   2
ATOM      2  C   UNL A   1      32.754  27.659  23.878  1.00  0.00     0.261 C 
BRANCH   2   3
ATOM      3  O   UNL A   1      31.718  27.146  23.018  1.00  0.00    -0.459 OA
BRANCH   3   4
ATOM      4  C   UNL A   1      30.499  26.832  23.564  1.00  0.00     0.357 C 
ATOM      5  O   UNL A   1      29.477  27.466  23.447  1.00  0.00    -0.244 OA
BRANCH   4   6
ATOM      6  C   UNL A   1      30.637  25.507  24.246  1.00  0.00     0.149 A 
ATOM      7  C   UNL A   1      31.506  23.366  24.151  1.00  0.00     0.097 A 
ATOM      8  C   UNL A   1      31.222  23.161  25.498  1.00  0.00     0.035 A 
ATOM      9  N   UNL A   1      31.229  24.523  23.523  1.00  0.00    -0.234 NA
ATOM     10  C   UNL A   1      30.596  24.171  26.221  1.00  0.00     0.005 A 
ATOM     11  C   UNL A   1      30.277  25.357  25.582  1.00  0.00     0.036 A 
BRANCH   7  12
ATOM     12  S   UNL A   1      32.158  22.017  23.189  1.00  0.00    -0.102 SA
BRANCH  12  13
ATOM     13  C   UNL A   1      33.397  21.324  24.334  1.00  0.00     0.112 C 
BRANCH  13  14
ATOM     14  C   UNL A   1      34.650  22.135  24.598  1.00  0.00    -0.035 A 
ATOM     15  C   UNL A   1      34.301  21.972  27.129  1.00  0.00     0.044 C 
ATOM     16  C   UNL A   1      35.058  22.442  25.917  1.00  0.00    -0.047 A 
ATOM     17  C   UNL A   1      36.187  23.257  26.122  1.00  0.00     0.004 A 
ATOM     18  C   UNL A   1      36.953  23.703  25.046  1.00  0.00     0.000 A 
ATOM     19  C   UNL A   1      35.472  22.550  23.534  1.00  0.00     0.005 A 
ATOM     20  C   UNL A   1      36.607  23.332  23.755  1.00  0.00     0.000 A 
ENDBRANCH  13  14
ENDBRANCH  12  13
ENDBRANCH   7  12
ENDBRANCH   4   6
ENDBRANCH   3   4
ENDBRANCH   2   3
ENDBRANCH   1   2
BRANCH   1  21
ATOM     21  O   UNL A   1      32.581  29.674  24.978  1.00  0.00    -0.374 OA
BRANCH  21  22
ATOM     22  C   UNL A   1      33.208  29.087  26.093  1.00  0.00     0.202 C 
BRANCH  22  23
ATOM     23  C   UNL A   1      33.403  30.070  27.249  1.00  0.00     0.261 C 
BRANCH  23  24
ATOM     24  O   UNL A   1      34.457  31.006  26.927  1.00  0.00    -0.460 OA
BRANCH  24  25
ATOM     25  C   UNL A   1      35.302  31.321  27.950  1.00  0.00     0.338 C 
ATOM     26  O   UNL A   1      35.474  32.444  28.396  1.00  0.00    -0.246 OA
BRANCH  25  27
ATOM     27  C   UNL A   1      36.188  30.159  28.255  1.00  0.00     0.060 A 
ATOM     28  C   UNL A   1      36.245  29.638  29.564  1.00  0.00     0.016 A 
ATOM     29  C   UNL A   1      37.192  29.850  27.345  1.00  0.00     0.016 A 
ATOM     30  C   UNL A   1      37.391  28.956  30.004  1.00  0.00     0.010 A 
ATOM     31  C   UNL A   1      38.368  29.324  27.827  1.00  0.00     0.010 A 
ATOM     32  C   UNL A   1      38.492  28.889  29.159  1.00  0.00    -0.014 A 
BRANCH  32  33
ATOM     33  C   UNL A   1      39.844  28.431  29.496  1.00  0.00     0.031 A 
ATOM     34  C   UNL A   1      40.204  27.059  29.060  1.00  0.00     0.074 A 
ATOM     35  C   UNL A   1      40.829  29.308  29.823  1.00  0.00     0.049 A 
ATOM     36  N   UNL A   1      41.351  26.516  29.256  1.00  0.00    -0.248 NA
ATOM     37  C   UNL A   1      39.283  26.153  28.374  1.00  0.00     0.031 C 
ATOM     38  C   UNL A   1      42.261  29.191  29.526  1.00  0.00     0.029 A 
ATOM     39  N   UNL A   1      40.769  30.557  30.466  1.00  0.00    -0.354 N 
ATOM     40  C   UNL A   1      41.451  25.416  28.437  1.00  0.00     0.074 A 
ATOM     41  C   UNL A   1      40.102  25.162  28.010  1.00  0.00     0.031 C 
ATOM     42  C   UNL A   1      42.951  30.100  30.238  1.00  0.00     0.029 A 
ATOM     43  C   UNL A   1      42.001  30.747  31.120  1.00  0.00     0.049 A 
ATOM     44  H   UNL A   1      40.008  31.181  30.461  1.00  0.00     0.167 HD
ATOM     45  C   UNL A   1      42.707  24.963  28.151  1.00  0.00     0.037 A 
ATOM     46  C   UNL A   1      42.073  30.881  32.469  1.00  0.00     0.037 A 
ATOM     47  C   UNL A   1      43.696  25.706  28.949  1.00  0.00     0.049 A 
ATOM     48  C   UNL A   1      42.903  29.758  33.007  1.00  0.00     0.074 A 
ATOM     49  C   UNL A   1      44.624  26.692  28.655  1.00  0.00     0.029 A 
ATOM     50  N   UNL A   1      43.574  25.693  30.339  1.00  0.00    -0.354 N 
ATOM     51  N   UNL A   1      43.017  28.615  32.384  1.00  0.00    -0.248 NA
ATOM     52  C   UNL A   1      43.772  29.857  34.170  1.00  0.00     0.031 C 
ATOM     53  C   UNL A   1      45.043  27.279  29.887  1.00  0.00     0.029 A 
ATOM     54  C   UNL A   1      44.382  26.643  30.928  1.00  0.00     0.049 A 
ATOM     55  H   UNL A   1      42.984  25.083  30.837  1.00  0.00     0.167 HD
ATOM     56  C   UNL A   1      44.031  27.898  32.940  1.00  0.00     0.074 A 
ATOM     57  C   UNL A   1      44.440  28.691  34.088  1.00  0.00     0.031 C 
ATOM     58  C   UNL A   1      44.484  26.737  32.383  1.00  0.00     0.037 A 
BRANCH  45  59
ATOM     59  C   UNL A   1      43.103  23.985  27.053  1.00  0.00     0.064 A 
ATOM     60  C   UNL A   1      42.751  22.619  27.162  1.00  0.00     0.173 A 
ATOM     61  C   UNL A   1      43.850  24.290  25.896  1.00  0.00     0.173 A 
ATOM     62  F   UNL A   1      42.018  22.163  28.187  1.00  0.00    -0.203 F 
ATOM     63  C   UNL A   1      43.136  21.655  26.222  1.00  0.00     0.198 A 
ATOM     64  C   UNL A   1      44.229  23.328  24.953  1.00  0.00     0.198 A 
ATOM     65  F   UNL A   1      44.245  25.527  25.600  1.00  0.00    -0.203 F 
ATOM     66  F   UNL A   1      42.781  20.375  26.400  1.00  0.00    -0.200 F 
ATOM     67  C   UNL A   1      43.877  22.009  25.117  1.00  0.00     0.200 A 
ATOM     68  F   UNL A   1      44.942  23.701  23.879  1.00  0.00    -0.200 F 
ATOM     69  F   UNL A   1      44.243  21.090  24.213  1.00  0.00    -0.200 F 
ENDBRANCH  45  59
BRANCH  46  70
ATOM     70  C   UNL A   1      40.845  31.529  33.017  1.00  0.00     0.064 A 
ATOM     71  C   UNL A   1      40.715  32.915  32.763  1.00  0.00     0.173 A 
ATOM     72  C   UNL A   1      39.662  30.799  33.197  1.00  0.00     0.173 A 
ATOM     73  F   UNL A   1      41.812  33.665  32.566  1.00  0.00    -0.203 F 
ATOM     74  C   UNL A   1      39.471  33.496  32.514  1.00  0.00     0.198 A 
ATOM     75  C   UNL A   1      38.416  31.390  32.951  1.00  0.00     0.198 A 
ATOM     76  F   UNL A   1      39.711  29.483  33.441  1.00  0.00    -0.203 F 
ATOM     77  F   UNL A   1      39.399  34.766  32.086  1.00  0.00    -0.200 F 
ATOM     78  C   UNL A   1      38.327  32.718  32.558  1.00  0.00     0.200 A 
ATOM     79  F   UNL A   1      37.302  30.642  32.980  1.00  0.00    -0.200 F 
ATOM     80  F   UNL A   1      37.155  33.228  32.147  1.00  0.00    -0.200 F 
ENDBRANCH  46  70
BRANCH  58  81
ATOM     81  C   UNL A   1      45.127  25.606  33.150  1.00  0.00     0.064 A 
ATOM     82  C   UNL A   1      46.512  25.377  33.195  1.00  0.00     0.173 A 
ATOM     83  C   UNL A   1      44.361  24.814  34.043  1.00  0.00     0.173 A 
ATOM     84  F   UNL A   1      47.380  26.135  32.515  1.00  0.00    -0.203 F 
ATOM     85  C   UNL A   1      47.076  24.391  34.004  1.00  0.00     0.198 A 
ATOM     86  C   UNL A   1      44.937  23.891  34.911  1.00  0.00     0.198 A 
ATOM     87  F   UNL A   1      43.030  24.929  34.144  1.00  0.00    -0.203 F 
ATOM     88  F   UNL A   1      48.399  24.181  33.959  1.00  0.00    -0.200 F 
ATOM     89  C   UNL A   1      46.293  23.662  34.875  1.00  0.00     0.200 A 
ATOM     90  F   UNL A   1      44.167  23.249  35.801  1.00  0.00    -0.200 F 
ATOM     91  F   UNL A   1      46.847  22.759  35.692  1.00  0.00    -0.200 F 
ENDBRANCH  58  81
ENDBRANCH  32  33
ENDBRANCH  25  27
ENDBRANCH  24  25
ENDBRANCH  23  24
ENDBRANCH  22  23
ENDBRANCH  21  22
ENDBRANCH   1  21
TORSDOF 17
ENDMDL
MODEL 3
REMARK VINA RESULT:     -11.2      5.033     10.231
REMARK SMILES Cc1ccccc1CSc1cccc(C(=O)OCCOCCOC(=O)c2ccc(-c3c4nc(c(-c5c(F)c(F)c(F)c(F)c5F)c5ccc([nH]5)c(-c5c(F)c(F)c(F)c(F)c5F)c5nc(c(-c6c(F)c(F)c(F)c(F)c6F)c6ccc3[nH]6)C=C5)C=C4)cc2)n1
REMARK SMILES IDX 19 1 18 2 17 3 15 4 16 5 14 6 10 7 11 8 89 9 12 10 13 11
REMARK SMILES IDX 9 12 8 13 7 14 1 15 2 16 3 17 4 18 6 19 5 20 20 21 21 22
REMARK SMILES IDX 22 23 23 24 24 25 25 26 26 27 27 28 88 29 28 30 87 31 29 32
REMARK SMILES IDX 30 33 31 34 81 35 32 36 86 37 80 38 82 39 33 40 85 41 79 42
REMARK SMILES IDX 78 43 34 45 66 46 46 47 65 48 47 49 50 50 64 51 83 52 48 53
REMARK SMILES IDX 49 54 63 56 84 57 51 58 35 59 36 60 44 61 37 62 38 63 42 64
REMARK SMILES IDX 45 65 39 66 40 67 43 68 41 69 67 70 68 71 76 72 69 73 70 74
REMARK SMILES IDX 74 75 77 76 71 77 72 78 75 79 73 80 52 81 53 82 61 83 54 84
REMARK SMILES IDX 55 85 59 86 62 87 56 88 57 89 60 90 58 91
REMARK H PARENT 82 44 50 55
REMARK Flexibility Score: inf
ROOT
ATOM      1  C   UNL A   1      35.169  21.738  26.093  1.00  0.00     0.202 C 
ENDROOT
BRANCH   1   2
ATOM      2  C   UNL A   1      33.829  21.067  26.148  1.00  0.00     0.261 C 
BRANCH   2   3
ATOM      3  O   UNL A   1      32.764  22.036  26.108  1.00  0.00    -0.459 OA
BRANCH   3   4
ATOM      4  C   UNL A   1      32.451  22.723  27.253  1.00  0.00     0.357 C 
ATOM      5  O   UNL A   1      32.745  22.408  28.382  1.00  0.00    -0.244 OA
BRANCH   4   6
ATOM      6  C   UNL A   1      31.766  23.991  26.846  1.00  0.00     0.149 A 
ATOM      7  C   UNL A   1      32.012  26.194  26.188  1.00  0.00     0.097 A 
ATOM      8  C   UNL A   1      30.676  26.258  25.804  1.00  0.00     0.035 A 
ATOM      9  N   UNL A   1      32.564  25.078  26.697  1.00  0.00    -0.234 NA
ATOM     10  C   UNL A   1      29.864  25.143  25.983  1.00  0.00     0.005 A 
ATOM     11  C   UNL A   1      30.410  23.995  26.533  1.00  0.00     0.036 A 
BRANCH   7  12
ATOM     12  S   UNL A   1      33.006  27.670  26.110  1.00  0.00    -0.102 SA
BRANCH  12  13
ATOM     13  C   UNL A   1      33.664  27.571  24.411  1.00  0.00     0.112 C 
BRANCH  13  14
ATOM     14  C   UNL A   1      33.528  26.254  23.674  1.00  0.00    -0.035 A 
ATOM     15  C   UNL A   1      31.563  27.150  22.299  1.00  0.00     0.044 C 
ATOM     16  C   UNL A   1      32.529  26.066  22.691  1.00  0.00    -0.047 A 
ATOM     17  C   UNL A   1      32.388  24.806  22.078  1.00  0.00     0.004 A 
ATOM     18  C   UNL A   1      33.266  23.765  22.370  1.00  0.00     0.000 A 
ATOM     19  C   UNL A   1      34.437  25.204  23.908  1.00  0.00     0.005 A 
ATOM     20  C   UNL A   1      34.303  23.971  23.269  1.00  0.00     0.000 A 
ENDBRANCH  13  14
ENDBRANCH  12  13
ENDBRANCH   7  12
ENDBRANCH   4   6
ENDBRANCH   3   4
ENDBRANCH   2   3
ENDBRANCH   1   2
BRANCH   1  21
ATOM     21  O   UNL A   1      35.743  21.275  24.886  1.00  0.00    -0.374 OA
BRANCH  21  22
ATOM     22  C   UNL A   1      37.121  21.505  24.709  1.00  0.00     0.202 C 
BRANCH  22  23
ATOM     23  C   UNL A   1      37.708  22.429  25.778  1.00  0.00     0.261 C 
BRANCH  23  24
ATOM     24  O   UNL A   1      39.151  22.337  25.771  1.00  0.00    -0.460 OA
BRANCH  24  25
ATOM     25  C   UNL A   1      39.779  22.791  26.893  1.00  0.00     0.338 C 
ATOM     26  O   UNL A   1      40.228  22.083  27.779  1.00  0.00    -0.246 OA
BRANCH  25  27
ATOM     27  C   UNL A   1      39.591  24.267  27.021  1.00  0.00     0.060 A 
ATOM     28  C   UNL A   1      40.277  25.145  26.156  1.00  0.00     0.016 A 
ATOM     29  C   UNL A   1      39.038  24.752  28.201  1.00  0.00     0.016 A 
ATOM     30  C   UNL A   1      40.554  26.462  26.560  1.00  0.00     0.010 A 
ATOM     31  C   UNL A   1      39.446  25.985  28.652  1.00  0.00     0.010 A 
ATOM     32  C   UNL A   1      40.221  26.846  27.853  1.00  0.00    -0.014 A 
BRANCH  32  33
ATOM     33  C   UNL A   1      40.616  28.078  28.543  1.00  0.00     0.031 A 
ATOM     34  C   UNL A   1      39.605  29.164  28.586  1.00  0.00     0.074 A 
ATOM     35  C   UNL A   1      41.657  28.100  29.416  1.00  0.00     0.049 A 
ATOM     36  N   UNL A   1      39.783  30.295  29.168  1.00  0.00    -0.248 NA
ATOM     37  C   UNL A   1      38.291  29.080  27.950  1.00  0.00     0.031 C 
ATOM     38  C   UNL A   1      41.784  28.912  30.631  1.00  0.00     0.029 A 
ATOM     39  N   UNL A   1      42.845  27.348  29.446  1.00  0.00    -0.354 N 
ATOM     40  C   UNL A   1      38.557  30.899  29.316  1.00  0.00     0.074 A 
ATOM     41  C   UNL A   1      37.687  30.170  28.433  1.00  0.00     0.031 C 
ATOM     42  C   UNL A   1      43.052  28.869  31.078  1.00  0.00     0.029 A 
ATOM     43  C   UNL A   1      43.817  28.134  30.092  1.00  0.00     0.049 A 
ATOM     44  H   UNL A   1      42.973  26.443  29.083  1.00  0.00     0.167 HD
ATOM     45  C   UNL A   1      38.449  31.864  30.276  1.00  0.00     0.037 A 
ATOM     46  C   UNL A   1      44.950  28.527  29.454  1.00  0.00     0.037 A 
ATOM     47  C   UNL A   1      39.776  32.146  30.848  1.00  0.00     0.049 A 
ATOM     48  C   UNL A   1      44.966  30.023  29.407  1.00  0.00     0.074 A 
ATOM     49  C   UNL A   1      40.387  31.846  32.054  1.00  0.00     0.029 A 
ATOM     50  N   UNL A   1      40.799  32.550  29.988  1.00  0.00    -0.354 N 
ATOM     51  N   UNL A   1      43.869  30.733  29.444  1.00  0.00    -0.248 NA
ATOM     52  C   UNL A   1      46.170  30.838  29.467  1.00  0.00     0.031 C 
ATOM     53  C   UNL A   1      41.789  32.061  31.900  1.00  0.00     0.029 A 
ATOM     54  C   UNL A   1      42.030  32.503  30.608  1.00  0.00     0.049 A 
ATOM     55  H   UNL A   1      40.658  32.832  29.056  1.00  0.00     0.167 HD
ATOM     56  C   UNL A   1      44.185  32.037  29.668  1.00  0.00     0.074 A 
ATOM     57  C   UNL A   1      45.638  32.065  29.622  1.00  0.00     0.031 C 
ATOM     58  C   UNL A   1      43.229  32.978  29.920  1.00  0.00     0.037 A 
BRANCH  45  59
ATOM     59  C   UNL A   1      37.166  32.455  30.845  1.00  0.00     0.064 A 
ATOM     60  C   UNL A   1      36.344  33.274  30.034  1.00  0.00     0.173 A 
ATOM     61  C   UNL A   1      36.693  32.303  32.165  1.00  0.00     0.173 A 
ATOM     62  F   UNL A   1      36.633  33.501  28.746  1.00  0.00    -0.203 F 
ATOM     63  C   UNL A   1      35.185  33.900  30.510  1.00  0.00     0.198 A 
ATOM     64  C   UNL A   1      35.531  32.923  32.639  1.00  0.00     0.198 A 
ATOM     65  F   UNL A   1      37.310  31.543  33.067  1.00  0.00    -0.203 F 
ATOM     66  F   UNL A   1      34.465  34.677  29.689  1.00  0.00    -0.200 F 
ATOM     67  C   UNL A   1      34.779  33.725  31.814  1.00  0.00     0.200 A 
ATOM     68  F   UNL A   1      35.151  32.728  33.911  1.00  0.00    -0.200 F 
ATOM     69  F   UNL A   1      33.667  34.318  32.271  1.00  0.00    -0.200 F 
ENDBRANCH  45  59
BRANCH  46  70
ATOM     70  C   UNL A   1      45.378  27.520  28.439  1.00  0.00     0.064 A 
ATOM     71  C   UNL A   1      45.845  26.287  28.954  1.00  0.00     0.173 A 
ATOM     72  C   UNL A   1      44.815  27.503  27.155  1.00  0.00     0.173 A 
ATOM     73  F   UNL A   1      46.380  26.236  30.185  1.00  0.00    -0.203 F 
ATOM     74  C   UNL A   1      45.588  25.081  28.301  1.00  0.00     0.198 A 
ATOM     75  C   UNL A   1      44.565  26.289  26.502  1.00  0.00     0.198 A 
ATOM     76  F   UNL A   1      44.352  28.634  26.606  1.00  0.00    -0.203 F 
ATOM     77  F   UNL A   1      45.871  23.918  28.907  1.00  0.00    -0.200 F 
ATOM     78  C   UNL A   1      44.901  25.082  27.099  1.00  0.00     0.200 A 
ATOM     79  F   UNL A   1      43.890  26.278  25.343  1.00  0.00    -0.200 F 
ATOM     80  F   UNL A   1      44.497  23.922  26.558  1.00  0.00    -0.200 F 
ENDBRANCH  46  70
BRANCH  58  81
ATOM     81  C   UNL A   1      43.361  34.449  29.603  1.00  0.00     0.064 A 
ATOM     82  C   UNL A   1      43.508  35.451  30.576  1.00  0.00     0.173 A 
ATOM     83  C   UNL A   1      43.543  34.884  28.264  1.00  0.00     0.173 A 
ATOM     84  F   UNL A   1      43.501  35.176  31.886  1.00  0.00    -0.203 F 
ATOM     85  C   UNL A   1      43.739  36.785  30.240  1.00  0.00     0.198 A 
ATOM     86  C   UNL A   1      43.859  36.199  27.939  1.00  0.00     0.198 A 
ATOM     87  F   UNL A   1      43.465  34.047  27.221  1.00  0.00    -0.203 F 
ATOM     88  F   UNL A   1      43.811  37.705  31.211  1.00  0.00    -0.200 F 
ATOM     89  C   UNL A   1      43.934  37.156  28.925  1.00  0.00     0.200 A 
ATOM     90  F   UNL A   1      44.119  36.522  26.665  1.00  0.00    -0.200 F 
ATOM     91  F   UNL A   1      44.215  38.426  28.613  1.00  0.00    -0.200 F 
ENDBRANCH  58  81
ENDBRANCH  32  33
ENDBRANCH  25  27
ENDBRANCH  24  25
ENDBRANCH  23  24
ENDBRANCH  22  23
ENDBRANCH  21  22
ENDBRANCH   1  21
TORSDOF 17
ENDMDL
