MODEL 1
REMARK VINA RESULT:     -11.8      0.000      0.000
REMARK SMILES CCc1cccc(CC)c1N1/C(=[NH+]/C(=O)CCC(=O)OCCOCCOC(=O)c2ccc(-c3c4nc(c(-c5c(F)c(F)c(F)c(F)c5F)c5ccc([nH]5)c(-c5c(F)c(F)c(F)c(F)c5F)c5nc(c(-c6c(F)c(F)c(F)c(F)c6F)c6ccc3[nH]6)C=C5)C=C4)cc2)S[C@@H]2CS(=O)(=O)C[C@H]21
REMARK SMILES IDX 22 1 21 2 20 3 18 4 19 5 17 6 16 7 14 8 11 9 12 10 99 11
REMARK SMILES IDX 13 12 92 13 93 14 98 15 94 17 95 18 15 19 96 20 97 21 10 22
REMARK SMILES IDX 3 23 4 24 5 25 7 26 6 27 2 28 1 29 8 30 9 31 23 32 24 33
REMARK SMILES IDX 25 34 26 35 27 36 28 37 29 38 30 39 91 40 31 41 90 42 32 43
REMARK SMILES IDX 33 44 34 45 84 46 35 47 89 48 83 49 85 50 36 51 88 52 82 53
REMARK SMILES IDX 81 54 37 56 69 57 49 58 68 59 50 60 53 61 67 62 86 63 51 64
REMARK SMILES IDX 52 65 66 67 87 68 54 69 38 70 39 71 47 72 40 73 41 74 45 75
REMARK SMILES IDX 48 76 42 77 43 78 46 79 44 80 70 81 71 82 79 83 72 84 73 85
REMARK SMILES IDX 77 86 80 87 74 88 75 89 78 90 76 91 55 92 56 93 64 94 57 95
REMARK SMILES IDX 58 96 62 97 65 98 59 99 60 100 63 101 61 102
REMARK H PARENT 13 16 85 55 53 66
REMARK Flexibility Score: inf
ROOT
ATOM      1  C   UNL A   1      44.758  41.404  27.293  1.00  0.00     0.202 C 
ENDROOT
BRANCH   1   2
ATOM      2  C   UNL A   1      44.626  41.531  25.762  1.00  0.00     0.261 C 
BRANCH   2   3
ATOM      3  O   UNL A   1      43.760  42.619  25.400  1.00  0.00    -0.463 OA
BRANCH   3   4
ATOM      4  C   UNL A   1      42.877  42.414  24.397  1.00  0.00     0.306 C 
ATOM      5  O   UNL A   1      42.277  41.373  24.172  1.00  0.00    -0.252 OA
BRANCH   4   6
ATOM      6  C   UNL A   1      42.663  43.687  23.621  1.00  0.00     0.135 C 
BRANCH   6   7
ATOM      7  C   UNL A   1      42.156  43.350  22.235  1.00  0.00     0.139 C 
BRANCH   7   8
ATOM      8  C   UNL A   1      43.215  43.206  21.161  1.00  0.00     0.308 C 
ATOM      9  N   UNL A   1      45.082  45.473  18.832  1.00  0.00    -0.216 N 
ATOM     10  C   UNL A   1      44.620  44.517  19.837  1.00  0.00     0.319 C 
ATOM     11  C   UNL A   1      46.639  45.462  19.043  1.00  0.00     0.212 C 
ATOM     12  N   UNL A   1      43.467  44.322  20.373  1.00  0.00    -0.204 N 
ATOM     13  S   UNL A   1      45.995  43.527  20.521  1.00  0.00    -0.029 SA
ATOM     14  C   UNL A   1      47.060  43.983  19.206  1.00  0.00     0.120 C 
ATOM     15  C   UNL A   1      47.696  45.934  18.111  1.00  0.00     0.188 C 
ATOM     16  H   UNL A   1      42.748  44.977  20.221  1.00  0.00     0.316 HD
ATOM     17  C   UNL A   1      48.538  43.851  19.524  1.00  0.00     0.156 C 
ATOM     18  S   UNL A   1      49.249  45.225  18.665  1.00  0.00     0.155 S 
ATOM     19  O   UNL A   1      43.610  42.068  20.905  1.00  0.00    -0.247 OA
ATOM     20  O   UNL A   1      49.983  44.708  17.538  1.00  0.00    -0.229 OA
ATOM     21  O   UNL A   1      49.834  46.137  19.634  1.00  0.00    -0.229 OA
BRANCH   9  22
ATOM     22  C   UNL A   1      44.274  46.687  18.382  1.00  0.00     0.134 A 
ATOM     23  C   UNL A   1      43.072  46.391  17.668  1.00  0.00    -0.001 A 
ATOM     24  C   UNL A   1      42.126  47.417  17.354  1.00  0.00     0.008 A 
ATOM     25  C   UNL A   1      42.354  48.768  17.529  1.00  0.00     0.001 A 
ATOM     26  C   UNL A   1      44.535  48.258  18.554  1.00  0.00    -0.001 A 
ATOM     27  C   UNL A   1      43.544  49.173  18.061  1.00  0.00     0.008 A 
BRANCH  23  28
ATOM     28  C   UNL A   1      42.783  45.095  16.938  1.00  0.00     0.036 C 
ATOM     29  C   UNL A   1      41.645  44.235  17.425  1.00  0.00     0.009 C 
ENDBRANCH  23  28
BRANCH  26  30
ATOM     30  C   UNL A   1      45.485  49.380  19.368  1.00  0.00     0.036 C 
ATOM     31  C   UNL A   1      46.794  50.233  19.391  1.00  0.00     0.009 C 
ENDBRANCH  26  30
ENDBRANCH   9  22
ENDBRANCH   7   8
ENDBRANCH   6   7
ENDBRANCH   4   6
ENDBRANCH   3   4
ENDBRANCH   2   3
ENDBRANCH   1   2
BRANCH   1  32
ATOM     32  O   UNL A   1      43.713  40.801  28.066  1.00  0.00    -0.374 OA
BRANCH  32  33
ATOM     33  C   UNL A   1      43.951  39.432  28.428  1.00  0.00     0.202 C 
BRANCH  33  34
ATOM     34  C   UNL A   1      45.146  38.633  27.761  1.00  0.00     0.261 C 
BRANCH  34  35
ATOM     35  O   UNL A   1      44.917  37.778  26.568  1.00  0.00    -0.460 OA
BRANCH  35  36
ATOM     36  C   UNL A   1      45.754  36.684  26.344  1.00  0.00     0.338 C 
ATOM     37  O   UNL A   1      46.944  36.801  26.082  1.00  0.00    -0.246 OA
BRANCH  36  38
ATOM     38  C   UNL A   1      45.180  35.260  26.595  1.00  0.00     0.060 A 
ATOM     39  C   UNL A   1      45.354  34.603  27.801  1.00  0.00     0.016 A 
ATOM     40  C   UNL A   1      44.643  34.416  25.643  1.00  0.00     0.016 A 
ATOM     41  C   UNL A   1      45.216  33.278  28.159  1.00  0.00     0.010 A 
ATOM     42  C   UNL A   1      44.249  33.084  26.005  1.00  0.00     0.010 A 
ATOM     43  C   UNL A   1      44.502  32.529  27.298  1.00  0.00    -0.014 A 
BRANCH  43  44
ATOM     44  C   UNL A   1      44.155  31.174  27.752  1.00  0.00     0.031 A 
ATOM     45  C   UNL A   1      44.995  30.167  27.107  1.00  0.00     0.074 A 
ATOM     46  C   UNL A   1      43.317  30.803  28.749  1.00  0.00     0.049 A 
ATOM     47  N   UNL A   1      44.681  29.000  26.669  1.00  0.00    -0.248 NA
ATOM     48  C   UNL A   1      46.381  30.604  26.849  1.00  0.00     0.031 C 
ATOM     49  C   UNL A   1      42.821  31.592  29.875  1.00  0.00     0.029 A 
ATOM     50  N   UNL A   1      42.569  29.657  28.854  1.00  0.00    -0.354 N 
ATOM     51  C   UNL A   1      45.821  28.577  26.024  1.00  0.00     0.074 A 
ATOM     52  C   UNL A   1      46.777  29.657  26.021  1.00  0.00     0.031 C 
ATOM     53  C   UNL A   1      41.675  31.067  30.348  1.00  0.00     0.029 A 
ATOM     54  C   UNL A   1      41.416  29.853  29.604  1.00  0.00     0.049 A 
ATOM     55  H   UNL A   1      42.820  28.797  28.445  1.00  0.00     0.167 HD
ATOM     56  C   UNL A   1      46.024  27.339  25.543  1.00  0.00     0.037 A 
ATOM     57  C   UNL A   1      40.283  29.127  29.613  1.00  0.00     0.037 A 
ATOM     58  C   UNL A   1      45.015  26.332  25.686  1.00  0.00     0.049 A 
ATOM     59  C   UNL A   1      40.371  27.840  28.842  1.00  0.00     0.074 A 
ATOM     60  C   UNL A   1      44.996  25.036  25.229  1.00  0.00     0.029 A 
ATOM     61  N   UNL A   1      43.823  26.538  26.391  1.00  0.00    -0.354 N 
ATOM     62  N   UNL A   1      41.351  27.422  28.073  1.00  0.00    -0.248 NA
ATOM     63  C   UNL A   1      39.278  26.885  29.009  1.00  0.00     0.031 C 
ATOM     64  C   UNL A   1      43.782  24.469  25.638  1.00  0.00     0.029 A 
ATOM     65  C   UNL A   1      43.064  25.392  26.392  1.00  0.00     0.049 A 
ATOM     66  H   UNL A   1      43.566  27.384  26.823  1.00  0.00     0.167 HD
ATOM     67  C   UNL A   1      41.057  26.113  27.754  1.00  0.00     0.074 A 
ATOM     68  C   UNL A   1      39.769  25.830  28.373  1.00  0.00     0.031 C 
ATOM     69  C   UNL A   1      41.794  25.209  27.061  1.00  0.00     0.037 A 
BRANCH  56  70
ATOM     70  C   UNL A   1      47.332  27.119  24.864  1.00  0.00     0.064 A 
ATOM     71  C   UNL A   1      48.429  26.566  25.549  1.00  0.00     0.173 A 
ATOM     72  C   UNL A   1      47.547  27.624  23.577  1.00  0.00     0.173 A 
ATOM     73  F   UNL A   1      48.292  26.143  26.817  1.00  0.00    -0.203 F 
ATOM     74  C   UNL A   1      49.700  26.563  24.983  1.00  0.00     0.198 A 
ATOM     75  C   UNL A   1      48.812  27.583  22.998  1.00  0.00     0.198 A 
ATOM     76  F   UNL A   1      46.545  28.212  22.905  1.00  0.00    -0.203 F 
ATOM     77  F   UNL A   1      50.748  26.132  25.696  1.00  0.00    -0.200 F 
ATOM     78  C   UNL A   1      49.888  27.065  23.704  1.00  0.00     0.200 A 
ATOM     79  F   UNL A   1      48.999  28.086  21.770  1.00  0.00    -0.200 F 
ATOM     80  F   UNL A   1      51.114  27.076  23.165  1.00  0.00    -0.200 F 
ENDBRANCH  56  70
BRANCH  57  81
ATOM     81  C   UNL A   1      39.055  29.511  30.368  1.00  0.00     0.064 A 
ATOM     82  C   UNL A   1      38.142  30.437  29.843  1.00  0.00     0.173 A 
ATOM     83  C   UNL A   1      38.805  29.040  31.669  1.00  0.00     0.173 A 
ATOM     84  F   UNL A   1      38.343  30.949  28.620  1.00  0.00    -0.203 F 
ATOM     85  C   UNL A   1      37.052  30.897  30.589  1.00  0.00     0.198 A 
ATOM     86  C   UNL A   1      37.702  29.484  32.409  1.00  0.00     0.198 A 
ATOM     87  F   UNL A   1      39.661  28.187  32.249  1.00  0.00    -0.203 F 
ATOM     88  F   UNL A   1      36.239  31.831  30.076  1.00  0.00    -0.200 F 
ATOM     89  C   UNL A   1      36.833  30.420  31.871  1.00  0.00     0.200 A 
ATOM     90  F   UNL A   1      37.498  29.034  33.655  1.00  0.00    -0.200 F 
ATOM     91  F   UNL A   1      35.802  30.882  32.594  1.00  0.00    -0.200 F 
ENDBRANCH  57  81
BRANCH  69  92
ATOM     92  C   UNL A   1      41.249  23.824  27.034  1.00  0.00     0.064 A 
ATOM     93  C   UNL A   1      40.112  23.500  26.287  1.00  0.00     0.173 A 
ATOM     94  C   UNL A   1      41.937  22.802  27.704  1.00  0.00     0.173 A 
ATOM     95  F   UNL A   1      39.419  24.461  25.659  1.00  0.00    -0.203 F 
ATOM     96  C   UNL A   1      39.671  22.187  26.221  1.00  0.00     0.198 A 
ATOM     97  C   UNL A   1      41.518  21.486  27.598  1.00  0.00     0.198 A 
ATOM     98  F   UNL A   1      43.033  23.083  28.428  1.00  0.00    -0.203 F 
ATOM     99  F   UNL A   1      38.554  21.895  25.541  1.00  0.00    -0.200 F 
ATOM    100  C   UNL A   1      40.383  21.181  26.860  1.00  0.00     0.200 A 
ATOM    101  F   UNL A   1      42.218  20.513  28.195  1.00  0.00    -0.200 F 
ATOM    102  F   UNL A   1      39.971  19.910  26.766  1.00  0.00    -0.200 F 
ENDBRANCH  69  92
ENDBRANCH  43  44
ENDBRANCH  36  38
ENDBRANCH  35  36
ENDBRANCH  34  35
ENDBRANCH  33  34
ENDBRANCH  32  33
ENDBRANCH   1  32
TORSDOF 19
ENDMDL
MODEL 2
REMARK VINA RESULT:     -11.3      9.277     14.398
REMARK SMILES CCc1cccc(CC)c1N1/C(=[NH+]/C(=O)CCC(=O)OCCOCCOC(=O)c2ccc(-c3c4nc(c(-c5c(F)c(F)c(F)c(F)c5F)c5ccc([nH]5)c(-c5c(F)c(F)c(F)c(F)c5F)c5nc(c(-c6c(F)c(F)c(F)c(F)c6F)c6ccc3[nH]6)C=C5)C=C4)cc2)S[C@@H]2CS(=O)(=O)C[C@H]21
REMARK SMILES IDX 22 1 21 2 20 3 18 4 19 5 17 6 16 7 14 8 11 9 12 10 99 11
REMARK SMILES IDX 13 12 92 13 93 14 98 15 94 17 95 18 15 19 96 20 97 21 10 22
REMARK SMILES IDX 3 23 4 24 5 25 7 26 6 27 2 28 1 29 8 30 9 31 23 32 24 33
REMARK SMILES IDX 25 34 26 35 27 36 28 37 29 38 30 39 91 40 31 41 90 42 32 43
REMARK SMILES IDX 33 44 34 45 84 46 35 47 89 48 83 49 85 50 36 51 88 52 82 53
REMARK SMILES IDX 81 54 37 56 69 57 49 58 68 59 50 60 53 61 67 62 86 63 51 64
REMARK SMILES IDX 52 65 66 67 87 68 54 69 38 70 39 71 47 72 40 73 41 74 45 75
REMARK SMILES IDX 48 76 42 77 43 78 46 79 44 80 70 81 71 82 79 83 72 84 73 85
REMARK SMILES IDX 77 86 80 87 74 88 75 89 78 90 76 91 55 92 56 93 64 94 57 95
REMARK SMILES IDX 58 96 62 97 65 98 59 99 60 100 63 101 61 102
REMARK H PARENT 13 16 85 55 53 66
REMARK Flexibility Score: inf
ROOT
ATOM      1  C   UNL A   1      37.844  32.240  35.567  1.00  0.00     0.202 C 
ENDROOT
BRANCH   1   2
ATOM      2  C   UNL A   1      38.996  33.032  36.216  1.00  0.00     0.261 C 
BRANCH   2   3
ATOM      3  O   UNL A   1      40.234  32.825  35.515  1.00  0.00    -0.463 OA
BRANCH   3   4
ATOM      4  C   UNL A   1      40.988  31.761  35.869  1.00  0.00     0.306 C 
ATOM      5  O   UNL A   1      41.077  31.289  36.993  1.00  0.00    -0.252 OA
BRANCH   4   6
ATOM      6  C   UNL A   1      41.660  31.169  34.658  1.00  0.00     0.135 C 
BRANCH   6   7
ATOM      7  C   UNL A   1      40.649  30.371  33.864  1.00  0.00     0.139 C 
BRANCH   7   8
ATOM      8  C   UNL A   1      40.953  28.895  33.702  1.00  0.00     0.308 C 
ATOM      9  N   UNL A   1      43.998  26.757  33.247  1.00  0.00    -0.216 N 
ATOM     10  C   UNL A   1      42.768  27.429  33.664  1.00  0.00     0.319 C 
ATOM     11  C   UNL A   1      44.222  25.713  34.398  1.00  0.00     0.212 C 
ATOM     12  N   UNL A   1      42.248  28.556  33.329  1.00  0.00    -0.204 N 
ATOM     13  S   UNL A   1      41.913  26.521  34.999  1.00  0.00    -0.029 SA
ATOM     14  C   UNL A   1      42.847  25.070  34.695  1.00  0.00     0.120 C 
ATOM     15  C   UNL A   1      45.081  24.501  34.385  1.00  0.00     0.188 C 
ATOM     16  H   UNL A   1      42.777  29.193  32.797  1.00  0.00     0.316 HD
ATOM     17  C   UNL A   1      42.917  24.113  35.871  1.00  0.00     0.156 C 
ATOM     18  S   UNL A   1      44.558  23.462  35.752  1.00  0.00     0.155 S 
ATOM     19  O   UNL A   1      39.996  28.119  33.682  1.00  0.00    -0.247 OA
ATOM     20  O   UNL A   1      44.459  22.092  35.319  1.00  0.00    -0.229 OA
ATOM     21  O   UNL A   1      45.313  23.863  36.929  1.00  0.00    -0.229 OA
BRANCH   9  22
ATOM     22  C   UNL A   1      45.115  27.444  32.466  1.00  0.00     0.134 A 
ATOM     23  C   UNL A   1      45.496  26.798  31.249  1.00  0.00    -0.001 A 
ATOM     24  C   UNL A   1      46.391  27.427  30.326  1.00  0.00     0.008 A 
ATOM     25  C   UNL A   1      47.099  28.583  30.591  1.00  0.00     0.001 A 
ATOM     26  C   UNL A   1      45.963  28.769  32.769  1.00  0.00    -0.001 A 
ATOM     27  C   UNL A   1      46.928  29.199  31.797  1.00  0.00     0.008 A 
BRANCH  23  28
ATOM     28  C   UNL A   1      45.257  25.339  30.917  1.00  0.00     0.036 C 
ATOM     29  C   UNL A   1      44.852  24.979  29.510  1.00  0.00     0.009 C 
ENDBRANCH  23  28
BRANCH  26  30
ATOM     30  C   UNL A   1      46.023  30.126  33.757  1.00  0.00     0.036 C 
ATOM     31  C   UNL A   1      45.458  30.878  35.005  1.00  0.00     0.009 C 
ENDBRANCH  26  30
ENDBRANCH   9  22
ENDBRANCH   7   8
ENDBRANCH   6   7
ENDBRANCH   4   6
ENDBRANCH   3   4
ENDBRANCH   2   3
ENDBRANCH   1   2
BRANCH   1  32
ATOM     32  O   UNL A   1      36.650  32.909  35.140  1.00  0.00    -0.374 OA
BRANCH  32  33
ATOM     33  C   UNL A   1      36.545  33.096  33.721  1.00  0.00     0.202 C 
BRANCH  33  34
ATOM     34  C   UNL A   1      35.119  33.200  33.039  1.00  0.00     0.261 C 
BRANCH  34  35
ATOM     35  O   UNL A   1      34.673  32.187  32.047  1.00  0.00    -0.460 OA
BRANCH  35  36
ATOM     36  C   UNL A   1      35.053  32.330  30.712  1.00  0.00     0.338 C 
ATOM     37  O   UNL A   1      34.524  33.130  29.953  1.00  0.00    -0.246 OA
BRANCH  36  38
ATOM     38  C   UNL A   1      36.306  31.548  30.221  1.00  0.00     0.060 A 
ATOM     39  C   UNL A   1      37.054  30.756  31.073  1.00  0.00     0.016 A 
ATOM     40  C   UNL A   1      36.935  31.698  29.000  1.00  0.00     0.016 A 
ATOM     41  C   UNL A   1      38.324  30.228  30.966  1.00  0.00     0.010 A 
ATOM     42  C   UNL A   1      38.149  30.982  28.728  1.00  0.00     0.010 A 
ATOM     43  C   UNL A   1      38.824  30.201  29.717  1.00  0.00    -0.014 A 
BRANCH  43  44
ATOM     44  C   UNL A   1      40.077  29.453  29.536  1.00  0.00     0.031 A 
ATOM     45  C   UNL A   1      41.237  30.339  29.589  1.00  0.00     0.074 A 
ATOM     46  C   UNL A   1      40.265  28.112  29.494  1.00  0.00     0.049 A 
ATOM     47  N   UNL A   1      42.314  30.319  28.888  1.00  0.00    -0.248 NA
ATOM     48  C   UNL A   1      41.098  31.470  30.529  1.00  0.00     0.031 C 
ATOM     49  C   UNL A   1      39.388  27.045  29.973  1.00  0.00     0.029 A 
ATOM     50  N   UNL A   1      41.231  27.406  28.821  1.00  0.00    -0.354 N 
ATOM     51  C   UNL A   1      42.965  31.475  29.257  1.00  0.00     0.074 A 
ATOM     52  C   UNL A   1      42.106  32.225  30.141  1.00  0.00     0.031 C 
ATOM     53  C   UNL A   1      39.664  25.891  29.338  1.00  0.00     0.029 A 
ATOM     54  C   UNL A   1      40.799  26.132  28.473  1.00  0.00     0.049 A 
ATOM     55  H   UNL A   1      42.125  27.761  28.609  1.00  0.00     0.167 HD
ATOM     56  C   UNL A   1      44.219  31.804  28.904  1.00  0.00     0.037 A 
ATOM     57  C   UNL A   1      41.274  25.313  27.516  1.00  0.00     0.037 A 
ATOM     58  C   UNL A   1      44.994  30.922  28.083  1.00  0.00     0.049 A 
ATOM     59  C   UNL A   1      42.552  25.785  26.882  1.00  0.00     0.074 A 
ATOM     60  C   UNL A   1      46.259  31.085  27.570  1.00  0.00     0.029 A 
ATOM     61  N   UNL A   1      44.544  29.660  27.678  1.00  0.00    -0.354 N 
ATOM     62  N   UNL A   1      43.166  26.935  27.053  1.00  0.00    -0.248 NA
ATOM     63  C   UNL A   1      43.259  24.839  26.021  1.00  0.00     0.031 C 
ATOM     64  C   UNL A   1      46.561  29.931  26.835  1.00  0.00     0.029 A 
ATOM     65  C   UNL A   1      45.509  29.026  26.930  1.00  0.00     0.049 A 
ATOM     66  H   UNL A   1      43.663  29.281  27.898  1.00  0.00     0.167 HD
ATOM     67  C   UNL A   1      44.385  26.816  26.421  1.00  0.00     0.074 A 
ATOM     68  C   UNL A   1      44.394  25.493  25.813  1.00  0.00     0.031 C 
ATOM     69  C   UNL A   1      45.423  27.690  26.383  1.00  0.00     0.037 A 
BRANCH  56  70
ATOM     70  C   UNL A   1      44.706  33.117  29.410  1.00  0.00     0.064 A 
ATOM     71  C   UNL A   1      45.347  33.231  30.656  1.00  0.00     0.173 A 
ATOM     72  C   UNL A   1      44.376  34.295  28.731  1.00  0.00     0.173 A 
ATOM     73  F   UNL A   1      45.611  32.133  31.384  1.00  0.00    -0.203 F 
ATOM     74  C   UNL A   1      45.603  34.477  31.220  1.00  0.00     0.198 A 
ATOM     75  C   UNL A   1      44.670  35.540  29.280  1.00  0.00     0.198 A 
ATOM     76  F   UNL A   1      43.714  34.242  27.565  1.00  0.00    -0.203 F 
ATOM     77  F   UNL A   1      46.114  34.559  32.456  1.00  0.00    -0.200 F 
ATOM     78  C   UNL A   1      45.272  35.630  30.527  1.00  0.00     0.200 A 
ATOM     79  F   UNL A   1      44.332  36.657  28.620  1.00  0.00    -0.200 F 
ATOM     80  F   UNL A   1      45.505  36.830  31.076  1.00  0.00    -0.200 F 
ENDBRANCH  56  70
BRANCH  57  81
ATOM     81  C   UNL A   1      40.643  24.013  27.146  1.00  0.00     0.064 A 
ATOM     82  C   UNL A   1      41.326  22.801  27.323  1.00  0.00     0.173 A 
ATOM     83  C   UNL A   1      39.385  23.948  26.521  1.00  0.00     0.173 A 
ATOM     84  F   UNL A   1      42.545  22.800  27.884  1.00  0.00    -0.203 F 
ATOM     85  C   UNL A   1      40.799  21.588  26.870  1.00  0.00     0.198 A 
ATOM     86  C   UNL A   1      38.846  22.731  26.086  1.00  0.00     0.198 A 
ATOM     87  F   UNL A   1      38.698  25.073  26.280  1.00  0.00    -0.203 F 
ATOM     88  F   UNL A   1      41.511  20.460  27.000  1.00  0.00    -0.200 F 
ATOM     89  C   UNL A   1      39.559  21.554  26.252  1.00  0.00     0.200 A 
ATOM     90  F   UNL A   1      37.654  22.700  25.473  1.00  0.00    -0.200 F 
ATOM     91  F   UNL A   1      39.067  20.393  25.795  1.00  0.00    -0.200 F 
ENDBRANCH  57  81
BRANCH  69  92
ATOM     92  C   UNL A   1      46.665  27.180  25.739  1.00  0.00     0.064 A 
ATOM     93  C   UNL A   1      47.006  27.531  24.430  1.00  0.00     0.173 A 
ATOM     94  C   UNL A   1      47.556  26.399  26.489  1.00  0.00     0.173 A 
ATOM     95  F   UNL A   1      46.161  28.254  23.681  1.00  0.00    -0.203 F 
ATOM     96  C   UNL A   1      48.206  27.102  23.881  1.00  0.00     0.198 A 
ATOM     97  C   UNL A   1      48.773  26.011  25.952  1.00  0.00     0.198 A 
ATOM     98  F   UNL A   1      47.256  26.047  27.749  1.00  0.00    -0.203 F 
ATOM     99  F   UNL A   1      48.501  27.405  22.611  1.00  0.00    -0.200 F 
ATOM    100  C   UNL A   1      49.094  26.359  24.648  1.00  0.00     0.200 A 
ATOM    101  F   UNL A   1      49.639  25.314  26.698  1.00  0.00    -0.200 F 
ATOM    102  F   UNL A   1      50.266  25.975  24.125  1.00  0.00    -0.200 F 
ENDBRANCH  69  92
ENDBRANCH  43  44
ENDBRANCH  36  38
ENDBRANCH  35  36
ENDBRANCH  34  35
ENDBRANCH  33  34
ENDBRANCH  32  33
ENDBRANCH   1  32
TORSDOF 19
ENDMDL
MODEL 3
REMARK VINA RESULT:     -10.7      1.725      2.887
REMARK SMILES CCc1cccc(CC)c1N1/C(=[NH+]/C(=O)CCC(=O)OCCOCCOC(=O)c2ccc(-c3c4nc(c(-c5c(F)c(F)c(F)c(F)c5F)c5ccc([nH]5)c(-c5c(F)c(F)c(F)c(F)c5F)c5nc(c(-c6c(F)c(F)c(F)c(F)c6F)c6ccc3[nH]6)C=C5)C=C4)cc2)S[C@@H]2CS(=O)(=O)C[C@H]21
REMARK SMILES IDX 22 1 21 2 20 3 18 4 19 5 17 6 16 7 14 8 11 9 12 10 99 11
REMARK SMILES IDX 13 12 92 13 93 14 98 15 94 17 95 18 15 19 96 20 97 21 10 22
REMARK SMILES IDX 3 23 4 24 5 25 7 26 6 27 2 28 1 29 8 30 9 31 23 32 24 33
REMARK SMILES IDX 25 34 26 35 27 36 28 37 29 38 30 39 91 40 31 41 90 42 32 43
REMARK SMILES IDX 33 44 34 45 84 46 35 47 89 48 83 49 85 50 36 51 88 52 82 53
REMARK SMILES IDX 81 54 37 56 69 57 49 58 68 59 50 60 53 61 67 62 86 63 51 64
REMARK SMILES IDX 52 65 66 67 87 68 54 69 38 70 39 71 47 72 40 73 41 74 45 75
REMARK SMILES IDX 48 76 42 77 43 78 46 79 44 80 70 81 71 82 79 83 72 84 73 85
REMARK SMILES IDX 77 86 80 87 74 88 75 89 78 90 76 91 55 92 56 93 64 94 57 95
REMARK SMILES IDX 58 96 62 97 65 98 59 99 60 100 63 101 61 102
REMARK H PARENT 13 16 85 55 53 66
REMARK Flexibility Score: inf
ROOT
ATOM      1  C   UNL A   1      45.597  42.610  28.215  1.00  0.00     0.202 C 
ENDROOT
BRANCH   1   2
ATOM      2  C   UNL A   1      44.971  42.931  26.843  1.00  0.00     0.261 C 
BRANCH   2   3
ATOM      3  O   UNL A   1      45.241  44.287  26.450  1.00  0.00    -0.463 OA
BRANCH   3   4
ATOM      4  C   UNL A   1      46.484  44.579  26.005  1.00  0.00     0.306 C 
ATOM      5  O   UNL A   1      47.241  45.406  26.491  1.00  0.00    -0.252 OA
BRANCH   4   6
ATOM      6  C   UNL A   1      46.855  43.678  24.857  1.00  0.00     0.135 C 
BRANCH   6   7
ATOM      7  C   UNL A   1      47.104  44.516  23.622  1.00  0.00     0.139 C 
BRANCH   7   8
ATOM      8  C   UNL A   1      45.881  44.847  22.790  1.00  0.00     0.308 C 
ATOM      9  N   UNL A   1      45.164  46.555  19.532  1.00  0.00    -0.216 N 
ATOM     10  C   UNL A   1      45.313  45.659  20.678  1.00  0.00     0.319 C 
ATOM     11  C   UNL A   1      44.474  45.630  18.466  1.00  0.00     0.212 C 
ATOM     12  N   UNL A   1      46.065  45.713  21.720  1.00  0.00    -0.204 N 
ATOM     13  S   UNL A   1      44.322  44.136  20.488  1.00  0.00    -0.029 SA
ATOM     14  C   UNL A   1      43.365  44.845  19.203  1.00  0.00     0.120 C 
ATOM     15  C   UNL A   1      43.740  46.032  17.238  1.00  0.00     0.188 C 
ATOM     16  H   UNL A   1      46.786  46.383  21.760  1.00  0.00     0.316 HD
ATOM     17  C   UNL A   1      42.693  43.833  18.292  1.00  0.00     0.156 C 
ATOM     18  S   UNL A   1      42.775  44.616  16.707  1.00  0.00     0.155 S 
ATOM     19  O   UNL A   1      44.783  44.523  23.245  1.00  0.00    -0.247 OA
ATOM     20  O   UNL A   1      41.442  45.033  16.353  1.00  0.00    -0.229 OA
ATOM     21  O   UNL A   1      43.609  43.813  15.826  1.00  0.00    -0.229 OA
BRANCH   9  22
ATOM     22  C   UNL A   1      46.140  47.681  19.205  1.00  0.00     0.134 A 
ATOM     23  C   UNL A   1      45.599  49.002  19.284  1.00  0.00    -0.001 A 
ATOM     24  C   UNL A   1      46.441  50.154  19.191  1.00  0.00     0.008 A 
ATOM     25  C   UNL A   1      47.775  50.118  18.835  1.00  0.00     0.001 A 
ATOM     26  C   UNL A   1      47.681  47.657  18.768  1.00  0.00    -0.001 A 
ATOM     27  C   UNL A   1      48.357  48.910  18.579  1.00  0.00     0.008 A 
BRANCH  23  28
ATOM     28  C   UNL A   1      44.128  49.353  19.195  1.00  0.00     0.036 C 
ATOM     29  C   UNL A   1      43.583  49.835  17.875  1.00  0.00     0.009 C 
ENDBRANCH  23  28
BRANCH  26  30
ATOM     30  C   UNL A   1      49.028  46.659  18.654  1.00  0.00     0.036 C 
ATOM     31  C   UNL A   1      50.088  45.969  17.736  1.00  0.00     0.009 C 
ENDBRANCH  26  30
ENDBRANCH   9  22
ENDBRANCH   7   8
ENDBRANCH   6   7
ENDBRANCH   4   6
ENDBRANCH   3   4
ENDBRANCH   2   3
ENDBRANCH   1   2
BRANCH   1  32
ATOM     32  O   UNL A   1      45.397  41.328  28.824  1.00  0.00    -0.374 OA
BRANCH  32  33
ATOM     33  C   UNL A   1      44.720  40.372  27.995  1.00  0.00     0.202 C 
BRANCH  33  34
ATOM     34  C   UNL A   1      45.189  38.858  27.986  1.00  0.00     0.261 C 
BRANCH  34  35
ATOM     35  O   UNL A   1      44.907  37.981  26.820  1.00  0.00    -0.460 OA
BRANCH  35  36
ATOM     36  C   UNL A   1      45.832  36.997  26.470  1.00  0.00     0.338 C 
ATOM     37  O   UNL A   1      46.837  37.234  25.813  1.00  0.00    -0.246 OA
BRANCH  36  38
ATOM     38  C   UNL A   1      45.653  35.575  27.077  1.00  0.00     0.060 A 
ATOM     39  C   UNL A   1      44.907  34.598  26.443  1.00  0.00     0.016 A 
ATOM     40  C   UNL A   1      46.003  35.183  28.354  1.00  0.00     0.016 A 
ATOM     41  C   UNL A   1      44.365  33.412  26.893  1.00  0.00     0.010 A 
ATOM     42  C   UNL A   1      45.678  33.861  28.812  1.00  0.00     0.010 A 
ATOM     43  C   UNL A   1      44.885  32.952  28.046  1.00  0.00    -0.014 A 
BRANCH  43  44
ATOM     44  C   UNL A   1      44.486  31.592  28.440  1.00  0.00     0.031 A 
ATOM     45  C   UNL A   1      45.286  30.583  27.752  1.00  0.00     0.074 A 
ATOM     46  C   UNL A   1      43.632  31.211  29.420  1.00  0.00     0.049 A 
ATOM     47  N   UNL A   1      44.929  29.449  27.263  1.00  0.00    -0.248 NA
ATOM     48  C   UNL A   1      46.690  30.977  27.513  1.00  0.00     0.031 C 
ATOM     49  C   UNL A   1      43.164  31.969  30.579  1.00  0.00     0.029 A 
ATOM     50  N   UNL A   1      42.840  30.091  29.474  1.00  0.00    -0.354 N 
ATOM     51  C   UNL A   1      46.053  29.011  26.600  1.00  0.00     0.074 A 
ATOM     52  C   UNL A   1      47.050  30.054  26.644  1.00  0.00     0.031 C 
ATOM     53  C   UNL A   1      41.998  31.468  31.028  1.00  0.00     0.029 A 
ATOM     54  C   UNL A   1      41.694  30.298  30.232  1.00  0.00     0.049 A 
ATOM     55  H   UNL A   1      43.059  29.241  29.028  1.00  0.00     0.167 HD
ATOM     56  C   UNL A   1      46.209  27.789  26.065  1.00  0.00     0.037 A 
ATOM     57  C   UNL A   1      40.533  29.617  30.208  1.00  0.00     0.037 A 
ATOM     58  C   UNL A   1      45.162  26.816  26.164  1.00  0.00     0.049 A 
ATOM     59  C   UNL A   1      40.574  28.362  29.382  1.00  0.00     0.074 A 
ATOM     60  C   UNL A   1      45.094  25.544  25.650  1.00  0.00     0.029 A 
ATOM     61  N   UNL A   1      43.978  27.038  26.877  1.00  0.00    -0.354 N 
ATOM     62  N   UNL A   1      41.538  27.941  28.595  1.00  0.00    -0.248 NA
ATOM     63  C   UNL A   1      39.444  27.444  29.506  1.00  0.00     0.031 C 
ATOM     64  C   UNL A   1      43.858  25.006  26.033  1.00  0.00     0.029 A 
ATOM     65  C   UNL A   1      43.175  25.922  26.827  1.00  0.00     0.049 A 
ATOM     66  H   UNL A   1      43.752  27.873  27.346  1.00  0.00     0.167 HD
ATOM     67  C   UNL A   1      41.194  26.660  28.219  1.00  0.00     0.074 A 
ATOM     68  C   UNL A   1      39.896  26.400  28.825  1.00  0.00     0.031 C 
ATOM     69  C   UNL A   1      41.898  25.760  27.487  1.00  0.00     0.037 A 
BRANCH  56  70
ATOM     70  C   UNL A   1      47.509  27.549  25.378  1.00  0.00     0.064 A 
ATOM     71  C   UNL A   1      47.649  27.731  23.990  1.00  0.00     0.173 A 
ATOM     72  C   UNL A   1      48.572  26.965  26.074  1.00  0.00     0.173 A 
ATOM     73  F   UNL A   1      46.625  28.211  23.264  1.00  0.00    -0.203 F 
ATOM     74  C   UNL A   1      48.790  27.300  23.322  1.00  0.00     0.198 A 
ATOM     75  C   UNL A   1      49.730  26.572  25.408  1.00  0.00     0.198 A 
ATOM     76  F   UNL A   1      48.466  26.719  27.390  1.00  0.00    -0.203 F 
ATOM     77  F   UNL A   1      48.855  27.384  21.987  1.00  0.00    -0.200 F 
ATOM     78  C   UNL A   1      49.833  26.728  24.034  1.00  0.00     0.200 A 
ATOM     79  F   UNL A   1      50.731  26.000  26.092  1.00  0.00    -0.200 F 
ATOM     80  F   UNL A   1      50.927  26.300  23.389  1.00  0.00    -0.200 F 
ENDBRANCH  56  70
BRANCH  57  81
ATOM     81  C   UNL A   1      39.320  30.014  30.980  1.00  0.00     0.064 A 
ATOM     82  C   UNL A   1      38.344  30.850  30.415  1.00  0.00     0.173 A 
ATOM     83  C   UNL A   1      39.144  29.652  32.327  1.00  0.00     0.173 A 
ATOM     84  F   UNL A   1      38.473  31.257  29.144  1.00  0.00    -0.203 F 
ATOM     85  C   UNL A   1      37.265  31.328  31.164  1.00  0.00     0.198 A 
ATOM     86  C   UNL A   1      38.051  30.113  33.072  1.00  0.00     0.198 A 
ATOM     87  F   UNL A   1      40.061  28.892  32.942  1.00  0.00    -0.203 F 
ATOM     88  F   UNL A   1      36.390  32.176  30.607  1.00  0.00    -0.200 F 
ATOM     89  C   UNL A   1      37.119  30.959  32.491  1.00  0.00     0.200 A 
ATOM     90  F   UNL A   1      37.918  29.769  34.361  1.00  0.00    -0.200 F 
ATOM     91  F   UNL A   1      36.097  31.440  33.215  1.00  0.00    -0.200 F 
ENDBRANCH  57  81
BRANCH  69  92
ATOM     92  C   UNL A   1      41.300  24.398  27.399  1.00  0.00     0.064 A 
ATOM     93  C   UNL A   1      40.181  24.142  26.602  1.00  0.00     0.173 A 
ATOM     94  C   UNL A   1      41.920  23.332  28.064  1.00  0.00     0.173 A 
ATOM     95  F   UNL A   1      39.551  25.147  25.976  1.00  0.00    -0.203 F 
ATOM     96  C   UNL A   1      39.690  22.850  26.481  1.00  0.00     0.198 A 
ATOM     97  C   UNL A   1      41.454  22.037  27.904  1.00  0.00     0.198 A 
ATOM     98  F   UNL A   1      42.998  23.547  28.836  1.00  0.00    -0.203 F 
ATOM     99  F   UNL A   1      38.590  22.624  25.751  1.00  0.00    -0.200 F 
ATOM    100  C   UNL A   1      40.337  21.799  27.116  1.00  0.00     0.200 A 
ATOM    101  F   UNL A   1      42.091  21.020  28.498  1.00  0.00    -0.200 F 
ATOM    102  F   UNL A   1      39.879  20.549  26.970  1.00  0.00    -0.200 F 
ENDBRANCH  69  92
ENDBRANCH  43  44
ENDBRANCH  36  38
ENDBRANCH  35  36
ENDBRANCH  34  35
ENDBRANCH  33  34
ENDBRANCH  32  33
ENDBRANCH   1  32
TORSDOF 19
ENDMDL
