MODEL 1
REMARK VINA RESULT:     -12.2      0.000      0.000
REMARK SMILES Cc1ccc(CNc2ccc(C(=O)OCCOCCOC(=O)c3ccc(-c4c5nc(c(-c6c(F)c(F)c(F)c(F)c6F)c6ccc([nH]6)c(-c6c(F)c(F)c(F)c(F)c6F)c6nc(c(-c7c(F)c(F)c(F)c(F)c7F)c7ccc4[nH]7)C=C6)C=C5)cc3)cc2Br)cc1
REMARK SMILES IDX 16 1 15 2 14 3 12 4 13 5 11 6 8 7 9 8 87 9 10 10 86 11 88 12
REMARK SMILES IDX 7 13 6 15 5 16 1 17 2 18 3 19 90 20 4 21 89 22 17 23 18 24
REMARK SMILES IDX 19 25 20 26 21 27 22 28 23 29 24 30 85 31 25 32 84 33 26 34
REMARK SMILES IDX 27 35 28 36 78 37 29 38 83 39 77 40 79 41 30 42 82 43 76 44
REMARK SMILES IDX 75 45 31 47 63 48 43 49 62 50 44 51 47 52 61 53 80 54 45 55
REMARK SMILES IDX 46 56 60 58 81 59 48 60 32 61 33 62 41 63 34 64 35 65 39 66
REMARK SMILES IDX 42 67 36 68 37 69 40 70 38 71 64 72 65 73 73 74 66 75 67 76
REMARK SMILES IDX 71 77 74 78 68 79 69 80 72 81 70 82 49 83 50 84 58 85 51 86
REMARK SMILES IDX 52 87 56 88 59 89 53 90 54 91 57 92 55 93
REMARK H PARENT 7 14 79 46 47 57
REMARK Flexibility Score: inf
ROOT
ATOM      1  C   UNL A   1      33.934  33.754  27.959  1.00  0.00     0.202 C 
ENDROOT
BRANCH   1   2
ATOM      2  C   UNL A   1      33.765  32.361  28.450  1.00  0.00     0.261 C 
BRANCH   2   3
ATOM      3  O   UNL A   1      33.775  31.438  27.364  1.00  0.00    -0.460 OA
BRANCH   3   4
ATOM      4  C   UNL A   1      34.531  30.307  27.474  1.00  0.00     0.338 C 
ATOM      5  O   UNL A   1      35.640  30.176  27.928  1.00  0.00    -0.246 OA
BRANCH   4   6
ATOM      6  C   UNL A   1      33.643  29.217  27.032  1.00  0.00     0.061 A 
ATOM      7  C   UNL A   1      31.974  27.087  26.409  1.00  0.00     0.049 A 
ATOM      8  C   UNL A   1      31.459  28.225  27.033  1.00  0.00     0.028 A 
ATOM      9  C   UNL A   1      33.358  27.002  26.162  1.00  0.00     0.042 A 
ATOM     10  C   UNL A   1      32.272  29.300  27.298  1.00  0.00     0.018 A 
ATOM     11  C   UNL A   1      34.200  28.069  26.470  1.00  0.00     0.033 A 
ATOM     12  Br  UNL A   1      34.123  25.452  25.374  1.00  0.00    -0.049 Br
BRANCH   7  13
ATOM     13  N   UNL A   1      31.065  26.158  25.905  1.00  0.00    -0.380 N 
ATOM     14  H   UNL A   1      30.441  25.660  26.481  1.00  0.00     0.160 HD
BRANCH  13  15
ATOM     15  C   UNL A   1      31.109  25.983  24.458  1.00  0.00     0.148 C 
BRANCH  15  16
ATOM     16  C   UNL A   1      30.256  27.036  23.814  1.00  0.00    -0.029 A 
ATOM     17  C   UNL A   1      27.842  30.180  22.169  1.00  0.00     0.044 C 
ATOM     18  C   UNL A   1      28.685  29.072  22.718  1.00  0.00    -0.051 A 
ATOM     19  C   UNL A   1      28.075  27.949  23.289  1.00  0.00     0.004 A 
ATOM     20  C   UNL A   1      30.081  29.159  22.684  1.00  0.00     0.004 A 
ATOM     21  C   UNL A   1      28.858  26.932  23.827  1.00  0.00     0.006 A 
ATOM     22  C   UNL A   1      30.863  28.148  23.231  1.00  0.00     0.006 A 
ENDBRANCH  15  16
ENDBRANCH  13  15
ENDBRANCH   7  13
ENDBRANCH   4   6
ENDBRANCH   3   4
ENDBRANCH   2   3
ENDBRANCH   1   2
BRANCH   1  23
ATOM     23  O   UNL A   1      32.899  34.476  28.604  1.00  0.00    -0.374 OA
BRANCH  23  24
ATOM     24  C   UNL A   1      33.312  35.621  29.314  1.00  0.00     0.202 C 
BRANCH  24  25
ATOM     25  C   UNL A   1      32.689  35.697  30.713  1.00  0.00     0.261 C 
BRANCH  25  26
ATOM     26  O   UNL A   1      33.193  34.609  31.522  1.00  0.00    -0.460 OA
BRANCH  26  27
ATOM     27  C   UNL A   1      34.444  34.758  32.046  1.00  0.00     0.338 C 
ATOM     28  O   UNL A   1      34.883  35.783  32.542  1.00  0.00    -0.246 OA
BRANCH  27  29
ATOM     29  C   UNL A   1      35.303  33.598  31.647  1.00  0.00     0.060 A 
ATOM     30  C   UNL A   1      35.211  32.372  32.342  1.00  0.00     0.016 A 
ATOM     31  C   UNL A   1      36.410  33.850  30.845  1.00  0.00     0.016 A 
ATOM     32  C   UNL A   1      36.301  31.482  32.367  1.00  0.00     0.010 A 
ATOM     33  C   UNL A   1      37.515  33.035  30.970  1.00  0.00     0.010 A 
ATOM     34  C   UNL A   1      37.493  31.865  31.757  1.00  0.00    -0.014 A 
BRANCH  34  35
ATOM     35  C   UNL A   1      38.814  31.237  31.924  1.00  0.00     0.031 A 
ATOM     36  C   UNL A   1      39.087  30.040  31.097  1.00  0.00     0.074 A 
ATOM     37  C   UNL A   1      39.850  31.877  32.529  1.00  0.00     0.049 A 
ATOM     38  N   UNL A   1      40.143  29.315  31.200  1.00  0.00    -0.248 NA
ATOM     39  C   UNL A   1      38.149  29.517  30.107  1.00  0.00     0.031 C 
ATOM     40  C   UNL A   1      41.286  31.738  32.255  1.00  0.00     0.029 A 
ATOM     41  N   UNL A   1      39.838  32.867  33.522  1.00  0.00    -0.354 N 
ATOM     42  C   UNL A   1      40.192  28.481  30.107  1.00  0.00     0.074 A 
ATOM     43  C   UNL A   1      38.871  28.546  29.544  1.00  0.00     0.031 C 
ATOM     44  C   UNL A   1      41.999  32.362  33.212  1.00  0.00     0.029 A 
ATOM     45  C   UNL A   1      41.057  32.817  34.218  1.00  0.00     0.049 A 
ATOM     46  H   UNL A   1      39.099  33.492  33.701  1.00  0.00     0.167 HD
ATOM     47  C   UNL A   1      41.404  27.958  29.762  1.00  0.00     0.037 A 
ATOM     48  C   UNL A   1      41.083  32.615  35.563  1.00  0.00     0.037 A 
ATOM     49  C   UNL A   1      42.403  28.307  30.791  1.00  0.00     0.049 A 
ATOM     50  C   UNL A   1      41.758  31.300  35.795  1.00  0.00     0.074 A 
ATOM     51  C   UNL A   1      43.438  29.228  30.834  1.00  0.00     0.029 A 
ATOM     52  N   UNL A   1      42.180  27.917  32.115  1.00  0.00    -0.354 N 
ATOM     53  N   UNL A   1      41.825  30.392  34.860  1.00  0.00    -0.248 NA
ATOM     54  C   UNL A   1      42.482  30.926  37.001  1.00  0.00     0.031 C 
ATOM     55  C   UNL A   1      43.782  29.435  32.203  1.00  0.00     0.029 A 
ATOM     56  C   UNL A   1      42.982  28.622  32.994  1.00  0.00     0.049 A 
ATOM     57  H   UNL A   1      41.532  27.228  32.388  1.00  0.00     0.167 HD
ATOM     58  C   UNL A   1      42.644  29.391  35.258  1.00  0.00     0.074 A 
ATOM     59  C   UNL A   1      42.999  29.742  36.624  1.00  0.00     0.031 C 
ATOM     60  C   UNL A   1      42.948  28.352  34.432  1.00  0.00     0.037 A 
BRANCH  47  61
ATOM     61  C   UNL A   1      41.763  27.322  28.424  1.00  0.00     0.064 A 
ATOM     62  C   UNL A   1      41.762  28.106  27.247  1.00  0.00     0.173 A 
ATOM     63  C   UNL A   1      42.065  25.961  28.195  1.00  0.00     0.173 A 
ATOM     64  F   UNL A   1      41.526  29.424  27.287  1.00  0.00    -0.203 F 
ATOM     65  C   UNL A   1      42.001  27.570  25.973  1.00  0.00     0.198 A 
ATOM     66  C   UNL A   1      42.306  25.425  26.925  1.00  0.00     0.198 A 
ATOM     67  F   UNL A   1      42.157  25.065  29.176  1.00  0.00    -0.203 F 
ATOM     68  F   UNL A   1      41.964  28.371  24.898  1.00  0.00    -0.200 F 
ATOM     69  C   UNL A   1      42.269  26.228  25.811  1.00  0.00     0.200 A 
ATOM     70  F   UNL A   1      42.575  24.117  26.800  1.00  0.00    -0.200 F 
ATOM     71  F   UNL A   1      42.498  25.713  24.595  1.00  0.00    -0.200 F 
ENDBRANCH  47  61
BRANCH  48  72
ATOM     72  C   UNL A   1      39.867  33.191  36.217  1.00  0.00     0.064 A 
ATOM     73  C   UNL A   1      38.891  32.265  36.657  1.00  0.00     0.173 A 
ATOM     74  C   UNL A   1      39.916  34.429  36.877  1.00  0.00     0.173 A 
ATOM     75  F   UNL A   1      38.816  31.050  36.089  1.00  0.00    -0.203 F 
ATOM     76  C   UNL A   1      38.130  32.499  37.804  1.00  0.00     0.198 A 
ATOM     77  C   UNL A   1      39.151  34.655  38.027  1.00  0.00     0.198 A 
ATOM     78  F   UNL A   1      40.817  35.351  36.512  1.00  0.00    -0.203 F 
ATOM     79  F   UNL A   1      37.365  31.520  38.311  1.00  0.00    -0.200 F 
ATOM     80  C   UNL A   1      38.299  33.675  38.516  1.00  0.00     0.200 A 
ATOM     81  F   UNL A   1      39.330  35.779  38.738  1.00  0.00    -0.200 F 
ATOM     82  F   UNL A   1      37.714  33.822  39.713  1.00  0.00    -0.200 F 
ENDBRANCH  48  72
BRANCH  60  83
ATOM     83  C   UNL A   1      43.306  26.998  34.959  1.00  0.00     0.064 A 
ATOM     84  C   UNL A   1      42.358  25.973  35.132  1.00  0.00     0.173 A 
ATOM     85  C   UNL A   1      44.656  26.625  35.135  1.00  0.00     0.173 A 
ATOM     86  F   UNL A   1      41.064  26.151  34.834  1.00  0.00    -0.203 F 
ATOM     87  C   UNL A   1      42.721  24.701  35.560  1.00  0.00     0.198 A 
ATOM     88  C   UNL A   1      45.020  25.328  35.479  1.00  0.00     0.198 A 
ATOM     89  F   UNL A   1      45.659  27.492  34.942  1.00  0.00    -0.203 F 
ATOM     90  F   UNL A   1      41.770  23.784  35.782  1.00  0.00    -0.200 F 
ATOM     91  C   UNL A   1      44.052  24.375  35.722  1.00  0.00     0.200 A 
ATOM     92  F   UNL A   1      46.318  25.003  35.549  1.00  0.00    -0.200 F 
ATOM     93  F   UNL A   1      44.402  23.137  36.089  1.00  0.00    -0.200 F 
ENDBRANCH  60  83
ENDBRANCH  34  35
ENDBRANCH  27  29
ENDBRANCH  26  27
ENDBRANCH  25  26
ENDBRANCH  24  25
ENDBRANCH  23  24
ENDBRANCH   1  23
TORSDOF 17
ENDMDL
MODEL 2
REMARK VINA RESULT:     -12.1      1.217      2.617
REMARK SMILES Cc1ccc(CNc2ccc(C(=O)OCCOCCOC(=O)c3ccc(-c4c5nc(c(-c6c(F)c(F)c(F)c(F)c6F)c6ccc([nH]6)c(-c6c(F)c(F)c(F)c(F)c6F)c6nc(c(-c7c(F)c(F)c(F)c(F)c7F)c7ccc4[nH]7)C=C6)C=C5)cc3)cc2Br)cc1
REMARK SMILES IDX 16 1 15 2 14 3 12 4 13 5 11 6 8 7 9 8 87 9 10 10 86 11 88 12
REMARK SMILES IDX 7 13 6 15 5 16 1 17 2 18 3 19 90 20 4 21 89 22 17 23 18 24
REMARK SMILES IDX 19 25 20 26 21 27 22 28 23 29 24 30 85 31 25 32 84 33 26 34
REMARK SMILES IDX 27 35 28 36 78 37 29 38 83 39 77 40 79 41 30 42 82 43 76 44
REMARK SMILES IDX 75 45 31 47 63 48 43 49 62 50 44 51 47 52 61 53 80 54 45 55
REMARK SMILES IDX 46 56 60 58 81 59 48 60 32 61 33 62 41 63 34 64 35 65 39 66
REMARK SMILES IDX 42 67 36 68 37 69 40 70 38 71 64 72 65 73 73 74 66 75 67 76
REMARK SMILES IDX 71 77 74 78 68 79 69 80 72 81 70 82 49 83 50 84 58 85 51 86
REMARK SMILES IDX 52 87 56 88 59 89 53 90 54 91 57 92 55 93
REMARK H PARENT 7 14 79 46 47 57
REMARK Flexibility Score: inf
ROOT
ATOM      1  C   UNL A   1      34.021  33.566  27.986  1.00  0.00     0.202 C 
ENDROOT
BRANCH   1   2
ATOM      2  C   UNL A   1      34.137  32.176  28.499  1.00  0.00     0.261 C 
BRANCH   2   3
ATOM      3  O   UNL A   1      33.633  31.242  27.547  1.00  0.00    -0.460 OA
BRANCH   3   4
ATOM      4  C   UNL A   1      34.367  30.125  27.275  1.00  0.00     0.338 C 
ATOM      5  O   UNL A   1      35.521  29.891  27.538  1.00  0.00    -0.246 OA
BRANCH   4   6
ATOM      6  C   UNL A   1      33.405  29.175  26.689  1.00  0.00     0.061 A 
ATOM      7  C   UNL A   1      31.669  27.233  25.726  1.00  0.00     0.049 A 
ATOM      8  C   UNL A   1      31.385  27.900  26.919  1.00  0.00     0.028 A 
ATOM      9  C   UNL A   1      32.876  27.505  25.053  1.00  0.00     0.042 A 
ATOM     10  C   UNL A   1      32.216  28.896  27.372  1.00  0.00     0.018 A 
ATOM     11  C   UNL A   1      33.749  28.481  25.530  1.00  0.00     0.033 A 
ATOM     12  Br  UNL A   1      33.344  26.582  23.460  1.00  0.00    -0.049 Br
BRANCH   7  13
ATOM     13  N   UNL A   1      30.660  26.449  25.167  1.00  0.00    -0.380 N 
ATOM     14  H   UNL A   1      30.257  26.650  24.293  1.00  0.00     0.160 HD
BRANCH  13  15
ATOM     15  C   UNL A   1      30.252  25.310  25.980  1.00  0.00     0.148 C 
BRANCH  15  16
ATOM     16  C   UNL A   1      31.154  24.149  25.681  1.00  0.00    -0.029 A 
ATOM     17  C   UNL A   1      33.910  20.986  24.775  1.00  0.00     0.044 C 
ATOM     18  C   UNL A   1      32.932  22.071  25.102  1.00  0.00    -0.051 A 
ATOM     19  C   UNL A   1      32.001  22.482  24.141  1.00  0.00     0.004 A 
ATOM     20  C   UNL A   1      32.954  22.693  26.355  1.00  0.00     0.004 A 
ATOM     21  C   UNL A   1      31.110  23.511  24.433  1.00  0.00     0.006 A 
ATOM     22  C   UNL A   1      32.073  23.729  26.643  1.00  0.00     0.006 A 
ENDBRANCH  15  16
ENDBRANCH  13  15
ENDBRANCH   7  13
ENDBRANCH   4   6
ENDBRANCH   3   4
ENDBRANCH   2   3
ENDBRANCH   1   2
BRANCH   1  23
ATOM     23  O   UNL A   1      33.001  34.143  28.784  1.00  0.00    -0.374 OA
BRANCH  23  24
ATOM     24  C   UNL A   1      33.096  35.537  28.970  1.00  0.00     0.202 C 
BRANCH  24  25
ATOM     25  C   UNL A   1      32.974  35.937  30.446  1.00  0.00     0.261 C 
BRANCH  25  26
ATOM     26  O   UNL A   1      33.187  34.772  31.277  1.00  0.00    -0.460 OA
BRANCH  26  27
ATOM     27  C   UNL A   1      34.333  34.745  32.018  1.00  0.00     0.338 C 
ATOM     28  O   UNL A   1      34.732  35.649  32.732  1.00  0.00    -0.246 OA
BRANCH  27  29
ATOM     29  C   UNL A   1      35.184  33.588  31.592  1.00  0.00     0.060 A 
ATOM     30  C   UNL A   1      35.111  32.358  32.281  1.00  0.00     0.016 A 
ATOM     31  C   UNL A   1      36.273  33.848  30.766  1.00  0.00     0.016 A 
ATOM     32  C   UNL A   1      36.203  31.471  32.276  1.00  0.00     0.010 A 
ATOM     33  C   UNL A   1      37.382  33.034  30.861  1.00  0.00     0.010 A 
ATOM     34  C   UNL A   1      37.379  31.860  31.642  1.00  0.00    -0.014 A 
BRANCH  34  35
ATOM     35  C   UNL A   1      38.705  31.233  31.774  1.00  0.00     0.031 A 
ATOM     36  C   UNL A   1      38.971  30.058  30.914  1.00  0.00     0.074 A 
ATOM     37  C   UNL A   1      39.747  31.862  32.380  1.00  0.00     0.049 A 
ATOM     38  N   UNL A   1      40.031  29.335  30.984  1.00  0.00    -0.248 NA
ATOM     39  C   UNL A   1      38.021  29.555  29.925  1.00  0.00     0.031 C 
ATOM     40  C   UNL A   1      41.180  31.736  32.082  1.00  0.00     0.029 A 
ATOM     41  N   UNL A   1      39.746  32.828  33.397  1.00  0.00    -0.354 N 
ATOM     42  C   UNL A   1      40.068  28.529  29.870  1.00  0.00     0.074 A 
ATOM     43  C   UNL A   1      38.738  28.602  29.328  1.00  0.00     0.031 C 
ATOM     44  C   UNL A   1      41.904  32.340  33.044  1.00  0.00     0.029 A 
ATOM     45  C   UNL A   1      40.975  32.767  34.074  1.00  0.00     0.049 A 
ATOM     46  H   UNL A   1      39.007  33.445  33.602  1.00  0.00     0.167 HD
ATOM     47  C   UNL A   1      41.277  28.020  29.496  1.00  0.00     0.037 A 
ATOM     48  C   UNL A   1      41.021  32.532  35.413  1.00  0.00     0.037 A 
ATOM     49  C   UNL A   1      42.290  28.348  30.519  1.00  0.00     0.049 A 
ATOM     50  C   UNL A   1      41.704  31.214  35.604  1.00  0.00     0.074 A 
ATOM     51  C   UNL A   1      43.321  29.271  30.570  1.00  0.00     0.029 A 
ATOM     52  N   UNL A   1      42.087  27.924  31.835  1.00  0.00    -0.354 N 
ATOM     53  N   UNL A   1      41.761  30.330  34.646  1.00  0.00    -0.248 NA
ATOM     54  C   UNL A   1      42.447  30.814  36.789  1.00  0.00     0.031 C 
ATOM     55  C   UNL A   1      43.684  29.447  31.938  1.00  0.00     0.029 A 
ATOM     56  C   UNL A   1      42.899  28.611  32.720  1.00  0.00     0.049 A 
ATOM     57  H   UNL A   1      41.446  27.226  32.100  1.00  0.00     0.167 HD
ATOM     58  C   UNL A   1      42.590  29.323  35.007  1.00  0.00     0.074 A 
ATOM     59  C   UNL A   1      42.963  29.641  36.376  1.00  0.00     0.031 C 
ATOM     60  C   UNL A   1      42.886  28.306  34.152  1.00  0.00     0.037 A 
BRANCH  47  61
ATOM     61  C   UNL A   1      41.620  27.418  28.137  1.00  0.00     0.064 A 
ATOM     62  C   UNL A   1      41.861  26.029  28.021  1.00  0.00     0.173 A 
ATOM     63  C   UNL A   1      41.786  28.122  26.924  1.00  0.00     0.173 A 
ATOM     64  F   UNL A   1      41.717  25.207  29.069  1.00  0.00    -0.203 F 
ATOM     65  C   UNL A   1      42.261  25.422  26.822  1.00  0.00     0.198 A 
ATOM     66  C   UNL A   1      42.182  27.517  25.726  1.00  0.00     0.198 A 
ATOM     67  F   UNL A   1      41.567  29.431  26.812  1.00  0.00    -0.203 F 
ATOM     68  F   UNL A   1      42.490  24.101  26.791  1.00  0.00    -0.200 F 
ATOM     69  C   UNL A   1      42.426  26.166  25.675  1.00  0.00     0.200 A 
ATOM     70  F   UNL A   1      42.325  28.267  24.623  1.00  0.00    -0.200 F 
ATOM     71  F   UNL A   1      42.809  25.590  24.528  1.00  0.00    -0.200 F 
ENDBRANCH  47  61
BRANCH  48  72
ATOM     72  C   UNL A   1      39.812  33.086  36.099  1.00  0.00     0.064 A 
ATOM     73  C   UNL A   1      38.850  32.145  36.537  1.00  0.00     0.173 A 
ATOM     74  C   UNL A   1      39.864  34.312  36.781  1.00  0.00     0.173 A 
ATOM     75  F   UNL A   1      38.774  30.940  35.948  1.00  0.00    -0.203 F 
ATOM     76  C   UNL A   1      38.107  32.352  37.701  1.00  0.00     0.198 A 
ATOM     77  C   UNL A   1      39.117  34.510  37.948  1.00  0.00     0.198 A 
ATOM     78  F   UNL A   1      40.752  35.247  36.419  1.00  0.00    -0.203 F 
ATOM     79  F   UNL A   1      37.357  31.357  38.202  1.00  0.00    -0.200 F 
ATOM     80  C   UNL A   1      38.280  33.515  38.432  1.00  0.00     0.200 A 
ATOM     81  F   UNL A   1      39.300  35.622  38.676  1.00  0.00    -0.200 F 
ATOM     82  F   UNL A   1      37.714  33.635  39.642  1.00  0.00    -0.200 F 
ENDBRANCH  48  72
BRANCH  60  83
ATOM     83  C   UNL A   1      43.257  26.940  34.640  1.00  0.00     0.064 A 
ATOM     84  C   UNL A   1      44.582  26.573  34.940  1.00  0.00     0.173 A 
ATOM     85  C   UNL A   1      42.262  26.007  35.000  1.00  0.00     0.173 A 
ATOM     86  F   UNL A   1      45.600  27.432  34.802  1.00  0.00    -0.203 F 
ATOM     87  C   UNL A   1      44.898  25.321  35.455  1.00  0.00     0.198 A 
ATOM     88  C   UNL A   1      42.578  24.790  35.596  1.00  0.00     0.198 A 
ATOM     89  F   UNL A   1      40.958  26.260  34.824  1.00  0.00    -0.203 F 
ATOM     90  F   UNL A   1      46.182  24.994  35.651  1.00  0.00    -0.200 F 
ATOM     91  C   UNL A   1      43.896  24.434  35.794  1.00  0.00     0.200 A 
ATOM     92  F   UNL A   1      41.592  23.976  35.998  1.00  0.00    -0.200 F 
ATOM     93  F   UNL A   1      44.201  23.249  36.332  1.00  0.00    -0.200 F 
ENDBRANCH  60  83
ENDBRANCH  34  35
ENDBRANCH  27  29
ENDBRANCH  26  27
ENDBRANCH  25  26
ENDBRANCH  24  25
ENDBRANCH  23  24
ENDBRANCH   1  23
TORSDOF 17
ENDMDL
MODEL 3
REMARK VINA RESULT:     -12.0      3.384      5.406
REMARK SMILES Cc1ccc(CNc2ccc(C(=O)OCCOCCOC(=O)c3ccc(-c4c5nc(c(-c6c(F)c(F)c(F)c(F)c6F)c6ccc([nH]6)c(-c6c(F)c(F)c(F)c(F)c6F)c6nc(c(-c7c(F)c(F)c(F)c(F)c7F)c7ccc4[nH]7)C=C6)C=C5)cc3)cc2Br)cc1
REMARK SMILES IDX 16 1 15 2 14 3 12 4 13 5 11 6 8 7 9 8 87 9 10 10 86 11 88 12
REMARK SMILES IDX 7 13 6 15 5 16 1 17 2 18 3 19 90 20 4 21 89 22 17 23 18 24
REMARK SMILES IDX 19 25 20 26 21 27 22 28 23 29 24 30 85 31 25 32 84 33 26 34
REMARK SMILES IDX 27 35 28 36 78 37 29 38 83 39 77 40 79 41 30 42 82 43 76 44
REMARK SMILES IDX 75 45 31 47 63 48 43 49 62 50 44 51 47 52 61 53 80 54 45 55
REMARK SMILES IDX 46 56 60 58 81 59 48 60 32 61 33 62 41 63 34 64 35 65 39 66
REMARK SMILES IDX 42 67 36 68 37 69 40 70 38 71 64 72 65 73 73 74 66 75 67 76
REMARK SMILES IDX 71 77 74 78 68 79 69 80 72 81 70 82 49 83 50 84 58 85 51 86
REMARK SMILES IDX 52 87 56 88 59 89 53 90 54 91 57 92 55 93
REMARK H PARENT 7 14 79 46 47 57
REMARK Flexibility Score: inf
ROOT
ATOM      1  C   UNL A   1      32.677  29.351  24.715  1.00  0.00     0.202 C 
ENDROOT
BRANCH   1   2
ATOM      2  C   UNL A   1      31.926  28.177  24.197  1.00  0.00     0.261 C 
BRANCH   2   3
ATOM      3  O   UNL A   1      31.033  27.671  25.187  1.00  0.00    -0.460 OA
BRANCH   3   4
ATOM      4  C   UNL A   1      31.555  27.033  26.274  1.00  0.00     0.338 C 
ATOM      5  O   UNL A   1      31.386  27.264  27.445  1.00  0.00    -0.246 OA
BRANCH   4   6
ATOM      6  C   UNL A   1      32.288  25.882  25.717  1.00  0.00     0.061 A 
ATOM      7  C   UNL A   1      33.746  23.850  24.510  1.00  0.00     0.049 A 
ATOM      8  C   UNL A   1      34.384  24.779  25.334  1.00  0.00     0.028 A 
ATOM      9  C   UNL A   1      32.371  23.995  24.242  1.00  0.00     0.042 A 
ATOM     10  C   UNL A   1      33.658  25.755  25.973  1.00  0.00     0.018 A 
ATOM     11  C   UNL A   1      31.634  25.011  24.847  1.00  0.00     0.033 A 
ATOM     12  Br  UNL A   1      31.465  22.798  23.078  1.00  0.00    -0.049 Br
BRANCH   7  13
ATOM     13  N   UNL A   1      34.470  22.722  24.126  1.00  0.00    -0.380 N 
ATOM     14  H   UNL A   1      34.671  22.516  23.185  1.00  0.00     0.160 HD
BRANCH  13  15
ATOM     15  C   UNL A   1      34.907  21.873  25.228  1.00  0.00     0.148 C 
BRANCH  15  16
ATOM     16  C   UNL A   1      34.621  20.442  24.884  1.00  0.00    -0.029 A 
ATOM     17  C   UNL A   1      33.885  16.389  23.679  1.00  0.00     0.044 C 
ATOM     18  C   UNL A   1      34.137  17.794  24.125  1.00  0.00    -0.051 A 
ATOM     19  C   UNL A   1      33.088  18.721  24.136  1.00  0.00     0.004 A 
ATOM     20  C   UNL A   1      35.421  18.197  24.513  1.00  0.00     0.004 A 
ATOM     21  C   UNL A   1      33.328  20.037  24.522  1.00  0.00     0.006 A 
ATOM     22  C   UNL A   1      35.662  19.514  24.887  1.00  0.00     0.006 A 
ENDBRANCH  15  16
ENDBRANCH  13  15
ENDBRANCH   7  13
ENDBRANCH   4   6
ENDBRANCH   3   4
ENDBRANCH   2   3
ENDBRANCH   1   2
BRANCH   1  23
ATOM     23  O   UNL A   1      31.680  30.156  25.322  1.00  0.00    -0.374 OA
BRANCH  23  24
ATOM     24  C   UNL A   1      32.044  30.742  26.552  1.00  0.00     0.202 C 
BRANCH  24  25
ATOM     25  C   UNL A   1      33.415  30.261  27.043  1.00  0.00     0.261 C 
BRANCH  25  26
ATOM     26  O   UNL A   1      33.874  31.128  28.106  1.00  0.00    -0.460 OA
BRANCH  26  27
ATOM     27  C   UNL A   1      35.169  31.552  28.041  1.00  0.00     0.338 C 
ATOM     28  O   UNL A   1      35.535  32.644  27.640  1.00  0.00    -0.246 OA
BRANCH  27  29
ATOM     29  C   UNL A   1      36.093  30.388  28.231  1.00  0.00     0.060 A 
ATOM     30  C   UNL A   1      36.206  29.767  29.494  1.00  0.00     0.016 A 
ATOM     31  C   UNL A   1      37.073  30.168  27.269  1.00  0.00     0.016 A 
ATOM     32  C   UNL A   1      37.378  29.072  29.846  1.00  0.00     0.010 A 
ATOM     33  C   UNL A   1      38.263  29.591  27.659  1.00  0.00     0.010 A 
ATOM     34  C   UNL A   1      38.448  29.070  28.956  1.00  0.00    -0.014 A 
BRANCH  34  35
ATOM     35  C   UNL A   1      39.837  28.675  29.243  1.00  0.00     0.031 A 
ATOM     36  C   UNL A   1      40.224  27.296  28.872  1.00  0.00     0.074 A 
ATOM     37  C   UNL A   1      40.809  29.587  29.515  1.00  0.00     0.049 A 
ATOM     38  N   UNL A   1      41.359  26.762  29.151  1.00  0.00    -0.248 NA
ATOM     39  C   UNL A   1      39.326  26.365  28.192  1.00  0.00     0.031 C 
ATOM     40  C   UNL A   1      42.243  29.502  29.211  1.00  0.00     0.029 A 
ATOM     41  N   UNL A   1      40.710  30.860  30.097  1.00  0.00    -0.354 N 
ATOM     42  C   UNL A   1      41.474  25.604  28.418  1.00  0.00     0.074 A 
ATOM     43  C   UNL A   1      40.139  25.334  27.958  1.00  0.00     0.031 C 
ATOM     44  C   UNL A   1      42.906  30.493  29.839  1.00  0.00     0.029 A 
ATOM     45  C   UNL A   1      41.945  31.181  30.683  1.00  0.00     0.049 A 
ATOM     46  H   UNL A   1      39.909  31.431  30.095  1.00  0.00     0.167 HD
ATOM     47  C   UNL A   1      42.728  25.114  28.198  1.00  0.00     0.037 A 
ATOM     48  C   UNL A   1      42.032  31.473  32.008  1.00  0.00     0.037 A 
ATOM     49  C   UNL A   1      43.709  25.903  28.970  1.00  0.00     0.049 A 
ATOM     50  C   UNL A   1      42.861  30.399  32.641  1.00  0.00     0.074 A 
ATOM     51  C   UNL A   1      44.631  26.875  28.619  1.00  0.00     0.029 A 
ATOM     52  N   UNL A   1      43.569  25.989  30.358  1.00  0.00    -0.354 N 
ATOM     53  N   UNL A   1      43.006  29.230  32.080  1.00  0.00    -0.248 NA
ATOM     54  C   UNL A   1      43.656  30.552  33.849  1.00  0.00     0.031 C 
ATOM     55  C   UNL A   1      44.986  27.589  29.802  1.00  0.00     0.029 A 
ATOM     56  C   UNL A   1      44.308  27.035  30.879  1.00  0.00     0.049 A 
ATOM     57  H   UNL A   1      43.013  25.381  30.898  1.00  0.00     0.167 HD
ATOM     58  C   UNL A   1      43.947  28.522  32.748  1.00  0.00     0.074 A 
ATOM     59  C   UNL A   1      44.296  29.368  33.878  1.00  0.00     0.031 C 
ATOM     60  C   UNL A   1      44.345  27.292  32.320  1.00  0.00     0.037 A 
BRANCH  47  61
ATOM     61  C   UNL A   1      43.122  24.082  27.147  1.00  0.00     0.064 A 
ATOM     62  C   UNL A   1      42.769  22.725  27.324  1.00  0.00     0.173 A 
ATOM     63  C   UNL A   1      43.881  24.320  25.979  1.00  0.00     0.173 A 
ATOM     64  F   UNL A   1      42.023  22.328  28.363  1.00  0.00    -0.203 F 
ATOM     65  C   UNL A   1      43.168  21.711  26.441  1.00  0.00     0.198 A 
ATOM     66  C   UNL A   1      44.277  23.310  25.095  1.00  0.00     0.198 A 
ATOM     67  F   UNL A   1      44.277  25.536  25.609  1.00  0.00    -0.203 F 
ATOM     68  F   UNL A   1      42.812  20.441  26.683  1.00  0.00    -0.200 F 
ATOM     69  C   UNL A   1      43.926  22.002  25.328  1.00  0.00     0.200 A 
ATOM     70  F   UNL A   1      45.007  23.627  24.015  1.00  0.00    -0.200 F 
ATOM     71  F   UNL A   1      44.310  21.037  24.483  1.00  0.00    -0.200 F 
ENDBRANCH  47  61
BRANCH  48  72
ATOM     72  C   UNL A   1      40.776  32.121  32.499  1.00  0.00     0.064 A 
ATOM     73  C   UNL A   1      40.521  33.433  32.034  1.00  0.00     0.173 A 
ATOM     74  C   UNL A   1      39.667  31.353  32.884  1.00  0.00     0.173 A 
ATOM     75  F   UNL A   1      41.537  34.207  31.618  1.00  0.00    -0.203 F 
ATOM     76  C   UNL A   1      39.220  33.883  31.801  1.00  0.00     0.198 A 
ATOM     77  C   UNL A   1      38.365  31.810  32.646  1.00  0.00     0.198 A 
ATOM     78  F   UNL A   1      39.837  30.102  33.333  1.00  0.00    -0.203 F 
ATOM     79  F   UNL A   1      39.018  35.049  31.168  1.00  0.00    -0.200 F 
ATOM     80  C   UNL A   1      38.145  33.049  32.062  1.00  0.00     0.200 A 
ATOM     81  F   UNL A   1      37.321  30.997  32.869  1.00  0.00    -0.200 F 
ATOM     82  F   UNL A   1      36.914  33.401  31.664  1.00  0.00    -0.200 F 
ENDBRANCH  48  72
BRANCH  60  83
ATOM     83  C   UNL A   1      44.873  26.256  33.263  1.00  0.00     0.064 A 
ATOM     84  C   UNL A   1      44.048  25.554  34.161  1.00  0.00     0.173 A 
ATOM     85  C   UNL A   1      46.204  25.800  33.164  1.00  0.00     0.173 A 
ATOM     86  F   UNL A   1      42.729  25.776  34.229  1.00  0.00    -0.203 F 
ATOM     87  C   UNL A   1      44.546  24.548  34.982  1.00  0.00     0.198 A 
ATOM     88  C   UNL A   1      46.675  24.735  33.925  1.00  0.00     0.198 A 
ATOM     89  F   UNL A   1      47.075  26.344  32.302  1.00  0.00    -0.203 F 
ATOM     90  F   UNL A   1      43.734  23.964  35.874  1.00  0.00    -0.200 F 
ATOM     91  C   UNL A   1      45.855  24.131  34.856  1.00  0.00     0.200 A 
ATOM     92  F   UNL A   1      47.922  24.285  33.732  1.00  0.00    -0.200 F 
ATOM     93  F   UNL A   1      46.319  23.132  35.614  1.00  0.00    -0.200 F 
ENDBRANCH  60  83
ENDBRANCH  34  35
ENDBRANCH  27  29
ENDBRANCH  26  27
ENDBRANCH  25  26
ENDBRANCH  24  25
ENDBRANCH  23  24
ENDBRANCH   1  23
TORSDOF 17
ENDMDL
