MODEL 1
REMARK VINA RESULT:     -11.6      0.000      0.000
REMARK SMILES C[C@@H](C(=O)OCCOCCOC(=O)c1ccc(-c2c3nc(c(-c4c(F)c(F)c(F)c(F)c4F)c4ccc([nH]4)c(-c4c(F)c(F)c(F)c(F)c4F)c4nc(c(-c5c(F)c(F)c(F)c(F)c5F)c5ccc2[nH]5)C=C4)C=C3)cc1)c1ccc(C[C@@H]2CCC[C@@H]2O)cc1F
REMARK SMILES IDX 7 1 6 2 5 3 3 4 4 5 2 6 1 7 77 8 78 9 89 10 79 11 88 12
REMARK SMILES IDX 90 13 80 14 81 15 82 16 83 17 86 18 84 19 85 20 87 21 8 23
REMARK SMILES IDX 9 24 10 25 11 26 12 27 13 28 14 29 15 30 76 31 16 32 75 33
REMARK SMILES IDX 17 34 18 35 19 36 69 37 20 38 74 39 68 40 70 41 21 42 73 43
REMARK SMILES IDX 67 44 66 45 22 47 54 48 34 49 53 50 35 51 38 52 52 53 71 54
REMARK SMILES IDX 36 55 37 56 51 58 72 59 39 60 23 61 24 62 32 63 25 64 26 65
REMARK SMILES IDX 30 66 33 67 27 68 28 69 31 70 29 71 55 72 56 73 64 74 57 75
REMARK SMILES IDX 58 76 62 77 65 78 59 79 60 80 63 81 61 82 40 83 41 84 49 85
REMARK SMILES IDX 42 86 43 87 47 88 50 89 44 90 45 91 48 92 46 93
REMARK H PARENT 87 22 70 46 38 57
REMARK Flexibility Score: inf
ROOT
ATOM      1  C   UNL A   1      33.138  26.268  26.208  1.00  0.00     0.202 C 
ENDROOT
BRANCH   1   2
ATOM      2  C   UNL A   1      33.897  25.573  25.073  1.00  0.00     0.261 C 
BRANCH   2   3
ATOM      3  O   UNL A   1      32.983  24.935  24.175  1.00  0.00    -0.463 OA
BRANCH   3   4
ATOM      4  C   UNL A   1      33.291  25.014  22.852  1.00  0.00     0.313 C 
ATOM      5  O   UNL A   1      34.378  24.708  22.378  1.00  0.00    -0.252 OA
BRANCH   4   6
ATOM      6  C   UNL A   1      32.110  25.534  22.027  1.00  0.00     0.129 C 
ATOM      7  C   UNL A   1      32.481  25.509  20.532  1.00  0.00     0.025 C 
BRANCH   6   8
ATOM      8  C   UNL A   1      31.503  26.865  22.487  1.00  0.00     0.002 A 
ATOM      9  C   UNL A   1      30.187  26.922  22.980  1.00  0.00     0.008 A 
ATOM     10  C   UNL A   1      32.242  28.053  22.558  1.00  0.00     0.127 A 
ATOM     11  C   UNL A   1      29.636  28.109  23.485  1.00  0.00     0.004 A 
ATOM     12  C   UNL A   1      31.694  29.243  23.054  1.00  0.00     0.043 A 
ATOM     13  F   UNL A   1      33.518  28.090  22.160  1.00  0.00    -0.207 F 
ATOM     14  C   UNL A   1      30.372  29.294  23.508  1.00  0.00    -0.045 A 
BRANCH  14  15
ATOM     15  C   UNL A   1      29.797  30.575  24.068  1.00  0.00     0.041 C 
BRANCH  15  16
ATOM     16  C   UNL A   1      28.459  31.115  23.515  1.00  0.00     0.022 C 
ATOM     17  C   UNL A   1      27.692  30.158  22.596  1.00  0.00     0.007 C 
ATOM     18  C   UNL A   1      28.501  32.409  22.697  1.00  0.00     0.117 C 
ATOM     19  C   UNL A   1      27.937  30.632  21.161  1.00  0.00     0.003 C 
ATOM     20  C   UNL A   1      28.696  31.951  21.258  1.00  0.00     0.032 C 
BRANCH  18  21
ATOM     21  O   UNL A   1      29.481  33.326  23.132  1.00  0.00    -0.393 OA
ATOM     22  H   UNL A   1      29.163  33.789  23.924  1.00  0.00     0.210 HD
ENDBRANCH  18  21
ENDBRANCH  15  16
ENDBRANCH  14  15
ENDBRANCH   6   8
ENDBRANCH   4   6
ENDBRANCH   3   4
ENDBRANCH   2   3
ENDBRANCH   1   2
BRANCH   1  23
ATOM     23  O   UNL A   1      32.875  27.661  26.033  1.00  0.00    -0.374 OA
BRANCH  23  24
ATOM     24  C   UNL A   1      31.747  28.218  26.712  1.00  0.00     0.202 C 
BRANCH  24  25
ATOM     25  C   UNL A   1      31.793  29.724  27.005  1.00  0.00     0.261 C 
BRANCH  25  26
ATOM     26  O   UNL A   1      32.941  30.371  26.421  1.00  0.00    -0.460 OA
BRANCH  26  27
ATOM     27  C   UNL A   1      33.441  31.400  27.147  1.00  0.00     0.338 C 
ATOM     28  O   UNL A   1      32.857  32.418  27.492  1.00  0.00    -0.246 OA
BRANCH  27  29
ATOM     29  C   UNL A   1      34.793  31.082  27.637  1.00  0.00     0.060 A 
ATOM     30  C   UNL A   1      35.088  29.739  27.904  1.00  0.00     0.016 A 
ATOM     31  C   UNL A   1      35.712  32.085  27.951  1.00  0.00     0.016 A 
ATOM     32  C   UNL A   1      36.287  29.397  28.529  1.00  0.00     0.010 A 
ATOM     33  C   UNL A   1      36.911  31.741  28.586  1.00  0.00     0.010 A 
ATOM     34  C   UNL A   1      37.187  30.400  28.910  1.00  0.00    -0.014 A 
BRANCH  34  35
ATOM     35  C   UNL A   1      38.342  30.053  29.776  1.00  0.00     0.031 A 
ATOM     36  C   UNL A   1      39.384  29.099  29.260  1.00  0.00     0.074 A 
ATOM     37  C   UNL A   1      38.483  30.607  30.992  1.00  0.00     0.049 A 
ATOM     38  N   UNL A   1      40.461  28.644  29.848  1.00  0.00    -0.248 NA
ATOM     39  C   UNL A   1      39.185  28.591  27.893  1.00  0.00     0.031 C 
ATOM     40  C   UNL A   1      37.564  31.573  31.589  1.00  0.00     0.029 A 
ATOM     41  N   UNL A   1      39.455  30.432  31.946  1.00  0.00    -0.354 N 
ATOM     42  C   UNL A   1      41.067  27.800  28.927  1.00  0.00     0.074 A 
ATOM     43  C   UNL A   1      40.222  27.779  27.752  1.00  0.00     0.031 C 
ATOM     44  C   UNL A   1      38.009  31.897  32.815  1.00  0.00     0.029 A 
ATOM     45  C   UNL A   1      39.228  31.141  33.098  1.00  0.00     0.049 A 
ATOM     46  H   UNL A   1      40.240  29.851  31.815  1.00  0.00     0.167 HD
ATOM     47  C   UNL A   1      42.228  27.111  29.045  1.00  0.00     0.037 A 
ATOM     48  C   UNL A   1      39.917  31.161  34.256  1.00  0.00     0.037 A 
ATOM     49  C   UNL A   1      43.068  27.129  30.215  1.00  0.00     0.049 A 
ATOM     50  C   UNL A   1      41.169  30.333  34.389  1.00  0.00     0.074 A 
ATOM     51  C   UNL A   1      44.268  26.473  30.426  1.00  0.00     0.029 A 
ATOM     52  N   UNL A   1      42.789  27.837  31.374  1.00  0.00    -0.354 N 
ATOM     53  N   UNL A   1      41.745  29.554  33.506  1.00  0.00    -0.248 NA
ATOM     54  C   UNL A   1      41.869  30.393  35.681  1.00  0.00     0.031 C 
ATOM     55  C   UNL A   1      44.693  26.748  31.731  1.00  0.00     0.029 A 
ATOM     56  C   UNL A   1      43.783  27.615  32.314  1.00  0.00     0.049 A 
ATOM     57  H   UNL A   1      42.001  28.411  31.510  1.00  0.00     0.167 HD
ATOM     58  C   UNL A   1      42.883  29.052  34.124  1.00  0.00     0.074 A 
ATOM     59  C   UNL A   1      42.925  29.624  35.453  1.00  0.00     0.031 C 
ATOM     60  C   UNL A   1      43.812  28.194  33.633  1.00  0.00     0.037 A 
BRANCH  47  61
ATOM     61  C   UNL A   1      42.648  26.262  27.884  1.00  0.00     0.064 A 
ATOM     62  C   UNL A   1      42.148  24.963  27.703  1.00  0.00     0.173 A 
ATOM     63  C   UNL A   1      43.539  26.761  26.922  1.00  0.00     0.173 A 
ATOM     64  F   UNL A   1      41.304  24.434  28.602  1.00  0.00    -0.203 F 
ATOM     65  C   UNL A   1      42.544  24.188  26.616  1.00  0.00     0.198 A 
ATOM     66  C   UNL A   1      43.912  25.993  25.822  1.00  0.00     0.198 A 
ATOM     67  F   UNL A   1      44.044  27.998  27.046  1.00  0.00    -0.203 F 
ATOM     68  F   UNL A   1      42.087  22.935  26.487  1.00  0.00    -0.200 F 
ATOM     69  C   UNL A   1      43.420  24.705  25.673  1.00  0.00     0.200 A 
ATOM     70  F   UNL A   1      44.751  26.499  24.908  1.00  0.00    -0.200 F 
ATOM     71  F   UNL A   1      43.797  23.960  24.626  1.00  0.00    -0.200 F 
ENDBRANCH  47  61
BRANCH  48  72
ATOM     72  C   UNL A   1      39.429  31.986  35.391  1.00  0.00     0.064 A 
ATOM     73  C   UNL A   1      39.841  33.316  35.551  1.00  0.00     0.173 A 
ATOM     74  C   UNL A   1      38.549  31.455  36.346  1.00  0.00     0.173 A 
ATOM     75  F   UNL A   1      40.703  33.860  34.680  1.00  0.00    -0.203 F 
ATOM     76  C   UNL A   1      39.403  34.078  36.633  1.00  0.00     0.198 A 
ATOM     77  C   UNL A   1      38.092  32.226  37.412  1.00  0.00     0.198 A 
ATOM     78  F   UNL A   1      38.129  30.185  36.239  1.00  0.00    -0.203 F 
ATOM     79  F   UNL A   1      39.846  35.333  36.787  1.00  0.00    -0.200 F 
ATOM     80  C   UNL A   1      38.523  33.535  37.559  1.00  0.00     0.200 A 
ATOM     81  F   UNL A   1      37.235  31.700  38.297  1.00  0.00    -0.200 F 
ATOM     82  F   UNL A   1      38.101  34.270  38.596  1.00  0.00    -0.200 F 
ENDBRANCH  48  72
BRANCH  60  83
ATOM     83  C   UNL A   1      44.968  27.844  34.524  1.00  0.00     0.064 A 
ATOM     84  C   UNL A   1      46.133  28.623  34.556  1.00  0.00     0.173 A 
ATOM     85  C   UNL A   1      44.890  26.742  35.389  1.00  0.00     0.173 A 
ATOM     86  F   UNL A   1      46.262  29.680  33.739  1.00  0.00    -0.203 F 
ATOM     87  C   UNL A   1      47.189  28.299  35.405  1.00  0.00     0.198 A 
ATOM     88  C   UNL A   1      45.935  26.435  36.256  1.00  0.00     0.198 A 
ATOM     89  F   UNL A   1      43.794  25.969  35.401  1.00  0.00    -0.203 F 
ATOM     90  F   UNL A   1      48.309  29.032  35.389  1.00  0.00    -0.200 F 
ATOM     91  C   UNL A   1      47.086  27.210  36.259  1.00  0.00     0.200 A 
ATOM     92  F   UNL A   1      45.829  25.392  37.089  1.00  0.00    -0.200 F 
ATOM     93  F   UNL A   1      48.099  26.903  37.080  1.00  0.00    -0.200 F 
ENDBRANCH  60  83
ENDBRANCH  34  35
ENDBRANCH  27  29
ENDBRANCH  26  27
ENDBRANCH  25  26
ENDBRANCH  24  25
ENDBRANCH  23  24
ENDBRANCH   1  23
TORSDOF 18
ENDMDL
MODEL 2
REMARK VINA RESULT:     -11.5      3.095      8.082
REMARK SMILES C[C@@H](C(=O)OCCOCCOC(=O)c1ccc(-c2c3nc(c(-c4c(F)c(F)c(F)c(F)c4F)c4ccc([nH]4)c(-c4c(F)c(F)c(F)c(F)c4F)c4nc(c(-c5c(F)c(F)c(F)c(F)c5F)c5ccc2[nH]5)C=C4)C=C3)cc1)c1ccc(C[C@@H]2CCC[C@@H]2O)cc1F
REMARK SMILES IDX 7 1 6 2 5 3 3 4 4 5 2 6 1 7 77 8 78 9 89 10 79 11 88 12
REMARK SMILES IDX 90 13 80 14 81 15 82 16 83 17 86 18 84 19 85 20 87 21 8 23
REMARK SMILES IDX 9 24 10 25 11 26 12 27 13 28 14 29 15 30 76 31 16 32 75 33
REMARK SMILES IDX 17 34 18 35 19 36 69 37 20 38 74 39 68 40 70 41 21 42 73 43
REMARK SMILES IDX 67 44 66 45 22 47 54 48 34 49 53 50 35 51 38 52 52 53 71 54
REMARK SMILES IDX 36 55 37 56 51 58 72 59 39 60 23 61 24 62 32 63 25 64 26 65
REMARK SMILES IDX 30 66 33 67 27 68 28 69 31 70 29 71 55 72 56 73 64 74 57 75
REMARK SMILES IDX 58 76 62 77 65 78 59 79 60 80 63 81 61 82 40 83 41 84 49 85
REMARK SMILES IDX 42 86 43 87 47 88 50 89 44 90 45 91 48 92 46 93
REMARK H PARENT 87 22 70 46 38 57
REMARK Flexibility Score: inf
ROOT
ATOM      1  C   UNL A   1      39.963  20.988  26.285  1.00  0.00     0.202 C 
ENDROOT
BRANCH   1   2
ATOM      2  C   UNL A   1      38.827  20.546  25.356  1.00  0.00     0.261 C 
BRANCH   2   3
ATOM      3  O   UNL A   1      37.753  21.491  25.393  1.00  0.00    -0.463 OA
BRANCH   3   4
ATOM      4  C   UNL A   1      36.575  21.079  24.849  1.00  0.00     0.313 C 
ATOM      5  O   UNL A   1      36.096  19.963  25.008  1.00  0.00    -0.252 OA
BRANCH   4   6
ATOM      6  C   UNL A   1      35.922  22.183  24.012  1.00  0.00     0.129 C 
ATOM      7  C   UNL A   1      37.008  23.159  23.521  1.00  0.00     0.025 C 
BRANCH   6   8
ATOM      8  C   UNL A   1      34.712  22.879  24.645  1.00  0.00     0.002 A 
ATOM      9  C   UNL A   1      34.887  23.902  25.595  1.00  0.00     0.008 A 
ATOM     10  C   UNL A   1      33.394  22.632  24.238  1.00  0.00     0.127 A 
ATOM     11  C   UNL A   1      33.801  24.613  26.128  1.00  0.00     0.004 A 
ATOM     12  C   UNL A   1      32.306  23.334  24.772  1.00  0.00     0.043 A 
ATOM     13  F   UNL A   1      33.127  21.714  23.304  1.00  0.00    -0.207 F 
ATOM     14  C   UNL A   1      32.492  24.324  25.742  1.00  0.00    -0.045 A 
BRANCH  14  15
ATOM     15  C   UNL A   1      31.314  25.096  26.294  1.00  0.00     0.041 C 
BRANCH  15  16
ATOM     16  C   UNL A   1      30.931  26.453  25.664  1.00  0.00     0.022 C 
ATOM     17  C   UNL A   1      31.426  26.678  24.231  1.00  0.00     0.007 C 
ATOM     18  C   UNL A   1      31.391  27.724  26.384  1.00  0.00     0.117 C 
ATOM     19  C   UNL A   1      32.647  27.598  24.324  1.00  0.00     0.003 C 
ATOM     20  C   UNL A   1      32.753  28.040  25.780  1.00  0.00     0.032 C 
BRANCH  18  21
ATOM     21  O   UNL A   1      31.414  27.605  27.790  1.00  0.00    -0.393 OA
ATOM     22  H   UNL A   1      31.497  28.486  28.188  1.00  0.00     0.210 HD
ENDBRANCH  18  21
ENDBRANCH  15  16
ENDBRANCH  14  15
ENDBRANCH   6   8
ENDBRANCH   4   6
ENDBRANCH   3   4
ENDBRANCH   2   3
ENDBRANCH   1   2
BRANCH   1  23
ATOM     23  O   UNL A   1      41.240  20.396  26.049  1.00  0.00    -0.374 OA
BRANCH  23  24
ATOM     24  C   UNL A   1      42.394  21.066  26.563  1.00  0.00     0.202 C 
BRANCH  24  25
ATOM     25  C   UNL A   1      43.332  21.712  25.535  1.00  0.00     0.261 C 
BRANCH  25  26
ATOM     26  O   UNL A   1      42.747  22.860  24.890  1.00  0.00    -0.460 OA
BRANCH  26  27
ATOM     27  C   UNL A   1      43.469  24.001  25.002  1.00  0.00     0.338 C 
ATOM     28  O   UNL A   1      44.490  24.297  24.396  1.00  0.00    -0.246 OA
BRANCH  27  29
ATOM     29  C   UNL A   1      42.777  24.971  25.868  1.00  0.00     0.060 A 
ATOM     30  C   UNL A   1      43.405  26.201  26.097  1.00  0.00     0.016 A 
ATOM     31  C   UNL A   1      41.603  24.637  26.545  1.00  0.00     0.016 A 
ATOM     32  C   UNL A   1      42.885  27.087  27.040  1.00  0.00     0.010 A 
ATOM     33  C   UNL A   1      41.087  25.524  27.498  1.00  0.00     0.010 A 
ATOM     34  C   UNL A   1      41.746  26.737  27.775  1.00  0.00    -0.014 A 
BRANCH  34  35
ATOM     35  C   UNL A   1      41.337  27.574  28.930  1.00  0.00     0.031 A 
ATOM     36  C   UNL A   1      42.118  27.487  30.212  1.00  0.00     0.074 A 
ATOM     37  C   UNL A   1      40.304  28.429  28.829  1.00  0.00     0.049 A 
ATOM     38  N   UNL A   1      41.928  28.111  31.347  1.00  0.00    -0.248 NA
ATOM     39  C   UNL A   1      43.272  26.574  30.213  1.00  0.00     0.031 C 
ATOM     40  C   UNL A   1      39.493  28.634  27.632  1.00  0.00     0.029 A 
ATOM     41  N   UNL A   1      39.760  29.284  29.756  1.00  0.00    -0.354 N 
ATOM     42  C   UNL A   1      42.936  27.668  32.194  1.00  0.00     0.074 A 
ATOM     43  C   UNL A   1      43.715  26.698  31.455  1.00  0.00     0.031 C 
ATOM     44  C   UNL A   1      38.545  29.547  27.900  1.00  0.00     0.029 A 
ATOM     45  C   UNL A   1      38.666  29.970  29.294  1.00  0.00     0.049 A 
ATOM     46  H   UNL A   1      40.121  29.393  30.666  1.00  0.00     0.167 HD
ATOM     47  C   UNL A   1      43.194  28.043  33.471  1.00  0.00     0.037 A 
ATOM     48  C   UNL A   1      37.845  30.828  29.932  1.00  0.00     0.037 A 
ATOM     49  C   UNL A   1      42.417  29.004  34.208  1.00  0.00     0.049 A 
ATOM     50  C   UNL A   1      38.111  31.177  31.373  1.00  0.00     0.074 A 
ATOM     51  C   UNL A   1      42.606  29.457  35.503  1.00  0.00     0.029 A 
ATOM     52  N   UNL A   1      41.297  29.657  33.715  1.00  0.00    -0.354 N 
ATOM     53  N   UNL A   1      39.077  30.769  32.159  1.00  0.00    -0.248 NA
ATOM     54  C   UNL A   1      37.173  32.111  32.013  1.00  0.00     0.031 C 
ATOM     55  C   UNL A   1      41.573  30.350  35.808  1.00  0.00     0.029 A 
ATOM     56  C   UNL A   1      40.770  30.491  34.689  1.00  0.00     0.049 A 
ATOM     57  H   UNL A   1      40.930  29.543  32.809  1.00  0.00     0.167 HD
ATOM     58  C   UNL A   1      38.879  31.413  33.375  1.00  0.00     0.074 A 
ATOM     59  C   UNL A   1      37.708  32.249  33.218  1.00  0.00     0.031 C 
ATOM     60  C   UNL A   1      39.604  31.320  34.517  1.00  0.00     0.037 A 
BRANCH  47  61
ATOM     61  C   UNL A   1      44.356  27.391  34.159  1.00  0.00     0.064 A 
ATOM     62  C   UNL A   1      45.620  27.998  34.201  1.00  0.00     0.173 A 
ATOM     63  C   UNL A   1      44.197  26.158  34.810  1.00  0.00     0.173 A 
ATOM     64  F   UNL A   1      45.828  29.170  33.581  1.00  0.00    -0.203 F 
ATOM     65  C   UNL A   1      46.689  27.382  34.848  1.00  0.00     0.198 A 
ATOM     66  C   UNL A   1      45.261  25.559  35.479  1.00  0.00     0.198 A 
ATOM     67  F   UNL A   1      43.007  25.539  34.803  1.00  0.00    -0.203 F 
ATOM     68  F   UNL A   1      47.898  27.959  34.838  1.00  0.00    -0.200 F 
ATOM     69  C   UNL A   1      46.507  26.167  35.492  1.00  0.00     0.200 A 
ATOM     70  F   UNL A   1      45.080  24.390  36.109  1.00  0.00    -0.200 F 
ATOM     71  F   UNL A   1      47.535  25.578  36.117  1.00  0.00    -0.200 F 
ENDBRANCH  47  61
BRANCH  48  72
ATOM     72  C   UNL A   1      36.681  31.407  29.214  1.00  0.00     0.064 A 
ATOM     73  C   UNL A   1      36.658  32.758  28.840  1.00  0.00     0.173 A 
ATOM     74  C   UNL A   1      35.561  30.623  28.897  1.00  0.00     0.173 A 
ATOM     75  F   UNL A   1      37.692  33.555  29.145  1.00  0.00    -0.203 F 
ATOM     76  C   UNL A   1      35.552  33.305  28.191  1.00  0.00     0.198 A 
ATOM     77  C   UNL A   1      34.468  31.165  28.226  1.00  0.00     0.198 A 
ATOM     78  F   UNL A   1      35.533  29.325  29.237  1.00  0.00    -0.203 F 
ATOM     79  F   UNL A   1      35.537  34.610  27.884  1.00  0.00    -0.200 F 
ATOM     80  C   UNL A   1      34.461  32.507  27.879  1.00  0.00     0.200 A 
ATOM     81  F   UNL A   1      33.422  30.388  27.918  1.00  0.00    -0.200 F 
ATOM     82  F   UNL A   1      33.401  33.033  27.252  1.00  0.00    -0.200 F 
ENDBRANCH  48  72
BRANCH  60  83
ATOM     83  C   UNL A   1      39.171  32.165  35.680  1.00  0.00     0.064 A 
ATOM     84  C   UNL A   1      38.296  31.674  36.659  1.00  0.00     0.173 A 
ATOM     85  C   UNL A   1      39.674  33.466  35.839  1.00  0.00     0.173 A 
ATOM     86  F   UNL A   1      37.777  30.442  36.545  1.00  0.00    -0.203 F 
ATOM     87  C   UNL A   1      37.922  32.463  37.745  1.00  0.00     0.198 A 
ATOM     88  C   UNL A   1      39.320  34.241  36.939  1.00  0.00     0.198 A 
ATOM     89  F   UNL A   1      40.520  33.979  34.934  1.00  0.00    -0.203 F 
ATOM     90  F   UNL A   1      37.052  31.989  38.646  1.00  0.00    -0.200 F 
ATOM     91  C   UNL A   1      38.439  33.742  37.888  1.00  0.00     0.200 A 
ATOM     92  F   UNL A   1      39.830  35.472  37.083  1.00  0.00    -0.200 F 
ATOM     93  F   UNL A   1      38.084  34.496  38.936  1.00  0.00    -0.200 F 
ENDBRANCH  60  83
ENDBRANCH  34  35
ENDBRANCH  27  29
ENDBRANCH  26  27
ENDBRANCH  25  26
ENDBRANCH  24  25
ENDBRANCH  23  24
ENDBRANCH   1  23
TORSDOF 18
ENDMDL
MODEL 3
REMARK VINA RESULT:     -11.4      0.917      2.024
REMARK SMILES C[C@@H](C(=O)OCCOCCOC(=O)c1ccc(-c2c3nc(c(-c4c(F)c(F)c(F)c(F)c4F)c4ccc([nH]4)c(-c4c(F)c(F)c(F)c(F)c4F)c4nc(c(-c5c(F)c(F)c(F)c(F)c5F)c5ccc2[nH]5)C=C4)C=C3)cc1)c1ccc(C[C@@H]2CCC[C@@H]2O)cc1F
REMARK SMILES IDX 7 1 6 2 5 3 3 4 4 5 2 6 1 7 77 8 78 9 89 10 79 11 88 12
REMARK SMILES IDX 90 13 80 14 81 15 82 16 83 17 86 18 84 19 85 20 87 21 8 23
REMARK SMILES IDX 9 24 10 25 11 26 12 27 13 28 14 29 15 30 76 31 16 32 75 33
REMARK SMILES IDX 17 34 18 35 19 36 69 37 20 38 74 39 68 40 70 41 21 42 73 43
REMARK SMILES IDX 67 44 66 45 22 47 54 48 34 49 53 50 35 51 38 52 52 53 71 54
REMARK SMILES IDX 36 55 37 56 51 58 72 59 39 60 23 61 24 62 32 63 25 64 26 65
REMARK SMILES IDX 30 66 33 67 27 68 28 69 31 70 29 71 55 72 56 73 64 74 57 75
REMARK SMILES IDX 58 76 62 77 65 78 59 79 60 80 63 81 61 82 40 83 41 84 49 85
REMARK SMILES IDX 42 86 43 87 47 88 50 89 44 90 45 91 48 92 46 93
REMARK H PARENT 87 22 70 46 38 57
REMARK Flexibility Score: inf
ROOT
ATOM      1  C   UNL A   1      33.631  26.257  26.089  1.00  0.00     0.202 C 
ENDROOT
BRANCH   1   2
ATOM      2  C   UNL A   1      34.595  25.563  25.120  1.00  0.00     0.261 C 
BRANCH   2   3
ATOM      3  O   UNL A   1      34.169  24.221  24.864  1.00  0.00    -0.463 OA
BRANCH   3   4
ATOM      4  C   UNL A   1      34.280  23.794  23.576  1.00  0.00     0.313 C 
ATOM      5  O   UNL A   1      35.344  23.663  22.984  1.00  0.00    -0.252 OA
BRANCH   4   6
ATOM      6  C   UNL A   1      32.911  23.497  22.959  1.00  0.00     0.129 C 
ATOM      7  C   UNL A   1      33.099  23.015  21.508  1.00  0.00     0.025 C 
BRANCH   6   8
ATOM      8  C   UNL A   1      31.854  24.598  23.108  1.00  0.00     0.002 A 
ATOM      9  C   UNL A   1      30.820  24.477  24.055  1.00  0.00     0.008 A 
ATOM     10  C   UNL A   1      31.920  25.814  22.416  1.00  0.00     0.127 A 
ATOM     11  C   UNL A   1      29.889  25.504  24.270  1.00  0.00     0.004 A 
ATOM     12  C   UNL A   1      30.989  26.840  22.623  1.00  0.00     0.043 A 
ATOM     13  F   UNL A   1      32.895  26.046  21.532  1.00  0.00    -0.207 F 
ATOM     14  C   UNL A   1      29.944  26.692  23.541  1.00  0.00    -0.045 A 
BRANCH  14  15
ATOM     15  C   UNL A   1      28.959  27.815  23.778  1.00  0.00     0.041 C 
BRANCH  15  16
ATOM     16  C   UNL A   1      28.825  28.944  22.732  1.00  0.00     0.022 C 
ATOM     17  C   UNL A   1      29.789  30.122  22.907  1.00  0.00     0.007 C 
ATOM     18  C   UNL A   1      27.465  29.636  22.607  1.00  0.00     0.117 C 
ATOM     19  C   UNL A   1      28.987  31.259  23.547  1.00  0.00     0.003 C 
ATOM     20  C   UNL A   1      27.532  30.803  23.584  1.00  0.00     0.032 C 
BRANCH  18  21
ATOM     21  O   UNL A   1      26.367  28.778  22.833  1.00  0.00    -0.393 OA
ATOM     22  H   UNL A   1      26.620  28.086  23.464  1.00  0.00     0.210 HD
ENDBRANCH  18  21
ENDBRANCH  15  16
ENDBRANCH  14  15
ENDBRANCH   6   8
ENDBRANCH   4   6
ENDBRANCH   3   4
ENDBRANCH   2   3
ENDBRANCH   1   2
BRANCH   1  23
ATOM     23  O   UNL A   1      32.826  27.301  25.542  1.00  0.00    -0.374 OA
BRANCH  23  24
ATOM     24  C   UNL A   1      31.899  27.955  26.412  1.00  0.00     0.202 C 
BRANCH  24  25
ATOM     25  C   UNL A   1      31.785  29.480  26.278  1.00  0.00     0.261 C 
BRANCH  25  26
ATOM     26  O   UNL A   1      33.059  30.116  26.053  1.00  0.00    -0.460 OA
BRANCH  26  27
ATOM     27  C   UNL A   1      33.393  31.053  26.973  1.00  0.00     0.338 C 
ATOM     28  O   UNL A   1      32.673  31.921  27.445  1.00  0.00    -0.246 OA
BRANCH  27  29
ATOM     29  C   UNL A   1      34.751  30.811  27.489  1.00  0.00     0.060 A 
ATOM     30  C   UNL A   1      35.142  29.482  27.692  1.00  0.00     0.016 A 
ATOM     31  C   UNL A   1      35.579  31.862  27.889  1.00  0.00     0.016 A 
ATOM     32  C   UNL A   1      36.345  29.197  28.336  1.00  0.00     0.010 A 
ATOM     33  C   UNL A   1      36.782  31.575  28.545  1.00  0.00     0.010 A 
ATOM     34  C   UNL A   1      37.153  30.242  28.803  1.00  0.00    -0.014 A 
BRANCH  34  35
ATOM     35  C   UNL A   1      38.305  29.935  29.687  1.00  0.00     0.031 A 
ATOM     36  C   UNL A   1      39.370  28.991  29.200  1.00  0.00     0.074 A 
ATOM     37  C   UNL A   1      38.423  30.516  30.893  1.00  0.00     0.049 A 
ATOM     38  N   UNL A   1      40.450  28.569  29.808  1.00  0.00    -0.248 NA
ATOM     39  C   UNL A   1      39.195  28.452  27.843  1.00  0.00     0.031 C 
ATOM     40  C   UNL A   1      37.480  31.476  31.461  1.00  0.00     0.029 A 
ATOM     41  N   UNL A   1      39.389  30.379  31.859  1.00  0.00    -0.354 N 
ATOM     42  C   UNL A   1      41.081  27.718  28.910  1.00  0.00     0.074 A 
ATOM     43  C   UNL A   1      40.248  27.657  27.728  1.00  0.00     0.031 C 
ATOM     44  C   UNL A   1      37.906  31.833  32.685  1.00  0.00     0.029 A 
ATOM     45  C   UNL A   1      39.137  31.106  32.995  1.00  0.00     0.049 A 
ATOM     46  H   UNL A   1      40.186  29.810  31.748  1.00  0.00     0.167 HD
ATOM     47  C   UNL A   1      42.254  27.054  29.054  1.00  0.00     0.037 A 
ATOM     48  C   UNL A   1      39.814  31.164  34.158  1.00  0.00     0.037 A 
ATOM     49  C   UNL A   1      43.081  27.112  30.231  1.00  0.00     0.049 A 
ATOM     50  C   UNL A   1      41.080  30.363  34.321  1.00  0.00     0.074 A 
ATOM     51  C   UNL A   1      44.292  26.483  30.467  1.00  0.00     0.029 A 
ATOM     52  N   UNL A   1      42.777  27.837  31.373  1.00  0.00    -0.354 N 
ATOM     53  N   UNL A   1      41.679  29.577  33.459  1.00  0.00    -0.248 NA
ATOM     54  C   UNL A   1      41.766  30.462  35.617  1.00  0.00     0.031 C 
ATOM     55  C   UNL A   1      44.698  26.793  31.770  1.00  0.00     0.029 A 
ATOM     56  C   UNL A   1      43.766  27.653  32.327  1.00  0.00     0.049 A 
ATOM     57  H   UNL A   1      41.977  28.399  31.489  1.00  0.00     0.167 HD
ATOM     58  C   UNL A   1      42.821  29.109  34.098  1.00  0.00     0.074 A 
ATOM     59  C   UNL A   1      42.838  29.709  35.415  1.00  0.00     0.031 C 
ATOM     60  C   UNL A   1      43.771  28.260  33.633  1.00  0.00     0.037 A 
BRANCH  47  61
ATOM     61  C   UNL A   1      42.701  26.189  27.914  1.00  0.00     0.064 A 
ATOM     62  C   UNL A   1      43.584  26.664  26.933  1.00  0.00     0.173 A 
ATOM     63  C   UNL A   1      42.264  24.859  27.816  1.00  0.00     0.173 A 
ATOM     64  F   UNL A   1      44.020  27.933  26.973  1.00  0.00    -0.203 F 
ATOM     65  C   UNL A   1      43.994  25.847  25.882  1.00  0.00     0.198 A 
ATOM     66  C   UNL A   1      42.698  24.037  26.779  1.00  0.00     0.198 A 
ATOM     67  F   UNL A   1      41.423  24.355  28.731  1.00  0.00    -0.203 F 
ATOM     68  F   UNL A   1      44.803  26.335  24.932  1.00  0.00    -0.200 F 
ATOM     69  C   UNL A   1      43.555  24.533  25.809  1.00  0.00     0.200 A 
ATOM     70  F   UNL A   1      42.280  22.765  26.717  1.00  0.00    -0.200 F 
ATOM     71  F   UNL A   1      43.954  23.747  24.800  1.00  0.00    -0.200 F 
ENDBRANCH  47  61
BRANCH  48  72
ATOM     72  C   UNL A   1      39.299  32.001  35.272  1.00  0.00     0.064 A 
ATOM     73  C   UNL A   1      39.604  33.366  35.353  1.00  0.00     0.173 A 
ATOM     74  C   UNL A   1      38.500  31.449  36.284  1.00  0.00     0.173 A 
ATOM     75  F   UNL A   1      40.387  33.934  34.424  1.00  0.00    -0.203 F 
ATOM     76  C   UNL A   1      39.142  34.144  36.415  1.00  0.00     0.198 A 
ATOM     77  C   UNL A   1      38.018  32.232  37.330  1.00  0.00     0.198 A 
ATOM     78  F   UNL A   1      38.183  30.145  36.253  1.00  0.00    -0.203 F 
ATOM     79  F   UNL A   1      39.485  35.437  36.492  1.00  0.00    -0.200 F 
ATOM     80  C   UNL A   1      38.344  33.578  37.398  1.00  0.00     0.200 A 
ATOM     81  F   UNL A   1      37.239  31.683  38.271  1.00  0.00    -0.200 F 
ATOM     82  F   UNL A   1      37.898  34.327  38.415  1.00  0.00    -0.200 F 
ENDBRANCH  48  72
BRANCH  60  83
ATOM     83  C   UNL A   1      44.924  27.950  34.542  1.00  0.00     0.064 A 
ATOM     84  C   UNL A   1      44.910  26.839  35.396  1.00  0.00     0.173 A 
ATOM     85  C   UNL A   1      46.077  28.751  34.525  1.00  0.00     0.173 A 
ATOM     86  F   UNL A   1      43.826  26.050  35.459  1.00  0.00    -0.203 F 
ATOM     87  C   UNL A   1      45.997  26.551  36.217  1.00  0.00     0.198 A 
ATOM     88  C   UNL A   1      47.173  28.446  35.327  1.00  0.00     0.198 A 
ATOM     89  F   UNL A   1      46.144  29.822  33.721  1.00  0.00    -0.203 F 
ATOM     90  F   UNL A   1      45.945  25.508  37.056  1.00  0.00    -0.200 F 
ATOM     91  C   UNL A   1      47.131  27.351  36.176  1.00  0.00     0.200 A 
ATOM     92  F   UNL A   1      48.272  29.212  35.277  1.00  0.00    -0.200 F 
ATOM     93  F   UNL A   1      48.179  27.069  36.961  1.00  0.00    -0.200 F 
ENDBRANCH  60  83
ENDBRANCH  34  35
ENDBRANCH  27  29
ENDBRANCH  26  27
ENDBRANCH  25  26
ENDBRANCH  24  25
ENDBRANCH  23  24
ENDBRANCH   1  23
TORSDOF 18
ENDMDL
