MODEL 1
REMARK VINA RESULT:     -10.0      0.000      0.000
REMARK SMILES CCOC(=O)c1cc(C[NH2+]CC(=O)OCCOCCOC(=O)c2ccc(-c3c4nc(c(-c5c(F)c(F)c(F)c(F)c5F)c5ccc([nH]5)c(-c5c(F)c(F)c(F)c(F)c5F)c5nc(c(-c6c(F)c(F)c(F)c(F)c6F)c6ccc3[nH]6)C=C5)C=C4)cc2)c(C)o1
REMARK SMILES IDX 15 1 14 2 12 3 13 4 11 5 10 6 9 9 8 10 6 11 7 12 88 13 86 14
REMARK SMILES IDX 87 15 4 16 5 17 3 18 2 19 1 20 16 21 17 22 18 23 19 24 20 25
REMARK SMILES IDX 21 26 22 27 23 28 24 29 85 30 25 31 84 32 26 33 27 34 28 35
REMARK SMILES IDX 78 36 29 37 83 38 77 39 79 40 30 41 82 42 76 43 75 44 31 46
REMARK SMILES IDX 63 47 43 48 62 49 44 50 47 51 61 52 80 53 45 54 46 55 60 57
REMARK SMILES IDX 81 58 48 59 32 60 33 61 41 62 34 63 35 64 39 65 42 66 36 67
REMARK SMILES IDX 37 68 40 69 38 70 64 71 65 72 73 73 66 74 67 75 71 76 74 77
REMARK SMILES IDX 68 78 69 79 72 80 70 81 49 82 50 83 58 84 51 85 52 86 56 87
REMARK SMILES IDX 59 88 53 89 54 90 57 91 55 92
REMARK H PARENT 10 7 10 8 79 45 47 56
REMARK Flexibility Score: inf
ROOT
ATOM      1  C   UNL A   1      35.664  22.492  24.458  1.00  0.00     0.261 C 
ENDROOT
BRANCH   1   2
ATOM      2  O   UNL A   1      35.477  23.864  24.055  1.00  0.00    -0.459 OA
BRANCH   2   3
ATOM      3  C   UNL A   1      34.308  24.153  23.422  1.00  0.00     0.361 C 
ATOM      4  O   UNL A   1      34.007  23.754  22.304  1.00  0.00    -0.245 OA
BRANCH   3   5
ATOM      5  C   UNL A   1      33.410  25.078  24.239  1.00  0.00     0.385 C 
BRANCH   5   6
ATOM      6  N   UNL A   1      32.019  24.634  24.442  1.00  0.00    -0.333 N 
ATOM      7  H   UNL A   1      31.398  25.415  24.234  1.00  0.00     0.347 HD
ATOM      8  H   UNL A   1      31.869  23.839  23.821  1.00  0.00     0.347 HD
BRANCH   6   9
ATOM      9  C   UNL A   1      31.741  24.175  25.790  1.00  0.00     0.301 C 
BRANCH   9  10
ATOM     10  C   UNL A   1      32.082  22.726  25.886  1.00  0.00     0.048 A 
ATOM     11  C   UNL A   1      32.347  20.565  25.291  1.00  0.00     0.212 A 
ATOM     12  C   UNL A   1      31.562  21.684  25.071  1.00  0.00     0.068 A 
ATOM     13  O   UNL A   1      33.193  20.812  26.333  1.00  0.00    -0.454 OA
ATOM     14  C   UNL A   1      33.032  22.117  26.689  1.00  0.00     0.110 A 
ATOM     15  C   UNL A   1      33.921  22.600  27.764  1.00  0.00     0.088 C 
BRANCH  11  16
ATOM     16  C   UNL A   1      32.499  19.350  24.529  1.00  0.00     0.374 C 
ATOM     17  O   UNL A   1      32.404  19.219  23.309  1.00  0.00    -0.242 OA
BRANCH  16  18
ATOM     18  O   UNL A   1      32.590  18.298  25.393  1.00  0.00    -0.460 OA
BRANCH  18  19
ATOM     19  C   UNL A   1      32.867  17.054  24.735  1.00  0.00     0.230 C 
ATOM     20  C   UNL A   1      32.436  15.910  25.643  1.00  0.00     0.049 C 
ENDBRANCH  18  19
ENDBRANCH  16  18
ENDBRANCH  11  16
ENDBRANCH   9  10
ENDBRANCH   6   9
ENDBRANCH   5   6
ENDBRANCH   3   5
ENDBRANCH   2   3
ENDBRANCH   1   2
BRANCH   1  21
ATOM     21  C   UNL A   1      37.027  21.973  23.998  1.00  0.00     0.202 C 
BRANCH  21  22
ATOM     22  O   UNL A   1      37.844  21.401  25.020  1.00  0.00    -0.374 OA
BRANCH  22  23
ATOM     23  C   UNL A   1      38.000  19.984  24.990  1.00  0.00     0.202 C 
BRANCH  23  24
ATOM     24  C   UNL A   1      39.284  19.434  25.623  1.00  0.00     0.261 C 
BRANCH  24  25
ATOM     25  O   UNL A   1      40.266  20.458  25.853  1.00  0.00    -0.460 OA
BRANCH  25  26
ATOM     26  C   UNL A   1      40.715  20.545  27.130  1.00  0.00     0.338 C 
ATOM     27  O   UNL A   1      41.012  19.629  27.878  1.00  0.00    -0.246 OA
BRANCH  26  28
ATOM     28  C   UNL A   1      40.953  21.965  27.455  1.00  0.00     0.060 A 
ATOM     29  C   UNL A   1      40.254  22.952  26.747  1.00  0.00     0.016 A 
ATOM     30  C   UNL A   1      41.878  22.324  28.430  1.00  0.00     0.016 A 
ATOM     31  C   UNL A   1      40.508  24.306  26.993  1.00  0.00     0.010 A 
ATOM     32  C   UNL A   1      42.109  23.677  28.684  1.00  0.00     0.010 A 
ATOM     33  C   UNL A   1      41.460  24.683  27.950  1.00  0.00    -0.014 A 
BRANCH  33  34
ATOM     34  C   UNL A   1      41.900  26.098  28.110  1.00  0.00     0.031 A 
ATOM     35  C   UNL A   1      43.228  26.523  27.530  1.00  0.00     0.074 A 
ATOM     36  C   UNL A   1      41.172  26.991  28.807  1.00  0.00     0.049 A 
ATOM     37  N   UNL A   1      43.859  27.667  27.633  1.00  0.00    -0.248 NA
ATOM     38  C   UNL A   1      43.971  25.500  26.776  1.00  0.00     0.031 C 
ATOM     39  C   UNL A   1      39.896  26.718  29.468  1.00  0.00     0.029 A 
ATOM     40  N   UNL A   1      41.413  28.316  29.084  1.00  0.00    -0.354 N 
ATOM     41  C   UNL A   1      45.079  27.483  26.991  1.00  0.00     0.074 A 
ATOM     42  C   UNL A   1      45.136  26.098  26.584  1.00  0.00     0.031 C 
ATOM     43  C   UNL A   1      39.455  27.846  30.052  1.00  0.00     0.029 A 
ATOM     44  C   UNL A   1      40.427  28.915  29.829  1.00  0.00     0.049 A 
ATOM     45  H   UNL A   1      42.218  28.791  28.776  1.00  0.00     0.167 HD
ATOM     46  C   UNL A   1      46.049  28.390  26.720  1.00  0.00     0.037 A 
ATOM     47  C   UNL A   1      40.319  30.183  30.276  1.00  0.00     0.037 A 
ATOM     48  C   UNL A   1      45.971  29.783  27.069  1.00  0.00     0.049 A 
ATOM     49  C   UNL A   1      41.400  31.185  29.952  1.00  0.00     0.074 A 
ATOM     50  C   UNL A   1      46.862  30.799  26.770  1.00  0.00     0.029 A 
ATOM     51  N   UNL A   1      44.936  30.358  27.790  1.00  0.00    -0.354 N 
ATOM     52  N   UNL A   1      42.510  31.018  29.277  1.00  0.00    -0.248 NA
ATOM     53  C   UNL A   1      41.200  32.557  30.443  1.00  0.00     0.031 C 
ATOM     54  C   UNL A   1      46.389  31.981  27.349  1.00  0.00     0.029 A 
ATOM     55  C   UNL A   1      45.174  31.713  27.958  1.00  0.00     0.049 A 
ATOM     56  H   UNL A   1      44.149  29.876  28.133  1.00  0.00     0.167 HD
ATOM     57  C   UNL A   1      43.119  32.268  29.226  1.00  0.00     0.074 A 
ATOM     58  C   UNL A   1      42.249  33.185  29.933  1.00  0.00     0.031 C 
ATOM     59  C   UNL A   1      44.291  32.623  28.644  1.00  0.00     0.037 A 
BRANCH  46  60
ATOM     60  C   UNL A   1      47.269  27.899  25.992  1.00  0.00     0.064 A 
ATOM     61  C   UNL A   1      48.445  27.545  26.675  1.00  0.00     0.173 A 
ATOM     62  C   UNL A   1      47.267  27.777  24.594  1.00  0.00     0.173 A 
ATOM     63  F   UNL A   1      48.506  27.650  28.011  1.00  0.00    -0.203 F 
ATOM     64  C   UNL A   1      49.585  27.145  25.985  1.00  0.00     0.198 A 
ATOM     65  C   UNL A   1      48.397  27.335  23.909  1.00  0.00     0.198 A 
ATOM     66  F   UNL A   1      46.170  28.090  23.888  1.00  0.00    -0.203 F 
ATOM     67  F   UNL A   1      50.717  26.894  26.656  1.00  0.00    -0.200 F 
ATOM     68  C   UNL A   1      49.559  27.034  24.604  1.00  0.00     0.200 A 
ATOM     69  F   UNL A   1      48.364  27.210  22.576  1.00  0.00    -0.200 F 
ATOM     70  F   UNL A   1      50.658  26.649  23.940  1.00  0.00    -0.200 F 
ENDBRANCH  46  60
BRANCH  47  71
ATOM     71  C   UNL A   1      39.109  30.604  31.031  1.00  0.00     0.064 A 
ATOM     72  C   UNL A   1      37.990  31.116  30.358  1.00  0.00     0.173 A 
ATOM     73  C   UNL A   1      39.044  30.519  32.429  1.00  0.00     0.173 A 
ATOM     74  F   UNL A   1      38.012  31.239  29.023  1.00  0.00    -0.203 F 
ATOM     75  C   UNL A   1      36.862  31.548  31.054  1.00  0.00     0.198 A 
ATOM     76  C   UNL A   1      37.905  30.925  33.123  1.00  0.00     0.198 A 
ATOM     77  F   UNL A   1      40.086  30.034  33.121  1.00  0.00    -0.203 F 
ATOM     78  F   UNL A   1      35.827  32.077  30.387  1.00  0.00    -0.200 F 
ATOM     79  C   UNL A   1      36.819  31.446  32.436  1.00  0.00     0.200 A 
ATOM     80  F   UNL A   1      37.860  30.813  34.457  1.00  0.00    -0.200 F 
ATOM     81  F   UNL A   1      35.733  31.856  33.105  1.00  0.00    -0.200 F 
ENDBRANCH  47  71
BRANCH  59  82
ATOM     82  C   UNL A   1      44.683  34.074  28.687  1.00  0.00     0.064 A 
ATOM     83  C   UNL A   1      45.581  34.572  29.642  1.00  0.00     0.173 A 
ATOM     84  C   UNL A   1      44.189  34.967  27.724  1.00  0.00     0.173 A 
ATOM     85  F   UNL A   1      46.073  33.763  30.593  1.00  0.00    -0.203 F 
ATOM     86  C   UNL A   1      45.950  35.915  29.647  1.00  0.00     0.198 A 
ATOM     87  C   UNL A   1      44.587  36.302  27.711  1.00  0.00     0.198 A 
ATOM     88  F   UNL A   1      43.335  34.542  26.781  1.00  0.00    -0.203 F 
ATOM     89  F   UNL A   1      46.773  36.379  30.598  1.00  0.00    -0.200 F 
ATOM     90  C   UNL A   1      45.460  36.776  28.676  1.00  0.00     0.200 A 
ATOM     91  F   UNL A   1      44.125  37.127  26.761  1.00  0.00    -0.200 F 
ATOM     92  F   UNL A   1      45.825  38.066  28.676  1.00  0.00    -0.200 F 
ENDBRANCH  59  82
ENDBRANCH  33  34
ENDBRANCH  26  28
ENDBRANCH  25  26
ENDBRANCH  24  25
ENDBRANCH  23  24
ENDBRANCH  22  23
ENDBRANCH  21  22
ENDBRANCH   1  21
TORSDOF 20
ENDMDL
MODEL 2
REMARK VINA RESULT:      -9.8      4.772      7.786
REMARK SMILES CCOC(=O)c1cc(C[NH2+]CC(=O)OCCOCCOC(=O)c2ccc(-c3c4nc(c(-c5c(F)c(F)c(F)c(F)c5F)c5ccc([nH]5)c(-c5c(F)c(F)c(F)c(F)c5F)c5nc(c(-c6c(F)c(F)c(F)c(F)c6F)c6ccc3[nH]6)C=C5)C=C4)cc2)c(C)o1
REMARK SMILES IDX 15 1 14 2 12 3 13 4 11 5 10 6 9 9 8 10 6 11 7 12 88 13 86 14
REMARK SMILES IDX 87 15 4 16 5 17 3 18 2 19 1 20 16 21 17 22 18 23 19 24 20 25
REMARK SMILES IDX 21 26 22 27 23 28 24 29 85 30 25 31 84 32 26 33 27 34 28 35
REMARK SMILES IDX 78 36 29 37 83 38 77 39 79 40 30 41 82 42 76 43 75 44 31 46
REMARK SMILES IDX 63 47 43 48 62 49 44 50 47 51 61 52 80 53 45 54 46 55 60 57
REMARK SMILES IDX 81 58 48 59 32 60 33 61 41 62 34 63 35 64 39 65 42 66 36 67
REMARK SMILES IDX 37 68 40 69 38 70 64 71 65 72 73 73 66 74 67 75 71 76 74 77
REMARK SMILES IDX 68 78 69 79 72 80 70 81 49 82 50 83 58 84 51 85 52 86 56 87
REMARK SMILES IDX 59 88 53 89 54 90 57 91 55 92
REMARK H PARENT 10 7 10 8 79 45 47 56
REMARK Flexibility Score: inf
ROOT
ATOM      1  C   UNL A   1      44.068  19.547  25.149  1.00  0.00     0.261 C 
ENDROOT
BRANCH   1   2
ATOM      2  O   UNL A   1      43.248  18.748  26.026  1.00  0.00    -0.459 OA
BRANCH   2   3
ATOM      3  C   UNL A   1      41.991  19.210  26.263  1.00  0.00     0.361 C 
ATOM      4  O   UNL A   1      41.005  18.913  25.599  1.00  0.00    -0.245 OA
BRANCH   3   5
ATOM      5  C   UNL A   1      41.935  20.190  27.432  1.00  0.00     0.385 C 
BRANCH   5   6
ATOM      6  N   UNL A   1      40.769  21.092  27.479  1.00  0.00    -0.333 N 
ATOM      7  H   UNL A   1      39.923  20.528  27.401  1.00  0.00     0.347 HD
ATOM      8  H   UNL A   1      40.822  21.597  28.364  1.00  0.00     0.347 HD
BRANCH   6   9
ATOM      9  C   UNL A   1      40.755  22.087  26.424  1.00  0.00     0.301 C 
BRANCH   9  10
ATOM     10  C   UNL A   1      39.347  22.520  26.188  1.00  0.00     0.048 A 
ATOM     11  C   UNL A   1      37.117  22.397  25.860  1.00  0.00     0.212 A 
ATOM     12  C   UNL A   1      38.306  21.726  25.632  1.00  0.00     0.068 A 
ATOM     13  O   UNL A   1      37.394  23.640  26.352  1.00  0.00    -0.454 OA
ATOM     14  C   UNL A   1      38.739  23.710  26.549  1.00  0.00     0.110 A 
ATOM     15  C   UNL A   1      39.232  24.966  27.151  1.00  0.00     0.088 C 
BRANCH  11  16
ATOM     16  C   UNL A   1      35.750  21.941  25.818  1.00  0.00     0.374 C 
ATOM     17  O   UNL A   1      35.322  20.914  25.291  1.00  0.00    -0.242 OA
BRANCH  16  18
ATOM     18  O   UNL A   1      34.942  22.927  26.306  1.00  0.00    -0.460 OA
BRANCH  18  19
ATOM     19  C   UNL A   1      34.160  23.568  25.289  1.00  0.00     0.230 C 
ATOM     20  C   UNL A   1      34.354  25.074  25.395  1.00  0.00     0.049 C 
ENDBRANCH  18  19
ENDBRANCH  16  18
ENDBRANCH  11  16
ENDBRANCH   9  10
ENDBRANCH   6   9
ENDBRANCH   5   6
ENDBRANCH   3   5
ENDBRANCH   2   3
ENDBRANCH   1   2
BRANCH   1  21
ATOM     21  C   UNL A   1      45.532  19.111  25.231  1.00  0.00     0.202 C 
BRANCH  21  22
ATOM     22  O   UNL A   1      46.487  20.172  25.268  1.00  0.00    -0.374 OA
BRANCH  22  23
ATOM     23  C   UNL A   1      46.093  21.404  24.669  1.00  0.00     0.202 C 
BRANCH  23  24
ATOM     24  C   UNL A   1      46.112  22.635  25.584  1.00  0.00     0.261 C 
BRANCH  24  25
ATOM     25  O   UNL A   1      44.860  22.836  26.260  1.00  0.00    -0.460 OA
BRANCH  25  26
ATOM     26  C   UNL A   1      44.129  23.888  25.812  1.00  0.00     0.338 C 
ATOM     27  O   UNL A   1      43.687  24.063  24.689  1.00  0.00    -0.246 OA
BRANCH  26  28
ATOM     28  C   UNL A   1      43.797  24.758  26.957  1.00  0.00     0.060 A 
ATOM     29  C   UNL A   1      43.020  24.241  28.002  1.00  0.00     0.016 A 
ATOM     30  C   UNL A   1      44.222  26.082  26.988  1.00  0.00     0.016 A 
ATOM     31  C   UNL A   1      42.638  25.064  29.068  1.00  0.00     0.010 A 
ATOM     32  C   UNL A   1      43.856  26.890  28.065  1.00  0.00     0.010 A 
ATOM     33  C   UNL A   1      43.033  26.408  29.098  1.00  0.00    -0.014 A 
BRANCH  33  34
ATOM     34  C   UNL A   1      42.497  27.367  30.106  1.00  0.00     0.031 A 
ATOM     35  C   UNL A   1      43.181  27.481  31.447  1.00  0.00     0.074 A 
ATOM     36  C   UNL A   1      41.386  28.091  29.871  1.00  0.00     0.049 A 
ATOM     37  N   UNL A   1      42.835  28.168  32.508  1.00  0.00    -0.248 NA
ATOM     38  C   UNL A   1      44.393  26.666  31.635  1.00  0.00     0.031 C 
ATOM     39  C   UNL A   1      40.587  28.052  28.647  1.00  0.00     0.029 A 
ATOM     40  N   UNL A   1      40.729  28.998  30.668  1.00  0.00    -0.354 N 
ATOM     41  C   UNL A   1      43.763  27.837  33.490  1.00  0.00     0.074 A 
ATOM     42  C   UNL A   1      44.627  26.824  32.927  1.00  0.00     0.031 C 
ATOM     43  C   UNL A   1      39.563  28.915  28.764  1.00  0.00     0.029 A 
ATOM     44  C   UNL A   1      39.617  29.550  30.081  1.00  0.00     0.049 A 
ATOM     45  H   UNL A   1      41.029  29.231  31.577  1.00  0.00     0.167 HD
ATOM     46  C   UNL A   1      43.916  28.356  34.732  1.00  0.00     0.037 A 
ATOM     47  C   UNL A   1      38.745  30.466  30.549  1.00  0.00     0.037 A 
ATOM     48  C   UNL A   1      43.097  29.406  35.274  1.00  0.00     0.049 A 
ATOM     49  C   UNL A   1      38.940  31.047  31.928  1.00  0.00     0.074 A 
ATOM     50  C   UNL A   1      43.221  30.057  36.489  1.00  0.00     0.029 A 
ATOM     51  N   UNL A   1      42.004  29.966  34.630  1.00  0.00    -0.354 N 
ATOM     52  N   UNL A   1      39.867  30.784  32.816  1.00  0.00    -0.248 NA
ATOM     53  C   UNL A   1      37.971  32.066  32.360  1.00  0.00     0.031 C 
ATOM     54  C   UNL A   1      42.175  30.980  36.600  1.00  0.00     0.029 A 
ATOM     55  C   UNL A   1      41.435  30.944  35.429  1.00  0.00     0.049 A 
ATOM     56  H   UNL A   1      41.680  29.706  33.737  1.00  0.00     0.167 HD
ATOM     57  C   UNL A   1      39.618  31.630  33.891  1.00  0.00     0.074 A 
ATOM     58  C   UNL A   1      38.457  32.421  33.541  1.00  0.00     0.031 C 
ATOM     59  C   UNL A   1      40.293  31.743  35.062  1.00  0.00     0.037 A 
BRANCH  46  60
ATOM     60  C   UNL A   1      45.030  27.803  35.578  1.00  0.00     0.064 A 
ATOM     61  C   UNL A   1      44.814  26.756  36.489  1.00  0.00     0.173 A 
ATOM     62  C   UNL A   1      46.329  28.323  35.479  1.00  0.00     0.173 A 
ATOM     63  F   UNL A   1      43.589  26.227  36.632  1.00  0.00    -0.203 F 
ATOM     64  C   UNL A   1      45.840  26.291  37.306  1.00  0.00     0.198 A 
ATOM     65  C   UNL A   1      47.364  27.826  36.268  1.00  0.00     0.198 A 
ATOM     66  F   UNL A   1      46.598  29.316  34.619  1.00  0.00    -0.203 F 
ATOM     67  F   UNL A   1      45.586  25.348  38.225  1.00  0.00    -0.200 F 
ATOM     68  C   UNL A   1      47.115  26.821  37.192  1.00  0.00     0.200 A 
ATOM     69  F   UNL A   1      48.600  28.326  36.142  1.00  0.00    -0.200 F 
ATOM     70  F   UNL A   1      48.102  26.373  37.979  1.00  0.00    -0.200 F 
ENDBRANCH  46  60
BRANCH  47  71
ATOM     71  C   UNL A   1      37.634  30.946  29.683  1.00  0.00     0.064 A 
ATOM     72  C   UNL A   1      37.680  32.224  29.107  1.00  0.00     0.173 A 
ATOM     73  C   UNL A   1      36.506  30.155  29.424  1.00  0.00     0.173 A 
ATOM     74  F   UNL A   1      38.727  33.027  29.345  1.00  0.00    -0.203 F 
ATOM     75  C   UNL A   1      36.630  32.700  28.323  1.00  0.00     0.198 A 
ATOM     76  C   UNL A   1      35.470  30.622  28.617  1.00  0.00     0.198 A 
ATOM     77  F   UNL A   1      36.414  28.924  29.949  1.00  0.00    -0.203 F 
ATOM     78  F   UNL A   1      36.681  33.944  27.825  1.00  0.00    -0.200 F 
ATOM     79  C   UNL A   1      35.529  31.897  28.074  1.00  0.00     0.200 A 
ATOM     80  F   UNL A   1      34.413  29.837  28.366  1.00  0.00    -0.200 F 
ATOM     81  F   UNL A   1      34.523  32.353  27.316  1.00  0.00    -0.200 F 
ENDBRANCH  47  71
BRANCH  59  82
ATOM     82  C   UNL A   1      39.840  32.797  36.033  1.00  0.00     0.064 A 
ATOM     83  C   UNL A   1      38.843  32.548  36.987  1.00  0.00     0.173 A 
ATOM     84  C   UNL A   1      40.452  34.060  36.039  1.00  0.00     0.173 A 
ATOM     85  F   UNL A   1      38.217  31.361  37.016  1.00  0.00    -0.203 F 
ATOM     86  C   UNL A   1      38.457  33.532  37.894  1.00  0.00     0.198 A 
ATOM     87  C   UNL A   1      40.087  35.031  36.970  1.00  0.00     0.198 A 
ATOM     88  F   UNL A   1      41.418  34.350  35.155  1.00  0.00    -0.203 F 
ATOM     89  F   UNL A   1      37.469  33.288  38.766  1.00  0.00    -0.200 F 
ATOM     90  C   UNL A   1      39.086  34.769  37.891  1.00  0.00     0.200 A 
ATOM     91  F   UNL A   1      40.708  36.218  36.974  1.00  0.00    -0.200 F 
ATOM     92  F   UNL A   1      38.720  35.711  38.772  1.00  0.00    -0.200 F 
ENDBRANCH  59  82
ENDBRANCH  33  34
ENDBRANCH  26  28
ENDBRANCH  25  26
ENDBRANCH  24  25
ENDBRANCH  23  24
ENDBRANCH  22  23
ENDBRANCH  21  22
ENDBRANCH   1  21
TORSDOF 20
ENDMDL
MODEL 3
REMARK VINA RESULT:      -9.6      4.826      7.805
REMARK SMILES CCOC(=O)c1cc(C[NH2+]CC(=O)OCCOCCOC(=O)c2ccc(-c3c4nc(c(-c5c(F)c(F)c(F)c(F)c5F)c5ccc([nH]5)c(-c5c(F)c(F)c(F)c(F)c5F)c5nc(c(-c6c(F)c(F)c(F)c(F)c6F)c6ccc3[nH]6)C=C5)C=C4)cc2)c(C)o1
REMARK SMILES IDX 15 1 14 2 12 3 13 4 11 5 10 6 9 9 8 10 6 11 7 12 88 13 86 14
REMARK SMILES IDX 87 15 4 16 5 17 3 18 2 19 1 20 16 21 17 22 18 23 19 24 20 25
REMARK SMILES IDX 21 26 22 27 23 28 24 29 85 30 25 31 84 32 26 33 27 34 28 35
REMARK SMILES IDX 78 36 29 37 83 38 77 39 79 40 30 41 82 42 76 43 75 44 31 46
REMARK SMILES IDX 63 47 43 48 62 49 44 50 47 51 61 52 80 53 45 54 46 55 60 57
REMARK SMILES IDX 81 58 48 59 32 60 33 61 41 62 34 63 35 64 39 65 42 66 36 67
REMARK SMILES IDX 37 68 40 69 38 70 64 71 65 72 73 73 66 74 67 75 71 76 74 77
REMARK SMILES IDX 68 78 69 79 72 80 70 81 49 82 50 83 58 84 51 85 52 86 56 87
REMARK SMILES IDX 59 88 53 89 54 90 57 91 55 92
REMARK H PARENT 10 7 10 8 79 45 47 56
REMARK Flexibility Score: inf
ROOT
ATOM      1  C   UNL A   1      44.328  19.556  25.139  1.00  0.00     0.261 C 
ENDROOT
BRANCH   1   2
ATOM      2  O   UNL A   1      43.666  18.782  26.160  1.00  0.00    -0.459 OA
BRANCH   2   3
ATOM      3  C   UNL A   1      42.323  18.962  26.278  1.00  0.00     0.361 C 
ATOM      4  O   UNL A   1      41.478  18.254  25.745  1.00  0.00    -0.245 OA
BRANCH   3   5
ATOM      5  C   UNL A   1      41.965  20.184  27.120  1.00  0.00     0.385 C 
BRANCH   5   6
ATOM      6  N   UNL A   1      40.620  20.752  26.916  1.00  0.00    -0.333 N 
ATOM      7  H   UNL A   1      40.135  20.187  26.220  1.00  0.00     0.347 HD
ATOM      8  H   UNL A   1      40.154  20.741  27.823  1.00  0.00     0.347 HD
BRANCH   6   9
ATOM      9  C   UNL A   1      40.628  22.130  26.463  1.00  0.00     0.301 C 
BRANCH   9  10
ATOM     10  C   UNL A   1      39.226  22.554  26.181  1.00  0.00     0.048 A 
ATOM     11  C   UNL A   1      37.015  22.416  25.748  1.00  0.00     0.212 A 
ATOM     12  C   UNL A   1      38.223  21.771  25.547  1.00  0.00     0.068 A 
ATOM     13  O   UNL A   1      37.252  23.641  26.302  1.00  0.00    -0.454 OA
ATOM     14  C   UNL A   1      38.586  23.720  26.563  1.00  0.00     0.110 A 
ATOM     15  C   UNL A   1      39.033  24.956  27.236  1.00  0.00     0.088 C 
BRANCH  11  16
ATOM     16  C   UNL A   1      35.658  21.945  25.627  1.00  0.00     0.374 C 
ATOM     17  O   UNL A   1      34.915  21.566  26.532  1.00  0.00    -0.242 OA
BRANCH  16  18
ATOM     18  O   UNL A   1      35.359  21.804  24.302  1.00  0.00    -0.460 OA
BRANCH  18  19
ATOM     19  C   UNL A   1      35.291  23.055  23.605  1.00  0.00     0.230 C 
ATOM     20  C   UNL A   1      34.039  23.069  22.738  1.00  0.00     0.049 C 
ENDBRANCH  18  19
ENDBRANCH  16  18
ENDBRANCH  11  16
ENDBRANCH   9  10
ENDBRANCH   6   9
ENDBRANCH   5   6
ENDBRANCH   3   5
ENDBRANCH   2   3
ENDBRANCH   1   2
BRANCH   1  21
ATOM     21  C   UNL A   1      45.834  19.293  25.150  1.00  0.00     0.202 C 
BRANCH  21  22
ATOM     22  O   UNL A   1      46.660  20.440  24.947  1.00  0.00    -0.374 OA
BRANCH  22  23
ATOM     23  C   UNL A   1      46.037  21.573  24.347  1.00  0.00     0.202 C 
BRANCH  23  24
ATOM     24  C   UNL A   1      46.014  22.854  25.189  1.00  0.00     0.261 C 
BRANCH  24  25
ATOM     25  O   UNL A   1      44.862  22.928  26.046  1.00  0.00    -0.460 OA
BRANCH  25  26
ATOM     26  C   UNL A   1      43.933  23.846  25.679  1.00  0.00     0.338 C 
ATOM     27  O   UNL A   1      43.329  23.912  24.622  1.00  0.00    -0.246 OA
BRANCH  26  28
ATOM     28  C   UNL A   1      43.625  24.702  26.841  1.00  0.00     0.060 A 
ATOM     29  C   UNL A   1      42.881  24.169  27.902  1.00  0.00     0.016 A 
ATOM     30  C   UNL A   1      44.041  26.029  26.874  1.00  0.00     0.016 A 
ATOM     31  C   UNL A   1      42.522  24.978  28.987  1.00  0.00     0.010 A 
ATOM     32  C   UNL A   1      43.698  26.823  27.969  1.00  0.00     0.010 A 
ATOM     33  C   UNL A   1      42.908  26.325  29.018  1.00  0.00    -0.014 A 
BRANCH  33  34
ATOM     34  C   UNL A   1      42.392  27.270  30.050  1.00  0.00     0.031 A 
ATOM     35  C   UNL A   1      43.076  27.333  31.395  1.00  0.00     0.074 A 
ATOM     36  C   UNL A   1      41.298  28.025  29.833  1.00  0.00     0.049 A 
ATOM     37  N   UNL A   1      42.744  28.000  32.473  1.00  0.00    -0.248 NA
ATOM     38  C   UNL A   1      44.268  26.486  31.563  1.00  0.00     0.031 C 
ATOM     39  C   UNL A   1      40.501  28.036  28.608  1.00  0.00     0.029 A 
ATOM     40  N   UNL A   1      40.661  28.926  30.653  1.00  0.00    -0.354 N 
ATOM     41  C   UNL A   1      43.662  27.623  33.447  1.00  0.00     0.074 A 
ATOM     42  C   UNL A   1      44.504  26.605  32.859  1.00  0.00     0.031 C 
ATOM     43  C   UNL A   1      39.497  28.919  28.745  1.00  0.00     0.029 A 
ATOM     44  C   UNL A   1      39.563  29.519  30.078  1.00  0.00     0.049 A 
ATOM     45  H   UNL A   1      40.964  29.129  31.567  1.00  0.00     0.167 HD
ATOM     46  C   UNL A   1      43.826  28.107  34.702  1.00  0.00     0.037 A 
ATOM     47  C   UNL A   1      38.712  30.443  30.569  1.00  0.00     0.037 A 
ATOM     48  C   UNL A   1      43.030  29.161  35.270  1.00  0.00     0.049 A 
ATOM     49  C   UNL A   1      38.918  30.983  31.962  1.00  0.00     0.074 A 
ATOM     50  C   UNL A   1      43.166  29.777  36.502  1.00  0.00     0.029 A 
ATOM     51  N   UNL A   1      41.951  29.762  34.639  1.00  0.00    -0.354 N 
ATOM     52  N   UNL A   1      39.836  30.675  32.845  1.00  0.00    -0.248 NA
ATOM     53  C   UNL A   1      37.971  32.012  32.420  1.00  0.00     0.031 C 
ATOM     54  C   UNL A   1      42.142  30.720  36.635  1.00  0.00     0.029 A 
ATOM     55  C   UNL A   1      41.404  30.732  35.463  1.00  0.00     0.049 A 
ATOM     56  H   UNL A   1      41.622  29.533  33.740  1.00  0.00     0.167 HD
ATOM     57  C   UNL A   1      39.606  31.499  33.941  1.00  0.00     0.074 A 
ATOM     58  C   UNL A   1      38.464  32.326  33.610  1.00  0.00     0.031 C 
ATOM     59  C   UNL A   1      40.281  31.566  35.115  1.00  0.00     0.037 A 
BRANCH  46  60
ATOM     60  C   UNL A   1      44.924  27.506  35.535  1.00  0.00     0.064 A 
ATOM     61  C   UNL A   1      46.224  28.038  35.538  1.00  0.00     0.173 A 
ATOM     62  C   UNL A   1      44.677  26.385  36.343  1.00  0.00     0.173 A 
ATOM     63  F   UNL A   1      46.519  29.104  34.778  1.00  0.00    -0.203 F 
ATOM     64  C   UNL A   1      47.245  27.439  36.271  1.00  0.00     0.198 A 
ATOM     65  C   UNL A   1      45.691  25.814  37.108  1.00  0.00     0.198 A 
ATOM     66  F   UNL A   1      43.453  25.840  36.389  1.00  0.00    -0.203 F 
ATOM     67  F   UNL A   1      48.494  27.919  36.190  1.00  0.00    -0.200 F 
ATOM     68  C   UNL A   1      46.977  26.332  37.060  1.00  0.00     0.200 A 
ATOM     69  F   UNL A   1      45.427  24.755  37.885  1.00  0.00    -0.200 F 
ATOM     70  F   UNL A   1      47.961  25.756  37.764  1.00  0.00    -0.200 F 
ENDBRANCH  46  60
BRANCH  47  71
ATOM     71  C   UNL A   1      37.614  30.969  29.715  1.00  0.00     0.064 A 
ATOM     72  C   UNL A   1      36.473  30.193  29.461  1.00  0.00     0.173 A 
ATOM     73  C   UNL A   1      37.680  32.240  29.126  1.00  0.00     0.173 A 
ATOM     74  F   UNL A   1      36.374  28.961  29.982  1.00  0.00    -0.203 F 
ATOM     75  C   UNL A   1      35.452  30.659  28.634  1.00  0.00     0.198 A 
ATOM     76  C   UNL A   1      36.646  32.716  28.323  1.00  0.00     0.198 A 
ATOM     77  F   UNL A   1      38.748  33.024  29.340  1.00  0.00    -0.203 F 
ATOM     78  F   UNL A   1      34.397  29.875  28.371  1.00  0.00    -0.200 F 
ATOM     79  C   UNL A   1      35.537  31.922  28.070  1.00  0.00     0.200 A 
ATOM     80  F   UNL A   1      36.724  33.943  27.790  1.00  0.00    -0.200 F 
ATOM     81  F   UNL A   1      34.553  32.371  27.280  1.00  0.00    -0.200 F 
ENDBRANCH  47  71
BRANCH  59  82
ATOM     82  C   UNL A   1      39.850  32.605  36.113  1.00  0.00     0.064 A 
ATOM     83  C   UNL A   1      40.467  33.862  36.191  1.00  0.00     0.173 A 
ATOM     84  C   UNL A   1      38.767  32.353  36.969  1.00  0.00     0.173 A 
ATOM     85  F   UNL A   1      41.516  34.149  35.403  1.00  0.00    -0.203 F 
ATOM     86  C   UNL A   1      40.034  34.818  37.106  1.00  0.00     0.198 A 
ATOM     87  C   UNL A   1      38.314  33.324  37.859  1.00  0.00     0.198 A 
ATOM     88  F   UNL A   1      38.133  31.172  36.931  1.00  0.00    -0.203 F 
ATOM     89  F   UNL A   1      40.669  35.994  37.195  1.00  0.00    -0.200 F 
ATOM     90  C   UNL A   1      38.952  34.552  37.932  1.00  0.00     0.200 A 
ATOM     91  F   UNL A   1      37.258  33.070  38.645  1.00  0.00    -0.200 F 
ATOM     92  F   UNL A   1      38.529  35.478  38.805  1.00  0.00    -0.200 F 
ENDBRANCH  59  82
ENDBRANCH  33  34
ENDBRANCH  26  28
ENDBRANCH  25  26
ENDBRANCH  24  25
ENDBRANCH  23  24
ENDBRANCH  22  23
ENDBRANCH  21  22
ENDBRANCH   1  21
TORSDOF 20
ENDMDL
