MODEL 1
REMARK VINA RESULT:     -12.4      0.000      0.000
REMARK SMILES NS(=O)(=O)c1ccc(N2N=C(C(=O)OCCOCCOC(=O)c3ccc(-c4c5nc(c(-c6c(F)c(F)c(F)c(F)c6F)c6ccc([nH]6)c(-c6c(F)c(F)c(F)c(F)c6F)c6nc(c(-c7c(F)c(F)c(F)c(F)c7F)c7ccc4[nH]7)C=C6)C=C5)cc3)C[C@H]2c2cccs2)cc1
REMARK SMILES IDX 16 1 15 2 14 3 12 4 13 5 11 6 9 7 10 8 87 9 86 10 8 11 5 12
REMARK SMILES IDX 6 13 94 14 7 15 93 16 2 17 3 18 4 19 1 20 88 23 89 24 92 25
REMARK SMILES IDX 90 26 91 27 17 28 18 29 19 30 20 31 21 32 22 33 23 34 24 35
REMARK SMILES IDX 85 36 25 37 84 38 26 39 27 40 28 41 78 42 29 43 83 44 77 45
REMARK SMILES IDX 79 46 30 47 82 48 76 49 75 50 31 52 63 53 43 54 62 55 44 56
REMARK SMILES IDX 47 57 61 58 80 59 45 60 46 61 60 63 81 64 48 65 32 66 33 67
REMARK SMILES IDX 41 68 34 69 35 70 39 71 42 72 36 73 37 74 40 75 38 76 64 77
REMARK SMILES IDX 65 78 73 79 66 80 67 81 71 82 74 83 68 84 69 85 72 86 70 87
REMARK SMILES IDX 49 88 50 89 58 90 51 91 52 92 56 93 59 94 53 95 54 96 57 97
REMARK SMILES IDX 55 98
REMARK H PARENT 1 21 1 22 79 51 47 62
REMARK Flexibility Score: inf
ROOT
ATOM      1  C   UNL A   1      34.715  21.490  26.325  1.00  0.00     0.202 C 
ENDROOT
BRANCH   1   2
ATOM      2  C   UNL A   1      33.236  21.778  26.589  1.00  0.00     0.261 C 
BRANCH   2   3
ATOM      3  O   UNL A   1      33.070  23.016  27.292  1.00  0.00    -0.459 OA
BRANCH   3   4
ATOM      4  C   UNL A   1      31.900  23.640  27.049  1.00  0.00     0.354 C 
ATOM      5  O   UNL A   1      30.797  23.350  27.470  1.00  0.00    -0.245 OA
BRANCH   4   6
ATOM      6  C   UNL A   1      32.153  24.887  26.242  1.00  0.00     0.148 C 
ATOM      7  N   UNL A   1      31.796  26.679  25.177  1.00  0.00    -0.256 N 
ATOM      8  N   UNL A   1      31.206  25.725  25.953  1.00  0.00    -0.169 NA
ATOM      9  C   UNL A   1      33.103  26.225  24.655  1.00  0.00     0.154 C 
ATOM     10  C   UNL A   1      33.527  25.281  25.795  1.00  0.00     0.099 C 
BRANCH   7  11
ATOM     11  C   UNL A   1      30.967  27.597  24.554  1.00  0.00     0.060 A 
ATOM     12  C   UNL A   1      29.311  29.418  23.207  1.00  0.00     0.082 A 
ATOM     13  C   UNL A   1      29.035  28.052  23.137  1.00  0.00     0.024 A 
ATOM     14  C   UNL A   1      30.422  29.883  23.909  1.00  0.00     0.024 A 
ATOM     15  C   UNL A   1      29.860  27.150  23.817  1.00  0.00     0.029 A 
ATOM     16  C   UNL A   1      31.250  28.969  24.564  1.00  0.00     0.029 A 
BRANCH  12  17
ATOM     17  S   UNL A   1      28.287  30.577  22.354  1.00  0.00     0.238 S 
ATOM     18  O   UNL A   1      27.262  31.067  23.246  1.00  0.00    -0.207 OA
ATOM     19  O   UNL A   1      27.992  30.073  21.034  1.00  0.00    -0.207 OA
BRANCH  17  20
ATOM     20  N   UNL A   1      29.342  31.866  22.131  1.00  0.00    -0.225 NA
ATOM     21  H   UNL A   1      28.860  32.740  22.339  1.00  0.00     0.137 HD
ATOM     22  H   UNL A   1      29.665  31.878  21.164  1.00  0.00     0.137 HD
ENDBRANCH  17  20
ENDBRANCH  12  17
ENDBRANCH   7  11
BRANCH   9  23
ATOM     23  C   UNL A   1      33.093  25.568  23.274  1.00  0.00     0.030 A 
ATOM     24  C   UNL A   1      32.954  26.208  22.051  1.00  0.00     0.017 A 
ATOM     25  S   UNL A   1      33.236  23.868  23.039  1.00  0.00    -0.147 S 
ATOM     26  C   UNL A   1      32.924  25.306  20.948  1.00  0.00     0.012 A 
ATOM     27  C   UNL A   1      33.098  24.003  21.347  1.00  0.00     0.065 A 
ENDBRANCH   9  23
ENDBRANCH   4   6
ENDBRANCH   3   4
ENDBRANCH   2   3
ENDBRANCH   1   2
BRANCH   1  28
ATOM     28  O   UNL A   1      35.059  20.955  25.051  1.00  0.00    -0.374 OA
BRANCH  28  29
ATOM     29  C   UNL A   1      36.126  20.010  24.971  1.00  0.00     0.202 C 
BRANCH  29  30
ATOM     30  C   UNL A   1      37.545  20.544  24.730  1.00  0.00     0.261 C 
BRANCH  30  31
ATOM     31  O   UNL A   1      37.965  21.511  25.710  1.00  0.00    -0.460 OA
BRANCH  31  32
ATOM     32  C   UNL A   1      39.207  21.293  26.215  1.00  0.00     0.338 C 
ATOM     33  O   UNL A   1      39.882  20.283  26.116  1.00  0.00    -0.246 OA
BRANCH  32  34
ATOM     34  C   UNL A   1      39.744  22.542  26.787  1.00  0.00     0.060 A 
ATOM     35  C   UNL A   1      39.238  23.754  26.299  1.00  0.00     0.016 A 
ATOM     36  C   UNL A   1      40.789  22.527  27.711  1.00  0.00     0.016 A 
ATOM     37  C   UNL A   1      39.808  24.961  26.701  1.00  0.00     0.010 A 
ATOM     38  C   UNL A   1      41.362  23.740  28.109  1.00  0.00     0.010 A 
ATOM     39  C   UNL A   1      40.898  24.959  27.580  1.00  0.00    -0.014 A 
BRANCH  39  40
ATOM     40  C   UNL A   1      41.644  26.216  27.837  1.00  0.00     0.031 A 
ATOM     41  C   UNL A   1      40.973  27.319  28.609  1.00  0.00     0.074 A 
ATOM     42  C   UNL A   1      42.907  26.369  27.401  1.00  0.00     0.049 A 
ATOM     43  N   UNL A   1      41.403  28.525  28.884  1.00  0.00    -0.248 NA
ATOM     44  C   UNL A   1      39.632  27.024  29.138  1.00  0.00     0.031 C 
ATOM     45  C   UNL A   1      43.680  25.358  26.684  1.00  0.00     0.029 A 
ATOM     46  N   UNL A   1      43.757  27.442  27.491  1.00  0.00    -0.354 N 
ATOM     47  C   UNL A   1      40.386  29.131  29.608  1.00  0.00     0.074 A 
ATOM     48  C   UNL A   1      39.303  28.177  29.701  1.00  0.00     0.031 C 
ATOM     49  C   UNL A   1      44.890  25.864  26.389  1.00  0.00     0.029 A 
ATOM     50  C   UNL A   1      44.960  27.246  26.861  1.00  0.00     0.049 A 
ATOM     51  H   UNL A   1      43.527  28.275  27.964  1.00  0.00     0.167 HD
ATOM     52  C   UNL A   1      40.363  30.370  30.157  1.00  0.00     0.037 A 
ATOM     53  C   UNL A   1      45.988  28.094  26.664  1.00  0.00     0.037 A 
ATOM     54  C   UNL A   1      41.444  31.316  30.065  1.00  0.00     0.049 A 
ATOM     55  C   UNL A   1      45.902  29.497  27.211  1.00  0.00     0.074 A 
ATOM     56  C   UNL A   1      41.523  32.593  30.596  1.00  0.00     0.029 A 
ATOM     57  N   UNL A   1      42.636  31.091  29.391  1.00  0.00    -0.354 N 
ATOM     58  N   UNL A   1      44.947  30.058  27.911  1.00  0.00    -0.248 NA
ATOM     59  C   UNL A   1      47.045  30.383  26.944  1.00  0.00     0.031 C 
ATOM     60  C   UNL A   1      42.736  33.160  30.194  1.00  0.00     0.029 A 
ATOM     61  C   UNL A   1      43.444  32.214  29.471  1.00  0.00     0.049 A 
ATOM     62  H   UNL A   1      42.873  30.257  28.926  1.00  0.00     0.167 HD
ATOM     63  C   UNL A   1      45.387  31.345  28.199  1.00  0.00     0.074 A 
ATOM     64  C   UNL A   1      46.701  31.477  27.608  1.00  0.00     0.031 C 
ATOM     65  C   UNL A   1      44.759  32.327  28.893  1.00  0.00     0.037 A 
BRANCH  52  66
ATOM     66  C   UNL A   1      39.118  30.786  30.887  1.00  0.00     0.064 A 
ATOM     67  C   UNL A   1      38.969  30.586  32.268  1.00  0.00     0.173 A 
ATOM     68  C   UNL A   1      38.077  31.433  30.203  1.00  0.00     0.173 A 
ATOM     69  F   UNL A   1      39.928  29.962  32.968  1.00  0.00    -0.203 F 
ATOM     70  C   UNL A   1      37.814  30.996  32.931  1.00  0.00     0.198 A 
ATOM     71  C   UNL A   1      36.939  31.871  30.875  1.00  0.00     0.198 A 
ATOM     72  F   UNL A   1      38.169  31.654  28.883  1.00  0.00    -0.203 F 
ATOM     73  F   UNL A   1      37.673  30.750  34.241  1.00  0.00    -0.200 F 
ATOM     74  C   UNL A   1      36.805  31.645  32.236  1.00  0.00     0.200 A 
ATOM     75  F   UNL A   1      35.971  32.511  30.205  1.00  0.00    -0.200 F 
ATOM     76  F   UNL A   1      35.699  32.047  32.877  1.00  0.00    -0.200 F 
ENDBRANCH  52  66
BRANCH  53  77
ATOM     77  C   UNL A   1      47.187  27.654  25.901  1.00  0.00     0.064 A 
ATOM     78  C   UNL A   1      48.332  27.185  26.561  1.00  0.00     0.173 A 
ATOM     79  C   UNL A   1      47.225  27.723  24.501  1.00  0.00     0.173 A 
ATOM     80  F   UNL A   1      48.354  27.123  27.900  1.00  0.00    -0.203 F 
ATOM     81  C   UNL A   1      49.478  26.832  25.851  1.00  0.00     0.198 A 
ATOM     82  C   UNL A   1      48.360  27.337  23.790  1.00  0.00     0.198 A 
ATOM     83  F   UNL A   1      46.158  28.164  23.819  1.00  0.00    -0.203 F 
ATOM     84  F   UNL A   1      50.578  26.445  26.511  1.00  0.00    -0.200 F 
ATOM     85  C   UNL A   1      49.490  26.903  24.467  1.00  0.00     0.200 A 
ATOM     86  F   UNL A   1      48.362  27.394  22.451  1.00  0.00    -0.200 F 
ATOM     87  F   UNL A   1      50.593  26.564  23.785  1.00  0.00    -0.200 F 
ENDBRANCH  53  77
BRANCH  65  88
ATOM     88  C   UNL A   1      45.506  33.614  29.103  1.00  0.00     0.064 A 
ATOM     89  C   UNL A   1      45.386  34.696  28.218  1.00  0.00     0.173 A 
ATOM     90  C   UNL A   1      46.323  33.781  30.234  1.00  0.00     0.173 A 
ATOM     91  F   UNL A   1      44.630  34.586  27.116  1.00  0.00    -0.203 F 
ATOM     92  C   UNL A   1      46.077  35.885  28.443  1.00  0.00     0.198 A 
ATOM     93  C   UNL A   1      46.983  34.982  30.473  1.00  0.00     0.198 A 
ATOM     94  F   UNL A   1      46.466  32.782  31.117  1.00  0.00    -0.203 F 
ATOM     95  F   UNL A   1      45.989  36.886  27.555  1.00  0.00    -0.200 F 
ATOM     96  C   UNL A   1      46.868  36.030  29.572  1.00  0.00     0.200 A 
ATOM     97  F   UNL A   1      47.732  35.126  31.575  1.00  0.00    -0.200 F 
ATOM     98  F   UNL A   1      47.524  37.178  29.791  1.00  0.00    -0.200 F 
ENDBRANCH  65  88
ENDBRANCH  39  40
ENDBRANCH  32  34
ENDBRANCH  31  32
ENDBRANCH  30  31
ENDBRANCH  29  30
ENDBRANCH  28  29
ENDBRANCH   1  28
TORSDOF 18
ENDMDL
MODEL 2
REMARK VINA RESULT:     -12.0      2.106      3.163
REMARK SMILES NS(=O)(=O)c1ccc(N2N=C(C(=O)OCCOCCOC(=O)c3ccc(-c4c5nc(c(-c6c(F)c(F)c(F)c(F)c6F)c6ccc([nH]6)c(-c6c(F)c(F)c(F)c(F)c6F)c6nc(c(-c7c(F)c(F)c(F)c(F)c7F)c7ccc4[nH]7)C=C6)C=C5)cc3)C[C@H]2c2cccs2)cc1
REMARK SMILES IDX 16 1 15 2 14 3 12 4 13 5 11 6 9 7 10 8 87 9 86 10 8 11 5 12
REMARK SMILES IDX 6 13 94 14 7 15 93 16 2 17 3 18 4 19 1 20 88 23 89 24 92 25
REMARK SMILES IDX 90 26 91 27 17 28 18 29 19 30 20 31 21 32 22 33 23 34 24 35
REMARK SMILES IDX 85 36 25 37 84 38 26 39 27 40 28 41 78 42 29 43 83 44 77 45
REMARK SMILES IDX 79 46 30 47 82 48 76 49 75 50 31 52 63 53 43 54 62 55 44 56
REMARK SMILES IDX 47 57 61 58 80 59 45 60 46 61 60 63 81 64 48 65 32 66 33 67
REMARK SMILES IDX 41 68 34 69 35 70 39 71 42 72 36 73 37 74 40 75 38 76 64 77
REMARK SMILES IDX 65 78 73 79 66 80 67 81 71 82 74 83 68 84 69 85 72 86 70 87
REMARK SMILES IDX 49 88 50 89 58 90 51 91 52 92 56 93 59 94 53 95 54 96 57 97
REMARK SMILES IDX 55 98
REMARK H PARENT 1 21 1 22 79 51 47 62
REMARK Flexibility Score: inf
ROOT
ATOM      1  C   UNL A   1      35.982  22.718  25.362  1.00  0.00     0.202 C 
ENDROOT
BRANCH   1   2
ATOM      2  C   UNL A   1      35.463  23.126  23.981  1.00  0.00     0.261 C 
BRANCH   2   3
ATOM      3  O   UNL A   1      34.039  22.985  23.904  1.00  0.00    -0.459 OA
BRANCH   3   4
ATOM      4  C   UNL A   1      33.459  23.730  22.940  1.00  0.00     0.354 C 
ATOM      5  O   UNL A   1      33.664  23.691  21.742  1.00  0.00    -0.245 OA
BRANCH   4   6
ATOM      6  C   UNL A   1      32.375  24.581  23.547  1.00  0.00     0.148 C 
ATOM      7  N   UNL A   1      30.890  26.073  23.746  1.00  0.00    -0.256 N 
ATOM      8  N   UNL A   1      31.739  25.479  22.859  1.00  0.00    -0.169 NA
ATOM      9  C   UNL A   1      31.266  25.777  25.144  1.00  0.00     0.154 C 
ATOM     10  C   UNL A   1      31.903  24.388  24.955  1.00  0.00     0.099 C 
BRANCH   7  11
ATOM     11  C   UNL A   1      30.226  27.215  23.326  1.00  0.00     0.060 A 
ATOM     12  C   UNL A   1      28.933  29.579  22.543  1.00  0.00     0.082 A 
ATOM     13  C   UNL A   1      30.316  29.466  22.391  1.00  0.00     0.024 A 
ATOM     14  C   UNL A   1      28.194  28.543  23.113  1.00  0.00     0.024 A 
ATOM     15  C   UNL A   1      30.953  28.282  22.777  1.00  0.00     0.029 A 
ATOM     16  C   UNL A   1      28.848  27.376  23.515  1.00  0.00     0.029 A 
BRANCH  12  17
ATOM     17  S   UNL A   1      28.105  31.065  22.067  1.00  0.00     0.238 S 
ATOM     18  O   UNL A   1      27.238  31.500  23.138  1.00  0.00    -0.207 OA
ATOM     19  O   UNL A   1      27.655  30.944  20.702  1.00  0.00    -0.207 OA
BRANCH  17  20
ATOM     20  N   UNL A   1      29.373  32.168  22.040  1.00  0.00    -0.225 NA
ATOM     21  H   UNL A   1      30.211  31.714  21.675  1.00  0.00     0.137 HD
ATOM     22  H   UNL A   1      29.554  32.502  22.987  1.00  0.00     0.137 HD
ENDBRANCH  17  20
ENDBRANCH  12  17
ENDBRANCH   7  11
BRANCH   9  23
ATOM     23  C   UNL A   1      32.179  26.792  25.833  1.00  0.00     0.030 A 
ATOM     24  C   UNL A   1      33.540  26.959  25.625  1.00  0.00     0.017 A 
ATOM     25  S   UNL A   1      31.623  27.899  27.030  1.00  0.00    -0.147 S 
ATOM     26  C   UNL A   1      34.116  27.953  26.469  1.00  0.00     0.012 A 
ATOM     27  C   UNL A   1      33.174  28.562  27.262  1.00  0.00     0.065 A 
ENDBRANCH   9  23
ENDBRANCH   4   6
ENDBRANCH   3   4
ENDBRANCH   2   3
ENDBRANCH   1   2
BRANCH   1  28
ATOM     28  O   UNL A   1      37.393  22.634  25.531  1.00  0.00    -0.374 OA
BRANCH  28  29
ATOM     29  C   UNL A   1      38.025  21.363  25.381  1.00  0.00     0.202 C 
BRANCH  29  30
ATOM     30  C   UNL A   1      39.503  21.243  25.778  1.00  0.00     0.261 C 
BRANCH  30  31
ATOM     31  O   UNL A   1      39.867  19.927  26.233  1.00  0.00    -0.460 OA
BRANCH  31  32
ATOM     32  C   UNL A   1      41.194  19.652  26.148  1.00  0.00     0.338 C 
ATOM     33  O   UNL A   1      41.717  18.645  25.702  1.00  0.00    -0.246 OA
BRANCH  32  34
ATOM     34  C   UNL A   1      41.981  20.842  26.522  1.00  0.00     0.060 A 
ATOM     35  C   UNL A   1      42.041  21.183  27.880  1.00  0.00     0.016 A 
ATOM     36  C   UNL A   1      42.566  21.661  25.556  1.00  0.00     0.016 A 
ATOM     37  C   UNL A   1      42.651  22.373  28.274  1.00  0.00     0.010 A 
ATOM     38  C   UNL A   1      43.173  22.856  25.954  1.00  0.00     0.010 A 
ATOM     39  C   UNL A   1      43.188  23.235  27.309  1.00  0.00    -0.014 A 
BRANCH  39  40
ATOM     40  C   UNL A   1      43.637  24.595  27.700  1.00  0.00     0.031 A 
ATOM     41  C   UNL A   1      42.604  25.640  28.023  1.00  0.00     0.074 A 
ATOM     42  C   UNL A   1      44.946  24.893  27.780  1.00  0.00     0.049 A 
ATOM     43  N   UNL A   1      42.763  26.907  28.313  1.00  0.00    -0.248 NA
ATOM     44  C   UNL A   1      41.201  25.197  28.014  1.00  0.00     0.031 C 
ATOM     45  C   UNL A   1      46.040  23.955  27.536  1.00  0.00     0.029 A 
ATOM     46  N   UNL A   1      45.575  26.075  28.079  1.00  0.00    -0.354 N 
ATOM     47  C   UNL A   1      41.485  27.411  28.510  1.00  0.00     0.074 A 
ATOM     48  C   UNL A   1      40.559  26.326  28.274  1.00  0.00     0.031 C 
ATOM     49  C   UNL A   1      47.208  24.602  27.686  1.00  0.00     0.029 A 
ATOM     50  C   UNL A   1      46.943  26.007  27.995  1.00  0.00     0.049 A 
ATOM     51  H   UNL A   1      45.090  26.895  28.330  1.00  0.00     0.167 HD
ATOM     52  C   UNL A   1      41.118  28.666  28.869  1.00  0.00     0.037 A 
ATOM     53  C   UNL A   1      47.872  26.974  28.125  1.00  0.00     0.037 A 
ATOM     54  C   UNL A   1      42.044  29.743  29.105  1.00  0.00     0.049 A 
ATOM     55  C   UNL A   1      47.431  28.382  28.440  1.00  0.00     0.074 A 
ATOM     56  C   UNL A   1      41.772  31.047  29.483  1.00  0.00     0.029 A 
ATOM     57  N   UNL A   1      43.421  29.642  28.980  1.00  0.00    -0.354 N 
ATOM     58  N   UNL A   1      46.224  28.848  28.644  1.00  0.00    -0.248 NA
ATOM     59  C   UNL A   1      48.489  29.398  28.547  1.00  0.00     0.031 C 
ATOM     60  C   UNL A   1      42.980  31.749  29.530  1.00  0.00     0.029 A 
ATOM     61  C   UNL A   1      44.012  30.868  29.248  1.00  0.00     0.049 A 
ATOM     62  H   UNL A   1      43.909  28.822  28.739  1.00  0.00     0.167 HD
ATOM     63  C   UNL A   1      46.379  30.197  28.940  1.00  0.00     0.074 A 
ATOM     64  C   UNL A   1      47.798  30.472  28.901  1.00  0.00     0.031 C 
ATOM     65  C   UNL A   1      45.429  31.124  29.222  1.00  0.00     0.037 A 
BRANCH  52  66
ATOM     66  C   UNL A   1      39.650  28.951  29.003  1.00  0.00     0.064 A 
ATOM     67  C   UNL A   1      38.869  29.344  27.905  1.00  0.00     0.173 A 
ATOM     68  C   UNL A   1      39.005  28.787  30.239  1.00  0.00     0.173 A 
ATOM     69  F   UNL A   1      39.437  29.527  26.704  1.00  0.00    -0.203 F 
ATOM     70  C   UNL A   1      37.505  29.586  28.046  1.00  0.00     0.198 A 
ATOM     71  C   UNL A   1      37.635  28.998  30.369  1.00  0.00     0.198 A 
ATOM     72  F   UNL A   1      39.702  28.409  31.321  1.00  0.00    -0.203 F 
ATOM     73  F   UNL A   1      36.789  30.007  26.993  1.00  0.00    -0.200 F 
ATOM     74  C   UNL A   1      36.888  29.405  29.274  1.00  0.00     0.200 A 
ATOM     75  F   UNL A   1      37.037  28.808  31.553  1.00  0.00    -0.200 F 
ATOM     76  F   UNL A   1      35.573  29.628  29.405  1.00  0.00    -0.200 F 
ENDBRANCH  52  66
BRANCH  53  77
ATOM     77  C   UNL A   1      49.314  26.656  27.945  1.00  0.00     0.064 A 
ATOM     78  C   UNL A   1      50.139  26.390  29.048  1.00  0.00     0.173 A 
ATOM     79  C   UNL A   1      49.904  26.645  26.673  1.00  0.00     0.173 A 
ATOM     80  F   UNL A   1      49.628  26.414  30.287  1.00  0.00    -0.203 F 
ATOM     81  C   UNL A   1      51.503  26.155  28.885  1.00  0.00     0.198 A 
ATOM     82  C   UNL A   1      51.261  26.375  26.510  1.00  0.00     0.198 A 
ATOM     83  F   UNL A   1      49.161  26.892  25.584  1.00  0.00    -0.203 F 
ATOM     84  F   UNL A   1      52.279  25.964  29.961  1.00  0.00    -0.200 F 
ATOM     85  C   UNL A   1      52.062  26.143  27.617  1.00  0.00     0.200 A 
ATOM     86  F   UNL A   1      51.794  26.350  25.280  1.00  0.00    -0.200 F 
ATOM     87  F   UNL A   1      53.374  25.917  27.463  1.00  0.00    -0.200 F 
ENDBRANCH  53  77
BRANCH  65  88
ATOM     88  C   UNL A   1      45.894  32.511  29.568  1.00  0.00     0.064 A 
ATOM     89  C   UNL A   1      46.060  33.504  28.591  1.00  0.00     0.173 A 
ATOM     90  C   UNL A   1      46.136  32.862  30.906  1.00  0.00     0.173 A 
ATOM     91  F   UNL A   1      45.856  33.218  27.297  1.00  0.00    -0.203 F 
ATOM     92  C   UNL A   1      46.478  34.787  28.937  1.00  0.00     0.198 A 
ATOM     93  C   UNL A   1      46.519  34.155  31.252  1.00  0.00     0.198 A 
ATOM     94  F   UNL A   1      45.984  31.955  31.882  1.00  0.00    -0.203 F 
ATOM     95  F   UNL A   1      46.682  35.704  27.980  1.00  0.00    -0.200 F 
ATOM     96  C   UNL A   1      46.700  35.113  30.266  1.00  0.00     0.200 A 
ATOM     97  F   UNL A   1      46.715  34.473  32.539  1.00  0.00    -0.200 F 
ATOM     98  F   UNL A   1      47.092  36.351  30.598  1.00  0.00    -0.200 F 
ENDBRANCH  65  88
ENDBRANCH  39  40
ENDBRANCH  32  34
ENDBRANCH  31  32
ENDBRANCH  30  31
ENDBRANCH  29  30
ENDBRANCH  28  29
ENDBRANCH   1  28
TORSDOF 18
ENDMDL
MODEL 3
REMARK VINA RESULT:     -11.9      0.624      7.226
REMARK SMILES NS(=O)(=O)c1ccc(N2N=C(C(=O)OCCOCCOC(=O)c3ccc(-c4c5nc(c(-c6c(F)c(F)c(F)c(F)c6F)c6ccc([nH]6)c(-c6c(F)c(F)c(F)c(F)c6F)c6nc(c(-c7c(F)c(F)c(F)c(F)c7F)c7ccc4[nH]7)C=C6)C=C5)cc3)C[C@H]2c2cccs2)cc1
REMARK SMILES IDX 16 1 15 2 14 3 12 4 13 5 11 6 9 7 10 8 87 9 86 10 8 11 5 12
REMARK SMILES IDX 6 13 94 14 7 15 93 16 2 17 3 18 4 19 1 20 88 23 89 24 92 25
REMARK SMILES IDX 90 26 91 27 17 28 18 29 19 30 20 31 21 32 22 33 23 34 24 35
REMARK SMILES IDX 85 36 25 37 84 38 26 39 27 40 28 41 78 42 29 43 83 44 77 45
REMARK SMILES IDX 79 46 30 47 82 48 76 49 75 50 31 52 63 53 43 54 62 55 44 56
REMARK SMILES IDX 47 57 61 58 80 59 45 60 46 61 60 63 81 64 48 65 32 66 33 67
REMARK SMILES IDX 41 68 34 69 35 70 39 71 42 72 36 73 37 74 40 75 38 76 64 77
REMARK SMILES IDX 65 78 73 79 66 80 67 81 71 82 74 83 68 84 69 85 72 86 70 87
REMARK SMILES IDX 49 88 50 89 58 90 51 91 52 92 56 93 59 94 53 95 54 96 57 97
REMARK SMILES IDX 55 98
REMARK H PARENT 1 21 1 22 79 51 47 62
REMARK Flexibility Score: inf
ROOT
ATOM      1  C   UNL A   1      34.327  21.387  26.773  1.00  0.00     0.202 C 
ENDROOT
BRANCH   1   2
ATOM      2  C   UNL A   1      32.858  21.790  26.635  1.00  0.00     0.261 C 
BRANCH   2   3
ATOM      3  O   UNL A   1      32.565  22.945  27.432  1.00  0.00    -0.459 OA
BRANCH   3   4
ATOM      4  C   UNL A   1      31.427  23.582  27.088  1.00  0.00     0.354 C 
ATOM      5  O   UNL A   1      30.287  23.302  27.408  1.00  0.00    -0.245 OA
BRANCH   4   6
ATOM      6  C   UNL A   1      31.763  24.828  26.312  1.00  0.00     0.148 C 
ATOM      7  N   UNL A   1      31.522  26.641  25.249  1.00  0.00    -0.256 N 
ATOM      8  N   UNL A   1      30.860  25.697  25.978  1.00  0.00    -0.169 NA
ATOM      9  C   UNL A   1      32.844  26.154  24.800  1.00  0.00     0.154 C 
ATOM     10  C   UNL A   1      33.172  25.187  25.952  1.00  0.00     0.099 C 
BRANCH   7  11
ATOM     11  C   UNL A   1      30.758  27.589  24.589  1.00  0.00     0.060 A 
ATOM     12  C   UNL A   1      29.234  29.469  23.167  1.00  0.00     0.082 A 
ATOM     13  C   UNL A   1      28.888  28.118  23.116  1.00  0.00     0.024 A 
ATOM     14  C   UNL A   1      30.352  29.888  23.889  1.00  0.00     0.024 A 
ATOM     15  C   UNL A   1      29.647  27.187  23.832  1.00  0.00     0.029 A 
ATOM     16  C   UNL A   1      31.114  28.944  24.581  1.00  0.00     0.029 A 
BRANCH  12  17
ATOM     17  S   UNL A   1      28.294  30.663  22.268  1.00  0.00     0.238 S 
ATOM     18  O   UNL A   1      27.264  31.211  23.120  1.00  0.00    -0.207 OA
ATOM     19  O   UNL A   1      28.020  30.156  20.945  1.00  0.00    -0.207 OA
BRANCH  17  20
ATOM     20  N   UNL A   1      29.416  31.898  22.066  1.00  0.00    -0.225 NA
ATOM     21  H   UNL A   1      29.383  32.522  22.873  1.00  0.00     0.137 HD
ATOM     22  H   UNL A   1      29.194  32.424  21.221  1.00  0.00     0.137 HD
ENDBRANCH  17  20
ENDBRANCH  12  17
ENDBRANCH   7  11
BRANCH   9  23
ATOM     23  C   UNL A   1      32.897  25.511  23.413  1.00  0.00     0.030 A 
ATOM     24  C   UNL A   1      32.946  24.154  23.128  1.00  0.00     0.017 A 
ATOM     25  S   UNL A   1      32.930  26.424  21.953  1.00  0.00    -0.147 S 
ATOM     26  C   UNL A   1      33.049  23.879  21.734  1.00  0.00     0.012 A 
ATOM     27  C   UNL A   1      33.021  25.029  20.981  1.00  0.00     0.065 A 
ENDBRANCH   9  23
ENDBRANCH   4   6
ENDBRANCH   3   4
ENDBRANCH   2   3
ENDBRANCH   1   2
BRANCH   1  28
ATOM     28  O   UNL A   1      35.094  21.293  25.576  1.00  0.00    -0.374 OA
BRANCH  28  29
ATOM     29  C   UNL A   1      36.426  21.803  25.575  1.00  0.00     0.202 C 
BRANCH  29  30
ATOM     30  C   UNL A   1      37.578  20.809  25.370  1.00  0.00     0.261 C 
BRANCH  30  31
ATOM     31  O   UNL A   1      38.869  21.439  25.287  1.00  0.00    -0.460 OA
BRANCH  31  32
ATOM     32  C   UNL A   1      39.645  21.274  26.389  1.00  0.00     0.338 C 
ATOM     33  O   UNL A   1      40.115  20.235  26.818  1.00  0.00    -0.246 OA
BRANCH  32  34
ATOM     34  C   UNL A   1      40.013  22.589  26.948  1.00  0.00     0.060 A 
ATOM     35  C   UNL A   1      39.381  23.722  26.419  1.00  0.00     0.016 A 
ATOM     36  C   UNL A   1      41.024  22.717  27.900  1.00  0.00     0.016 A 
ATOM     37  C   UNL A   1      39.790  24.996  26.810  1.00  0.00     0.010 A 
ATOM     38  C   UNL A   1      41.436  23.996  28.287  1.00  0.00     0.010 A 
ATOM     39  C   UNL A   1      40.846  25.141  27.719  1.00  0.00    -0.014 A 
BRANCH  39  40
ATOM     40  C   UNL A   1      41.430  26.483  27.968  1.00  0.00     0.031 A 
ATOM     41  C   UNL A   1      42.835  26.763  27.512  1.00  0.00     0.074 A 
ATOM     42  C   UNL A   1      40.714  27.443  28.579  1.00  0.00     0.049 A 
ATOM     43  N   UNL A   1      43.570  27.833  27.688  1.00  0.00    -0.248 NA
ATOM     44  C   UNL A   1      43.505  25.692  26.758  1.00  0.00     0.031 C 
ATOM     45  C   UNL A   1      39.329  27.307  29.025  1.00  0.00     0.029 A 
ATOM     46  N   UNL A   1      41.060  28.721  28.938  1.00  0.00    -0.354 N 
ATOM     47  C   UNL A   1      44.787  27.559  27.077  1.00  0.00     0.074 A 
ATOM     48  C   UNL A   1      44.706  26.212  26.556  1.00  0.00     0.031 C 
ATOM     49  C   UNL A   1      38.946  28.455  29.610  1.00  0.00     0.029 A 
ATOM     50  C   UNL A   1      40.071  29.390  29.614  1.00  0.00     0.049 A 
ATOM     51  H   UNL A   1      41.936  29.121  28.731  1.00  0.00     0.167 HD
ATOM     52  C   UNL A   1      45.869  28.365  26.952  1.00  0.00     0.037 A 
ATOM     53  C   UNL A   1      40.082  30.606  30.194  1.00  0.00     0.037 A 
ATOM     54  C   UNL A   1      45.945  29.705  27.471  1.00  0.00     0.049 A 
ATOM     55  C   UNL A   1      41.330  31.449  30.114  1.00  0.00     0.074 A 
ATOM     56  C   UNL A   1      46.993  30.606  27.387  1.00  0.00     0.029 A 
ATOM     57  N   UNL A   1      44.931  30.337  28.177  1.00  0.00    -0.354 N 
ATOM     58  N   UNL A   1      42.469  31.193  29.520  1.00  0.00    -0.248 NA
ATOM     59  C   UNL A   1      41.289  32.757  30.786  1.00  0.00     0.031 C 
ATOM     60  C   UNL A   1      46.636  31.760  28.091  1.00  0.00     0.029 A 
ATOM     61  C   UNL A   1      45.340  31.606  28.557  1.00  0.00     0.049 A 
ATOM     62  H   UNL A   1      44.052  29.944  28.377  1.00  0.00     0.167 HD
ATOM     63  C   UNL A   1      43.264  32.317  29.711  1.00  0.00     0.074 A 
ATOM     64  C   UNL A   1      42.473  33.262  30.468  1.00  0.00     0.031 C 
ATOM     65  C   UNL A   1      44.535  32.545  29.295  1.00  0.00     0.037 A 
BRANCH  52  66
ATOM     66  C   UNL A   1      47.074  27.809  26.248  1.00  0.00     0.064 A 
ATOM     67  C   UNL A   1      47.188  27.830  24.849  1.00  0.00     0.173 A 
ATOM     68  C   UNL A   1      48.148  27.286  26.984  1.00  0.00     0.173 A 
ATOM     69  F   UNL A   1      46.185  28.307  24.097  1.00  0.00    -0.203 F 
ATOM     70  C   UNL A   1      48.321  27.327  24.215  1.00  0.00     0.198 A 
ATOM     71  C   UNL A   1      49.293  26.814  26.348  1.00  0.00     0.198 A 
ATOM     72  F   UNL A   1      48.094  27.245  28.324  1.00  0.00    -0.203 F 
ATOM     73  F   UNL A   1      48.386  27.314  22.875  1.00  0.00    -0.200 F 
ATOM     74  C   UNL A   1      49.375  26.827  24.964  1.00  0.00     0.200 A 
ATOM     75  F   UNL A   1      50.318  26.345  27.074  1.00  0.00    -0.200 F 
ATOM     76  F   UNL A   1      50.469  26.353  24.352  1.00  0.00    -0.200 F 
ENDBRANCH  52  66
BRANCH  53  77
ATOM     77  C   UNL A   1      38.880  31.103  30.916  1.00  0.00     0.064 A 
ATOM     78  C   UNL A   1      37.877  31.818  30.245  1.00  0.00     0.173 A 
ATOM     79  C   UNL A   1      38.724  30.903  32.295  1.00  0.00     0.173 A 
ATOM     80  F   UNL A   1      37.992  32.057  28.930  1.00  0.00    -0.203 F 
ATOM     81  C   UNL A   1      36.782  32.338  30.932  1.00  0.00     0.198 A 
ATOM     82  C   UNL A   1      37.612  31.394  32.974  1.00  0.00     0.198 A 
ATOM     83  F   UNL A   1      39.654  30.226  32.986  1.00  0.00    -0.203 F 
ATOM     84  F   UNL A   1      35.871  33.070  30.276  1.00  0.00    -0.200 F 
ATOM     85  C   UNL A   1      36.647  32.122  32.294  1.00  0.00     0.200 A 
ATOM     86  F   UNL A   1      37.478  31.170  34.289  1.00  0.00    -0.200 F 
ATOM     87  F   UNL A   1      35.594  32.623  32.954  1.00  0.00    -0.200 F 
ENDBRANCH  53  77
BRANCH  65  88
ATOM     88  C   UNL A   1      45.132  33.892  29.597  1.00  0.00     0.064 A 
ATOM     89  C   UNL A   1      44.963  34.988  28.738  1.00  0.00     0.173 A 
ATOM     90  C   UNL A   1      45.849  34.096  30.787  1.00  0.00     0.173 A 
ATOM     91  F   UNL A   1      44.298  34.844  27.582  1.00  0.00    -0.203 F 
ATOM     92  C   UNL A   1      45.514  36.230  29.046  1.00  0.00     0.198 A 
ATOM     93  C   UNL A   1      46.368  35.347  31.108  1.00  0.00     0.198 A 
ATOM     94  F   UNL A   1      46.033  33.084  31.648  1.00  0.00    -0.203 F 
ATOM     95  F   UNL A   1      45.385  37.250  28.185  1.00  0.00    -0.200 F 
ATOM     96  C   UNL A   1      46.208  36.411  30.233  1.00  0.00     0.200 A 
ATOM     97  F   UNL A   1      47.022  35.523  32.264  1.00  0.00    -0.200 F 
ATOM     98  F   UNL A   1      46.729  37.609  30.532  1.00  0.00    -0.200 F 
ENDBRANCH  65  88
ENDBRANCH  39  40
ENDBRANCH  32  34
ENDBRANCH  31  32
ENDBRANCH  30  31
ENDBRANCH  29  30
ENDBRANCH  28  29
ENDBRANCH   1  28
TORSDOF 18
ENDMDL
