MODEL 1
REMARK VINA RESULT:     -12.4      0.000      0.000
REMARK SMILES Cc1c(C)c2c(c(C)c1O)CC[C@@](C)(C(=O)OCCOCCOC(=O)c1ccc(-c3c4nc(c(-c5c(F)c(F)c(F)c(F)c5F)c5ccc([nH]5)c(-c5c(F)c(F)c(F)c(F)c5F)c5nc(c(-c6c(F)c(F)c(F)c(F)c6F)c6ccc3[nH]6)C=C5)C=C4)cc1)O2
REMARK SMILES IDX 21 1 20 2 19 3 18 4 17 5 15 6 16 7 13 8 1 9 2 10 3 11 9 12
REMARK SMILES IDX 4 13 5 14 7 15 6 16 89 17 8 18 11 19 12 20 14 21 10 22 22 24
REMARK SMILES IDX 23 25 24 26 25 27 26 28 27 29 88 30 28 31 87 32 29 33 30 34
REMARK SMILES IDX 31 35 81 36 32 37 86 38 80 39 82 40 33 41 85 42 79 43 78 44
REMARK SMILES IDX 34 46 66 47 46 48 65 49 47 50 50 51 64 52 83 53 48 54 49 55
REMARK SMILES IDX 63 57 84 58 51 59 35 60 36 61 44 62 37 63 38 64 42 65 45 66
REMARK SMILES IDX 39 67 40 68 43 69 41 70 67 71 68 72 76 73 69 74 70 75 74 76
REMARK SMILES IDX 77 77 71 78 72 79 75 80 73 81 52 82 53 83 61 84 54 85 55 86
REMARK SMILES IDX 59 87 62 88 56 89 57 90 60 91 58 92
REMARK H PARENT 10 23 82 45 50 56
REMARK Flexibility Score: inf
ROOT
ATOM      1  C   UNL A   1      31.479  29.989  25.218  1.00  0.00     0.202 C 
ENDROOT
BRANCH   1   2
ATOM      2  O   UNL A   1      32.584  29.085  25.248  1.00  0.00    -0.374 OA
BRANCH   2   3
ATOM      3  C   UNL A   1      33.502  29.130  24.158  1.00  0.00     0.202 C 
BRANCH   3   4
ATOM      4  C   UNL A   1      32.962  28.741  22.781  1.00  0.00     0.261 C 
BRANCH   4   5
ATOM      5  O   UNL A   1      32.238  27.496  22.808  1.00  0.00    -0.460 OA
BRANCH   5   6
ATOM      6  C   UNL A   1      33.014  26.383  22.660  1.00  0.00     0.350 C 
ATOM      7  O   UNL A   1      33.653  26.130  21.643  1.00  0.00    -0.247 OA
BRANCH   6   8
ATOM      8  C   UNL A   1      32.961  25.455  23.886  1.00  0.00     0.203 C 
ATOM      9  C   UNL A   1      32.398  19.361  23.715  1.00  0.00     0.049 C 
ATOM     10  C   UNL A   1      32.846  20.669  24.318  1.00  0.00    -0.002 A 
ATOM     11  C   UNL A   1      32.868  21.825  23.506  1.00  0.00    -0.002 A 
ATOM     12  C   UNL A   1      33.237  20.792  25.665  1.00  0.00     0.122 A 
ATOM     13  C   UNL A   1      32.528  21.742  22.034  1.00  0.00     0.049 C 
ATOM     14  C   UNL A   1      33.174  23.070  24.084  1.00  0.00     0.127 A 
ATOM     15  C   UNL A   1      33.618  22.029  26.223  1.00  0.00    -0.002 A 
ATOM     16  C   UNL A   1      33.610  23.182  25.411  1.00  0.00     0.001 A 
ATOM     17  O   UNL A   1      33.001  24.155  23.273  1.00  0.00    -0.475 OA
ATOM     18  C   UNL A   1      34.030  22.126  27.671  1.00  0.00     0.049 C 
ATOM     19  C   UNL A   1      34.038  24.526  25.950  1.00  0.00     0.044 C 
ATOM     20  C   UNL A   1      34.138  25.584  24.852  1.00  0.00     0.065 C 
ATOM     21  C   UNL A   1      31.601  25.707  24.550  1.00  0.00     0.069 C 
BRANCH  12  22
ATOM     22  O   UNL A   1      33.268  19.708  26.501  1.00  0.00    -0.507 OA
ATOM     23  H   UNL A   1      34.068  19.237  26.630  1.00  0.00     0.293 HD
ENDBRANCH  12  22
ENDBRANCH   6   8
ENDBRANCH   5   6
ENDBRANCH   4   5
ENDBRANCH   3   4
ENDBRANCH   2   3
ENDBRANCH   1   2
BRANCH   1  24
ATOM     24  C   UNL A   1      31.529  31.158  26.210  1.00  0.00     0.261 C 
BRANCH  24  25
ATOM     25  O   UNL A   1      32.505  30.944  27.250  1.00  0.00    -0.460 OA
BRANCH  25  26
ATOM     26  C   UNL A   1      33.297  32.010  27.512  1.00  0.00     0.338 C 
ATOM     27  O   UNL A   1      32.958  33.180  27.626  1.00  0.00    -0.246 OA
BRANCH  26  28
ATOM     28  C   UNL A   1      34.664  31.562  27.836  1.00  0.00     0.060 A 
ATOM     29  C   UNL A   1      34.856  30.194  28.061  1.00  0.00     0.016 A 
ATOM     30  C   UNL A   1      35.715  32.465  28.010  1.00  0.00     0.016 A 
ATOM     31  C   UNL A   1      36.086  29.727  28.516  1.00  0.00     0.010 A 
ATOM     32  C   UNL A   1      36.948  31.996  28.480  1.00  0.00     0.010 A 
ATOM     33  C   UNL A   1      37.125  30.631  28.773  1.00  0.00    -0.014 A 
BRANCH  33  34
ATOM     34  C   UNL A   1      38.323  30.155  29.509  1.00  0.00     0.031 A 
ATOM     35  C   UNL A   1      38.550  30.643  30.913  1.00  0.00     0.074 A 
ATOM     36  C   UNL A   1      39.149  29.245  28.968  1.00  0.00     0.049 A 
ATOM     37  N   UNL A   1      39.500  30.329  31.757  1.00  0.00    -0.248 NA
ATOM     38  C   UNL A   1      37.572  31.609  31.440  1.00  0.00     0.031 C 
ATOM     39  C   UNL A   1      39.001  28.656  27.640  1.00  0.00     0.029 A 
ATOM     40  N   UNL A   1      40.274  28.646  29.481  1.00  0.00    -0.354 N 
ATOM     41  C   UNL A   1      39.226  31.044  32.915  1.00  0.00     0.074 A 
ATOM     42  C   UNL A   1      38.046  31.841  32.655  1.00  0.00     0.031 C 
ATOM     43  C   UNL A   1      39.994  27.770  27.444  1.00  0.00     0.029 A 
ATOM     44  C   UNL A   1      40.860  27.750  28.622  1.00  0.00     0.049 A 
ATOM     45  H   UNL A   1      40.625  28.840  30.380  1.00  0.00     0.167 HD
ATOM     46  C   UNL A   1      39.887  31.023  34.096  1.00  0.00     0.037 A 
ATOM     47  C   UNL A   1      41.973  27.004  28.771  1.00  0.00     0.037 A 
ATOM     48  C   UNL A   1      41.061  30.236  34.356  1.00  0.00     0.049 A 
ATOM     49  C   UNL A   1      42.750  27.078  30.059  1.00  0.00     0.074 A 
ATOM     50  C   UNL A   1      41.799  30.149  35.523  1.00  0.00     0.029 A 
ATOM     51  N   UNL A   1      41.670  29.402  33.431  1.00  0.00    -0.354 N 
ATOM     52  N   UNL A   1      42.477  27.747  31.152  1.00  0.00    -0.248 NA
ATOM     53  C   UNL A   1      43.994  26.297  30.131  1.00  0.00     0.031 C 
ATOM     54  C   UNL A   1      42.884  29.297  35.290  1.00  0.00     0.029 A 
ATOM     55  C   UNL A   1      42.794  28.818  33.994  1.00  0.00     0.049 A 
ATOM     56  H   UNL A   1      41.353  29.248  32.513  1.00  0.00     0.167 HD
ATOM     57  C   UNL A   1      43.498  27.453  32.047  1.00  0.00     0.074 A 
ATOM     58  C   UNL A   1      44.393  26.535  31.374  1.00  0.00     0.031 C 
ATOM     59  C   UNL A   1      43.674  27.903  33.313  1.00  0.00     0.037 A 
BRANCH  46  60
ATOM     60  C   UNL A   1      39.359  31.887  35.202  1.00  0.00     0.064 A 
ATOM     61  C   UNL A   1      38.536  31.361  36.209  1.00  0.00     0.173 A 
ATOM     62  C   UNL A   1      39.725  33.238  35.289  1.00  0.00     0.173 A 
ATOM     63  F   UNL A   1      38.148  30.078  36.164  1.00  0.00    -0.203 F 
ATOM     64  C   UNL A   1      38.087  32.163  37.255  1.00  0.00     0.198 A 
ATOM     65  C   UNL A   1      39.293  34.030  36.349  1.00  0.00     0.198 A 
ATOM     66  F   UNL A   1      40.513  33.786  34.351  1.00  0.00    -0.203 F 
ATOM     67  F   UNL A   1      37.275  31.649  38.191  1.00  0.00    -0.200 F 
ATOM     68  C   UNL A   1      38.473  33.493  37.329  1.00  0.00     0.200 A 
ATOM     69  F   UNL A   1      39.676  35.312  36.425  1.00  0.00    -0.200 F 
ATOM     70  F   UNL A   1      38.049  34.260  38.344  1.00  0.00    -0.200 F 
ENDBRANCH  46  60
BRANCH  47  71
ATOM     71  C   UNL A   1      42.414  26.112  27.668  1.00  0.00     0.064 A 
ATOM     72  C   UNL A   1      43.387  26.527  26.750  1.00  0.00     0.173 A 
ATOM     73  C   UNL A   1      41.876  24.826  27.512  1.00  0.00     0.173 A 
ATOM     74  F   UNL A   1      43.911  27.759  26.842  1.00  0.00    -0.203 F 
ATOM     75  C   UNL A   1      43.805  25.692  25.715  1.00  0.00     0.198 A 
ATOM     76  C   UNL A   1      42.311  23.982  26.491  1.00  0.00     0.198 A 
ATOM     77  F   UNL A   1      40.938  24.382  28.361  1.00  0.00    -0.203 F 
ATOM     78  F   UNL A   1      44.715  26.125  24.833  1.00  0.00    -0.200 F 
ATOM     79  C   UNL A   1      43.272  24.418  25.592  1.00  0.00     0.200 A 
ATOM     80  F   UNL A   1      41.800  22.748  26.382  1.00  0.00    -0.200 F 
ATOM     81  F   UNL A   1      43.680  23.611  24.603  1.00  0.00    -0.200 F 
ENDBRANCH  47  71
BRANCH  59  82
ATOM     82  C   UNL A   1      44.872  27.410  34.071  1.00  0.00     0.064 A 
ATOM     83  C   UNL A   1      46.073  28.132  34.086  1.00  0.00     0.173 A 
ATOM     84  C   UNL A   1      44.786  26.258  34.866  1.00  0.00     0.173 A 
ATOM     85  F   UNL A   1      46.207  29.234  33.333  1.00  0.00    -0.203 F 
ATOM     86  C   UNL A   1      47.148  27.715  34.866  1.00  0.00     0.198 A 
ATOM     87  C   UNL A   1      45.853  25.857  35.664  1.00  0.00     0.198 A 
ATOM     88  F   UNL A   1      43.654  25.537  34.893  1.00  0.00    -0.203 F 
ATOM     89  F   UNL A   1      48.295  28.408  34.848  1.00  0.00    -0.200 F 
ATOM     90  C   UNL A   1      47.034  26.585  35.663  1.00  0.00     0.200 A 
ATOM     91  F   UNL A   1      45.736  24.774  36.445  1.00  0.00    -0.200 F 
ATOM     92  F   UNL A   1      48.062  26.197  36.430  1.00  0.00    -0.200 F 
ENDBRANCH  59  82
ENDBRANCH  33  34
ENDBRANCH  26  28
ENDBRANCH  25  26
ENDBRANCH  24  25
ENDBRANCH   1  24
TORSDOF 15
ENDMDL
MODEL 2
REMARK VINA RESULT:     -12.1      3.397      8.517
REMARK SMILES Cc1c(C)c2c(c(C)c1O)CC[C@@](C)(C(=O)OCCOCCOC(=O)c1ccc(-c3c4nc(c(-c5c(F)c(F)c(F)c(F)c5F)c5ccc([nH]5)c(-c5c(F)c(F)c(F)c(F)c5F)c5nc(c(-c6c(F)c(F)c(F)c(F)c6F)c6ccc3[nH]6)C=C5)C=C4)cc1)O2
REMARK SMILES IDX 21 1 20 2 19 3 18 4 17 5 15 6 16 7 13 8 1 9 2 10 3 11 9 12
REMARK SMILES IDX 4 13 5 14 7 15 6 16 89 17 8 18 11 19 12 20 14 21 10 22 22 24
REMARK SMILES IDX 23 25 24 26 25 27 26 28 27 29 88 30 28 31 87 32 29 33 30 34
REMARK SMILES IDX 31 35 81 36 32 37 86 38 80 39 82 40 33 41 85 42 79 43 78 44
REMARK SMILES IDX 34 46 66 47 46 48 65 49 47 50 50 51 64 52 83 53 48 54 49 55
REMARK SMILES IDX 63 57 84 58 51 59 35 60 36 61 44 62 37 63 38 64 42 65 45 66
REMARK SMILES IDX 39 67 40 68 43 69 41 70 67 71 68 72 76 73 69 74 70 75 74 76
REMARK SMILES IDX 77 77 71 78 72 79 75 80 73 81 52 82 53 83 61 84 54 85 55 86
REMARK SMILES IDX 59 87 62 88 56 89 57 90 60 91 58 92
REMARK H PARENT 10 23 82 45 50 56
REMARK Flexibility Score: inf
ROOT
ATOM      1  C   UNL A   1      43.381  21.441  25.992  1.00  0.00     0.202 C 
ENDROOT
BRANCH   1   2
ATOM      2  O   UNL A   1      42.204  20.773  25.539  1.00  0.00    -0.374 OA
BRANCH   2   3
ATOM      3  C   UNL A   1      41.062  20.799  26.391  1.00  0.00     0.202 C 
BRANCH   3   4
ATOM      4  C   UNL A   1      40.242  22.091  26.413  1.00  0.00     0.261 C 
BRANCH   4   5
ATOM      5  O   UNL A   1      38.878  21.879  26.001  1.00  0.00    -0.460 OA
BRANCH   5   6
ATOM      6  C   UNL A   1      38.132  23.017  25.896  1.00  0.00     0.350 C 
ATOM      7  O   UNL A   1      38.547  24.133  26.200  1.00  0.00    -0.247 OA
BRANCH   6   8
ATOM      8  C   UNL A   1      36.700  22.745  25.405  1.00  0.00     0.203 C 
ATOM      9  C   UNL A   1      34.404  17.245  24.004  1.00  0.00     0.049 C 
ATOM     10  C   UNL A   1      34.317  18.675  24.478  1.00  0.00    -0.002 A 
ATOM     11  C   UNL A   1      35.501  19.337  24.871  1.00  0.00    -0.002 A 
ATOM     12  C   UNL A   1      33.103  19.384  24.538  1.00  0.00     0.122 A 
ATOM     13  C   UNL A   1      36.825  18.606  24.896  1.00  0.00     0.049 C 
ATOM     14  C   UNL A   1      35.450  20.703  25.206  1.00  0.00     0.127 A 
ATOM     15  C   UNL A   1      33.044  20.731  24.948  1.00  0.00    -0.002 A 
ATOM     16  C   UNL A   1      34.235  21.392  25.313  1.00  0.00     0.001 A 
ATOM     17  O   UNL A   1      36.658  21.308  25.402  1.00  0.00    -0.475 OA
ATOM     18  C   UNL A   1      31.726  21.463  25.000  1.00  0.00     0.049 C 
ATOM     19  C   UNL A   1      34.224  22.826  25.789  1.00  0.00     0.044 C 
ATOM     20  C   UNL A   1      35.589  23.271  26.313  1.00  0.00     0.065 C 
ATOM     21  C   UNL A   1      36.628  23.299  23.977  1.00  0.00     0.069 C 
BRANCH  12  22
ATOM     22  O   UNL A   1      31.914  18.794  24.200  1.00  0.00    -0.507 OA
ATOM     23  H   UNL A   1      31.760  17.894  24.413  1.00  0.00     0.293 HD
ENDBRANCH  12  22
ENDBRANCH   6   8
ENDBRANCH   5   6
ENDBRANCH   4   5
ENDBRANCH   3   4
ENDBRANCH   2   3
ENDBRANCH   1   2
BRANCH   1  24
ATOM     24  C   UNL A   1      44.081  22.354  24.977  1.00  0.00     0.261 C 
BRANCH  24  25
ATOM     25  O   UNL A   1      43.340  23.569  24.743  1.00  0.00    -0.460 OA
BRANCH  25  26
ATOM     26  C   UNL A   1      44.003  24.706  25.060  1.00  0.00     0.338 C 
ATOM     27  O   UNL A   1      45.060  25.107  24.592  1.00  0.00    -0.246 OA
BRANCH  26  28
ATOM     28  C   UNL A   1      43.182  25.543  25.952  1.00  0.00     0.060 A 
ATOM     29  C   UNL A   1      43.653  26.831  26.240  1.00  0.00     0.016 A 
ATOM     30  C   UNL A   1      42.030  25.055  26.571  1.00  0.00     0.016 A 
ATOM     31  C   UNL A   1      43.005  27.616  27.189  1.00  0.00     0.010 A 
ATOM     32  C   UNL A   1      41.386  25.840  27.536  1.00  0.00     0.010 A 
ATOM     33  C   UNL A   1      41.896  27.107  27.877  1.00  0.00    -0.014 A 
BRANCH  33  34
ATOM     34  C   UNL A   1      41.391  27.840  29.064  1.00  0.00     0.031 A 
ATOM     35  C   UNL A   1      42.158  27.741  30.355  1.00  0.00     0.074 A 
ATOM     36  C   UNL A   1      40.318  28.643  28.977  1.00  0.00     0.049 A 
ATOM     37  N   UNL A   1      41.930  28.327  31.503  1.00  0.00    -0.248 NA
ATOM     38  C   UNL A   1      43.345  26.871  30.349  1.00  0.00     0.031 C 
ATOM     39  C   UNL A   1      39.528  28.864  27.768  1.00  0.00     0.029 A 
ATOM     40  N   UNL A   1      39.716  29.433  29.925  1.00  0.00    -0.354 N 
ATOM     41  C   UNL A   1      42.949  27.910  32.347  1.00  0.00     0.074 A 
ATOM     42  C   UNL A   1      43.775  26.989  31.597  1.00  0.00     0.031 C 
ATOM     43  C   UNL A   1      38.548  29.742  28.045  1.00  0.00     0.029 A 
ATOM     44  C   UNL A   1      38.627  30.124  29.454  1.00  0.00     0.049 A 
ATOM     45  H   UNL A   1      40.036  29.499  30.854  1.00  0.00     0.167 HD
ATOM     46  C   UNL A   1      43.187  28.277  33.628  1.00  0.00     0.037 A 
ATOM     47  C   UNL A   1      37.788  30.963  30.094  1.00  0.00     0.037 A 
ATOM     48  C   UNL A   1      42.367  29.189  34.378  1.00  0.00     0.049 A 
ATOM     49  C   UNL A   1      38.014  31.274  31.550  1.00  0.00     0.074 A 
ATOM     50  C   UNL A   1      42.530  29.622  35.681  1.00  0.00     0.029 A 
ATOM     51  N   UNL A   1      41.225  29.805  33.889  1.00  0.00    -0.354 N 
ATOM     52  N   UNL A   1      38.987  30.885  32.337  1.00  0.00    -0.248 NA
ATOM     53  C   UNL A   1      37.022  32.138  32.208  1.00  0.00     0.031 C 
ATOM     54  C   UNL A   1      41.460  30.465  35.998  1.00  0.00     0.029 A 
ATOM     55  C   UNL A   1      40.657  30.593  34.876  1.00  0.00     0.049 A 
ATOM     56  H   UNL A   1      40.871  29.698  32.977  1.00  0.00     0.167 HD
ATOM     57  C   UNL A   1      38.739  31.470  33.572  1.00  0.00     0.074 A 
ATOM     58  C   UNL A   1      37.528  32.251  33.429  1.00  0.00     0.031 C 
ATOM     59  C   UNL A   1      39.453  31.368  34.719  1.00  0.00     0.037 A 
BRANCH  46  60
ATOM     60  C   UNL A   1      44.385  27.685  34.309  1.00  0.00     0.064 A 
ATOM     61  C   UNL A   1      44.303  26.470  35.005  1.00  0.00     0.173 A 
ATOM     62  C   UNL A   1      45.639  28.307  34.214  1.00  0.00     0.173 A 
ATOM     63  F   UNL A   1      43.124  25.843  35.133  1.00  0.00    -0.203 F 
ATOM     64  C   UNL A   1      45.431  25.908  35.596  1.00  0.00     0.198 A 
ATOM     65  C   UNL A   1      46.769  27.729  34.786  1.00  0.00     0.198 A 
ATOM     66  F   UNL A   1      45.769  29.468  33.556  1.00  0.00    -0.203 F 
ATOM     67  F   UNL A   1      45.325  24.762  36.285  1.00  0.00    -0.200 F 
ATOM     68  C   UNL A   1      46.664  26.533  35.479  1.00  0.00     0.200 A 
ATOM     69  F   UNL A   1      47.961  28.328  34.662  1.00  0.00    -0.200 F 
ATOM     70  F   UNL A   1      47.751  25.983  36.038  1.00  0.00    -0.200 F 
ENDBRANCH  46  60
BRANCH  47  71
ATOM     71  C   UNL A   1      36.656  31.577  29.353  1.00  0.00     0.064 A 
ATOM     72  C   UNL A   1      35.553  30.810  28.955  1.00  0.00     0.173 A 
ATOM     73  C   UNL A   1      36.650  32.943  29.033  1.00  0.00     0.173 A 
ATOM     74  F   UNL A   1      35.525  29.494  29.215  1.00  0.00    -0.203 F 
ATOM     75  C   UNL A   1      34.489  31.383  28.262  1.00  0.00     0.198 A 
ATOM     76  C   UNL A   1      35.575  33.521  28.361  1.00  0.00     0.198 A 
ATOM     77  F   UNL A   1      37.684  33.720  29.388  1.00  0.00    -0.203 F 
ATOM     78  F   UNL A   1      33.461  30.621  27.866  1.00  0.00    -0.200 F 
ATOM     79  C   UNL A   1      34.497  32.739  27.973  1.00  0.00     0.200 A 
ATOM     80  F   UNL A   1      35.583  34.833  28.092  1.00  0.00    -0.200 F 
ATOM     81  F   UNL A   1      33.469  33.293  27.315  1.00  0.00    -0.200 F 
ENDBRANCH  47  71
BRANCH  59  82
ATOM     82  C   UNL A   1      38.961  32.124  35.919  1.00  0.00     0.064 A 
ATOM     83  C   UNL A   1      38.156  31.509  36.888  1.00  0.00     0.173 A 
ATOM     84  C   UNL A   1      39.379  33.443  36.150  1.00  0.00     0.173 A 
ATOM     85  F   UNL A   1      37.722  30.253  36.707  1.00  0.00    -0.203 F 
ATOM     86  C   UNL A   1      37.781  32.191  38.043  1.00  0.00     0.198 A 
ATOM     87  C   UNL A   1      39.024  34.112  37.317  1.00  0.00     0.198 A 
ATOM     88  F   UNL A   1      40.159  34.072  35.257  1.00  0.00    -0.203 F 
ATOM     89  F   UNL A   1      36.993  31.592  38.946  1.00  0.00    -0.200 F 
ATOM     90  C   UNL A   1      38.225  33.487  38.262  1.00  0.00     0.200 A 
ATOM     91  F   UNL A   1      39.466  35.360  37.534  1.00  0.00    -0.200 F 
ATOM     92  F   UNL A   1      37.881  34.134  39.385  1.00  0.00    -0.200 F 
ENDBRANCH  59  82
ENDBRANCH  33  34
ENDBRANCH  26  28
ENDBRANCH  25  26
ENDBRANCH  24  25
ENDBRANCH   1  24
TORSDOF 15
ENDMDL
MODEL 3
REMARK VINA RESULT:     -12.1      0.670      7.333
REMARK SMILES Cc1c(C)c2c(c(C)c1O)CC[C@@](C)(C(=O)OCCOCCOC(=O)c1ccc(-c3c4nc(c(-c5c(F)c(F)c(F)c(F)c5F)c5ccc([nH]5)c(-c5c(F)c(F)c(F)c(F)c5F)c5nc(c(-c6c(F)c(F)c(F)c(F)c6F)c6ccc3[nH]6)C=C5)C=C4)cc1)O2
REMARK SMILES IDX 21 1 20 2 19 3 18 4 17 5 15 6 16 7 13 8 1 9 2 10 3 11 9 12
REMARK SMILES IDX 4 13 5 14 7 15 6 16 89 17 8 18 11 19 12 20 14 21 10 22 22 24
REMARK SMILES IDX 23 25 24 26 25 27 26 28 27 29 88 30 28 31 87 32 29 33 30 34
REMARK SMILES IDX 31 35 81 36 32 37 86 38 80 39 82 40 33 41 85 42 79 43 78 44
REMARK SMILES IDX 34 46 66 47 46 48 65 49 47 50 50 51 64 52 83 53 48 54 49 55
REMARK SMILES IDX 63 57 84 58 51 59 35 60 36 61 44 62 37 63 38 64 42 65 45 66
REMARK SMILES IDX 39 67 40 68 43 69 41 70 67 71 68 72 76 73 69 74 70 75 74 76
REMARK SMILES IDX 77 77 71 78 72 79 75 80 73 81 52 82 53 83 61 84 54 85 55 86
REMARK SMILES IDX 59 87 62 88 56 89 57 90 60 91 58 92
REMARK H PARENT 10 23 82 45 50 56
REMARK Flexibility Score: inf
ROOT
ATOM      1  C   UNL A   1      31.383  29.596  24.931  1.00  0.00     0.202 C 
ENDROOT
BRANCH   1   2
ATOM      2  O   UNL A   1      30.334  29.671  23.965  1.00  0.00    -0.374 OA
BRANCH   2   3
ATOM      3  C   UNL A   1      30.582  29.111  22.678  1.00  0.00     0.202 C 
BRANCH   3   4
ATOM      4  C   UNL A   1      31.871  28.303  22.510  1.00  0.00     0.261 C 
BRANCH   4   5
ATOM      5  O   UNL A   1      31.624  26.886  22.448  1.00  0.00    -0.460 OA
BRANCH   5   6
ATOM      6  C   UNL A   1      32.744  26.108  22.514  1.00  0.00     0.350 C 
ATOM      7  O   UNL A   1      33.611  26.090  21.645  1.00  0.00    -0.247 OA
BRANCH   6   8
ATOM      8  C   UNL A   1      32.777  25.221  23.770  1.00  0.00     0.203 C 
ATOM      9  C   UNL A   1      32.187  19.127  23.838  1.00  0.00     0.049 C 
ATOM     10  C   UNL A   1      32.682  20.452  24.365  1.00  0.00    -0.002 A 
ATOM     11  C   UNL A   1      32.647  21.580  23.516  1.00  0.00    -0.002 A 
ATOM     12  C   UNL A   1      33.169  20.616  25.675  1.00  0.00     0.122 A 
ATOM     13  C   UNL A   1      32.201  21.452  22.076  1.00  0.00     0.049 C 
ATOM     14  C   UNL A   1      32.997  22.842  24.030  1.00  0.00     0.127 A 
ATOM     15  C   UNL A   1      33.592  21.869  26.164  1.00  0.00    -0.002 A 
ATOM     16  C   UNL A   1      33.529  22.995  25.317  1.00  0.00     0.001 A 
ATOM     17  O   UNL A   1      32.769  23.901  23.198  1.00  0.00    -0.475 OA
ATOM     18  C   UNL A   1      34.108  22.011  27.574  1.00  0.00     0.049 C 
ATOM     19  C   UNL A   1      33.998  24.354  25.780  1.00  0.00     0.044 C 
ATOM     20  C   UNL A   1      34.021  25.375  24.644  1.00  0.00     0.065 C 
ATOM     21  C   UNL A   1      31.470  25.501  24.523  1.00  0.00     0.069 C 
BRANCH  12  22
ATOM     22  O   UNL A   1      33.257  19.559  26.541  1.00  0.00    -0.507 OA
ATOM     23  H   UNL A   1      34.029  19.441  27.060  1.00  0.00     0.293 HD
ENDBRANCH  12  22
ENDBRANCH   6   8
ENDBRANCH   5   6
ENDBRANCH   4   5
ENDBRANCH   3   4
ENDBRANCH   2   3
ENDBRANCH   1   2
BRANCH   1  24
ATOM     24  C   UNL A   1      31.488  30.768  25.915  1.00  0.00     0.261 C 
BRANCH  24  25
ATOM     25  O   UNL A   1      32.499  30.543  26.919  1.00  0.00    -0.460 OA
BRANCH  25  26
ATOM     26  C   UNL A   1      33.226  31.636  27.245  1.00  0.00     0.338 C 
ATOM     27  O   UNL A   1      32.849  32.800  27.275  1.00  0.00    -0.246 OA
BRANCH  26  28
ATOM     28  C   UNL A   1      34.547  31.236  27.759  1.00  0.00     0.060 A 
ATOM     29  C   UNL A   1      34.735  29.882  28.066  1.00  0.00     0.016 A 
ATOM     30  C   UNL A   1      35.551  32.169  28.027  1.00  0.00     0.016 A 
ATOM     31  C   UNL A   1      35.905  29.463  28.692  1.00  0.00     0.010 A 
ATOM     32  C   UNL A   1      36.722  31.750  28.669  1.00  0.00     0.010 A 
ATOM     33  C   UNL A   1      36.886  30.402  29.040  1.00  0.00    -0.014 A 
BRANCH  33  34
ATOM     34  C   UNL A   1      37.988  29.985  29.941  1.00  0.00     0.031 A 
ATOM     35  C   UNL A   1      39.038  29.045  29.414  1.00  0.00     0.074 A 
ATOM     36  C   UNL A   1      38.100  30.495  31.179  1.00  0.00     0.049 A 
ATOM     37  N   UNL A   1      40.111  28.583  30.005  1.00  0.00    -0.248 NA
ATOM     38  C   UNL A   1      38.859  28.568  28.033  1.00  0.00     0.031 C 
ATOM     39  C   UNL A   1      37.178  31.456  31.780  1.00  0.00     0.029 A 
ATOM     40  N   UNL A   1      39.049  30.283  32.149  1.00  0.00    -0.354 N 
ATOM     41  C   UNL A   1      40.739  27.777  29.066  1.00  0.00     0.074 A 
ATOM     42  C   UNL A   1      39.909  27.776  27.880  1.00  0.00     0.031 C 
ATOM     43  C   UNL A   1      37.613  31.759  33.016  1.00  0.00     0.029 A 
ATOM     44  C   UNL A   1      38.826  30.995  33.301  1.00  0.00     0.049 A 
ATOM     45  H   UNL A   1      39.816  29.678  32.029  1.00  0.00     0.167 HD
ATOM     46  C   UNL A   1      41.912  27.111  29.176  1.00  0.00     0.037 A 
ATOM     47  C   UNL A   1      39.523  31.020  34.455  1.00  0.00     0.037 A 
ATOM     48  C   UNL A   1      42.737  27.107  30.353  1.00  0.00     0.049 A 
ATOM     49  C   UNL A   1      40.771  30.188  34.588  1.00  0.00     0.074 A 
ATOM     50  C   UNL A   1      43.944  26.462  30.557  1.00  0.00     0.029 A 
ATOM     51  N   UNL A   1      42.434  27.776  31.529  1.00  0.00    -0.354 N 
ATOM     52  N   UNL A   1      41.364  29.438  33.692  1.00  0.00    -0.248 NA
ATOM     53  C   UNL A   1      41.444  30.202  35.896  1.00  0.00     0.031 C 
ATOM     54  C   UNL A   1      44.350  26.705  31.874  1.00  0.00     0.029 A 
ATOM     55  C   UNL A   1      43.419  27.537  32.473  1.00  0.00     0.049 A 
ATOM     56  H   UNL A   1      41.639  28.338  31.671  1.00  0.00     0.167 HD
ATOM     57  C   UNL A   1      42.486  28.910  34.316  1.00  0.00     0.074 A 
ATOM     58  C   UNL A   1      42.500  29.433  35.666  1.00  0.00     0.031 C 
ATOM     59  C   UNL A   1      43.422  28.067  33.813  1.00  0.00     0.037 A 
BRANCH  46  60
ATOM     60  C   UNL A   1      42.376  26.322  27.988  1.00  0.00     0.064 A 
ATOM     61  C   UNL A   1      41.921  25.015  27.757  1.00  0.00     0.173 A 
ATOM     62  C   UNL A   1      43.237  26.897  27.042  1.00  0.00     0.173 A 
ATOM     63  F   UNL A   1      41.107  24.418  28.638  1.00  0.00    -0.203 F 
ATOM     64  C   UNL A   1      42.325  24.308  26.627  1.00  0.00     0.198 A 
ATOM     65  C   UNL A   1      43.620  26.195  25.902  1.00  0.00     0.198 A 
ATOM     66  F   UNL A   1      43.697  28.145  27.218  1.00  0.00    -0.203 F 
ATOM     67  F   UNL A   1      41.904  23.049  26.441  1.00  0.00    -0.200 F 
ATOM     68  C   UNL A   1      43.166  24.901  25.698  1.00  0.00     0.200 A 
ATOM     69  F   UNL A   1      44.423  26.774  24.999  1.00  0.00    -0.200 F 
ATOM     70  F   UNL A   1      43.544  24.223  24.605  1.00  0.00    -0.200 F 
ENDBRANCH  46  60
BRANCH  47  71
ATOM     71  C   UNL A   1      39.056  31.874  35.577  1.00  0.00     0.064 A 
ATOM     72  C   UNL A   1      38.223  31.358  36.579  1.00  0.00     0.173 A 
ATOM     73  C   UNL A   1      39.436  33.221  35.675  1.00  0.00     0.173 A 
ATOM     74  F   UNL A   1      37.810  30.083  36.514  1.00  0.00    -0.203 F 
ATOM     75  C   UNL A   1      37.785  32.155  37.634  1.00  0.00     0.198 A 
ATOM     76  C   UNL A   1      39.018  34.012  36.744  1.00  0.00     0.198 A 
ATOM     77  F   UNL A   1      40.229  33.764  34.740  1.00  0.00    -0.203 F 
ATOM     78  F   UNL A   1      36.965  31.646  38.562  1.00  0.00    -0.200 F 
ATOM     79  C   UNL A   1      38.190  33.479  37.720  1.00  0.00     0.200 A 
ATOM     80  F   UNL A   1      39.419  35.287  36.827  1.00  0.00    -0.200 F 
ATOM     81  F   UNL A   1      37.777  34.244  38.740  1.00  0.00    -0.200 F 
ENDBRANCH  47  71
BRANCH  59  82
ATOM     82  C   UNL A   1      44.552  27.658  34.711  1.00  0.00     0.064 A 
ATOM     83  C   UNL A   1      45.708  28.440  34.831  1.00  0.00     0.173 A 
ATOM     84  C   UNL A   1      44.434  26.525  35.531  1.00  0.00     0.173 A 
ATOM     85  F   UNL A   1      45.871  29.526  34.061  1.00  0.00    -0.203 F 
ATOM     86  C   UNL A   1      46.711  28.100  35.736  1.00  0.00     0.198 A 
ATOM     87  C   UNL A   1      45.426  26.202  36.452  1.00  0.00     0.198 A 
ATOM     88  F   UNL A   1      43.342  25.749  35.460  1.00  0.00    -0.203 F 
ATOM     89  F   UNL A   1      47.818  28.850  35.818  1.00  0.00    -0.200 F 
ATOM     90  C   UNL A   1      46.564  26.988  36.553  1.00  0.00     0.200 A 
ATOM     91  F   UNL A   1      45.276  25.136  37.251  1.00  0.00    -0.200 F 
ATOM     92  F   UNL A   1      47.520  26.675  37.439  1.00  0.00    -0.200 F 
ENDBRANCH  59  82
ENDBRANCH  33  34
ENDBRANCH  26  28
ENDBRANCH  25  26
ENDBRANCH  24  25
ENDBRANCH   1  24
TORSDOF 15
ENDMDL
