MODEL 1
REMARK VINA RESULT:     -13.8      0.000      0.000
REMARK SMILES O=C(OCCOCCOC(=O)[C@H]1CC2(CC[NH+](C(=O)C3CC3)CC2)CN1C(=O)CCn1cccn1)c1ccc(-c2c3nc(c(-c4c(F)c(F)c(F)c(F)c4F)c4ccc([nH]4)c(-c4c(F)c(F)c(F)c(F)c4F)c4nc(c(-c5c(F)c(F)c(F)c(F)c5F)c5ccc2[nH]5)C=C4)C=C3)cc1
REMARK SMILES IDX 7 1 6 2 5 3 4 4 3 5 2 6 1 7 36 8 37 9 98 10 38 11 97 12
REMARK SMILES IDX 39 13 40 14 41 15 91 16 42 17 96 18 90 19 92 20 43 21 95 22
REMARK SMILES IDX 89 23 88 24 44 26 76 27 56 28 75 29 57 30 60 31 74 32 93 33
REMARK SMILES IDX 58 34 59 35 73 37 94 38 61 39 45 40 46 41 54 42 47 43 48 44
REMARK SMILES IDX 52 45 55 46 49 47 50 48 53 49 51 50 77 51 78 52 86 53 79 54
REMARK SMILES IDX 80 55 84 56 87 57 81 58 82 59 85 60 83 61 62 62 63 63 71 64
REMARK SMILES IDX 64 65 65 66 69 67 72 68 66 69 67 70 70 71 68 72 8 73 9 74
REMARK SMILES IDX 10 75 11 76 12 77 13 78 26 79 14 80 25 81 15 82 24 83 16 84
REMARK SMILES IDX 23 85 17 86 27 88 28 89 29 90 30 91 31 92 32 93 35 94 33 95
REMARK SMILES IDX 34 96 18 97 19 98 20 99 21 100 22 101
REMARK H PARENT 92 25 60 36 17 87
REMARK Flexibility Score: inf
ROOT
ATOM      1  C   UNL A   1      32.174  28.551  27.405  1.00  0.00     0.202 C 
ENDROOT
BRANCH   1   2
ATOM      2  O   UNL A   1      31.428  29.514  26.641  1.00  0.00    -0.374 OA
BRANCH   2   3
ATOM      3  C   UNL A   1      31.987  30.826  26.526  1.00  0.00     0.202 C 
BRANCH   3   4
ATOM      4  C   UNL A   1      33.026  31.382  27.519  1.00  0.00     0.261 C 
BRANCH   4   5
ATOM      5  O   UNL A   1      34.393  31.169  27.177  1.00  0.00    -0.460 OA
BRANCH   5   6
ATOM      6  C   UNL A   1      35.458  31.823  27.683  1.00  0.00     0.338 C 
ATOM      7  O   UNL A   1      35.491  33.050  27.600  1.00  0.00    -0.246 OA
BRANCH   6   8
ATOM      8  C   UNL A   1      36.581  31.132  28.378  1.00  0.00     0.060 A 
ATOM      9  C   UNL A   1      37.636  31.742  29.064  1.00  0.00     0.016 A 
ATOM     10  C   UNL A   1      36.575  29.732  28.263  1.00  0.00     0.016 A 
ATOM     11  C   UNL A   1      38.753  31.030  29.417  1.00  0.00     0.010 A 
ATOM     12  C   UNL A   1      37.671  28.995  28.658  1.00  0.00     0.010 A 
ATOM     13  C   UNL A   1      38.781  29.675  29.135  1.00  0.00    -0.014 A 
BRANCH  13  14
ATOM     14  C   UNL A   1      40.046  29.018  29.348  1.00  0.00     0.031 A 
ATOM     15  C   UNL A   1      40.406  28.838  30.777  1.00  0.00     0.074 A 
ATOM     16  C   UNL A   1      40.775  28.653  28.281  1.00  0.00     0.049 A 
ATOM     17  N   UNL A   1      41.438  29.297  31.407  1.00  0.00    -0.248 NA
ATOM     18  C   UNL A   1      39.404  28.201  31.648  1.00  0.00     0.031 C 
ATOM     19  C   UNL A   1      40.391  28.649  26.865  1.00  0.00     0.029 A 
ATOM     20  N   UNL A   1      42.015  28.110  28.261  1.00  0.00    -0.354 N 
ATOM     21  C   UNL A   1      41.309  28.846  32.718  1.00  0.00     0.074 A 
ATOM     22  C   UNL A   1      39.982  28.307  32.844  1.00  0.00     0.031 C 
ATOM     23  C   UNL A   1      41.271  27.898  26.167  1.00  0.00     0.029 A 
ATOM     24  C   UNL A   1      42.346  27.506  27.059  1.00  0.00     0.049 A 
ATOM     25  H   UNL A   1      42.626  28.141  29.033  1.00  0.00     0.167 HD
ATOM     26  C   UNL A   1      42.388  28.745  33.541  1.00  0.00     0.037 A 
ATOM     27  C   UNL A   1      43.378  26.646  26.889  1.00  0.00     0.037 A 
ATOM     28  C   UNL A   1      43.451  29.619  33.125  1.00  0.00     0.049 A 
ATOM     29  C   UNL A   1      44.328  26.886  28.012  1.00  0.00     0.074 A 
ATOM     30  C   UNL A   1      43.578  30.992  33.034  1.00  0.00     0.029 A 
ATOM     31  N   UNL A   1      44.463  29.101  32.355  1.00  0.00    -0.354 N 
ATOM     32  N   UNL A   1      45.001  27.998  28.153  1.00  0.00    -0.248 NA
ATOM     33  C   UNL A   1      44.137  26.114  29.234  1.00  0.00     0.031 C 
ATOM     34  C   UNL A   1      44.317  31.213  31.836  1.00  0.00     0.029 A 
ATOM     35  C   UNL A   1      44.662  29.968  31.309  1.00  0.00     0.049 A 
ATOM     36  H   UNL A   1      44.955  28.264  32.522  1.00  0.00     0.167 HD
ATOM     37  C   UNL A   1      44.967  28.269  29.515  1.00  0.00     0.074 A 
ATOM     38  C   UNL A   1      44.465  27.045  30.136  1.00  0.00     0.031 C 
ATOM     39  C   UNL A   1      45.064  29.547  29.987  1.00  0.00     0.037 A 
BRANCH  26  40
ATOM     40  C   UNL A   1      42.581  27.601  34.499  1.00  0.00     0.064 A 
ATOM     41  C   UNL A   1      43.157  26.399  34.049  1.00  0.00     0.173 A 
ATOM     42  C   UNL A   1      41.960  27.542  35.767  1.00  0.00     0.173 A 
ATOM     43  F   UNL A   1      43.749  26.334  32.847  1.00  0.00    -0.203 F 
ATOM     44  C   UNL A   1      43.062  25.215  34.787  1.00  0.00     0.198 A 
ATOM     45  C   UNL A   1      41.912  26.374  36.524  1.00  0.00     0.198 A 
ATOM     46  F   UNL A   1      41.277  28.575  36.276  1.00  0.00    -0.203 F 
ATOM     47  F   UNL A   1      43.523  24.069  34.269  1.00  0.00    -0.200 F 
ATOM     48  C   UNL A   1      42.436  25.203  36.021  1.00  0.00     0.200 A 
ATOM     49  F   UNL A   1      41.281  26.381  37.706  1.00  0.00    -0.200 F 
ATOM     50  F   UNL A   1      42.293  24.059  36.703  1.00  0.00    -0.200 F 
ENDBRANCH  26  40
BRANCH  27  51
ATOM     51  C   UNL A   1      43.343  25.394  26.102  1.00  0.00     0.064 A 
ATOM     52  C   UNL A   1      44.378  25.068  25.216  1.00  0.00     0.173 A 
ATOM     53  C   UNL A   1      42.417  24.368  26.391  1.00  0.00     0.173 A 
ATOM     54  F   UNL A   1      45.327  25.972  24.932  1.00  0.00    -0.203 F 
ATOM     55  C   UNL A   1      44.489  23.789  24.662  1.00  0.00     0.198 A 
ATOM     56  C   UNL A   1      42.524  23.096  25.832  1.00  0.00     0.198 A 
ATOM     57  F   UNL A   1      41.442  24.552  27.293  1.00  0.00    -0.203 F 
ATOM     58  F   UNL A   1      45.523  23.496  23.860  1.00  0.00    -0.200 F 
ATOM     59  C   UNL A   1      43.567  22.802  24.974  1.00  0.00     0.200 A 
ATOM     60  F   UNL A   1      41.647  22.142  26.175  1.00  0.00    -0.200 F 
ATOM     61  F   UNL A   1      43.706  21.562  24.487  1.00  0.00    -0.200 F 
ENDBRANCH  27  51
BRANCH  39  62
ATOM     62  C   UNL A   1      45.392  30.634  28.998  1.00  0.00     0.064 A 
ATOM     63  C   UNL A   1      44.423  31.339  28.263  1.00  0.00     0.173 A 
ATOM     64  C   UNL A   1      46.715  31.081  28.905  1.00  0.00     0.173 A 
ATOM     65  F   UNL A   1      43.122  31.050  28.385  1.00  0.00    -0.203 F 
ATOM     66  C   UNL A   1      44.771  32.408  27.436  1.00  0.00     0.198 A 
ATOM     67  C   UNL A   1      47.057  32.171  28.108  1.00  0.00     0.198 A 
ATOM     68  F   UNL A   1      47.674  30.491  29.635  1.00  0.00    -0.203 F 
ATOM     69  F   UNL A   1      43.826  33.059  26.741  1.00  0.00    -0.200 F 
ATOM     70  C   UNL A   1      46.088  32.825  27.364  1.00  0.00     0.200 A 
ATOM     71  F   UNL A   1      48.324  32.608  28.086  1.00  0.00    -0.200 F 
ATOM     72  F   UNL A   1      46.420  33.880  26.606  1.00  0.00    -0.200 F 
ENDBRANCH  39  62
ENDBRANCH  13  14
ENDBRANCH   6   8
ENDBRANCH   5   6
ENDBRANCH   4   5
ENDBRANCH   3   4
ENDBRANCH   2   3
ENDBRANCH   1   2
BRANCH   1  73
ATOM     73  C   UNL A   1      33.298  27.773  26.688  1.00  0.00     0.261 C 
BRANCH  73  74
ATOM     74  O   UNL A   1      33.872  28.192  25.218  1.00  0.00    -0.462 OA
BRANCH  74  75
ATOM     75  C   UNL A   1      33.690  28.277  23.228  1.00  0.00     0.328 C 
ATOM     76  O   UNL A   1      34.352  29.016  22.426  1.00  0.00    -0.250 OA
BRANCH  75  77
ATOM     77  C   UNL A   1      32.628  27.240  22.302  1.00  0.00     0.195 C 
ATOM     78  C   UNL A   1      33.381  25.894  22.278  1.00  0.00     0.046 C 
ATOM     79  N   UNL A   1      31.346  26.919  22.943  1.00  0.00    -0.328 N 
ATOM     80  C   UNL A   1      32.534  24.898  23.086  1.00  0.00     0.001 C 
ATOM     81  C   UNL A   1      31.131  25.471  22.921  1.00  0.00     0.128 C 
ATOM     82  C   UNL A   1      32.834  24.854  24.596  1.00  0.00     0.071 C 
ATOM     83  C   UNL A   1      32.780  23.492  22.526  1.00  0.00     0.071 C 
ATOM     84  C   UNL A   1      34.237  24.370  24.913  1.00  0.00     0.270 C 
ATOM     85  C   UNL A   1      34.228  23.061  22.813  1.00  0.00     0.270 C 
ATOM     86  N   UNL A   1      34.536  23.103  24.248  1.00  0.00    -0.272 N 
ATOM     87  H   UNL A   1      34.418  22.219  23.832  1.00  0.00     0.356 HD
BRANCH  79  88
ATOM     88  C   UNL A   1      30.330  27.770  23.286  1.00  0.00     0.225 C 
ATOM     89  O   UNL A   1      30.577  28.853  23.827  1.00  0.00    -0.275 OA
BRANCH  88  90
ATOM     90  C   UNL A   1      28.871  27.368  23.160  1.00  0.00     0.124 C 
BRANCH  90  91
ATOM     91  C   UNL A   1      27.736  28.322  23.491  1.00  0.00     0.154 C 
BRANCH  91  92
ATOM     92  N   UNL A   1      27.643  29.603  22.822  1.00  0.00    -0.272 N 
ATOM     93  C   UNL A   1      27.702  31.191  23.799  1.00  0.00     0.108 A 
ATOM     94  N   UNL A   1      28.180  29.983  21.041  1.00  0.00    -0.182 NA
ATOM     95  C   UNL A   1      28.300  32.484  22.710  1.00  0.00     0.042 A 
ATOM     96  C   UNL A   1      28.588  31.694  20.958  1.00  0.00     0.135 A 
ENDBRANCH  91  92
ENDBRANCH  90  91
ENDBRANCH  88  90
ENDBRANCH  79  88
BRANCH  86  97
ATOM     97  C   UNL A   1      35.259  22.027  24.772  1.00  0.00     0.315 C 
ATOM     98  O   UNL A   1      34.735  21.256  25.576  1.00  0.00    -0.231 OA
BRANCH  97  99
ATOM     99  C   UNL A   1      36.697  21.749  24.475  1.00  0.00     0.119 C 
ATOM    100  C   UNL A   1      37.882  21.755  25.394  1.00  0.00     0.019 C 
ATOM    101  C   UNL A   1      37.361  20.449  24.847  1.00  0.00     0.019 C 
ENDBRANCH  97  99
ENDBRANCH  86  97
ENDBRANCH  75  77
ENDBRANCH  74  75
ENDBRANCH  73  74
ENDBRANCH   1  73
TORSDOF 20
ENDMDL
MODEL 2
REMARK VINA RESULT:     -13.6      1.581      5.007
REMARK SMILES O=C(OCCOCCOC(=O)[C@H]1CC2(CC[NH+](C(=O)C3CC3)CC2)CN1C(=O)CCn1cccn1)c1ccc(-c2c3nc(c(-c4c(F)c(F)c(F)c(F)c4F)c4ccc([nH]4)c(-c4c(F)c(F)c(F)c(F)c4F)c4nc(c(-c5c(F)c(F)c(F)c(F)c5F)c5ccc2[nH]5)C=C4)C=C3)cc1
REMARK SMILES IDX 7 1 6 2 5 3 4 4 3 5 2 6 1 7 36 8 37 9 98 10 38 11 97 12
REMARK SMILES IDX 39 13 40 14 41 15 91 16 42 17 96 18 90 19 92 20 43 21 95 22
REMARK SMILES IDX 89 23 88 24 44 26 76 27 56 28 75 29 57 30 60 31 74 32 93 33
REMARK SMILES IDX 58 34 59 35 73 37 94 38 61 39 45 40 46 41 54 42 47 43 48 44
REMARK SMILES IDX 52 45 55 46 49 47 50 48 53 49 51 50 77 51 78 52 86 53 79 54
REMARK SMILES IDX 80 55 84 56 87 57 81 58 82 59 85 60 83 61 62 62 63 63 71 64
REMARK SMILES IDX 64 65 65 66 69 67 72 68 66 69 67 70 70 71 68 72 8 73 9 74
REMARK SMILES IDX 10 75 11 76 12 77 13 78 26 79 14 80 25 81 15 82 24 83 16 84
REMARK SMILES IDX 23 85 17 86 27 88 28 89 29 90 30 91 31 92 32 93 35 94 33 95
REMARK SMILES IDX 34 96 18 97 19 98 20 99 21 100 22 101
REMARK H PARENT 92 25 60 36 17 87
REMARK Flexibility Score: inf
ROOT
ATOM      1  C   UNL A   1      32.298  29.193  26.390  1.00  0.00     0.202 C 
ENDROOT
BRANCH   1   2
ATOM      2  O   UNL A   1      32.086  30.523  25.885  1.00  0.00    -0.374 OA
BRANCH   2   3
ATOM      3  C   UNL A   1      31.937  31.569  26.850  1.00  0.00     0.202 C 
BRANCH   3   4
ATOM      4  C   UNL A   1      33.126  32.165  27.628  1.00  0.00     0.261 C 
BRANCH   4   5
ATOM      5  O   UNL A   1      33.998  31.226  28.252  1.00  0.00    -0.460 OA
BRANCH   5   6
ATOM      6  C   UNL A   1      35.090  31.511  28.990  1.00  0.00     0.338 C 
ATOM      7  O   UNL A   1      34.987  32.327  29.904  1.00  0.00    -0.246 OA
BRANCH   6   8
ATOM      8  C   UNL A   1      36.409  30.852  28.776  1.00  0.00     0.060 A 
ATOM      9  C   UNL A   1      36.623  29.539  28.342  1.00  0.00     0.016 A 
ATOM     10  C   UNL A   1      37.525  31.639  29.108  1.00  0.00     0.016 A 
ATOM     11  C   UNL A   1      37.855  28.952  28.452  1.00  0.00     0.010 A 
ATOM     12  C   UNL A   1      38.781  31.075  29.176  1.00  0.00     0.010 A 
ATOM     13  C   UNL A   1      38.902  29.713  28.944  1.00  0.00    -0.014 A 
BRANCH  13  14
ATOM     14  C   UNL A   1      40.121  28.997  29.220  1.00  0.00     0.031 A 
ATOM     15  C   UNL A   1      40.413  28.823  30.665  1.00  0.00     0.074 A 
ATOM     16  C   UNL A   1      40.874  28.577  28.189  1.00  0.00     0.049 A 
ATOM     17  N   UNL A   1      41.440  29.240  31.331  1.00  0.00    -0.248 NA
ATOM     18  C   UNL A   1      39.346  28.252  31.503  1.00  0.00     0.031 C 
ATOM     19  C   UNL A   1      40.549  28.569  26.759  1.00  0.00     0.029 A 
ATOM     20  N   UNL A   1      42.084  27.973  28.230  1.00  0.00    -0.354 N 
ATOM     21  C   UNL A   1      41.236  28.819  32.642  1.00  0.00     0.074 A 
ATOM     22  C   UNL A   1      39.879  28.349  32.720  1.00  0.00     0.031 C 
ATOM     23  C   UNL A   1      41.416  27.763  26.110  1.00  0.00     0.029 A 
ATOM     24  C   UNL A   1      42.433  27.332  27.051  1.00  0.00     0.049 A 
ATOM     25  H   UNL A   1      42.664  27.986  29.025  1.00  0.00     0.167 HD
ATOM     26  C   UNL A   1      42.273  28.677  33.510  1.00  0.00     0.037 A 
ATOM     27  C   UNL A   1      43.425  26.419  26.937  1.00  0.00     0.037 A 
ATOM     28  C   UNL A   1      43.396  29.489  33.126  1.00  0.00     0.049 A 
ATOM     29  C   UNL A   1      44.340  26.629  28.095  1.00  0.00     0.074 A 
ATOM     30  C   UNL A   1      43.596  30.852  33.019  1.00  0.00     0.029 A 
ATOM     31  N   UNL A   1      44.410  28.908  32.407  1.00  0.00    -0.354 N 
ATOM     32  N   UNL A   1      45.062  27.708  28.247  1.00  0.00    -0.248 NA
ATOM     33  C   UNL A   1      44.060  25.889  29.319  1.00  0.00     0.031 C 
ATOM     34  C   UNL A   1      44.394  31.016  31.850  1.00  0.00     0.029 A 
ATOM     35  C   UNL A   1      44.696  29.747  31.357  1.00  0.00     0.049 A 
ATOM     36  H   UNL A   1      44.851  28.050  32.606  1.00  0.00     0.167 HD
ATOM     37  C   UNL A   1      44.987  28.004  29.603  1.00  0.00     0.074 A 
ATOM     38  C   UNL A   1      44.398  26.817  30.220  1.00  0.00     0.031 C 
ATOM     39  C   UNL A   1      45.130  29.284  30.059  1.00  0.00     0.037 A 
BRANCH  26  40
ATOM     40  C   UNL A   1      42.369  27.542  34.493  1.00  0.00     0.064 A 
ATOM     41  C   UNL A   1      42.853  26.289  34.071  1.00  0.00     0.173 A 
ATOM     42  C   UNL A   1      41.733  27.556  35.755  1.00  0.00     0.173 A 
ATOM     43  F   UNL A   1      43.448  26.154  32.877  1.00  0.00    -0.203 F 
ATOM     44  C   UNL A   1      42.659  25.132  34.832  1.00  0.00     0.198 A 
ATOM     45  C   UNL A   1      41.588  26.412  36.534  1.00  0.00     0.198 A 
ATOM     46  F   UNL A   1      41.130  28.650  36.236  1.00  0.00    -0.203 F 
ATOM     47  F   UNL A   1      43.034  23.943  34.341  1.00  0.00    -0.200 F 
ATOM     48  C   UNL A   1      42.024  25.194  36.060  1.00  0.00     0.200 A 
ATOM     49  F   UNL A   1      40.950  26.491  37.710  1.00  0.00    -0.200 F 
ATOM     50  F   UNL A   1      41.786  24.079  36.762  1.00  0.00    -0.200 F 
ENDBRANCH  26  40
BRANCH  27  51
ATOM     51  C   UNL A   1      43.359  25.157  26.168  1.00  0.00     0.064 A 
ATOM     52  C   UNL A   1      44.345  24.831  25.227  1.00  0.00     0.173 A 
ATOM     53  C   UNL A   1      42.462  24.126  26.522  1.00  0.00     0.173 A 
ATOM     54  F   UNL A   1      45.266  25.741  24.878  1.00  0.00    -0.203 F 
ATOM     55  C   UNL A   1      44.438  23.546  24.682  1.00  0.00     0.198 A 
ATOM     56  C   UNL A   1      42.551  22.848  25.972  1.00  0.00     0.198 A 
ATOM     57  F   UNL A   1      41.539  24.311  27.476  1.00  0.00    -0.203 F 
ATOM     58  F   UNL A   1      45.426  23.254  23.826  1.00  0.00    -0.200 F 
ATOM     59  C   UNL A   1      43.546  22.554  25.059  1.00  0.00     0.200 A 
ATOM     60  F   UNL A   1      41.705  21.889  26.376  1.00  0.00    -0.200 F 
ATOM     61  F   UNL A   1      43.670  21.310  24.579  1.00  0.00    -0.200 F 
ENDBRANCH  27  51
BRANCH  39  62
ATOM     62  C   UNL A   1      45.553  30.335  29.068  1.00  0.00     0.064 A 
ATOM     63  C   UNL A   1      44.652  31.080  28.287  1.00  0.00     0.173 A 
ATOM     64  C   UNL A   1      46.901  30.710  29.020  1.00  0.00     0.173 A 
ATOM     65  F   UNL A   1      43.333  30.862  28.363  1.00  0.00    -0.203 F 
ATOM     66  C   UNL A   1      45.087  32.115  27.460  1.00  0.00     0.198 A 
ATOM     67  C   UNL A   1      47.331  31.768  28.222  1.00  0.00     0.198 A 
ATOM     68  F   UNL A   1      47.798  30.082  29.795  1.00  0.00    -0.203 F 
ATOM     69  F   UNL A   1      44.206  32.804  26.720  1.00  0.00    -0.200 F 
ATOM     70  C   UNL A   1      46.427  32.460  27.433  1.00  0.00     0.200 A 
ATOM     71  F   UNL A   1      48.619  32.136  28.243  1.00  0.00    -0.200 F 
ATOM     72  F   UNL A   1      46.843  33.484  26.673  1.00  0.00    -0.200 F 
ENDBRANCH  39  62
ENDBRANCH  13  14
ENDBRANCH   6   8
ENDBRANCH   5   6
ENDBRANCH   4   5
ENDBRANCH   3   4
ENDBRANCH   2   3
ENDBRANCH   1   2
BRANCH   1  73
ATOM     73  C   UNL A   1      33.610  28.476  26.010  1.00  0.00     0.261 C 
BRANCH  73  74
ATOM     74  O   UNL A   1      33.666  26.913  25.539  1.00  0.00    -0.462 OA
BRANCH  74  75
ATOM     75  C   UNL A   1      33.302  24.973  25.866  1.00  0.00     0.328 C 
ATOM     76  O   UNL A   1      34.046  24.146  26.490  1.00  0.00    -0.250 OA
BRANCH  75  77
ATOM     77  C   UNL A   1      31.819  24.169  25.403  1.00  0.00     0.195 C 
ATOM     78  C   UNL A   1      30.841  25.339  25.169  1.00  0.00     0.046 C 
ATOM     79  N   UNL A   1      31.858  23.474  24.110  1.00  0.00    -0.328 N 
ATOM     80  C   UNL A   1      30.508  25.345  23.668  1.00  0.00     0.001 C 
ATOM     81  C   UNL A   1      30.712  23.881  23.295  1.00  0.00     0.128 C 
ATOM     82  C   UNL A   1      31.459  26.177  22.787  1.00  0.00     0.071 C 
ATOM     83  C   UNL A   1      29.097  25.917  23.491  1.00  0.00     0.071 C 
ATOM     84  C   UNL A   1      31.420  27.661  23.102  1.00  0.00     0.270 C 
ATOM     85  C   UNL A   1      29.084  27.406  23.876  1.00  0.00     0.270 C 
ATOM     86  N   UNL A   1      30.054  28.181  23.093  1.00  0.00    -0.272 N 
ATOM     87  H   UNL A   1      29.100  28.290  22.875  1.00  0.00     0.356 HD
BRANCH  79  88
ATOM     88  C   UNL A   1      32.633  22.408  23.740  1.00  0.00     0.225 C 
ATOM     89  O   UNL A   1      33.609  22.572  22.999  1.00  0.00    -0.275 OA
BRANCH  88  90
ATOM     90  C   UNL A   1      32.253  20.980  24.090  1.00  0.00     0.124 C 
BRANCH  90  91
ATOM     91  C   UNL A   1      33.104  20.115  25.004  1.00  0.00     0.154 C 
BRANCH  91  92
ATOM     92  N   UNL A   1      33.225  18.694  24.755  1.00  0.00    -0.272 N 
ATOM     93  C   UNL A   1      34.900  17.918  24.479  1.00  0.00     0.108 A 
ATOM     94  N   UNL A   1      32.037  17.341  25.355  1.00  0.00    -0.182 NA
ATOM     95  C   UNL A   1      34.786  16.189  24.939  1.00  0.00     0.042 A 
ATOM     96  C   UNL A   1      32.952  15.842  25.485  1.00  0.00     0.135 A 
ENDBRANCH  91  92
ENDBRANCH  90  91
ENDBRANCH  88  90
ENDBRANCH  79  88
BRANCH  86  97
ATOM     97  C   UNL A   1      29.627  29.419  22.604  1.00  0.00     0.315 C 
ATOM     98  O   UNL A   1      29.707  29.677  21.402  1.00  0.00    -0.231 OA
BRANCH  97  99
ATOM     99  C   UNL A   1      29.113  30.534  23.457  1.00  0.00     0.119 C 
ATOM    100  C   UNL A   1      28.690  31.919  23.067  1.00  0.00     0.019 C 
ATOM    101  C   UNL A   1      27.654  30.911  23.499  1.00  0.00     0.019 C 
ENDBRANCH  97  99
ENDBRANCH  86  97
ENDBRANCH  75  77
ENDBRANCH  74  75
ENDBRANCH  73  74
ENDBRANCH   1  73
TORSDOF 20
ENDMDL
MODEL 3
REMARK VINA RESULT:     -13.6      3.071      9.352
REMARK SMILES O=C(OCCOCCOC(=O)[C@H]1CC2(CC[NH+](C(=O)C3CC3)CC2)CN1C(=O)CCn1cccn1)c1ccc(-c2c3nc(c(-c4c(F)c(F)c(F)c(F)c4F)c4ccc([nH]4)c(-c4c(F)c(F)c(F)c(F)c4F)c4nc(c(-c5c(F)c(F)c(F)c(F)c5F)c5ccc2[nH]5)C=C4)C=C3)cc1
REMARK SMILES IDX 7 1 6 2 5 3 4 4 3 5 2 6 1 7 36 8 37 9 98 10 38 11 97 12
REMARK SMILES IDX 39 13 40 14 41 15 91 16 42 17 96 18 90 19 92 20 43 21 95 22
REMARK SMILES IDX 89 23 88 24 44 26 76 27 56 28 75 29 57 30 60 31 74 32 93 33
REMARK SMILES IDX 58 34 59 35 73 37 94 38 61 39 45 40 46 41 54 42 47 43 48 44
REMARK SMILES IDX 52 45 55 46 49 47 50 48 53 49 51 50 77 51 78 52 86 53 79 54
REMARK SMILES IDX 80 55 84 56 87 57 81 58 82 59 85 60 83 61 62 62 63 63 71 64
REMARK SMILES IDX 64 65 65 66 69 67 72 68 66 69 67 70 70 71 68 72 8 73 9 74
REMARK SMILES IDX 10 75 11 76 12 77 13 78 26 79 14 80 25 81 15 82 24 83 16 84
REMARK SMILES IDX 23 85 17 86 27 88 28 89 29 90 30 91 31 92 32 93 35 94 33 95
REMARK SMILES IDX 34 96 18 97 19 98 20 99 21 100 22 101
REMARK H PARENT 92 25 60 36 17 87
REMARK Flexibility Score: inf
ROOT
ATOM      1  C   UNL A   1      38.547  22.958  26.461  1.00  0.00     0.202 C 
ENDROOT
BRANCH   1   2
ATOM      2  O   UNL A   1      38.985  21.810  25.713  1.00  0.00    -0.374 OA
BRANCH   2   3
ATOM      3  C   UNL A   1      39.904  20.925  26.360  1.00  0.00     0.202 C 
BRANCH   3   4
ATOM      4  C   UNL A   1      41.412  21.223  26.474  1.00  0.00     0.261 C 
BRANCH   4   5
ATOM      5  O   UNL A   1      41.963  22.057  25.458  1.00  0.00    -0.460 OA
BRANCH   5   6
ATOM      6  C   UNL A   1      42.648  23.203  25.644  1.00  0.00     0.338 C 
ATOM      7  O   UNL A   1      43.739  23.334  25.092  1.00  0.00    -0.246 OA
BRANCH   6   8
ATOM      8  C   UNL A   1      42.124  24.340  26.453  1.00  0.00     0.060 A 
ATOM      9  C   UNL A   1      41.204  25.306  26.032  1.00  0.00     0.016 A 
ATOM     10  C   UNL A   1      42.673  24.452  27.741  1.00  0.00     0.016 A 
ATOM     11  C   UNL A   1      41.011  26.456  26.751  1.00  0.00     0.010 A 
ATOM     12  C   UNL A   1      42.449  25.581  28.499  1.00  0.00     0.010 A 
ATOM     13  C   UNL A   1      41.701  26.607  27.942  1.00  0.00    -0.014 A 
BRANCH  13  14
ATOM     14  C   UNL A   1      41.611  27.907  28.556  1.00  0.00     0.031 A 
ATOM     15  C   UNL A   1      42.760  28.801  28.266  1.00  0.00     0.074 A 
ATOM     16  C   UNL A   1      40.546  28.188  29.327  1.00  0.00     0.049 A 
ATOM     17  N   UNL A   1      43.588  29.338  29.101  1.00  0.00    -0.248 NA
ATOM     18  C   UNL A   1      43.127  28.986  26.852  1.00  0.00     0.031 C 
ATOM     19  C   UNL A   1      39.313  27.415  29.503  1.00  0.00     0.029 A 
ATOM     20  N   UNL A   1      40.314  29.303  30.058  1.00  0.00    -0.354 N 
ATOM     21  C   UNL A   1      44.473  30.084  28.326  1.00  0.00     0.074 A 
ATOM     22  C   UNL A   1      44.235  29.719  26.956  1.00  0.00     0.031 C 
ATOM     23  C   UNL A   1      38.374  28.199  30.077  1.00  0.00     0.029 A 
ATOM     24  C   UNL A   1      38.991  29.460  30.438  1.00  0.00     0.049 A 
ATOM     25  H   UNL A   1      41.022  29.944  30.298  1.00  0.00     0.167 HD
ATOM     26  C   UNL A   1      45.180  31.118  28.857  1.00  0.00     0.037 A 
ATOM     27  C   UNL A   1      38.456  30.616  30.899  1.00  0.00     0.037 A 
ATOM     28  C   UNL A   1      45.328  30.979  30.281  1.00  0.00     0.049 A 
ATOM     29  C   UNL A   1      39.589  31.449  31.392  1.00  0.00     0.074 A 
ATOM     30  C   UNL A   1      45.961  30.055  31.089  1.00  0.00     0.029 A 
ATOM     31  N   UNL A   1      44.454  31.651  31.099  1.00  0.00    -0.354 N 
ATOM     32  N   UNL A   1      40.316  31.125  32.429  1.00  0.00    -0.248 NA
ATOM     33  C   UNL A   1      40.229  32.349  30.440  1.00  0.00     0.031 C 
ATOM     34  C   UNL A   1      45.087  29.879  32.201  1.00  0.00     0.029 A 
ATOM     35  C   UNL A   1      44.014  30.756  32.044  1.00  0.00     0.049 A 
ATOM     36  H   UNL A   1      44.191  32.597  31.024  1.00  0.00     0.167 HD
ATOM     37  C   UNL A   1      41.620  31.440  32.068  1.00  0.00     0.074 A 
ATOM     38  C   UNL A   1      41.497  32.239  30.851  1.00  0.00     0.031 C 
ATOM     39  C   UNL A   1      42.686  30.782  32.613  1.00  0.00     0.037 A 
BRANCH  26  40
ATOM     40  C   UNL A   1      45.423  32.407  28.120  1.00  0.00     0.064 A 
ATOM     41  C   UNL A   1      44.348  33.276  27.855  1.00  0.00     0.173 A 
ATOM     42  C   UNL A   1      46.617  32.681  27.415  1.00  0.00     0.173 A 
ATOM     43  F   UNL A   1      43.159  33.092  28.447  1.00  0.00    -0.203 F 
ATOM     44  C   UNL A   1      44.447  34.302  26.909  1.00  0.00     0.198 A 
ATOM     45  C   UNL A   1      46.728  33.736  26.513  1.00  0.00     0.198 A 
ATOM     46  F   UNL A   1      47.685  31.878  27.484  1.00  0.00    -0.203 F 
ATOM     47  F   UNL A   1      43.366  35.032  26.605  1.00  0.00    -0.200 F 
ATOM     48  C   UNL A   1      45.635  34.528  26.237  1.00  0.00     0.200 A 
ATOM     49  F   UNL A   1      47.882  33.922  25.857  1.00  0.00    -0.200 F 
ATOM     50  F   UNL A   1      45.715  35.471  25.290  1.00  0.00    -0.200 F 
ENDBRANCH  26  40
BRANCH  27  51
ATOM     51  C   UNL A   1      37.136  31.171  30.524  1.00  0.00     0.064 A 
ATOM     52  C   UNL A   1      36.198  31.525  31.503  1.00  0.00     0.173 A 
ATOM     53  C   UNL A   1      36.866  31.603  29.208  1.00  0.00     0.173 A 
ATOM     54  F   UNL A   1      36.409  31.196  32.786  1.00  0.00    -0.203 F 
ATOM     55  C   UNL A   1      35.062  32.278  31.186  1.00  0.00     0.198 A 
ATOM     56  C   UNL A   1      35.730  32.347  28.892  1.00  0.00     0.198 A 
ATOM     57  F   UNL A   1      37.745  31.392  28.218  1.00  0.00    -0.203 F 
ATOM     58  F   UNL A   1      34.213  32.644  32.156  1.00  0.00    -0.200 F 
ATOM     59  C   UNL A   1      34.832  32.694  29.884  1.00  0.00     0.200 A 
ATOM     60  F   UNL A   1      35.543  32.774  27.636  1.00  0.00    -0.200 F 
ATOM     61  F   UNL A   1      33.774  33.461  29.592  1.00  0.00    -0.200 F 
ENDBRANCH  27  51
BRANCH  39  62
ATOM     62  C   UNL A   1      42.414  29.833  33.749  1.00  0.00     0.064 A 
ATOM     63  C   UNL A   1      42.044  28.488  33.572  1.00  0.00     0.173 A 
ATOM     64  C   UNL A   1      42.687  30.254  35.056  1.00  0.00     0.173 A 
ATOM     65  F   UNL A   1      41.877  27.976  32.346  1.00  0.00    -0.203 F 
ATOM     66  C   UNL A   1      41.904  27.622  34.657  1.00  0.00     0.198 A 
ATOM     67  C   UNL A   1      42.584  29.379  36.135  1.00  0.00     0.198 A 
ATOM     68  F   UNL A   1      43.111  31.507  35.281  1.00  0.00    -0.203 F 
ATOM     69  F   UNL A   1      41.544  26.345  34.458  1.00  0.00    -0.200 F 
ATOM     70  C   UNL A   1      42.180  28.068  35.937  1.00  0.00     0.200 A 
ATOM     71  F   UNL A   1      42.907  29.799  37.366  1.00  0.00    -0.200 F 
ATOM     72  F   UNL A   1      42.091  27.227  36.977  1.00  0.00    -0.200 F 
ENDBRANCH  39  62
ENDBRANCH  13  14
ENDBRANCH   6   8
ENDBRANCH   5   6
ENDBRANCH   4   5
ENDBRANCH   3   4
ENDBRANCH   2   3
ENDBRANCH   1   2
BRANCH   1  73
ATOM     73  C   UNL A   1      37.565  23.933  25.780  1.00  0.00     0.261 C 
BRANCH  73  74
ATOM     74  O   UNL A   1      35.943  23.756  25.847  1.00  0.00    -0.462 OA
BRANCH  74  75
ATOM     75  C   UNL A   1      34.298  23.024  26.718  1.00  0.00     0.328 C 
ATOM     76  O   UNL A   1      34.225  22.425  27.843  1.00  0.00    -0.250 OA
BRANCH  75  77
ATOM     77  C   UNL A   1      32.685  23.209  26.066  1.00  0.00     0.195 C 
ATOM     78  C   UNL A   1      32.247  24.591  26.593  1.00  0.00     0.046 C 
ATOM     79  N   UNL A   1      32.609  23.345  24.606  1.00  0.00    -0.328 N 
ATOM     80  C   UNL A   1      32.115  25.511  25.368  1.00  0.00     0.001 C 
ATOM     81  C   UNL A   1      31.799  24.514  24.259  1.00  0.00     0.128 C 
ATOM     82  C   UNL A   1      33.401  26.254  24.961  1.00  0.00     0.071 C 
ATOM     83  C   UNL A   1      31.048  26.569  25.675  1.00  0.00     0.071 C 
ATOM     84  C   UNL A   1      33.882  27.235  26.014  1.00  0.00     0.270 C 
ATOM     85  C   UNL A   1      31.547  27.507  26.787  1.00  0.00     0.270 C 
ATOM     86  N   UNL A   1      32.819  28.149  26.430  1.00  0.00    -0.272 N 
ATOM     87  H   UNL A   1      32.006  28.703  26.409  1.00  0.00     0.356 HD
BRANCH  79  88
ATOM     88  C   UNL A   1      32.968  22.436  23.647  1.00  0.00     0.225 C 
ATOM     89  O   UNL A   1      33.400  22.818  22.554  1.00  0.00    -0.275 OA
BRANCH  88  90
ATOM     90  C   UNL A   1      32.716  20.948  23.818  1.00  0.00     0.124 C 
BRANCH  90  91
ATOM     91  C   UNL A   1      33.626  20.062  24.651  1.00  0.00     0.154 C 
BRANCH  91  92
ATOM     92  N   UNL A   1      33.511  18.621  24.569  1.00  0.00    -0.272 N 
ATOM     93  C   UNL A   1      35.036  17.554  24.422  1.00  0.00     0.108 A 
ATOM     94  N   UNL A   1      32.114  17.560  25.293  1.00  0.00    -0.182 NA
ATOM     95  C   UNL A   1      34.636  15.933  25.075  1.00  0.00     0.042 A 
ATOM     96  C   UNL A   1      32.769  15.957  25.614  1.00  0.00     0.135 A 
ENDBRANCH  91  92
ENDBRANCH  90  91
ENDBRANCH  88  90
ENDBRANCH  79  88
BRANCH  86  97
ATOM     97  C   UNL A   1      32.943  29.510  26.718  1.00  0.00     0.315 C 
ATOM     98  O   UNL A   1      34.053  30.012  26.901  1.00  0.00    -0.231 OA
BRANCH  97  99
ATOM     99  C   UNL A   1      31.791  30.447  26.891  1.00  0.00     0.119 C 
ATOM    100  C   UNL A   1      31.760  31.946  26.830  1.00  0.00     0.019 C 
ATOM    101  C   UNL A   1      31.129  31.136  25.724  1.00  0.00     0.019 C 
ENDBRANCH  97  99
ENDBRANCH  86  97
ENDBRANCH  75  77
ENDBRANCH  74  75
ENDBRANCH  73  74
ENDBRANCH   1  73
TORSDOF 20
ENDMDL
