MODEL 1
REMARK VINA RESULT:     -10.8      0.000      0.000
REMARK SMILES O=C(CCc1ccc(S(=O)(=O)NC2COC2)cc1)OCCOCCOC(=O)c1ccc(-c2c3nc(c(-c4c(F)c(F)c(F)c(F)c4F)c4ccc([nH]4)c(-c4c(F)c(F)c(F)c(F)c4F)c4nc(c(-c5c(F)c(F)c(F)c(F)c5F)c5ccc2[nH]5)C=C4)C=C3)cc1
REMARK SMILES IDX 20 1 19 2 2 3 1 4 3 5 4 6 5 7 6 8 18 9 7 10 17 11 8 12 9 13
REMARK SMILES IDX 10 14 11 15 12 16 13 18 14 19 16 20 15 21 21 22 22 23 23 24
REMARK SMILES IDX 24 25 25 26 26 27 27 28 28 29 29 30 90 31 30 32 89 33 31 34
REMARK SMILES IDX 32 35 33 36 83 37 34 38 88 39 82 40 84 41 35 42 87 43 81 44
REMARK SMILES IDX 80 45 36 47 68 48 48 49 67 50 49 51 52 52 66 53 85 54 50 55
REMARK SMILES IDX 51 56 65 58 86 59 53 60 37 61 38 62 46 63 39 64 40 65 44 66
REMARK SMILES IDX 47 67 41 68 42 69 45 70 43 71 69 72 70 73 78 74 71 75 72 76
REMARK SMILES IDX 76 77 79 78 73 79 74 80 77 81 75 82 54 83 55 84 63 85 56 86
REMARK SMILES IDX 57 87 61 88 64 89 58 90 59 91 62 92 60 93
REMARK H PARENT 12 17 84 46 52 57
REMARK Flexibility Score: inf
ROOT
ATOM      1  C   UNL A   1      33.355  35.322  30.268  1.00  0.00     0.261 C 
ENDROOT
BRANCH   1   2
ATOM      2  O   UNL A   1      33.678  33.932  30.142  1.00  0.00    -0.463 OA
BRANCH   2   3
ATOM      3  C   UNL A   1      34.666  33.601  29.271  1.00  0.00     0.306 C 
ATOM      4  O   UNL A   1      35.819  33.985  29.448  1.00  0.00    -0.252 OA
BRANCH   3   5
ATOM      5  C   UNL A   1      34.239  32.909  27.992  1.00  0.00     0.127 C 
BRANCH   5   6
ATOM      6  C   UNL A   1      34.943  31.573  27.738  1.00  0.00     0.047 C 
BRANCH   6   7
ATOM      7  C   UNL A   1      34.033  30.399  27.440  1.00  0.00    -0.047 A 
ATOM      8  C   UNL A   1      34.513  29.088  27.280  1.00  0.00     0.005 A 
ATOM      9  C   UNL A   1      32.662  30.632  27.279  1.00  0.00     0.005 A 
ATOM     10  C   UNL A   1      33.684  28.084  26.766  1.00  0.00     0.022 A 
ATOM     11  C   UNL A   1      31.827  29.628  26.793  1.00  0.00     0.022 A 
ATOM     12  C   UNL A   1      32.355  28.381  26.463  1.00  0.00     0.082 A 
BRANCH  12  13
ATOM     13  S   UNL A   1      31.406  27.210  25.523  1.00  0.00     0.240 S 
ATOM     14  O   UNL A   1      30.628  26.438  26.467  1.00  0.00    -0.207 OA
ATOM     15  O   UNL A   1      30.791  27.918  24.422  1.00  0.00    -0.207 OA
BRANCH  13  16
ATOM     16  N   UNL A   1      32.540  26.186  24.829  1.00  0.00    -0.203 NA
ATOM     17  H   UNL A   1      32.575  25.375  25.447  1.00  0.00     0.141 HD
BRANCH  16  18
ATOM     18  C   UNL A   1      32.503  25.619  23.445  1.00  0.00     0.121 C 
ATOM     19  C   UNL A   1      32.463  26.567  22.241  1.00  0.00     0.182 C 
ATOM     20  C   UNL A   1      33.848  25.172  22.850  1.00  0.00     0.182 C 
ATOM     21  O   UNL A   1      33.625  25.939  21.648  1.00  0.00    -0.378 OA
ENDBRANCH  16  18
ENDBRANCH  13  16
ENDBRANCH  12  13
ENDBRANCH   6   7
ENDBRANCH   5   6
ENDBRANCH   3   5
ENDBRANCH   2   3
ENDBRANCH   1   2
BRANCH   1  22
ATOM     22  C   UNL A   1      33.467  35.814  31.708  1.00  0.00     0.202 C 
BRANCH  22  23
ATOM     23  O   UNL A   1      34.713  35.466  32.320  1.00  0.00    -0.374 OA
BRANCH  23  24
ATOM     24  C   UNL A   1      34.555  34.929  33.642  1.00  0.00     0.202 C 
BRANCH  24  25
ATOM     25  C   UNL A   1      34.381  33.403  33.646  1.00  0.00     0.261 C 
BRANCH  25  26
ATOM     26  O   UNL A   1      35.372  32.771  32.822  1.00  0.00    -0.460 OA
BRANCH  26  27
ATOM     27  C   UNL A   1      36.468  32.351  33.506  1.00  0.00     0.338 C 
ATOM     28  O   UNL A   1      36.643  32.411  34.712  1.00  0.00    -0.246 OA
BRANCH  27  29
ATOM     29  C   UNL A   1      37.403  31.652  32.594  1.00  0.00     0.060 A 
ATOM     30  C   UNL A   1      38.522  31.034  33.169  1.00  0.00     0.016 A 
ATOM     31  C   UNL A   1      37.202  31.584  31.210  1.00  0.00     0.016 A 
ATOM     32  C   UNL A   1      39.468  30.403  32.363  1.00  0.00     0.010 A 
ATOM     33  C   UNL A   1      38.151  30.949  30.402  1.00  0.00     0.010 A 
ATOM     34  C   UNL A   1      39.309  30.396  30.972  1.00  0.00    -0.014 A 
BRANCH  34  35
ATOM     35  C   UNL A   1      40.446  29.978  30.117  1.00  0.00     0.031 A 
ATOM     36  C   UNL A   1      41.539  30.974  29.839  1.00  0.00     0.074 A 
ATOM     37  C   UNL A   1      40.537  28.725  29.639  1.00  0.00     0.049 A 
ATOM     38  N   UNL A   1      42.652  30.824  29.166  1.00  0.00    -0.248 NA
ATOM     39  C   UNL A   1      41.352  32.322  30.398  1.00  0.00     0.031 C 
ATOM     40  C   UNL A   1      39.556  27.664  29.852  1.00  0.00     0.029 A 
ATOM     41  N   UNL A   1      41.512  28.137  28.873  1.00  0.00    -0.354 N 
ATOM     42  C   UNL A   1      43.303  32.047  29.241  1.00  0.00     0.074 A 
ATOM     43  C   UNL A   1      42.440  32.946  29.975  1.00  0.00     0.031 C 
ATOM     44  C   UNL A   1      39.973  26.554  29.218  1.00  0.00     0.029 A 
ATOM     45  C   UNL A   1      41.245  26.830  28.552  1.00  0.00     0.049 A 
ATOM     46  H   UNL A   1      42.325  28.608  28.580  1.00  0.00     0.167 HD
ATOM     47  C   UNL A   1      44.524  32.387  28.763  1.00  0.00     0.037 A 
ATOM     48  C   UNL A   1      41.950  25.959  27.804  1.00  0.00     0.037 A 
ATOM     49  C   UNL A   1      45.379  31.504  28.016  1.00  0.00     0.049 A 
ATOM     50  C   UNL A   1      43.280  26.380  27.232  1.00  0.00     0.074 A 
ATOM     51  C   UNL A   1      46.629  31.759  27.479  1.00  0.00     0.029 A 
ATOM     52  N   UNL A   1      45.065  30.192  27.695  1.00  0.00    -0.354 N 
ATOM     53  N   UNL A   1      43.907  27.526  27.340  1.00  0.00    -0.248 NA
ATOM     54  C   UNL A   1      44.009  25.374  26.445  1.00  0.00     0.031 C 
ATOM     55  C   UNL A   1      47.054  30.613  26.799  1.00  0.00     0.029 A 
ATOM     56  C   UNL A   1      46.091  29.629  26.953  1.00  0.00     0.049 A 
ATOM     57  H   UNL A   1      44.237  29.729  27.956  1.00  0.00     0.167 HD
ATOM     58  C   UNL A   1      45.108  27.373  26.660  1.00  0.00     0.074 A 
ATOM     59  C   UNL A   1      45.134  26.015  26.161  1.00  0.00     0.031 C 
ATOM     60  C   UNL A   1      46.100  28.276  26.462  1.00  0.00     0.037 A 
BRANCH  47  61
ATOM     61  C   UNL A   1      45.001  33.782  29.033  1.00  0.00     0.064 A 
ATOM     62  C   UNL A   1      45.780  34.081  30.162  1.00  0.00     0.173 A 
ATOM     63  C   UNL A   1      44.703  34.825  28.145  1.00  0.00     0.173 A 
ATOM     64  F   UNL A   1      46.078  33.120  31.050  1.00  0.00    -0.203 F 
ATOM     65  C   UNL A   1      46.225  35.378  30.402  1.00  0.00     0.198 A 
ATOM     66  C   UNL A   1      45.171  36.116  28.375  1.00  0.00     0.198 A 
ATOM     67  F   UNL A   1      43.961  34.593  27.052  1.00  0.00    -0.203 F 
ATOM     68  F   UNL A   1      46.932  35.648  31.509  1.00  0.00    -0.200 F 
ATOM     69  C   UNL A   1      45.927  36.392  29.505  1.00  0.00     0.200 A 
ATOM     70  F   UNL A   1      44.889  37.095  27.505  1.00  0.00    -0.200 F 
ATOM     71  F   UNL A   1      46.361  37.639  29.735  1.00  0.00    -0.200 F 
ENDBRANCH  47  61
BRANCH  48  72
ATOM     72  C   UNL A   1      41.416  24.596  27.547  1.00  0.00     0.064 A 
ATOM     73  C   UNL A   1      40.331  24.393  26.683  1.00  0.00     0.173 A 
ATOM     74  C   UNL A   1      41.956  23.476  28.194  1.00  0.00     0.173 A 
ATOM     75  F   UNL A   1      39.763  25.436  26.061  1.00  0.00    -0.203 F 
ATOM     76  C   UNL A   1      39.789  23.123  26.497  1.00  0.00     0.198 A 
ATOM     77  C   UNL A   1      41.430  22.203  27.986  1.00  0.00     0.198 A 
ATOM     78  F   UNL A   1      42.990  23.619  29.034  1.00  0.00    -0.203 F 
ATOM     79  F   UNL A   1      38.718  22.962  25.708  1.00  0.00    -0.200 F 
ATOM     80  C   UNL A   1      40.342  22.029  27.146  1.00  0.00     0.200 A 
ATOM     81  F   UNL A   1      41.972  21.147  28.608  1.00  0.00    -0.200 F 
ATOM     82  F   UNL A   1      39.816  20.808  26.971  1.00  0.00    -0.200 F 
ENDBRANCH  48  72
BRANCH  60  83
ATOM     83  C   UNL A   1      47.304  27.815  25.691  1.00  0.00     0.064 A 
ATOM     84  C   UNL A   1      47.304  27.767  24.289  1.00  0.00     0.173 A 
ATOM     85  C   UNL A   1      48.478  27.440  26.361  1.00  0.00     0.173 A 
ATOM     86  F   UNL A   1      46.202  28.103  23.601  1.00  0.00    -0.203 F 
ATOM     87  C   UNL A   1      48.424  27.325  23.588  1.00  0.00     0.198 A 
ATOM     88  C   UNL A   1      49.606  27.028  25.655  1.00  0.00     0.198 A 
ATOM     89  F   UNL A   1      48.536  27.478  27.701  1.00  0.00    -0.203 F 
ATOM     90  F   UNL A   1      48.381  27.234  22.251  1.00  0.00    -0.200 F 
ATOM     91  C   UNL A   1      49.575  26.962  24.270  1.00  0.00     0.200 A 
ATOM     92  F   UNL A   1      50.722  26.690  26.316  1.00  0.00    -0.200 F 
ATOM     93  F   UNL A   1      50.651  26.537  23.594  1.00  0.00    -0.200 F 
ENDBRANCH  60  83
ENDBRANCH  34  35
ENDBRANCH  27  29
ENDBRANCH  26  27
ENDBRANCH  25  26
ENDBRANCH  24  25
ENDBRANCH  23  24
ENDBRANCH  22  23
ENDBRANCH   1  22
TORSDOF 19
ENDMDL
MODEL 2
REMARK VINA RESULT:     -10.3      0.916      7.313
REMARK SMILES O=C(CCc1ccc(S(=O)(=O)NC2COC2)cc1)OCCOCCOC(=O)c1ccc(-c2c3nc(c(-c4c(F)c(F)c(F)c(F)c4F)c4ccc([nH]4)c(-c4c(F)c(F)c(F)c(F)c4F)c4nc(c(-c5c(F)c(F)c(F)c(F)c5F)c5ccc2[nH]5)C=C4)C=C3)cc1
REMARK SMILES IDX 20 1 19 2 2 3 1 4 3 5 4 6 5 7 6 8 18 9 7 10 17 11 8 12 9 13
REMARK SMILES IDX 10 14 11 15 12 16 13 18 14 19 16 20 15 21 21 22 22 23 23 24
REMARK SMILES IDX 24 25 25 26 26 27 27 28 28 29 29 30 90 31 30 32 89 33 31 34
REMARK SMILES IDX 32 35 33 36 83 37 34 38 88 39 82 40 84 41 35 42 87 43 81 44
REMARK SMILES IDX 80 45 36 47 68 48 48 49 67 50 49 51 52 52 66 53 85 54 50 55
REMARK SMILES IDX 51 56 65 58 86 59 53 60 37 61 38 62 46 63 39 64 40 65 44 66
REMARK SMILES IDX 47 67 41 68 42 69 45 70 43 71 69 72 70 73 78 74 71 75 72 76
REMARK SMILES IDX 76 77 79 78 73 79 74 80 77 81 75 82 54 83 55 84 63 85 56 86
REMARK SMILES IDX 57 87 61 88 64 89 58 90 59 91 62 92 60 93
REMARK H PARENT 12 17 84 46 52 57
REMARK Flexibility Score: inf
ROOT
ATOM      1  C   UNL A   1      33.342  35.620  30.233  1.00  0.00     0.261 C 
ENDROOT
BRANCH   1   2
ATOM      2  O   UNL A   1      33.315  34.211  29.976  1.00  0.00    -0.463 OA
BRANCH   2   3
ATOM      3  C   UNL A   1      34.237  33.721  29.108  1.00  0.00     0.306 C 
ATOM      4  O   UNL A   1      35.400  34.115  29.133  1.00  0.00    -0.252 OA
BRANCH   3   5
ATOM      5  C   UNL A   1      33.718  32.824  28.001  1.00  0.00     0.127 C 
BRANCH   5   6
ATOM      6  C   UNL A   1      34.526  31.539  27.806  1.00  0.00     0.047 C 
BRANCH   6   7
ATOM      7  C   UNL A   1      33.775  30.380  27.182  1.00  0.00    -0.047 A 
ATOM      8  C   UNL A   1      34.335  29.099  27.044  1.00  0.00     0.005 A 
ATOM      9  C   UNL A   1      32.485  30.601  26.688  1.00  0.00     0.005 A 
ATOM     10  C   UNL A   1      33.711  28.131  26.248  1.00  0.00     0.022 A 
ATOM     11  C   UNL A   1      31.848  29.632  25.917  1.00  0.00     0.022 A 
ATOM     12  C   UNL A   1      32.495  28.430  25.633  1.00  0.00     0.082 A 
BRANCH  12  13
ATOM     13  S   UNL A   1      31.873  27.333  24.382  1.00  0.00     0.240 S 
ATOM     14  O   UNL A   1      30.935  26.441  25.027  1.00  0.00    -0.207 OA
ATOM     15  O   UNL A   1      31.504  28.132  23.234  1.00  0.00    -0.207 OA
BRANCH  13  16
ATOM     16  N   UNL A   1      33.199  26.426  23.898  1.00  0.00    -0.203 NA
ATOM     17  H   UNL A   1      34.007  26.914  24.286  1.00  0.00     0.141 HD
BRANCH  16  18
ATOM     18  C   UNL A   1      33.444  24.978  24.185  1.00  0.00     0.121 C 
ATOM     19  C   UNL A   1      34.152  24.110  23.139  1.00  0.00     0.182 C 
ATOM     20  C   UNL A   1      34.665  24.648  25.059  1.00  0.00     0.182 C 
ATOM     21  O   UNL A   1      35.150  23.686  24.098  1.00  0.00    -0.378 OA
ENDBRANCH  16  18
ENDBRANCH  13  16
ENDBRANCH  12  13
ENDBRANCH   6   7
ENDBRANCH   5   6
ENDBRANCH   3   5
ENDBRANCH   2   3
ENDBRANCH   1   2
BRANCH   1  22
ATOM     22  C   UNL A   1      33.586  35.934  31.706  1.00  0.00     0.202 C 
BRANCH  22  23
ATOM     23  O   UNL A   1      34.804  35.368  32.202  1.00  0.00    -0.374 OA
BRANCH  23  24
ATOM     24  C   UNL A   1      34.600  34.514  33.337  1.00  0.00     0.202 C 
BRANCH  24  25
ATOM     25  C   UNL A   1      34.495  33.031  32.954  1.00  0.00     0.261 C 
BRANCH  25  26
ATOM     26  O   UNL A   1      35.638  32.614  32.191  1.00  0.00    -0.460 OA
BRANCH  26  27
ATOM     27  C   UNL A   1      36.626  32.063  32.942  1.00  0.00     0.338 C 
ATOM     28  O   UNL A   1      36.653  31.968  34.159  1.00  0.00    -0.246 OA
BRANCH  27  29
ATOM     29  C   UNL A   1      37.643  31.435  32.066  1.00  0.00     0.060 A 
ATOM     30  C   UNL A   1      38.647  30.678  32.686  1.00  0.00     0.016 A 
ATOM     31  C   UNL A   1      37.625  31.564  30.673  1.00  0.00     0.016 A 
ATOM     32  C   UNL A   1      39.664  30.103  31.925  1.00  0.00     0.010 A 
ATOM     33  C   UNL A   1      38.645  30.985  29.909  1.00  0.00     0.010 A 
ATOM     34  C   UNL A   1      39.691  30.291  30.537  1.00  0.00    -0.014 A 
BRANCH  34  35
ATOM     35  C   UNL A   1      40.913  29.921  29.783  1.00  0.00     0.031 A 
ATOM     36  C   UNL A   1      41.010  28.534  29.209  1.00  0.00     0.074 A 
ATOM     37  C   UNL A   1      41.895  30.813  29.563  1.00  0.00     0.049 A 
ATOM     38  N   UNL A   1      41.952  28.000  28.473  1.00  0.00    -0.248 NA
ATOM     39  C   UNL A   1      39.891  27.625  29.505  1.00  0.00     0.031 C 
ATOM     40  C   UNL A   1      41.912  32.190  30.049  1.00  0.00     0.029 A 
ATOM     41  N   UNL A   1      43.071  30.683  28.869  1.00  0.00    -0.354 N 
ATOM     42  C   UNL A   1      41.528  26.707  28.201  1.00  0.00     0.074 A 
ATOM     43  C   UNL A   1      40.274  26.514  28.895  1.00  0.00     0.031 C 
ATOM     44  C   UNL A   1      43.053  32.778  29.647  1.00  0.00     0.029 A 
ATOM     45  C   UNL A   1      43.845  31.816  28.883  1.00  0.00     0.049 A 
ATOM     46  H   UNL A   1      43.335  29.856  28.405  1.00  0.00     0.167 HD
ATOM     47  C   UNL A   1      42.118  25.769  27.422  1.00  0.00     0.037 A 
ATOM     48  C   UNL A   1      45.057  32.045  28.340  1.00  0.00     0.037 A 
ATOM     49  C   UNL A   1      43.374  25.948  26.745  1.00  0.00     0.049 A 
ATOM     50  C   UNL A   1      45.721  30.963  27.526  1.00  0.00     0.074 A 
ATOM     51  C   UNL A   1      44.059  25.053  25.942  1.00  0.00     0.029 A 
ATOM     52  N   UNL A   1      44.139  27.103  26.799  1.00  0.00    -0.354 N 
ATOM     53  N   UNL A   1      45.296  29.757  27.242  1.00  0.00    -0.248 NA
ATOM     54  C   UNL A   1      47.032  31.287  26.943  1.00  0.00     0.031 C 
ATOM     55  C   UNL A   1      45.258  25.653  25.542  1.00  0.00     0.029 A 
ATOM     56  C   UNL A   1      45.297  26.939  26.057  1.00  0.00     0.049 A 
ATOM     57  H   UNL A   1      43.894  27.920  27.292  1.00  0.00     0.167 HD
ATOM     58  C   UNL A   1      46.270  29.188  26.430  1.00  0.00     0.074 A 
ATOM     59  C   UNL A   1      47.298  30.189  26.248  1.00  0.00     0.031 C 
ATOM     60  C   UNL A   1      46.311  27.946  25.887  1.00  0.00     0.037 A 
BRANCH  47  61
ATOM     61  C   UNL A   1      41.405  24.459  27.269  1.00  0.00     0.064 A 
ATOM     62  C   UNL A   1      41.883  23.292  27.884  1.00  0.00     0.173 A 
ATOM     63  C   UNL A   1      40.221  24.373  26.523  1.00  0.00     0.173 A 
ATOM     64  F   UNL A   1      43.022  23.320  28.593  1.00  0.00    -0.203 F 
ATOM     65  C   UNL A   1      41.211  22.081  27.741  1.00  0.00     0.198 A 
ATOM     66  C   UNL A   1      39.537  23.166  26.404  1.00  0.00     0.198 A 
ATOM     67  F   UNL A   1      39.723  25.460  25.915  1.00  0.00    -0.203 F 
ATOM     68  F   UNL A   1      41.708  20.970  28.302  1.00  0.00    -0.200 F 
ATOM     69  C   UNL A   1      40.035  22.021  27.008  1.00  0.00     0.200 A 
ATOM     70  F   UNL A   1      38.397  23.109  25.702  1.00  0.00    -0.200 F 
ATOM     71  F   UNL A   1      39.386  20.855  26.876  1.00  0.00    -0.200 F 
ENDBRANCH  47  61
BRANCH  48  72
ATOM     72  C   UNL A   1      45.729  33.354  28.547  1.00  0.00     0.064 A 
ATOM     73  C   UNL A   1      45.500  34.432  27.682  1.00  0.00     0.173 A 
ATOM     74  C   UNL A   1      46.646  33.536  29.592  1.00  0.00     0.173 A 
ATOM     75  F   UNL A   1      44.652  34.298  26.652  1.00  0.00    -0.203 F 
ATOM     76  C   UNL A   1      46.184  35.636  27.838  1.00  0.00     0.198 A 
ATOM     77  C   UNL A   1      47.309  34.749  29.763  1.00  0.00     0.198 A 
ATOM     78  F   UNL A   1      46.904  32.534  30.443  1.00  0.00    -0.203 F 
ATOM     79  F   UNL A   1      45.988  36.634  26.965  1.00  0.00    -0.200 F 
ATOM     80  C   UNL A   1      47.085  35.795  28.880  1.00  0.00     0.200 A 
ATOM     81  F   UNL A   1      48.172  34.902  30.777  1.00  0.00    -0.200 F 
ATOM     82  F   UNL A   1      47.746  36.952  29.027  1.00  0.00    -0.200 F 
ENDBRANCH  48  72
BRANCH  60  83
ATOM     83  C   UNL A   1      47.497  27.612  25.028  1.00  0.00     0.064 A 
ATOM     84  C   UNL A   1      48.666  27.057  25.573  1.00  0.00     0.173 A 
ATOM     85  C   UNL A   1      47.458  27.828  23.642  1.00  0.00     0.173 A 
ATOM     86  F   UNL A   1      48.760  26.843  26.893  1.00  0.00    -0.203 F 
ATOM     87  C   UNL A   1      49.762  26.764  24.766  1.00  0.00     0.198 A 
ATOM     88  C   UNL A   1      48.545  27.506  22.835  1.00  0.00     0.198 A 
ATOM     89  F   UNL A   1      46.361  28.346  23.069  1.00  0.00    -0.203 F 
ATOM     90  F   UNL A   1      50.888  26.287  25.316  1.00  0.00    -0.200 F 
ATOM     91  C   UNL A   1      49.699  26.983  23.398  1.00  0.00     0.200 A 
ATOM     92  F   UNL A   1      48.477  27.705  21.511  1.00  0.00    -0.200 F 
ATOM     93  F   UNL A   1      50.756  26.701  22.623  1.00  0.00    -0.200 F 
ENDBRANCH  60  83
ENDBRANCH  34  35
ENDBRANCH  27  29
ENDBRANCH  26  27
ENDBRANCH  25  26
ENDBRANCH  24  25
ENDBRANCH  23  24
ENDBRANCH  22  23
ENDBRANCH   1  22
TORSDOF 19
ENDMDL
MODEL 3
REMARK VINA RESULT:     -10.3      1.430      7.603
REMARK SMILES O=C(CCc1ccc(S(=O)(=O)NC2COC2)cc1)OCCOCCOC(=O)c1ccc(-c2c3nc(c(-c4c(F)c(F)c(F)c(F)c4F)c4ccc([nH]4)c(-c4c(F)c(F)c(F)c(F)c4F)c4nc(c(-c5c(F)c(F)c(F)c(F)c5F)c5ccc2[nH]5)C=C4)C=C3)cc1
REMARK SMILES IDX 20 1 19 2 2 3 1 4 3 5 4 6 5 7 6 8 18 9 7 10 17 11 8 12 9 13
REMARK SMILES IDX 10 14 11 15 12 16 13 18 14 19 16 20 15 21 21 22 22 23 23 24
REMARK SMILES IDX 24 25 25 26 26 27 27 28 28 29 29 30 90 31 30 32 89 33 31 34
REMARK SMILES IDX 32 35 33 36 83 37 34 38 88 39 82 40 84 41 35 42 87 43 81 44
REMARK SMILES IDX 80 45 36 47 68 48 48 49 67 50 49 51 52 52 66 53 85 54 50 55
REMARK SMILES IDX 51 56 65 58 86 59 53 60 37 61 38 62 46 63 39 64 40 65 44 66
REMARK SMILES IDX 47 67 41 68 42 69 45 70 43 71 69 72 70 73 78 74 71 75 72 76
REMARK SMILES IDX 76 77 79 78 73 79 74 80 77 81 75 82 54 83 55 84 63 85 56 86
REMARK SMILES IDX 57 87 61 88 64 89 58 90 59 91 62 92 60 93
REMARK H PARENT 12 17 84 46 52 57
REMARK Flexibility Score: inf
ROOT
ATOM      1  C   UNL A   1      33.734  34.718  28.778  1.00  0.00     0.261 C 
ENDROOT
BRANCH   1   2
ATOM      2  O   UNL A   1      33.980  33.317  28.956  1.00  0.00    -0.463 OA
BRANCH   2   3
ATOM      3  C   UNL A   1      34.888  32.737  28.129  1.00  0.00     0.306 C 
ATOM      4  O   UNL A   1      35.799  33.393  27.632  1.00  0.00    -0.252 OA
BRANCH   3   5
ATOM      5  C   UNL A   1      34.607  31.308  27.709  1.00  0.00     0.127 C 
BRANCH   5   6
ATOM      6  C   UNL A   1      33.121  30.992  27.517  1.00  0.00     0.047 C 
BRANCH   6   7
ATOM      7  C   UNL A   1      32.813  29.677  26.831  1.00  0.00    -0.047 A 
ATOM      8  C   UNL A   1      31.778  28.826  27.252  1.00  0.00     0.005 A 
ATOM      9  C   UNL A   1      33.615  29.273  25.758  1.00  0.00     0.005 A 
ATOM     10  C   UNL A   1      31.684  27.520  26.757  1.00  0.00     0.022 A 
ATOM     11  C   UNL A   1      33.508  27.983  25.243  1.00  0.00     0.022 A 
ATOM     12  C   UNL A   1      32.596  27.084  25.796  1.00  0.00     0.082 A 
BRANCH  12  13
ATOM     13  S   UNL A   1      32.676  25.352  25.410  1.00  0.00     0.240 S 
ATOM     14  O   UNL A   1      31.934  25.156  24.183  1.00  0.00    -0.207 OA
ATOM     15  O   UNL A   1      34.052  24.928  25.549  1.00  0.00    -0.207 OA
BRANCH  13  16
ATOM     16  N   UNL A   1      31.838  24.590  26.647  1.00  0.00    -0.203 NA
ATOM     17  H   UNL A   1      30.865  24.867  26.516  1.00  0.00     0.141 HD
BRANCH  16  18
ATOM     18  C   UNL A   1      31.790  23.120  26.921  1.00  0.00     0.121 C 
ATOM     19  C   UNL A   1      31.942  22.130  25.761  1.00  0.00     0.182 C 
ATOM     20  C   UNL A   1      33.087  22.475  27.437  1.00  0.00     0.182 C 
ATOM     21  O   UNL A   1      33.033  21.447  26.425  1.00  0.00    -0.378 OA
ENDBRANCH  16  18
ENDBRANCH  13  16
ENDBRANCH  12  13
ENDBRANCH   6   7
ENDBRANCH   5   6
ENDBRANCH   3   5
ENDBRANCH   2   3
ENDBRANCH   1   2
BRANCH   1  22
ATOM     22  C   UNL A   1      32.972  35.325  29.952  1.00  0.00     0.202 C 
BRANCH  22  23
ATOM     23  O   UNL A   1      33.832  35.739  31.019  1.00  0.00    -0.374 OA
BRANCH  23  24
ATOM     24  C   UNL A   1      33.996  34.730  32.027  1.00  0.00     0.202 C 
BRANCH  24  25
ATOM     25  C   UNL A   1      35.439  34.214  32.122  1.00  0.00     0.261 C 
BRANCH  25  26
ATOM     26  O   UNL A   1      35.494  32.795  31.906  1.00  0.00    -0.460 OA
BRANCH  26  27
ATOM     27  C   UNL A   1      36.380  32.153  32.709  1.00  0.00     0.338 C 
ATOM     28  O   UNL A   1      36.296  32.003  33.917  1.00  0.00    -0.246 OA
BRANCH  27  29
ATOM     29  C   UNL A   1      37.432  31.504  31.892  1.00  0.00     0.060 A 
ATOM     30  C   UNL A   1      38.462  30.842  32.575  1.00  0.00     0.016 A 
ATOM     31  C   UNL A   1      37.423  31.523  30.492  1.00  0.00     0.016 A 
ATOM     32  C   UNL A   1      39.510  30.255  31.869  1.00  0.00     0.010 A 
ATOM     33  C   UNL A   1      38.474  30.932  29.783  1.00  0.00     0.010 A 
ATOM     34  C   UNL A   1      39.543  30.335  30.471  1.00  0.00    -0.014 A 
BRANCH  34  35
ATOM     35  C   UNL A   1      40.787  29.962  29.755  1.00  0.00     0.031 A 
ATOM     36  C   UNL A   1      40.907  28.567  29.204  1.00  0.00     0.074 A 
ATOM     37  C   UNL A   1      41.770  30.856  29.550  1.00  0.00     0.049 A 
ATOM     38  N   UNL A   1      41.873  28.029  28.502  1.00  0.00    -0.248 NA
ATOM     39  C   UNL A   1      39.786  27.656  29.482  1.00  0.00     0.031 C 
ATOM     40  C   UNL A   1      41.766  32.240  30.017  1.00  0.00     0.029 A 
ATOM     41  N   UNL A   1      42.966  30.723  28.890  1.00  0.00    -0.354 N 
ATOM     42  C   UNL A   1      41.463  26.729  28.237  1.00  0.00     0.074 A 
ATOM     43  C   UNL A   1      40.191  26.539  28.898  1.00  0.00     0.031 C 
ATOM     44  C   UNL A   1      42.915  32.829  29.638  1.00  0.00     0.029 A 
ATOM     45  C   UNL A   1      43.733  31.861  28.910  1.00  0.00     0.049 A 
ATOM     46  H   UNL A   1      43.247  29.891  28.445  1.00  0.00     0.167 HD
ATOM     47  C   UNL A   1      42.079  25.784  27.488  1.00  0.00     0.037 A 
ATOM     48  C   UNL A   1      44.958  32.089  28.398  1.00  0.00     0.037 A 
ATOM     49  C   UNL A   1      43.352  25.961  26.843  1.00  0.00     0.049 A 
ATOM     50  C   UNL A   1      45.651  31.000  27.618  1.00  0.00     0.074 A 
ATOM     51  C   UNL A   1      44.065  25.059  26.072  1.00  0.00     0.029 A 
ATOM     52  N   UNL A   1      44.109  27.121  26.902  1.00  0.00    -0.354 N 
ATOM     53  N   UNL A   1      45.240  29.787  27.339  1.00  0.00    -0.248 NA
ATOM     54  C   UNL A   1      46.975  31.323  27.066  1.00  0.00     0.031 C 
ATOM     55  C   UNL A   1      45.270  25.660  25.697  1.00  0.00     0.029 A 
ATOM     56  C   UNL A   1      45.288  26.953  26.194  1.00  0.00     0.049 A 
ATOM     57  H   UNL A   1      43.847  27.943  27.376  1.00  0.00     0.167 HD
ATOM     58  C   UNL A   1      46.239  29.212  26.562  1.00  0.00     0.074 A 
ATOM     59  C   UNL A   1      47.266  30.217  26.395  1.00  0.00     0.031 C 
ATOM     60  C   UNL A   1      46.302  27.963  26.038  1.00  0.00     0.037 A 
BRANCH  47  61
ATOM     61  C   UNL A   1      41.378  24.468  27.333  1.00  0.00     0.064 A 
ATOM     62  C   UNL A   1      40.223  24.346  26.546  1.00  0.00     0.173 A 
ATOM     63  C   UNL A   1      41.877  23.314  27.953  1.00  0.00     0.173 A 
ATOM     64  F   UNL A   1      39.696  25.425  25.947  1.00  0.00    -0.203 F 
ATOM     65  C   UNL A   1      39.581  23.119  26.402  1.00  0.00     0.198 A 
ATOM     66  C   UNL A   1      41.248  22.083  27.785  1.00  0.00     0.198 A 
ATOM     67  F   UNL A   1      42.978  23.378  28.716  1.00  0.00    -0.203 F 
ATOM     68  F   UNL A   1      38.454  23.034  25.680  1.00  0.00    -0.200 F 
ATOM     69  C   UNL A   1      40.098  21.988  27.015  1.00  0.00     0.200 A 
ATOM     70  F   UNL A   1      41.751  20.989  28.372  1.00  0.00    -0.200 F 
ATOM     71  F   UNL A   1      39.482  20.806  26.871  1.00  0.00    -0.200 F 
ENDBRANCH  47  61
BRANCH  48  72
ATOM     72  C   UNL A   1      45.618  33.404  28.604  1.00  0.00     0.064 A 
ATOM     73  C   UNL A   1      46.462  33.629  29.700  1.00  0.00     0.173 A 
ATOM     74  C   UNL A   1      45.381  34.475  27.730  1.00  0.00     0.173 A 
ATOM     75  F   UNL A   1      46.698  32.644  30.578  1.00  0.00    -0.203 F 
ATOM     76  C   UNL A   1      47.025  34.883  29.928  1.00  0.00     0.198 A 
ATOM     77  C   UNL A   1      45.965  35.721  27.945  1.00  0.00     0.198 A 
ATOM     78  F   UNL A   1      44.577  34.312  26.671  1.00  0.00    -0.203 F 
ATOM     79  F   UNL A   1      47.785  35.087  31.012  1.00  0.00    -0.200 F 
ATOM     80  C   UNL A   1      46.778  35.927  29.049  1.00  0.00     0.200 A 
ATOM     81  F   UNL A   1      45.732  36.725  27.087  1.00  0.00    -0.200 F 
ATOM     82  F   UNL A   1      47.315  37.135  29.272  1.00  0.00    -0.200 F 
ENDBRANCH  48  72
BRANCH  60  83
ATOM     83  C   UNL A   1      47.513  27.624  25.217  1.00  0.00     0.064 A 
ATOM     84  C   UNL A   1      48.681  27.115  25.806  1.00  0.00     0.173 A 
ATOM     85  C   UNL A   1      47.499  27.788  23.824  1.00  0.00     0.173 A 
ATOM     86  F   UNL A   1      48.751  26.951  27.136  1.00  0.00    -0.203 F 
ATOM     87  C   UNL A   1      49.800  26.817  25.033  1.00  0.00     0.198 A 
ATOM     88  C   UNL A   1      48.610  27.460  23.052  1.00  0.00     0.198 A 
ATOM     89  F   UNL A   1      46.404  28.261  23.209  1.00  0.00    -0.203 F 
ATOM     90  F   UNL A   1      50.923  26.385  25.624  1.00  0.00    -0.200 F 
ATOM     91  C   UNL A   1      49.762  26.984  23.657  1.00  0.00     0.200 A 
ATOM     92  F   UNL A   1      48.567  27.609  21.720  1.00  0.00    -0.200 F 
ATOM     93  F   UNL A   1      50.842  26.697  22.916  1.00  0.00    -0.200 F 
ENDBRANCH  60  83
ENDBRANCH  34  35
ENDBRANCH  27  29
ENDBRANCH  26  27
ENDBRANCH  25  26
ENDBRANCH  24  25
ENDBRANCH  23  24
ENDBRANCH  22  23
ENDBRANCH   1  22
TORSDOF 19
ENDMDL
