MODEL 1
REMARK VINA RESULT:     -10.8      0.000      0.000
REMARK SMILES O=C(Cc1c(F)cc(Cl)cc1F)OCCOCCOC(=O)c1ccc(-c2c3nc(c(-c4c(F)c(F)c(F)c(F)c4F)c4ccc([nH]4)c(-c4c(F)c(F)c(F)c(F)c4F)c4nc(c(-c5c(F)c(F)c(F)c(F)c5F)c5ccc2[nH]5)C=C4)C=C3)cc1
REMARK SMILES IDX 17 1 16 2 15 3 14 4 13 5 2 6 1 7 3 8 4 9 5 10 11 11 6 12
REMARK SMILES IDX 7 13 10 14 12 15 8 16 9 17 18 18 19 19 20 20 21 21 22 22
REMARK SMILES IDX 23 23 84 24 24 25 83 26 25 27 26 28 27 29 77 30 28 31 82 32
REMARK SMILES IDX 76 33 78 34 29 35 81 36 75 37 74 38 30 40 62 41 42 42 61 43
REMARK SMILES IDX 43 44 46 45 60 46 79 47 44 48 45 49 59 51 80 52 47 53 31 54
REMARK SMILES IDX 32 55 40 56 33 57 34 58 38 59 41 60 35 61 36 62 39 63 37 64
REMARK SMILES IDX 63 65 64 66 72 67 65 68 66 69 70 70 73 71 67 72 68 73 71 74
REMARK SMILES IDX 69 75 48 76 49 77 57 78 50 79 51 80 55 81 58 82 52 83 53 84
REMARK SMILES IDX 56 85 54 86
REMARK H PARENT 78 39 46 50
REMARK Flexibility Score: inf
ROOT
ATOM      1  C   UNL A   1      45.893  22.026  24.284  1.00  0.00     0.202 C 
ENDROOT
BRANCH   1   2
ATOM      2  O   UNL A   1      45.979  21.259  25.493  1.00  0.00    -0.374 OA
BRANCH   2   3
ATOM      3  C   UNL A   1      45.777  19.859  25.332  1.00  0.00     0.202 C 
BRANCH   3   4
ATOM      4  C   UNL A   1      44.622  19.462  24.423  1.00  0.00     0.261 C 
BRANCH   4   5
ATOM      5  O   UNL A   1      43.330  19.675  25.014  1.00  0.00    -0.463 OA
BRANCH   5   6
ATOM      6  C   UNL A   1      42.748  18.907  25.964  1.00  0.00     0.310 C 
ATOM      7  O   UNL A   1      42.613  17.702  25.750  1.00  0.00    -0.252 OA
BRANCH   6   8
ATOM      8  C   UNL A   1      42.211  19.518  27.242  1.00  0.00     0.164 C 
BRANCH   8   9
ATOM      9  C   UNL A   1      41.179  20.594  27.071  1.00  0.00     0.035 A 
ATOM     10  C   UNL A   1      40.036  20.380  26.296  1.00  0.00     0.131 A 
ATOM     11  C   UNL A   1      41.365  21.857  27.629  1.00  0.00     0.131 A 
ATOM     12  F   UNL A   1      39.835  19.187  25.720  1.00  0.00    -0.207 F 
ATOM     13  C   UNL A   1      39.147  21.411  26.013  1.00  0.00     0.060 A 
ATOM     14  C   UNL A   1      40.477  22.896  27.380  1.00  0.00     0.060 A 
ATOM     15  F   UNL A   1      42.437  22.091  28.397  1.00  0.00    -0.207 F 
ATOM     16  C   UNL A   1      39.378  22.671  26.554  1.00  0.00     0.046 A 
ATOM     17  Cl  UNL A   1      38.315  23.967  26.175  1.00  0.00    -0.084 Cl
ENDBRANCH   8   9
ENDBRANCH   6   8
ENDBRANCH   5   6
ENDBRANCH   4   5
ENDBRANCH   3   4
ENDBRANCH   2   3
ENDBRANCH   1   2
BRANCH   1  18
ATOM     18  C   UNL A   1      44.803  23.105  24.286  1.00  0.00     0.261 C 
BRANCH  18  19
ATOM     19  O   UNL A   1      44.768  23.802  25.542  1.00  0.00    -0.460 OA
BRANCH  19  20
ATOM     20  C   UNL A   1      45.038  25.128  25.475  1.00  0.00     0.338 C 
ATOM     21  O   UNL A   1      45.697  25.711  24.631  1.00  0.00    -0.246 OA
BRANCH  20  22
ATOM     22  C   UNL A   1      44.206  25.829  26.474  1.00  0.00     0.060 A 
ATOM     23  C   UNL A   1      44.415  27.206  26.642  1.00  0.00     0.016 A 
ATOM     24  C   UNL A   1      43.230  25.164  27.220  1.00  0.00     0.016 A 
ATOM     25  C   UNL A   1      43.686  27.912  27.595  1.00  0.00     0.010 A 
ATOM     26  C   UNL A   1      42.509  25.868  28.185  1.00  0.00     0.010 A 
ATOM     27  C   UNL A   1      42.766  27.233  28.403  1.00  0.00    -0.014 A 
BRANCH  27  28
ATOM     28  C   UNL A   1      42.245  27.891  29.621  1.00  0.00     0.031 A 
ATOM     29  C   UNL A   1      40.970  28.677  29.503  1.00  0.00     0.074 A 
ATOM     30  C   UNL A   1      42.868  27.764  30.804  1.00  0.00     0.049 A 
ATOM     31  N   UNL A   1      40.340  29.383  30.405  1.00  0.00    -0.248 NA
ATOM     32  C   UNL A   1      40.316  28.667  28.182  1.00  0.00     0.031 C 
ATOM     33  C   UNL A   1      44.076  26.977  31.043  1.00  0.00     0.029 A 
ATOM     34  N   UNL A   1      42.563  28.298  32.031  1.00  0.00    -0.354 N 
ATOM     35  C   UNL A   1      39.219  29.893  29.764  1.00  0.00     0.074 A 
ATOM     36  C   UNL A   1      39.275  29.458  28.387  1.00  0.00     0.031 C 
ATOM     37  C   UNL A   1      44.411  27.081  32.341  1.00  0.00     0.029 A 
ATOM     38  C   UNL A   1      43.462  27.968  33.014  1.00  0.00     0.049 A 
ATOM     39  H   UNL A   1      41.773  28.865  32.190  1.00  0.00     0.167 HD
ATOM     40  C   UNL A   1      38.223  30.644  30.285  1.00  0.00     0.037 A 
ATOM     41  C   UNL A   1      43.515  28.356  34.303  1.00  0.00     0.037 A 
ATOM     42  C   UNL A   1      38.178  31.075  31.656  1.00  0.00     0.049 A 
ATOM     43  C   UNL A   1      42.448  29.280  34.833  1.00  0.00     0.074 A 
ATOM     44  C   UNL A   1      37.220  31.849  32.284  1.00  0.00     0.029 A 
ATOM     45  N   UNL A   1      39.139  30.769  32.608  1.00  0.00    -0.354 N 
ATOM     46  N   UNL A   1      41.390  29.760  34.224  1.00  0.00    -0.248 NA
ATOM     47  C   UNL A   1      42.584  29.720  36.229  1.00  0.00     0.031 C 
ATOM     48  C   UNL A   1      37.626  32.053  33.606  1.00  0.00     0.029 A 
ATOM     49  C   UNL A   1      38.808  31.358  33.816  1.00  0.00     0.049 A 
ATOM     50  H   UNL A   1      39.937  30.216  32.449  1.00  0.00     0.167 HD
ATOM     51  C   UNL A   1      40.722  30.531  35.167  1.00  0.00     0.074 A 
ATOM     52  C   UNL A   1      41.486  30.444  36.393  1.00  0.00     0.031 C 
ATOM     53  C   UNL A   1      39.579  31.250  35.029  1.00  0.00     0.037 A 
BRANCH  40  54
ATOM     54  C   UNL A   1      37.104  31.052  29.372  1.00  0.00     0.064 A 
ATOM     55  C   UNL A   1      36.044  30.180  29.079  1.00  0.00     0.173 A 
ATOM     56  C   UNL A   1      37.062  32.344  28.829  1.00  0.00     0.173 A 
ATOM     57  F   UNL A   1      36.047  28.927  29.559  1.00  0.00    -0.203 F 
ATOM     58  C   UNL A   1      34.989  30.584  28.265  1.00  0.00     0.198 A 
ATOM     59  C   UNL A   1      35.990  32.754  28.040  1.00  0.00     0.198 A 
ATOM     60  F   UNL A   1      38.051  33.215  29.076  1.00  0.00    -0.203 F 
ATOM     61  F   UNL A   1      34.005  29.723  27.969  1.00  0.00    -0.200 F 
ATOM     62  C   UNL A   1      34.957  31.874  27.757  1.00  0.00     0.200 A 
ATOM     63  F   UNL A   1      35.954  34.005  27.559  1.00  0.00    -0.200 F 
ATOM     64  F   UNL A   1      33.932  32.268  26.989  1.00  0.00    -0.200 F 
ENDBRANCH  40  54
BRANCH  41  65
ATOM     65  C   UNL A   1      44.607  27.864  35.183  1.00  0.00     0.064 A 
ATOM     66  C   UNL A   1      45.812  28.571  35.297  1.00  0.00     0.173 A 
ATOM     67  C   UNL A   1      44.471  26.685  35.931  1.00  0.00     0.173 A 
ATOM     68  F   UNL A   1      46.000  29.691  34.584  1.00  0.00    -0.203 F 
ATOM     69  C   UNL A   1      46.842  28.114  36.118  1.00  0.00     0.198 A 
ATOM     70  C   UNL A   1      45.492  26.243  36.773  1.00  0.00     0.198 A 
ATOM     71  F   UNL A   1      43.342  25.967  35.856  1.00  0.00    -0.203 F 
ATOM     72  F   UNL A   1      47.997  28.791  36.177  1.00  0.00    -0.200 F 
ATOM     73  C   UNL A   1      46.677  26.955  36.861  1.00  0.00     0.200 A 
ATOM     74  F   UNL A   1      45.323  25.130  37.499  1.00  0.00    -0.200 F 
ATOM     75  F   UNL A   1      47.664  26.523  37.657  1.00  0.00    -0.200 F 
ENDBRANCH  41  65
BRANCH  53  76
ATOM     76  C   UNL A   1      39.063  31.980  36.235  1.00  0.00     0.064 A 
ATOM     77  C   UNL A   1      39.410  33.316  36.487  1.00  0.00     0.173 A 
ATOM     78  C   UNL A   1      38.143  31.365  37.099  1.00  0.00     0.173 A 
ATOM     79  F   UNL A   1      40.292  33.944  35.697  1.00  0.00    -0.203 F 
ATOM     80  C   UNL A   1      38.864  34.003  37.568  1.00  0.00     0.198 A 
ATOM     81  C   UNL A   1      37.575  32.065  38.158  1.00  0.00     0.198 A 
ATOM     82  F   UNL A   1      37.769  30.092  36.894  1.00  0.00    -0.203 F 
ATOM     83  F   UNL A   1      39.236  35.268  37.810  1.00  0.00    -0.200 F 
ATOM     84  C   UNL A   1      37.940  33.382  38.394  1.00  0.00     0.200 A 
ATOM     85  F   UNL A   1      36.667  31.471  38.943  1.00  0.00    -0.200 F 
ATOM     86  F   UNL A   1      37.401  34.054  39.421  1.00  0.00    -0.200 F 
ENDBRANCH  53  76
ENDBRANCH  27  28
ENDBRANCH  20  22
ENDBRANCH  19  20
ENDBRANCH  18  19
ENDBRANCH   1  18
TORSDOF 15
ENDMDL
MODEL 2
REMARK VINA RESULT:     -10.8      0.590      7.691
REMARK SMILES O=C(Cc1c(F)cc(Cl)cc1F)OCCOCCOC(=O)c1ccc(-c2c3nc(c(-c4c(F)c(F)c(F)c(F)c4F)c4ccc([nH]4)c(-c4c(F)c(F)c(F)c(F)c4F)c4nc(c(-c5c(F)c(F)c(F)c(F)c5F)c5ccc2[nH]5)C=C4)C=C3)cc1
REMARK SMILES IDX 17 1 16 2 15 3 14 4 13 5 2 6 1 7 3 8 4 9 5 10 11 11 6 12
REMARK SMILES IDX 7 13 10 14 12 15 8 16 9 17 18 18 19 19 20 20 21 21 22 22
REMARK SMILES IDX 23 23 84 24 24 25 83 26 25 27 26 28 27 29 77 30 28 31 82 32
REMARK SMILES IDX 76 33 78 34 29 35 81 36 75 37 74 38 30 40 62 41 42 42 61 43
REMARK SMILES IDX 43 44 46 45 60 46 79 47 44 48 45 49 59 51 80 52 47 53 31 54
REMARK SMILES IDX 32 55 40 56 33 57 34 58 38 59 41 60 35 61 36 62 39 63 37 64
REMARK SMILES IDX 63 65 64 66 72 67 65 68 66 69 70 70 73 71 67 72 68 73 71 74
REMARK SMILES IDX 69 75 48 76 49 77 57 78 50 79 51 80 55 81 58 82 52 83 53 84
REMARK SMILES IDX 56 85 54 86
REMARK H PARENT 78 39 46 50
REMARK Flexibility Score: inf
ROOT
ATOM      1  C   UNL A   1      45.738  21.947  24.766  1.00  0.00     0.202 C 
ENDROOT
BRANCH   1   2
ATOM      2  O   UNL A   1      46.395  20.780  25.280  1.00  0.00    -0.374 OA
BRANCH   2   3
ATOM      3  C   UNL A   1      45.939  19.546  24.736  1.00  0.00     0.202 C 
BRANCH   3   4
ATOM      4  C   UNL A   1      44.440  19.451  24.488  1.00  0.00     0.261 C 
BRANCH   4   5
ATOM      5  O   UNL A   1      43.649  19.708  25.659  1.00  0.00    -0.463 OA
BRANCH   5   6
ATOM      6  C   UNL A   1      42.762  18.859  26.227  1.00  0.00     0.310 C 
ATOM      7  O   UNL A   1      42.692  17.705  25.803  1.00  0.00    -0.252 OA
BRANCH   6   8
ATOM      8  C   UNL A   1      41.821  19.327  27.319  1.00  0.00     0.164 C 
BRANCH   8   9
ATOM      9  C   UNL A   1      41.000  20.542  27.001  1.00  0.00     0.035 A 
ATOM     10  C   UNL A   1      41.289  21.780  27.580  1.00  0.00     0.131 A 
ATOM     11  C   UNL A   1      39.886  20.452  26.168  1.00  0.00     0.131 A 
ATOM     12  F   UNL A   1      42.336  21.901  28.408  1.00  0.00    -0.207 F 
ATOM     13  C   UNL A   1      40.453  22.877  27.406  1.00  0.00     0.060 A 
ATOM     14  C   UNL A   1      39.049  21.541  25.960  1.00  0.00     0.060 A 
ATOM     15  F   UNL A   1      39.593  19.286  25.578  1.00  0.00    -0.207 F 
ATOM     16  C   UNL A   1      39.327  22.747  26.599  1.00  0.00     0.046 A 
ATOM     17  Cl  UNL A   1      38.258  24.079  26.412  1.00  0.00    -0.084 Cl
ENDBRANCH   8   9
ENDBRANCH   6   8
ENDBRANCH   5   6
ENDBRANCH   4   5
ENDBRANCH   3   4
ENDBRANCH   2   3
ENDBRANCH   1   2
BRANCH   1  18
ATOM     18  C   UNL A   1      45.111  22.852  25.834  1.00  0.00     0.261 C 
BRANCH  18  19
ATOM     19  O   UNL A   1      44.292  23.868  25.233  1.00  0.00    -0.460 OA
BRANCH  19  20
ATOM     20  C   UNL A   1      44.770  25.131  25.337  1.00  0.00     0.338 C 
ATOM     21  O   UNL A   1      45.639  25.656  24.661  1.00  0.00    -0.246 OA
BRANCH  20  22
ATOM     22  C   UNL A   1      43.906  25.887  26.267  1.00  0.00     0.060 A 
ATOM     23  C   UNL A   1      44.025  27.285  26.275  1.00  0.00     0.016 A 
ATOM     24  C   UNL A   1      42.985  25.249  27.102  1.00  0.00     0.016 A 
ATOM     25  C   UNL A   1      43.263  28.046  27.156  1.00  0.00     0.010 A 
ATOM     26  C   UNL A   1      42.230  26.012  27.995  1.00  0.00     0.010 A 
ATOM     27  C   UNL A   1      42.400  27.406  28.054  1.00  0.00    -0.014 A 
BRANCH  27  28
ATOM     28  C   UNL A   1      41.851  28.164  29.199  1.00  0.00     0.031 A 
ATOM     29  C   UNL A   1      42.614  28.131  30.493  1.00  0.00     0.074 A 
ATOM     30  C   UNL A   1      40.726  28.888  29.081  1.00  0.00     0.049 A 
ATOM     31  N   UNL A   1      42.318  28.667  31.648  1.00  0.00    -0.248 NA
ATOM     32  C   UNL A   1      43.886  27.389  30.482  1.00  0.00     0.031 C 
ATOM     33  C   UNL A   1      39.941  29.037  27.858  1.00  0.00     0.029 A 
ATOM     34  N   UNL A   1      40.051  29.638  30.011  1.00  0.00    -0.354 N 
ATOM     35  C   UNL A   1      43.366  28.331  32.494  1.00  0.00     0.074 A 
ATOM     36  C   UNL A   1      44.283  27.509  31.739  1.00  0.00     0.031 C 
ATOM     37  C   UNL A   1      38.886  29.832  28.113  1.00  0.00     0.029 A 
ATOM     38  C   UNL A   1      38.905  30.218  29.524  1.00  0.00     0.049 A 
ATOM     39  H   UNL A   1      40.359  29.750  30.940  1.00  0.00     0.167 HD
ATOM     40  C   UNL A   1      43.553  28.695  33.783  1.00  0.00     0.037 A 
ATOM     41  C   UNL A   1      37.975  30.959  30.157  1.00  0.00     0.037 A 
ATOM     42  C   UNL A   1      42.633  29.510  34.527  1.00  0.00     0.049 A 
ATOM     43  C   UNL A   1      38.155  31.262  31.624  1.00  0.00     0.074 A 
ATOM     44  C   UNL A   1      42.721  29.927  35.843  1.00  0.00     0.029 A 
ATOM     45  N   UNL A   1      41.453  30.031  34.017  1.00  0.00    -0.354 N 
ATOM     46  N   UNL A   1      39.147  30.943  32.421  1.00  0.00    -0.248 NA
ATOM     47  C   UNL A   1      37.083  32.024  32.280  1.00  0.00     0.031 C 
ATOM     48  C   UNL A   1      41.568  30.659  36.144  1.00  0.00     0.029 A 
ATOM     49  C   UNL A   1      40.790  30.747  34.999  1.00  0.00     0.049 A 
ATOM     50  H   UNL A   1      41.133  29.909  33.094  1.00  0.00     0.167 HD
ATOM     51  C   UNL A   1      38.835  31.488  33.660  1.00  0.00     0.074 A 
ATOM     52  C   UNL A   1      37.567  32.170  33.506  1.00  0.00     0.031 C 
ATOM     53  C   UNL A   1      39.533  31.428  34.821  1.00  0.00     0.037 A 
BRANCH  40  54
ATOM     54  C   UNL A   1      44.795  28.209  34.473  1.00  0.00     0.064 A 
ATOM     55  C   UNL A   1      45.985  28.951  34.445  1.00  0.00     0.173 A 
ATOM     56  C   UNL A   1      44.779  27.019  35.214  1.00  0.00     0.173 A 
ATOM     57  F   UNL A   1      46.057  30.088  33.735  1.00  0.00    -0.203 F 
ATOM     58  C   UNL A   1      47.118  28.512  35.125  1.00  0.00     0.198 A 
ATOM     59  C   UNL A   1      45.905  26.598  35.917  1.00  0.00     0.198 A 
ATOM     60  F   UNL A   1      43.668  26.271  35.271  1.00  0.00    -0.203 F 
ATOM     61  F   UNL A   1      48.255  29.219  35.055  1.00  0.00    -0.200 F 
ATOM     62  C   UNL A   1      47.074  27.344  35.869  1.00  0.00     0.200 A 
ATOM     63  F   UNL A   1      45.858  25.475  36.645  1.00  0.00    -0.200 F 
ATOM     64  F   UNL A   1      48.160  26.931  36.538  1.00  0.00    -0.200 F 
ENDBRANCH  40  54
BRANCH  41  65
ATOM     65  C   UNL A   1      36.800  31.476  29.408  1.00  0.00     0.064 A 
ATOM     66  C   UNL A   1      36.699  32.834  29.077  1.00  0.00     0.173 A 
ATOM     67  C   UNL A   1      35.759  30.628  29.002  1.00  0.00     0.173 A 
ATOM     68  F   UNL A   1      37.657  33.689  29.463  1.00  0.00    -0.203 F 
ATOM     69  C   UNL A   1      35.599  33.326  28.378  1.00  0.00     0.198 A 
ATOM     70  C   UNL A   1      34.671  31.117  28.279  1.00  0.00     0.198 A 
ATOM     71  F   UNL A   1      35.802  29.321  29.296  1.00  0.00    -0.203 F 
ATOM     72  F   UNL A   1      35.511  34.636  28.109  1.00  0.00    -0.200 F 
ATOM     73  C   UNL A   1      34.590  32.466  27.972  1.00  0.00     0.200 A 
ATOM     74  F   UNL A   1      33.706  30.279  27.878  1.00  0.00    -0.200 F 
ATOM     75  F   UNL A   1      33.538  32.939  27.291  1.00  0.00    -0.200 F 
ENDBRANCH  41  65
BRANCH  53  76
ATOM     76  C   UNL A   1      38.964  32.137  36.016  1.00  0.00     0.064 A 
ATOM     77  C   UNL A   1      38.145  31.472  36.941  1.00  0.00     0.173 A 
ATOM     78  C   UNL A   1      39.314  33.469  36.286  1.00  0.00     0.173 A 
ATOM     79  F   UNL A   1      37.775  30.201  36.724  1.00  0.00    -0.203 F 
ATOM     80  C   UNL A   1      37.686  32.121  38.084  1.00  0.00     0.198 A 
ATOM     81  C   UNL A   1      38.880  34.104  37.445  1.00  0.00     0.198 A 
ATOM     82  F   UNL A   1      40.105  34.146  35.438  1.00  0.00    -0.203 F 
ATOM     83  F   UNL A   1      36.877  31.477  38.936  1.00  0.00    -0.200 F 
ATOM     84  C   UNL A   1      38.063  33.430  38.341  1.00  0.00     0.200 A 
ATOM     85  F   UNL A   1      39.262  35.362  37.702  1.00  0.00    -0.200 F 
ATOM     86  F   UNL A   1      37.637  34.045  39.453  1.00  0.00    -0.200 F 
ENDBRANCH  53  76
ENDBRANCH  27  28
ENDBRANCH  20  22
ENDBRANCH  19  20
ENDBRANCH  18  19
ENDBRANCH   1  18
TORSDOF 15
ENDMDL
MODEL 3
REMARK VINA RESULT:     -10.7      4.618     11.186
REMARK SMILES O=C(Cc1c(F)cc(Cl)cc1F)OCCOCCOC(=O)c1ccc(-c2c3nc(c(-c4c(F)c(F)c(F)c(F)c4F)c4ccc([nH]4)c(-c4c(F)c(F)c(F)c(F)c4F)c4nc(c(-c5c(F)c(F)c(F)c(F)c5F)c5ccc2[nH]5)C=C4)C=C3)cc1
REMARK SMILES IDX 17 1 16 2 15 3 14 4 13 5 2 6 1 7 3 8 4 9 5 10 11 11 6 12
REMARK SMILES IDX 7 13 10 14 12 15 8 16 9 17 18 18 19 19 20 20 21 21 22 22
REMARK SMILES IDX 23 23 84 24 24 25 83 26 25 27 26 28 27 29 77 30 28 31 82 32
REMARK SMILES IDX 76 33 78 34 29 35 81 36 75 37 74 38 30 40 62 41 42 42 61 43
REMARK SMILES IDX 43 44 46 45 60 46 79 47 44 48 45 49 59 51 80 52 47 53 31 54
REMARK SMILES IDX 32 55 40 56 33 57 34 58 38 59 41 60 35 61 36 62 39 63 37 64
REMARK SMILES IDX 63 65 64 66 72 67 65 68 66 69 70 70 73 71 67 72 68 73 71 74
REMARK SMILES IDX 69 75 48 76 49 77 57 78 50 79 51 80 55 81 58 82 52 83 53 84
REMARK SMILES IDX 56 85 54 86
REMARK H PARENT 78 39 46 50
REMARK Flexibility Score: inf
ROOT
ATOM      1  C   UNL A   1      33.559  35.225  28.477  1.00  0.00     0.202 C 
ENDROOT
BRANCH   1   2
ATOM      2  O   UNL A   1      32.544  35.923  29.212  1.00  0.00    -0.374 OA
BRANCH   2   3
ATOM      3  C   UNL A   1      33.021  36.692  30.311  1.00  0.00     0.202 C 
BRANCH   3   4
ATOM      4  C   UNL A   1      32.519  36.259  31.682  1.00  0.00     0.261 C 
BRANCH   4   5
ATOM      5  O   UNL A   1      33.243  35.146  32.231  1.00  0.00    -0.463 OA
BRANCH   5   6
ATOM      6  C   UNL A   1      34.324  35.217  33.041  1.00  0.00     0.310 C 
ATOM      7  O   UNL A   1      34.534  36.261  33.659  1.00  0.00    -0.252 OA
BRANCH   6   8
ATOM      8  C   UNL A   1      35.301  34.062  33.143  1.00  0.00     0.164 C 
BRANCH   8   9
ATOM      9  C   UNL A   1      36.655  34.293  32.539  1.00  0.00     0.035 A 
ATOM     10  C   UNL A   1      36.852  34.209  31.158  1.00  0.00     0.131 A 
ATOM     11  C   UNL A   1      37.765  34.535  33.345  1.00  0.00     0.131 A 
ATOM     12  F   UNL A   1      35.814  33.951  30.350  1.00  0.00    -0.207 F 
ATOM     13  C   UNL A   1      38.123  34.279  30.600  1.00  0.00     0.060 A 
ATOM     14  C   UNL A   1      39.042  34.633  32.807  1.00  0.00     0.060 A 
ATOM     15  F   UNL A   1      37.609  34.646  34.671  1.00  0.00    -0.207 F 
ATOM     16  C   UNL A   1      39.217  34.484  31.434  1.00  0.00     0.046 A 
ATOM     17  Cl  UNL A   1      40.799  34.525  30.765  1.00  0.00    -0.084 Cl
ENDBRANCH   8   9
ENDBRANCH   6   8
ENDBRANCH   5   6
ENDBRANCH   4   5
ENDBRANCH   3   4
ENDBRANCH   2   3
ENDBRANCH   1   2
BRANCH   1  18
ATOM     18  C   UNL A   1      33.178  33.801  28.053  1.00  0.00     0.261 C 
BRANCH  18  19
ATOM     19  O   UNL A   1      34.337  33.058  27.642  1.00  0.00    -0.460 OA
BRANCH  19  20
ATOM     20  C   UNL A   1      34.203  31.710  27.682  1.00  0.00     0.338 C 
ATOM     21  O   UNL A   1      33.267  31.043  27.272  1.00  0.00    -0.246 OA
BRANCH  20  22
ATOM     22  C   UNL A   1      35.491  31.120  28.100  1.00  0.00     0.060 A 
ATOM     23  C   UNL A   1      35.481  29.792  28.552  1.00  0.00     0.016 A 
ATOM     24  C   UNL A   1      36.687  31.840  28.038  1.00  0.00     0.016 A 
ATOM     25  C   UNL A   1      36.659  29.196  28.994  1.00  0.00     0.010 A 
ATOM     26  C   UNL A   1      37.865  31.247  28.494  1.00  0.00     0.010 A 
ATOM     27  C   UNL A   1      37.845  29.941  29.012  1.00  0.00    -0.014 A 
BRANCH  27  28
ATOM     28  C   UNL A   1      39.005  29.439  29.780  1.00  0.00     0.031 A 
ATOM     29  C   UNL A   1      39.222  29.985  31.163  1.00  0.00     0.074 A 
ATOM     30  C   UNL A   1      39.821  28.498  29.276  1.00  0.00     0.049 A 
ATOM     31  N   UNL A   1      40.186  29.745  32.011  1.00  0.00    -0.248 NA
ATOM     32  C   UNL A   1      38.210  30.936  31.655  1.00  0.00     0.031 C 
ATOM     33  C   UNL A   1      39.668  27.857  27.972  1.00  0.00     0.029 A 
ATOM     34  N   UNL A   1      40.944  27.918  29.810  1.00  0.00    -0.354 N 
ATOM     35  C   UNL A   1      39.895  30.509  33.134  1.00  0.00     0.074 A 
ATOM     36  C   UNL A   1      38.691  31.256  32.846  1.00  0.00     0.031 C 
ATOM     37  C   UNL A   1      40.664  26.969  27.805  1.00  0.00     0.029 A 
ATOM     38  C   UNL A   1      41.542  27.006  28.975  1.00  0.00     0.049 A 
ATOM     39  H   UNL A   1      41.288  28.135  30.707  1.00  0.00     0.167 HD
ATOM     40  C   UNL A   1      40.564  30.566  34.307  1.00  0.00     0.037 A 
ATOM     41  C   UNL A   1      42.677  26.299  29.138  1.00  0.00     0.037 A 
ATOM     42  C   UNL A   1      41.763  29.823  34.582  1.00  0.00     0.049 A 
ATOM     43  C   UNL A   1      43.463  26.461  30.415  1.00  0.00     0.074 A 
ATOM     44  C   UNL A   1      42.528  29.817  35.735  1.00  0.00     0.029 A 
ATOM     45  N   UNL A   1      42.372  28.953  33.689  1.00  0.00    -0.354 N 
ATOM     46  N   UNL A   1      43.184  27.184  31.474  1.00  0.00    -0.248 NA
ATOM     47  C   UNL A   1      44.723  25.713  30.519  1.00  0.00     0.031 C 
ATOM     48  C   UNL A   1      43.628  28.981  35.521  1.00  0.00     0.029 A 
ATOM     49  C   UNL A   1      43.517  28.422  34.257  1.00  0.00     0.049 A 
ATOM     50  H   UNL A   1      42.040  28.745  32.787  1.00  0.00     0.167 HD
ATOM     51  C   UNL A   1      44.214  26.955  32.377  1.00  0.00     0.074 A 
ATOM     52  C   UNL A   1      45.118  26.016  31.748  1.00  0.00     0.031 C 
ATOM     53  C   UNL A   1      44.398  27.478  33.616  1.00  0.00     0.037 A 
BRANCH  40  54
ATOM     54  C   UNL A   1      40.021  31.466  35.378  1.00  0.00     0.064 A 
ATOM     55  C   UNL A   1      40.545  32.750  35.590  1.00  0.00     0.173 A 
ATOM     56  C   UNL A   1      38.931  31.063  36.163  1.00  0.00     0.173 A 
ATOM     57  F   UNL A   1      41.599  33.176  34.878  1.00  0.00    -0.203 F 
ATOM     58  C   UNL A   1      40.004  33.593  36.557  1.00  0.00     0.198 A 
ATOM     59  C   UNL A   1      38.374  31.920  37.109  1.00  0.00     0.198 A 
ATOM     60  F   UNL A   1      38.394  29.845  36.002  1.00  0.00    -0.203 F 
ATOM     61  F   UNL A   1      40.544  34.802  36.767  1.00  0.00    -0.200 F 
ATOM     62  C   UNL A   1      38.913  33.182  37.307  1.00  0.00     0.200 A 
ATOM     63  F   UNL A   1      37.312  31.526  37.825  1.00  0.00    -0.200 F 
ATOM     64  F   UNL A   1      38.382  34.001  38.226  1.00  0.00    -0.200 F 
ENDBRANCH  40  54
BRANCH  41  65
ATOM     65  C   UNL A   1      43.132  25.367  28.074  1.00  0.00     0.064 A 
ATOM     66  C   UNL A   1      42.774  24.012  28.104  1.00  0.00     0.173 A 
ATOM     67  C   UNL A   1      43.926  25.807  27.004  1.00  0.00     0.173 A 
ATOM     68  F   UNL A   1      42.036  23.538  29.118  1.00  0.00    -0.203 F 
ATOM     69  C   UNL A   1      43.200  23.132  27.111  1.00  0.00     0.198 A 
ATOM     70  C   UNL A   1      44.329  24.931  25.997  1.00  0.00     0.198 A 
ATOM     71  F   UNL A   1      44.301  27.092  26.928  1.00  0.00    -0.203 F 
ATOM     72  F   UNL A   1      42.874  21.834  27.186  1.00  0.00    -0.200 F 
ATOM     73  C   UNL A   1      43.970  23.593  26.054  1.00  0.00     0.200 A 
ATOM     74  F   UNL A   1      45.060  25.384  24.971  1.00  0.00    -0.200 F 
ATOM     75  F   UNL A   1      44.369  22.748  25.095  1.00  0.00    -0.200 F 
ENDBRANCH  41  65
BRANCH  53  76
ATOM     76  C   UNL A   1      45.604  27.032  34.390  1.00  0.00     0.064 A 
ATOM     77  C   UNL A   1      46.809  27.750  34.348  1.00  0.00     0.173 A 
ATOM     78  C   UNL A   1      45.526  25.927  35.253  1.00  0.00     0.173 A 
ATOM     79  F   UNL A   1      46.937  28.807  33.533  1.00  0.00    -0.203 F 
ATOM     80  C   UNL A   1      47.895  27.368  35.130  1.00  0.00     0.198 A 
ATOM     81  C   UNL A   1      46.603  25.568  36.057  1.00  0.00     0.198 A 
ATOM     82  F   UNL A   1      44.392  25.215  35.339  1.00  0.00    -0.203 F 
ATOM     83  F   UNL A   1      49.048  28.046  35.047  1.00  0.00    -0.200 F 
ATOM     84  C   UNL A   1      47.788  26.286  35.992  1.00  0.00     0.200 A 
ATOM     85  F   UNL A   1      46.491  24.536  36.904  1.00  0.00    -0.200 F 
ATOM     86  F   UNL A   1      48.829  25.934  36.759  1.00  0.00    -0.200 F 
ENDBRANCH  53  76
ENDBRANCH  27  28
ENDBRANCH  20  22
ENDBRANCH  19  20
ENDBRANCH  18  19
ENDBRANCH   1  18
TORSDOF 15
ENDMDL
