MODEL 1
REMARK VINA RESULT:     -12.0      0.000      0.000
REMARK SMILES Cc1ccc(O)c(C(=O)[C@@H]2[C@@H](C(=O)OCCOCCOC(=O)c3ccc(-c4c5nc(c(-c6c(F)c(F)c(F)c(F)c6F)c6ccc([nH]6)c(-c6c(F)c(F)c(F)c(F)c6F)c6nc(c(-c7c(F)c(F)c(F)c(F)c7F)c7ccc4[nH]7)C=C6)C=C5)cc3)[C@H]3C=C[C@@H]2C3)c1
REMARK SMILES IDX 16 1 15 2 14 3 12 4 13 5 11 6 10 7 89 8 86 9 88 10 90 11
REMARK SMILES IDX 87 12 8 13 9 14 7 15 1 16 2 17 3 18 91 19 4 20 5 21 6 22
REMARK SMILES IDX 17 24 18 25 19 26 20 27 21 28 22 29 23 30 24 31 85 32 25 33
REMARK SMILES IDX 84 34 26 35 27 36 28 37 78 38 29 39 83 40 77 41 79 42 30 43
REMARK SMILES IDX 82 44 76 45 75 46 31 48 63 49 43 50 62 51 44 52 47 53 61 54
REMARK SMILES IDX 80 55 45 56 46 57 60 59 81 60 48 61 32 62 33 63 41 64 34 65
REMARK SMILES IDX 35 66 39 67 42 68 36 69 37 70 40 71 38 72 64 73 65 74 73 75
REMARK SMILES IDX 66 76 67 77 71 78 74 79 68 80 69 81 72 82 70 83 49 84 50 85
REMARK SMILES IDX 58 86 51 87 52 88 56 89 59 90 53 91 54 92 57 93 55 94
REMARK H PARENT 6 23 79 47 47 58
REMARK Flexibility Score: inf
ROOT
ATOM      1  C   UNL A   1      31.456  27.972  23.150  1.00  0.00     0.202 C 
ENDROOT
BRANCH   1   2
ATOM      2  C   UNL A   1      30.267  27.193  23.715  1.00  0.00     0.261 C 
BRANCH   2   3
ATOM      3  O   UNL A   1      30.378  25.796  23.399  1.00  0.00    -0.463 OA
BRANCH   3   4
ATOM      4  C   UNL A   1      30.949  25.022  24.350  1.00  0.00     0.310 C 
ATOM      5  O   UNL A   1      30.667  25.047  25.542  1.00  0.00    -0.252 OA
BRANCH   4   6
ATOM      6  C   UNL A   1      32.005  24.084  23.813  1.00  0.00     0.117 C 
ATOM      7  C   UNL A   1      32.592  23.196  24.926  1.00  0.00     0.083 C 
ATOM      8  C   UNL A   1      34.110  23.179  24.595  1.00  0.00     0.024 C 
ATOM      9  C   UNL A   1      33.277  24.669  23.134  1.00  0.00     0.027 C 
ATOM     10  C   UNL A   1      34.640  24.552  24.985  1.00  0.00    -0.027 C 
ATOM     11  C   UNL A   1      34.177  23.423  23.082  1.00  0.00     0.017 C 
ATOM     12  C   UNL A   1      34.132  25.439  24.113  1.00  0.00    -0.027 C 
BRANCH   7  13
ATOM     13  C   UNL A   1      31.854  21.881  25.181  1.00  0.00     0.171 C 
ATOM     14  O   UNL A   1      30.838  21.907  25.891  1.00  0.00    -0.294 OA
BRANCH  13  15
ATOM     15  C   UNL A   1      32.274  20.536  24.678  1.00  0.00     0.060 A 
ATOM     16  C   UNL A   1      32.265  18.458  21.483  1.00  0.00     0.044 C 
ATOM     17  C   UNL A   1      32.502  18.861  22.909  1.00  0.00    -0.050 A 
ATOM     18  C   UNL A   1      33.246  18.050  23.766  1.00  0.00     0.007 A 
ATOM     19  C   UNL A   1      31.974  20.064  23.400  1.00  0.00     0.019 A 
ATOM     20  C   UNL A   1      33.467  18.449  25.083  1.00  0.00     0.047 A 
ATOM     21  C   UNL A   1      32.991  19.681  25.530  1.00  0.00     0.126 A 
BRANCH  21  22
ATOM     22  O   UNL A   1      33.262  19.980  26.842  1.00  0.00    -0.507 OA
ATOM     23  H   UNL A   1      33.623  19.326  27.406  1.00  0.00     0.293 HD
ENDBRANCH  21  22
ENDBRANCH  13  15
ENDBRANCH   7  13
ENDBRANCH   4   6
ENDBRANCH   3   4
ENDBRANCH   2   3
ENDBRANCH   1   2
BRANCH   1  24
ATOM     24  O   UNL A   1      32.279  28.646  24.101  1.00  0.00    -0.374 OA
BRANCH  24  25
ATOM     25  C   UNL A   1      31.725  28.910  25.390  1.00  0.00     0.202 C 
BRANCH  25  26
ATOM     26  C   UNL A   1      31.794  30.362  25.876  1.00  0.00     0.261 C 
BRANCH  26  27
ATOM     27  O   UNL A   1      32.486  30.470  27.135  1.00  0.00    -0.460 OA
BRANCH  27  28
ATOM     28  C   UNL A   1      33.188  31.612  27.307  1.00  0.00     0.338 C 
ATOM     29  O   UNL A   1      32.758  32.760  27.273  1.00  0.00    -0.246 OA
BRANCH  28  30
ATOM     30  C   UNL A   1      34.564  31.301  27.736  1.00  0.00     0.060 A 
ATOM     31  C   UNL A   1      34.888  29.956  27.959  1.00  0.00     0.016 A 
ATOM     32  C   UNL A   1      35.497  32.307  27.992  1.00  0.00     0.016 A 
ATOM     33  C   UNL A   1      36.125  29.614  28.502  1.00  0.00     0.010 A 
ATOM     34  C   UNL A   1      36.734  31.964  28.545  1.00  0.00     0.010 A 
ATOM     35  C   UNL A   1      37.035  30.621  28.843  1.00  0.00    -0.014 A 
BRANCH  35  36
ATOM     36  C   UNL A   1      38.208  30.305  29.694  1.00  0.00     0.031 A 
ATOM     37  C   UNL A   1      39.244  29.355  29.156  1.00  0.00     0.074 A 
ATOM     38  C   UNL A   1      38.356  30.846  30.915  1.00  0.00     0.049 A 
ATOM     39  N   UNL A   1      40.279  28.823  29.753  1.00  0.00    -0.248 NA
ATOM     40  C   UNL A   1      39.082  28.945  27.751  1.00  0.00     0.031 C 
ATOM     41  C   UNL A   1      37.460  31.826  31.520  1.00  0.00     0.029 A 
ATOM     42  N   UNL A   1      39.317  30.626  31.872  1.00  0.00    -0.354 N 
ATOM     43  C   UNL A   1      40.878  28.003  28.806  1.00  0.00     0.074 A 
ATOM     44  C   UNL A   1      40.083  28.089  27.601  1.00  0.00     0.031 C 
ATOM     45  C   UNL A   1      37.899  32.108  32.760  1.00  0.00     0.029 A 
ATOM     46  C   UNL A   1      39.081  31.295  33.048  1.00  0.00     0.049 A 
ATOM     47  H   UNL A   1      40.098  30.045  31.729  1.00  0.00     0.167 HD
ATOM     48  C   UNL A   1      41.994  27.247  28.932  1.00  0.00     0.037 A 
ATOM     49  C   UNL A   1      39.726  31.227  34.229  1.00  0.00     0.037 A 
ATOM     50  C   UNL A   1      42.787  27.172  30.129  1.00  0.00     0.049 A 
ATOM     51  C   UNL A   1      40.919  30.316  34.370  1.00  0.00     0.074 A 
ATOM     52  C   UNL A   1      43.941  26.441  30.355  1.00  0.00     0.029 A 
ATOM     53  N   UNL A   1      42.505  27.851  31.304  1.00  0.00    -0.354 N 
ATOM     54  N   UNL A   1      41.482  29.541  33.475  1.00  0.00    -0.248 NA
ATOM     55  C   UNL A   1      41.567  30.268  35.690  1.00  0.00     0.031 C 
ATOM     56  C   UNL A   1      44.329  26.640  31.683  1.00  0.00     0.029 A 
ATOM     57  C   UNL A   1      43.451  27.541  32.266  1.00  0.00     0.049 A 
ATOM     58  H   UNL A   1      41.745  28.465  31.435  1.00  0.00     0.167 HD
ATOM     59  C   UNL A   1      42.568  28.948  34.106  1.00  0.00     0.074 A 
ATOM     60  C   UNL A   1      42.585  29.449  35.464  1.00  0.00     0.031 C 
ATOM     61  C   UNL A   1      43.472  28.072  33.605  1.00  0.00     0.037 A 
BRANCH  48  62
ATOM     62  C   UNL A   1      42.404  26.413  27.754  1.00  0.00     0.064 A 
ATOM     63  C   UNL A   1      41.852  25.146  27.517  1.00  0.00     0.173 A 
ATOM     64  C   UNL A   1      43.340  26.906  26.832  1.00  0.00     0.173 A 
ATOM     65  F   UNL A   1      40.966  24.624  28.377  1.00  0.00    -0.203 F 
ATOM     66  C   UNL A   1      42.239  24.392  26.412  1.00  0.00     0.198 A 
ATOM     67  C   UNL A   1      43.704  26.162  25.713  1.00  0.00     0.198 A 
ATOM     68  F   UNL A   1      43.897  28.113  27.012  1.00  0.00    -0.203 F 
ATOM     69  F   UNL A   1      41.734  23.165  26.229  1.00  0.00    -0.200 F 
ATOM     70  C   UNL A   1      43.158  24.904  25.508  1.00  0.00     0.200 A 
ATOM     71  F   UNL A   1      44.582  26.664  24.833  1.00  0.00    -0.200 F 
ATOM     72  F   UNL A   1      43.525  24.180  24.440  1.00  0.00    -0.200 F 
ENDBRANCH  48  62
BRANCH  49  73
ATOM     73  C   UNL A   1      39.242  32.026  35.385  1.00  0.00     0.064 A 
ATOM     74  C   UNL A   1      39.629  33.364  35.551  1.00  0.00     0.173 A 
ATOM     75  C   UNL A   1      38.401  31.465  36.357  1.00  0.00     0.173 A 
ATOM     76  F   UNL A   1      40.453  33.937  34.663  1.00  0.00    -0.203 F 
ATOM     77  C   UNL A   1      39.206  34.103  36.654  1.00  0.00     0.198 A 
ATOM     78  C   UNL A   1      37.957  32.214  37.445  1.00  0.00     0.198 A 
ATOM     79  F   UNL A   1      38.006  30.189  36.248  1.00  0.00    -0.203 F 
ATOM     80  F   UNL A   1      39.629  35.365  36.814  1.00  0.00    -0.200 F 
ATOM     81  C   UNL A   1      38.366  33.530  37.597  1.00  0.00     0.200 A 
ATOM     82  F   UNL A   1      37.138  31.659  38.348  1.00  0.00    -0.200 F 
ATOM     83  F   UNL A   1      37.960  34.242  38.657  1.00  0.00    -0.200 F 
ENDBRANCH  49  73
BRANCH  61  84
ATOM     84  C   UNL A   1      44.602  27.644  34.495  1.00  0.00     0.064 A 
ATOM     85  C   UNL A   1      45.750  28.429  34.665  1.00  0.00     0.173 A 
ATOM     86  C   UNL A   1      44.489  26.467  35.255  1.00  0.00     0.173 A 
ATOM     87  F   UNL A   1      45.909  29.554  33.954  1.00  0.00    -0.203 F 
ATOM     88  C   UNL A   1      46.751  28.046  35.555  1.00  0.00     0.198 A 
ATOM     89  C   UNL A   1      45.479  26.104  36.163  1.00  0.00     0.198 A 
ATOM     90  F   UNL A   1      43.405  25.687  35.135  1.00  0.00    -0.203 F 
ATOM     91  F   UNL A   1      47.854  28.796  35.681  1.00  0.00    -0.200 F 
ATOM     92  C   UNL A   1      46.610  26.892  36.310  1.00  0.00     0.200 A 
ATOM     93  F   UNL A   1      45.332  24.996  36.903  1.00  0.00    -0.200 F 
ATOM     94  F   UNL A   1      47.566  26.536  37.180  1.00  0.00    -0.200 F 
ENDBRANCH  61  84
ENDBRANCH  35  36
ENDBRANCH  28  30
ENDBRANCH  27  28
ENDBRANCH  26  27
ENDBRANCH  25  26
ENDBRANCH  24  25
ENDBRANCH   1  24
TORSDOF 17
ENDMDL
MODEL 2
REMARK VINA RESULT:     -12.0      0.858      2.290
REMARK SMILES Cc1ccc(O)c(C(=O)[C@@H]2[C@@H](C(=O)OCCOCCOC(=O)c3ccc(-c4c5nc(c(-c6c(F)c(F)c(F)c(F)c6F)c6ccc([nH]6)c(-c6c(F)c(F)c(F)c(F)c6F)c6nc(c(-c7c(F)c(F)c(F)c(F)c7F)c7ccc4[nH]7)C=C6)C=C5)cc3)[C@H]3C=C[C@@H]2C3)c1
REMARK SMILES IDX 16 1 15 2 14 3 12 4 13 5 11 6 10 7 89 8 86 9 88 10 90 11
REMARK SMILES IDX 87 12 8 13 9 14 7 15 1 16 2 17 3 18 91 19 4 20 5 21 6 22
REMARK SMILES IDX 17 24 18 25 19 26 20 27 21 28 22 29 23 30 24 31 85 32 25 33
REMARK SMILES IDX 84 34 26 35 27 36 28 37 78 38 29 39 83 40 77 41 79 42 30 43
REMARK SMILES IDX 82 44 76 45 75 46 31 48 63 49 43 50 62 51 44 52 47 53 61 54
REMARK SMILES IDX 80 55 45 56 46 57 60 59 81 60 48 61 32 62 33 63 41 64 34 65
REMARK SMILES IDX 35 66 39 67 42 68 36 69 37 70 40 71 38 72 64 73 65 74 73 75
REMARK SMILES IDX 66 76 67 77 71 78 74 79 68 80 69 81 72 82 70 83 49 84 50 85
REMARK SMILES IDX 58 86 51 87 52 88 56 89 59 90 53 91 54 92 57 93 55 94
REMARK H PARENT 6 23 79 47 47 58
REMARK Flexibility Score: inf
ROOT
ATOM      1  C   UNL A   1      32.897  27.578  23.202  1.00  0.00     0.202 C 
ENDROOT
BRANCH   1   2
ATOM      2  C   UNL A   1      33.279  26.100  23.110  1.00  0.00     0.261 C 
BRANCH   2   3
ATOM      3  O   UNL A   1      32.267  25.274  23.709  1.00  0.00    -0.463 OA
BRANCH   3   4
ATOM      4  C   UNL A   1      32.694  24.429  24.675  1.00  0.00     0.310 C 
ATOM      5  O   UNL A   1      32.367  24.485  25.855  1.00  0.00    -0.252 OA
BRANCH   4   6
ATOM      6  C   UNL A   1      33.643  23.366  24.173  1.00  0.00     0.117 C 
ATOM      7  C   UNL A   1      33.703  22.163  25.133  1.00  0.00     0.083 C 
ATOM      8  C   UNL A   1      35.218  21.813  25.157  1.00  0.00     0.024 C 
ATOM      9  C   UNL A   1      35.145  23.715  23.965  1.00  0.00     0.027 C 
ATOM     10  C   UNL A   1      35.886  22.901  25.986  1.00  0.00    -0.027 C 
ATOM     11  C   UNL A   1      35.750  22.310  23.808  1.00  0.00     0.017 C 
ATOM     12  C   UNL A   1      35.833  24.037  25.271  1.00  0.00    -0.027 C 
BRANCH   7  13
ATOM     13  C   UNL A   1      32.671  21.063  24.880  1.00  0.00     0.171 C 
ATOM     14  O   UNL A   1      31.515  21.240  25.288  1.00  0.00    -0.294 OA
BRANCH  13  15
ATOM     15  C   UNL A   1      32.943  19.753  24.210  1.00  0.00     0.060 A 
ATOM     16  C   UNL A   1      34.560  16.373  24.907  1.00  0.00     0.044 C 
ATOM     17  C   UNL A   1      33.833  17.474  24.192  1.00  0.00    -0.050 A 
ATOM     18  C   UNL A   1      33.267  17.258  22.935  1.00  0.00     0.007 A 
ATOM     19  C   UNL A   1      33.714  18.741  24.781  1.00  0.00     0.019 A 
ATOM     20  C   UNL A   1      32.584  18.289  22.294  1.00  0.00     0.047 A 
ATOM     21  C   UNL A   1      32.419  19.520  22.928  1.00  0.00     0.126 A 
BRANCH  21  22
ATOM     22  O   UNL A   1      31.731  20.468  22.213  1.00  0.00    -0.507 OA
ATOM     23  H   UNL A   1      31.204  21.101  22.660  1.00  0.00     0.293 HD
ENDBRANCH  21  22
ENDBRANCH  13  15
ENDBRANCH   7  13
ENDBRANCH   4   6
ENDBRANCH   3   4
ENDBRANCH   2   3
ENDBRANCH   1   2
BRANCH   1  24
ATOM     24  O   UNL A   1      32.413  28.027  24.467  1.00  0.00    -0.374 OA
BRANCH  24  25
ATOM     25  C   UNL A   1      32.789  29.334  24.898  1.00  0.00     0.202 C 
BRANCH  25  26
ATOM     26  C   UNL A   1      31.862  30.009  25.915  1.00  0.00     0.261 C 
BRANCH  26  27
ATOM     27  O   UNL A   1      32.516  30.206  27.183  1.00  0.00    -0.460 OA
BRANCH  27  28
ATOM     28  C   UNL A   1      33.202  31.364  27.300  1.00  0.00     0.338 C 
ATOM     29  O   UNL A   1      32.754  32.504  27.233  1.00  0.00    -0.246 OA
BRANCH  28  30
ATOM     30  C   UNL A   1      34.591  31.090  27.713  1.00  0.00     0.060 A 
ATOM     31  C   UNL A   1      34.949  29.755  27.949  1.00  0.00     0.016 A 
ATOM     32  C   UNL A   1      35.505  32.120  27.942  1.00  0.00     0.016 A 
ATOM     33  C   UNL A   1      36.201  29.448  28.478  1.00  0.00     0.010 A 
ATOM     34  C   UNL A   1      36.758  31.812  28.482  1.00  0.00     0.010 A 
ATOM     35  C   UNL A   1      37.093  30.480  28.793  1.00  0.00    -0.014 A 
BRANCH  35  36
ATOM     36  C   UNL A   1      38.285  30.201  29.630  1.00  0.00     0.031 A 
ATOM     37  C   UNL A   1      39.327  29.257  29.096  1.00  0.00     0.074 A 
ATOM     38  C   UNL A   1      38.444  30.771  30.837  1.00  0.00     0.049 A 
ATOM     39  N   UNL A   1      40.380  28.755  29.687  1.00  0.00    -0.248 NA
ATOM     40  C   UNL A   1      39.149  28.813  27.703  1.00  0.00     0.031 C 
ATOM     41  C   UNL A   1      37.542  31.749  31.436  1.00  0.00     0.029 A 
ATOM     42  N   UNL A   1      39.424  30.588  31.782  1.00  0.00    -0.354 N 
ATOM     43  C   UNL A   1      40.977  27.924  28.748  1.00  0.00     0.074 A 
ATOM     44  C   UNL A   1      40.161  27.971  27.555  1.00  0.00     0.031 C 
ATOM     45  C   UNL A   1      37.997  32.065  32.661  1.00  0.00     0.029 A 
ATOM     46  C   UNL A   1      39.196  31.278  32.947  1.00  0.00     0.049 A 
ATOM     47  H   UNL A   1      40.212  30.016  31.639  1.00  0.00     0.167 HD
ATOM     48  C   UNL A   1      42.107  27.189  28.871  1.00  0.00     0.037 A 
ATOM     49  C   UNL A   1      39.861  31.247  34.119  1.00  0.00     0.037 A 
ATOM     50  C   UNL A   1      42.921  27.153  30.056  1.00  0.00     0.049 A 
ATOM     51  C   UNL A   1      41.072  30.358  34.259  1.00  0.00     0.074 A 
ATOM     52  C   UNL A   1      44.090  26.445  30.278  1.00  0.00     0.029 A 
ATOM     53  N   UNL A   1      42.648  27.853  31.221  1.00  0.00    -0.354 N 
ATOM     54  N   UNL A   1      41.632  29.573  33.371  1.00  0.00    -0.248 NA
ATOM     55  C   UNL A   1      41.742  30.350  35.569  1.00  0.00     0.031 C 
ATOM     56  C   UNL A   1      44.497  26.680  31.595  1.00  0.00     0.029 A 
ATOM     57  C   UNL A   1      43.614  27.579  32.173  1.00  0.00     0.049 A 
ATOM     58  H   UNL A   1      41.880  28.457  31.351  1.00  0.00     0.167 HD
ATOM     59  C   UNL A   1      42.738  29.012  33.997  1.00  0.00     0.074 A 
ATOM     60  C   UNL A   1      42.770  29.542  35.343  1.00  0.00     0.031 C 
ATOM     61  C   UNL A   1      43.648  28.140  33.499  1.00  0.00     0.037 A 
BRANCH  48  62
ATOM     62  C   UNL A   1      42.512  26.336  27.705  1.00  0.00     0.064 A 
ATOM     63  C   UNL A   1      43.477  26.758  26.779  1.00  0.00     0.173 A 
ATOM     64  C   UNL A   1      41.947  25.063  27.532  1.00  0.00     0.173 A 
ATOM     65  F   UNL A   1      44.035  27.971  26.892  1.00  0.00    -0.203 F 
ATOM     66  C   UNL A   1      43.845  25.945  25.710  1.00  0.00     0.198 A 
ATOM     67  C   UNL A   1      42.338  24.242  26.478  1.00  0.00     0.198 A 
ATOM     68  F   UNL A   1      41.020  24.612  28.391  1.00  0.00    -0.203 F 
ATOM     69  F   UNL A   1      44.736  26.386  24.811  1.00  0.00    -0.200 F 
ATOM     70  C   UNL A   1      43.282  24.687  25.564  1.00  0.00     0.200 A 
ATOM     71  F   UNL A   1      41.801  23.021  26.347  1.00  0.00    -0.200 F 
ATOM     72  F   UNL A   1      43.643  23.903  24.538  1.00  0.00    -0.200 F 
ENDBRANCH  48  62
BRANCH  49  73
ATOM     73  C   UNL A   1      39.384  32.063  35.265  1.00  0.00     0.064 A 
ATOM     74  C   UNL A   1      38.570  31.505  36.261  1.00  0.00     0.173 A 
ATOM     75  C   UNL A   1      39.713  33.422  35.377  1.00  0.00     0.173 A 
ATOM     76  F   UNL A   1      38.205  30.217  36.182  1.00  0.00    -0.203 F 
ATOM     77  C   UNL A   1      38.090  32.279  37.315  1.00  0.00     0.198 A 
ATOM     78  C   UNL A   1      39.255  34.188  36.448  1.00  0.00     0.198 A 
ATOM     79  F   UNL A   1      40.484  34.006  34.449  1.00  0.00    -0.203 F 
ATOM     80  F   UNL A   1      37.275  31.732  38.228  1.00  0.00    -0.200 F 
ATOM     81  C   UNL A   1      38.438  33.618  37.412  1.00  0.00     0.200 A 
ATOM     82  F   UNL A   1      39.602  35.479  36.542  1.00  0.00    -0.200 F 
ATOM     83  F   UNL A   1      37.977  34.361  38.427  1.00  0.00    -0.200 F 
ENDBRANCH  49  73
BRANCH  61  84
ATOM     84  C   UNL A   1      44.799  27.749  34.380  1.00  0.00     0.064 A 
ATOM     85  C   UNL A   1      44.763  26.598  35.178  1.00  0.00     0.173 A 
ATOM     86  C   UNL A   1      45.988  28.497  34.354  1.00  0.00     0.173 A 
ATOM     87  F   UNL A   1      43.647  25.857  35.245  1.00  0.00    -0.203 F 
ATOM     88  C   UNL A   1      45.872  26.215  35.929  1.00  0.00     0.198 A 
ATOM     89  C   UNL A   1      47.103  28.095  35.085  1.00  0.00     0.198 A 
ATOM     90  F   UNL A   1      46.075  29.601  33.599  1.00  0.00    -0.203 F 
ATOM     91  F   UNL A   1      45.807  25.127  36.709  1.00  0.00    -0.200 F 
ATOM     92  C   UNL A   1      47.043  26.957  35.874  1.00  0.00     0.200 A 
ATOM     93  F   UNL A   1      48.238  28.804  35.016  1.00  0.00    -0.200 F 
ATOM     94  F   UNL A   1      48.115  26.575  36.582  1.00  0.00    -0.200 F 
ENDBRANCH  61  84
ENDBRANCH  35  36
ENDBRANCH  28  30
ENDBRANCH  27  28
ENDBRANCH  26  27
ENDBRANCH  25  26
ENDBRANCH  24  25
ENDBRANCH   1  24
TORSDOF 17
ENDMDL
MODEL 3
REMARK VINA RESULT:     -12.0      4.701      9.814
REMARK SMILES Cc1ccc(O)c(C(=O)[C@@H]2[C@@H](C(=O)OCCOCCOC(=O)c3ccc(-c4c5nc(c(-c6c(F)c(F)c(F)c(F)c6F)c6ccc([nH]6)c(-c6c(F)c(F)c(F)c(F)c6F)c6nc(c(-c7c(F)c(F)c(F)c(F)c7F)c7ccc4[nH]7)C=C6)C=C5)cc3)[C@H]3C=C[C@@H]2C3)c1
REMARK SMILES IDX 16 1 15 2 14 3 12 4 13 5 11 6 10 7 89 8 86 9 88 10 90 11
REMARK SMILES IDX 87 12 8 13 9 14 7 15 1 16 2 17 3 18 91 19 4 20 5 21 6 22
REMARK SMILES IDX 17 24 18 25 19 26 20 27 21 28 22 29 23 30 24 31 85 32 25 33
REMARK SMILES IDX 84 34 26 35 27 36 28 37 78 38 29 39 83 40 77 41 79 42 30 43
REMARK SMILES IDX 82 44 76 45 75 46 31 48 63 49 43 50 62 51 44 52 47 53 61 54
REMARK SMILES IDX 80 55 45 56 46 57 60 59 81 60 48 61 32 62 33 63 41 64 34 65
REMARK SMILES IDX 35 66 39 67 42 68 36 69 37 70 40 71 38 72 64 73 65 74 73 75
REMARK SMILES IDX 66 76 67 77 71 78 74 79 68 80 69 81 72 82 70 83 49 84 50 85
REMARK SMILES IDX 58 86 51 87 52 88 56 89 59 90 53 91 54 92 57 93 55 94
REMARK H PARENT 6 23 79 47 47 58
REMARK Flexibility Score: inf
ROOT
ATOM      1  C   UNL A   1      37.849  23.674  26.126  1.00  0.00     0.202 C 
ENDROOT
BRANCH   1   2
ATOM      2  C   UNL A   1      36.735  23.769  25.083  1.00  0.00     0.261 C 
BRANCH   2   3
ATOM      3  O   UNL A   1      35.563  24.383  25.644  1.00  0.00    -0.463 OA
BRANCH   3   4
ATOM      4  C   UNL A   1      34.629  23.532  26.128  1.00  0.00     0.310 C 
ATOM      5  O   UNL A   1      34.677  22.982  27.222  1.00  0.00    -0.252 OA
BRANCH   4   6
ATOM      6  C   UNL A   1      33.474  23.300  25.182  1.00  0.00     0.117 C 
ATOM      7  C   UNL A   1      32.227  22.788  25.928  1.00  0.00     0.083 C 
ATOM      8  C   UNL A   1      31.674  21.694  24.972  1.00  0.00     0.024 C 
ATOM      9  C   UNL A   1      33.626  22.274  24.023  1.00  0.00     0.027 C 
ATOM     10  C   UNL A   1      32.618  20.508  25.101  1.00  0.00    -0.027 C 
ATOM     11  C   UNL A   1      32.161  22.117  23.580  1.00  0.00     0.017 C 
ATOM     12  C   UNL A   1      33.786  20.863  24.539  1.00  0.00    -0.027 C 
BRANCH   7  13
ATOM     13  C   UNL A   1      31.291  23.869  26.471  1.00  0.00     0.171 C 
ATOM     14  O   UNL A   1      30.432  23.537  27.300  1.00  0.00    -0.294 OA
BRANCH  13  15
ATOM     15  C   UNL A   1      31.291  25.307  26.058  1.00  0.00     0.060 A 
ATOM     16  C   UNL A   1      32.803  28.656  27.064  1.00  0.00     0.044 C 
ATOM     17  C   UNL A   1      32.012  27.631  26.306  1.00  0.00    -0.050 A 
ATOM     18  C   UNL A   1      31.369  27.964  25.114  1.00  0.00     0.007 A 
ATOM     19  C   UNL A   1      31.909  26.319  26.791  1.00  0.00     0.019 A 
ATOM     20  C   UNL A   1      30.651  26.994  24.418  1.00  0.00     0.047 A 
ATOM     21  C   UNL A   1      30.619  25.679  24.882  1.00  0.00     0.126 A 
BRANCH  21  22
ATOM     22  O   UNL A   1      29.886  24.801  24.125  1.00  0.00    -0.507 OA
ATOM     23  H   UNL A   1      29.123  24.393  24.486  1.00  0.00     0.293 HD
ENDBRANCH  21  22
ENDBRANCH  13  15
ENDBRANCH   7  13
ENDBRANCH   4   6
ENDBRANCH   3   4
ENDBRANCH   2   3
ENDBRANCH   1   2
BRANCH   1  24
ATOM     24  O   UNL A   1      38.634  22.483  26.103  1.00  0.00    -0.374 OA
BRANCH  24  25
ATOM     25  C   UNL A   1      38.161  21.389  25.317  1.00  0.00     0.202 C 
BRANCH  25  26
ATOM     26  C   UNL A   1      38.989  20.101  25.375  1.00  0.00     0.261 C 
BRANCH  26  27
ATOM     27  O   UNL A   1      39.857  20.076  26.524  1.00  0.00    -0.460 OA
BRANCH  27  28
ATOM     28  C   UNL A   1      41.148  19.774  26.262  1.00  0.00     0.338 C 
ATOM     29  O   UNL A   1      41.577  18.773  25.698  1.00  0.00    -0.246 OA
BRANCH  28  30
ATOM     30  C   UNL A   1      42.013  20.922  26.591  1.00  0.00     0.060 A 
ATOM     31  C   UNL A   1      42.246  21.193  27.947  1.00  0.00     0.016 A 
ATOM     32  C   UNL A   1      42.523  21.764  25.602  1.00  0.00     0.016 A 
ATOM     33  C   UNL A   1      42.935  22.346  28.322  1.00  0.00     0.010 A 
ATOM     34  C   UNL A   1      43.205  22.924  25.980  1.00  0.00     0.010 A 
ATOM     35  C   UNL A   1      43.375  23.241  27.341  1.00  0.00    -0.014 A 
BRANCH  35  36
ATOM     36  C   UNL A   1      43.826  24.601  27.725  1.00  0.00     0.031 A 
ATOM     37  C   UNL A   1      42.781  25.625  28.077  1.00  0.00     0.074 A 
ATOM     38  C   UNL A   1      45.130  24.923  27.765  1.00  0.00     0.049 A 
ATOM     39  N   UNL A   1      42.914  26.905  28.313  1.00  0.00    -0.248 NA
ATOM     40  C   UNL A   1      41.395  25.137  28.166  1.00  0.00     0.031 C 
ATOM     41  C   UNL A   1      46.236  24.006  27.511  1.00  0.00     0.029 A 
ATOM     42  N   UNL A   1      45.738  26.128  28.019  1.00  0.00    -0.354 N 
ATOM     43  C   UNL A   1      41.631  27.377  28.558  1.00  0.00     0.074 A 
ATOM     44  C   UNL A   1      40.730  26.254  28.423  1.00  0.00     0.031 C 
ATOM     45  C   UNL A   1      47.393  24.687  27.599  1.00  0.00     0.029 A 
ATOM     46  C   UNL A   1      47.103  26.094  27.871  1.00  0.00     0.049 A 
ATOM     47  H   UNL A   1      45.244  26.938  28.280  1.00  0.00     0.167 HD
ATOM     48  C   UNL A   1      41.242  28.635  28.869  1.00  0.00     0.037 A 
ATOM     49  C   UNL A   1      48.006  27.094  27.915  1.00  0.00     0.037 A 
ATOM     50  C   UNL A   1      42.142  29.747  29.011  1.00  0.00     0.049 A 
ATOM     51  C   UNL A   1      47.539  28.502  28.184  1.00  0.00     0.074 A 
ATOM     52  C   UNL A   1      41.847  31.061  29.333  1.00  0.00     0.029 A 
ATOM     53  N   UNL A   1      43.516  29.675  28.837  1.00  0.00    -0.354 N 
ATOM     54  N   UNL A   1      46.327  28.944  28.414  1.00  0.00    -0.248 NA
ATOM     55  C   UNL A   1      48.569  29.553  28.197  1.00  0.00     0.031 C 
ATOM     56  C   UNL A   1      43.037  31.794  29.305  1.00  0.00     0.029 A 
ATOM     57  C   UNL A   1      44.080  30.925  29.024  1.00  0.00     0.049 A 
ATOM     58  H   UNL A   1      44.016  28.856  28.614  1.00  0.00     0.167 HD
ATOM     59  C   UNL A   1      46.451  30.309  28.638  1.00  0.00     0.074 A 
ATOM     60  C   UNL A   1      47.858  30.626  28.514  1.00  0.00     0.031 C 
ATOM     61  C   UNL A   1      45.487  31.218  28.927  1.00  0.00     0.037 A 
BRANCH  48  62
ATOM     62  C   UNL A   1      39.772  28.884  29.044  1.00  0.00     0.064 A 
ATOM     63  C   UNL A   1      39.138  28.732  30.285  1.00  0.00     0.173 A 
ATOM     64  C   UNL A   1      38.995  29.313  27.957  1.00  0.00     0.173 A 
ATOM     65  F   UNL A   1      39.834  28.309  31.350  1.00  0.00    -0.203 F 
ATOM     66  C   UNL A   1      37.775  28.979  30.427  1.00  0.00     0.198 A 
ATOM     67  C   UNL A   1      37.639  29.587  28.109  1.00  0.00     0.198 A 
ATOM     68  F   UNL A   1      39.554  29.476  26.748  1.00  0.00    -0.203 F 
ATOM     69  F   UNL A   1      37.180  28.783  31.611  1.00  0.00    -0.200 F 
ATOM     70  C   UNL A   1      37.029  29.412  29.342  1.00  0.00     0.200 A 
ATOM     71  F   UNL A   1      36.922  30.018  27.061  1.00  0.00    -0.200 F 
ATOM     72  F   UNL A   1      35.717  29.656  29.482  1.00  0.00    -0.200 F 
ENDBRANCH  48  62
BRANCH  49  73
ATOM     73  C   UNL A   1      49.444  26.805  27.673  1.00  0.00     0.064 A 
ATOM     74  C   UNL A   1      49.972  26.804  26.374  1.00  0.00     0.173 A 
ATOM     75  C   UNL A   1      50.313  26.505  28.731  1.00  0.00     0.173 A 
ATOM     76  F   UNL A   1      49.174  27.057  25.327  1.00  0.00    -0.203 F 
ATOM     77  C   UNL A   1      51.311  26.496  26.143  1.00  0.00     0.198 A 
ATOM     78  C   UNL A   1      51.659  26.225  28.501  1.00  0.00     0.198 A 
ATOM     79  F   UNL A   1      49.858  26.489  29.992  1.00  0.00    -0.203 F 
ATOM     80  F   UNL A   1      51.779  26.454  24.888  1.00  0.00    -0.200 F 
ATOM     81  C   UNL A   1      52.155  26.213  27.207  1.00  0.00     0.200 A 
ATOM     82  F   UNL A   1      52.473  25.962  29.533  1.00  0.00    -0.200 F 
ATOM     83  F   UNL A   1      53.443  25.918  26.983  1.00  0.00    -0.200 F 
ENDBRANCH  49  73
BRANCH  61  84
ATOM     84  C   UNL A   1      45.914  32.631  29.198  1.00  0.00     0.064 A 
ATOM     85  C   UNL A   1      45.956  33.599  28.187  1.00  0.00     0.173 A 
ATOM     86  C   UNL A   1      46.202  33.037  30.512  1.00  0.00     0.173 A 
ATOM     87  F   UNL A   1      45.700  33.259  26.915  1.00  0.00    -0.203 F 
ATOM     88  C   UNL A   1      46.282  34.922  28.477  1.00  0.00     0.198 A 
ATOM     89  C   UNL A   1      46.501  34.365  30.802  1.00  0.00     0.198 A 
ATOM     90  F   UNL A   1      46.167  32.149  31.516  1.00  0.00    -0.203 F 
ATOM     91  F   UNL A   1      46.345  35.827  27.491  1.00  0.00    -0.200 F 
ATOM     92  C   UNL A   1      46.544  35.305  29.784  1.00  0.00     0.200 A 
ATOM     93  F   UNL A   1      46.737  34.736  32.068  1.00  0.00    -0.200 F 
ATOM     94  F   UNL A   1      46.838  36.583  30.064  1.00  0.00    -0.200 F 
ENDBRANCH  61  84
ENDBRANCH  35  36
ENDBRANCH  28  30
ENDBRANCH  27  28
ENDBRANCH  26  27
ENDBRANCH  25  26
ENDBRANCH  24  25
ENDBRANCH   1  24
TORSDOF 17
ENDMDL
