MODEL 1
REMARK VINA RESULT:     -10.5      0.000      0.000
REMARK SMILES CC[C@H](C)[C@@H](C(=O)OCCOCCOC(=O)c1ccc(-c2c3nc(c(-c4c(F)c(F)c(F)c(F)c4F)c4ccc([nH]4)c(-c4c(F)c(F)c(F)c(F)c4F)c4nc(c(-c5c(F)c(F)c(F)c(F)c5F)c5ccc2[nH]5)C=C4)C=C3)cc1)N1C(=O)/C(=C/c2ccccc2OC)SC1=S
REMARK SMILES IDX 10 1 9 2 8 3 6 4 7 5 5 6 3 7 4 8 2 9 1 10 80 11 81 12 94 13
REMARK SMILES IDX 82 14 83 15 93 16 95 17 84 18 85 19 86 20 90 21 87 22 89 23
REMARK SMILES IDX 88 24 91 25 92 26 11 27 12 28 13 29 14 30 15 31 16 32 17 33
REMARK SMILES IDX 18 34 79 35 19 36 78 37 20 38 21 39 22 40 72 41 23 42 77 43
REMARK SMILES IDX 71 44 73 45 24 46 76 47 70 48 69 49 25 51 57 52 37 53 56 54
REMARK SMILES IDX 38 55 41 56 55 57 74 58 39 59 40 60 54 62 75 63 42 64 26 65
REMARK SMILES IDX 27 66 35 67 28 68 29 69 33 70 36 71 30 72 31 73 34 74 32 75
REMARK SMILES IDX 58 76 59 77 67 78 60 79 61 80 65 81 68 82 62 83 63 84 66 85
REMARK SMILES IDX 64 86 43 87 44 88 52 89 45 90 46 91 50 92 53 93 47 94 48 95
REMARK SMILES IDX 51 96 49 97
REMARK H PARENT 73 50 41 61
REMARK Flexibility Score: inf
ROOT
ATOM      1  C   UNL A   1      34.120  29.971  27.025  1.00  0.00     0.202 C 
ENDROOT
BRANCH   1   2
ATOM      2  C   UNL A   1      33.208  29.988  25.794  1.00  0.00     0.261 C 
BRANCH   2   3
ATOM      3  O   UNL A   1      32.751  28.665  25.450  1.00  0.00    -0.462 OA
BRANCH   3   4
ATOM      4  C   UNL A   1      33.126  28.204  24.230  1.00  0.00     0.329 C 
ATOM      5  O   UNL A   1      34.176  28.520  23.677  1.00  0.00    -0.250 OA
BRANCH   4   6
ATOM      6  C   UNL A   1      32.060  27.271  23.600  1.00  0.00     0.204 C 
BRANCH   6   7
ATOM      7  C   UNL A   1      30.659  27.252  24.311  1.00  0.00     0.020 C 
ATOM      8  C   UNL A   1      29.583  28.077  23.586  1.00  0.00     0.010 C 
BRANCH   7   9
ATOM      9  C   UNL A   1      30.132  25.802  24.491  1.00  0.00     0.002 C 
ATOM     10  C   UNL A   1      29.957  25.409  25.954  1.00  0.00     0.004 C 
ENDBRANCH   7   9
ENDBRANCH   6   7
BRANCH   6  11
ATOM     11  N   UNL A   1      32.748  25.942  23.574  1.00  0.00    -0.278 N 
ATOM     12  C   UNL A   1      33.386  25.469  24.708  1.00  0.00     0.267 C 
ATOM     13  C   UNL A   1      33.028  25.247  22.409  1.00  0.00     0.149 C 
ATOM     14  O   UNL A   1      33.477  26.035  25.790  1.00  0.00    -0.268 OA
ATOM     15  C   UNL A   1      34.057  24.178  24.435  1.00  0.00     0.081 C 
ATOM     16  S   UNL A   1      34.038  23.843  22.761  1.00  0.00    -0.054 SA
ATOM     17  S   UNL A   1      32.535  25.605  20.853  1.00  0.00    -0.052 S 
ATOM     18  C   UNL A   1      34.657  23.520  25.435  1.00  0.00     0.033 C 
BRANCH  18  19
ATOM     19  C   UNL A   1      35.622  22.431  25.291  1.00  0.00     0.018 A 
ATOM     20  C   UNL A   1      36.987  22.774  25.285  1.00  0.00     0.012 A 
ATOM     21  C   UNL A   1      35.246  21.085  25.131  1.00  0.00     0.126 A 
ATOM     22  C   UNL A   1      37.969  21.794  25.133  1.00  0.00     0.001 A 
ATOM     23  C   UNL A   1      36.251  20.116  24.997  1.00  0.00     0.047 A 
ATOM     24  C   UNL A   1      37.602  20.463  24.993  1.00  0.00     0.004 A 
BRANCH  21  25
ATOM     25  O   UNL A   1      33.998  20.522  25.088  1.00  0.00    -0.496 OA
ATOM     26  C   UNL A   1      33.801  19.203  24.607  1.00  0.00     0.278 C 
ENDBRANCH  21  25
ENDBRANCH  18  19
ENDBRANCH   6  11
ENDBRANCH   4   6
ENDBRANCH   3   4
ENDBRANCH   2   3
ENDBRANCH   1   2
BRANCH   1  27
ATOM     27  O   UNL A   1      33.869  30.978  28.003  1.00  0.00    -0.374 OA
BRANCH  27  28
ATOM     28  C   UNL A   1      34.123  32.328  27.616  1.00  0.00     0.202 C 
BRANCH  28  29
ATOM     29  C   UNL A   1      32.970  33.312  27.837  1.00  0.00     0.261 C 
BRANCH  29  30
ATOM     30  O   UNL A   1      33.454  34.596  28.279  1.00  0.00    -0.460 OA
BRANCH  30  31
ATOM     31  C   UNL A   1      33.350  34.816  29.610  1.00  0.00     0.338 C 
ATOM     32  O   UNL A   1      32.394  35.281  30.215  1.00  0.00    -0.246 OA
BRANCH  31  33
ATOM     33  C   UNL A   1      34.511  34.227  30.303  1.00  0.00     0.060 A 
ATOM     34  C   UNL A   1      35.784  34.675  29.926  1.00  0.00     0.016 A 
ATOM     35  C   UNL A   1      34.370  33.234  31.275  1.00  0.00     0.016 A 
ATOM     36  C   UNL A   1      36.923  34.112  30.499  1.00  0.00     0.010 A 
ATOM     37  C   UNL A   1      35.515  32.662  31.841  1.00  0.00     0.010 A 
ATOM     38  C   UNL A   1      36.796  33.084  31.442  1.00  0.00    -0.014 A 
BRANCH  38  39
ATOM     39  C   UNL A   1      38.004  32.392  31.952  1.00  0.00     0.031 A 
ATOM     40  C   UNL A   1      38.612  31.276  31.152  1.00  0.00     0.074 A 
ATOM     41  C   UNL A   1      38.555  32.761  33.123  1.00  0.00     0.049 A 
ATOM     42  N   UNL A   1      39.615  30.490  31.451  1.00  0.00    -0.248 NA
ATOM     43  C   UNL A   1      38.010  31.012  29.837  1.00  0.00     0.031 C 
ATOM     44  C   UNL A   1      38.084  33.857  33.966  1.00  0.00     0.029 A 
ATOM     45  N   UNL A   1      39.624  32.241  33.810  1.00  0.00    -0.354 N 
ATOM     46  C   UNL A   1      39.760  29.633  30.367  1.00  0.00     0.074 A 
ATOM     47  C   UNL A   1      38.727  29.980  29.413  1.00  0.00     0.031 C 
ATOM     48  C   UNL A   1      38.848  33.917  35.069  1.00  0.00     0.029 A 
ATOM     49  C   UNL A   1      39.834  32.837  35.028  1.00  0.00     0.049 A 
ATOM     50  H   UNL A   1      40.186  31.512  33.462  1.00  0.00     0.167 HD
ATOM     51  C   UNL A   1      40.675  28.651  30.185  1.00  0.00     0.037 A 
ATOM     52  C   UNL A   1      40.698  32.524  36.013  1.00  0.00     0.037 A 
ATOM     53  C   UNL A   1      41.700  28.311  31.139  1.00  0.00     0.049 A 
ATOM     54  C   UNL A   1      41.642  31.365  35.827  1.00  0.00     0.074 A 
ATOM     55  C   UNL A   1      42.696  27.356  31.030  1.00  0.00     0.029 A 
ATOM     56  N   UNL A   1      41.851  28.905  32.383  1.00  0.00    -0.354 N 
ATOM     57  N   UNL A   1      41.794  30.579  34.789  1.00  0.00    -0.248 NA
ATOM     58  C   UNL A   1      42.530  31.045  36.954  1.00  0.00     0.031 C 
ATOM     59  C   UNL A   1      43.409  27.329  32.234  1.00  0.00     0.029 A 
ATOM     60  C   UNL A   1      42.896  28.307  33.070  1.00  0.00     0.049 A 
ATOM     61  H   UNL A   1      41.298  29.643  32.728  1.00  0.00     0.167 HD
ATOM     62  C   UNL A   1      42.804  29.687  35.127  1.00  0.00     0.074 A 
ATOM     63  C   UNL A   1      43.243  30.041  36.460  1.00  0.00     0.031 C 
ATOM     64  C   UNL A   1      43.318  28.664  34.400  1.00  0.00     0.037 A 
BRANCH  51  65
ATOM     65  C   UNL A   1      40.593  27.848  28.920  1.00  0.00     0.064 A 
ATOM     66  C   UNL A   1      41.363  28.164  27.791  1.00  0.00     0.173 A 
ATOM     67  C   UNL A   1      39.768  26.714  28.855  1.00  0.00     0.173 A 
ATOM     68  F   UNL A   1      42.159  29.244  27.799  1.00  0.00    -0.203 F 
ATOM     69  C   UNL A   1      41.293  27.389  26.636  1.00  0.00     0.198 A 
ATOM     70  C   UNL A   1      39.723  25.925  27.708  1.00  0.00     0.198 A 
ATOM     71  F   UNL A   1      39.016  26.363  29.908  1.00  0.00    -0.203 F 
ATOM     72  F   UNL A   1      42.006  27.735  25.554  1.00  0.00    -0.200 F 
ATOM     73  C   UNL A   1      40.480  26.266  26.599  1.00  0.00     0.200 A 
ATOM     74  F   UNL A   1      38.947  24.833  27.679  1.00  0.00    -0.200 F 
ATOM     75  F   UNL A   1      40.421  25.516  25.490  1.00  0.00    -0.200 F 
ENDBRANCH  51  65
BRANCH  52  76
ATOM     76  C   UNL A   1      40.686  33.296  37.284  1.00  0.00     0.064 A 
ATOM     77  C   UNL A   1      41.667  34.258  37.556  1.00  0.00     0.173 A 
ATOM     78  C   UNL A   1      39.702  33.074  38.260  1.00  0.00     0.173 A 
ATOM     79  F   UNL A   1      42.645  34.488  36.667  1.00  0.00    -0.203 F 
ATOM     80  C   UNL A   1      41.674  34.958  38.761  1.00  0.00     0.198 A 
ATOM     81  C   UNL A   1      39.693  33.795  39.451  1.00  0.00     0.198 A 
ATOM     82  F   UNL A   1      38.743  32.160  38.051  1.00  0.00    -0.203 F 
ATOM     83  F   UNL A   1      42.652  35.838  39.016  1.00  0.00    -0.200 F 
ATOM     84  C   UNL A   1      40.683  34.731  39.705  1.00  0.00     0.200 A 
ATOM     85  F   UNL A   1      38.725  33.580  40.354  1.00  0.00    -0.200 F 
ATOM     86  F   UNL A   1      40.689  35.406  40.862  1.00  0.00    -0.200 F 
ENDBRANCH  52  76
BRANCH  64  87
ATOM     87  C   UNL A   1      44.422  27.859  35.025  1.00  0.00     0.064 A 
ATOM     88  C   UNL A   1      44.158  26.675  35.730  1.00  0.00     0.173 A 
ATOM     89  C   UNL A   1      45.762  28.251  34.880  1.00  0.00     0.173 A 
ATOM     90  F   UNL A   1      42.894  26.267  35.913  1.00  0.00    -0.203 F 
ATOM     91  C   UNL A   1      45.193  25.926  36.284  1.00  0.00     0.198 A 
ATOM     92  C   UNL A   1      46.796  27.482  35.407  1.00  0.00     0.198 A 
ATOM     93  F   UNL A   1      46.070  29.371  34.209  1.00  0.00    -0.203 F 
ATOM     94  F   UNL A   1      44.913  24.823  36.993  1.00  0.00    -0.200 F 
ATOM     95  C   UNL A   1      46.510  26.325  36.115  1.00  0.00     0.200 A 
ATOM     96  F   UNL A   1      48.069  27.861  35.229  1.00  0.00    -0.200 F 
ATOM     97  F   UNL A   1      47.505  25.596  36.639  1.00  0.00    -0.200 F 
ENDBRANCH  64  87
ENDBRANCH  38  39
ENDBRANCH  31  33
ENDBRANCH  30  31
ENDBRANCH  29  30
ENDBRANCH  28  29
ENDBRANCH  27  28
ENDBRANCH   1  27
TORSDOF 19
ENDMDL
MODEL 2
REMARK VINA RESULT:     -10.0      1.206      2.354
REMARK SMILES CC[C@H](C)[C@@H](C(=O)OCCOCCOC(=O)c1ccc(-c2c3nc(c(-c4c(F)c(F)c(F)c(F)c4F)c4ccc([nH]4)c(-c4c(F)c(F)c(F)c(F)c4F)c4nc(c(-c5c(F)c(F)c(F)c(F)c5F)c5ccc2[nH]5)C=C4)C=C3)cc1)N1C(=O)/C(=C/c2ccccc2OC)SC1=S
REMARK SMILES IDX 10 1 9 2 8 3 6 4 7 5 5 6 3 7 4 8 2 9 1 10 80 11 81 12 94 13
REMARK SMILES IDX 82 14 83 15 93 16 95 17 84 18 85 19 86 20 90 21 87 22 89 23
REMARK SMILES IDX 88 24 91 25 92 26 11 27 12 28 13 29 14 30 15 31 16 32 17 33
REMARK SMILES IDX 18 34 79 35 19 36 78 37 20 38 21 39 22 40 72 41 23 42 77 43
REMARK SMILES IDX 71 44 73 45 24 46 76 47 70 48 69 49 25 51 57 52 37 53 56 54
REMARK SMILES IDX 38 55 41 56 55 57 74 58 39 59 40 60 54 62 75 63 42 64 26 65
REMARK SMILES IDX 27 66 35 67 28 68 29 69 33 70 36 71 30 72 31 73 34 74 32 75
REMARK SMILES IDX 58 76 59 77 67 78 60 79 61 80 65 81 68 82 62 83 63 84 66 85
REMARK SMILES IDX 64 86 43 87 44 88 52 89 45 90 46 91 50 92 53 93 47 94 48 95
REMARK SMILES IDX 51 96 49 97
REMARK H PARENT 73 50 41 61
REMARK Flexibility Score: inf
ROOT
ATOM      1  C   UNL A   1      32.294  29.602  26.369  1.00  0.00     0.202 C 
ENDROOT
BRANCH   1   2
ATOM      2  C   UNL A   1      32.503  28.246  27.051  1.00  0.00     0.261 C 
BRANCH   2   3
ATOM      3  O   UNL A   1      32.460  27.160  26.104  1.00  0.00    -0.462 OA
BRANCH   3   4
ATOM      4  C   UNL A   1      31.228  26.811  25.654  1.00  0.00     0.329 C 
ATOM      5  O   UNL A   1      30.289  26.527  26.392  1.00  0.00    -0.250 OA
BRANCH   4   6
ATOM      6  C   UNL A   1      31.158  26.772  24.106  1.00  0.00     0.204 C 
BRANCH   6   7
ATOM      7  C   UNL A   1      29.736  27.001  23.477  1.00  0.00     0.020 C 
ATOM      8  C   UNL A   1      28.593  26.340  24.267  1.00  0.00     0.010 C 
BRANCH   7   9
ATOM      9  C   UNL A   1      29.420  28.513  23.323  1.00  0.00     0.002 C 
ATOM     10  C   UNL A   1      28.004  28.777  22.819  1.00  0.00     0.004 C 
ENDBRANCH   7   9
ENDBRANCH   6   7
BRANCH   6  11
ATOM     11  N   UNL A   1      31.764  25.444  23.775  1.00  0.00    -0.278 N 
ATOM     12  C   UNL A   1      31.406  24.318  24.496  1.00  0.00     0.267 C 
ATOM     13  C   UNL A   1      32.872  25.290  22.957  1.00  0.00     0.149 C 
ATOM     14  O   UNL A   1      30.621  24.266  25.435  1.00  0.00    -0.268 OA
ATOM     15  C   UNL A   1      32.178  23.137  24.048  1.00  0.00     0.081 C 
ATOM     16  S   UNL A   1      33.424  23.614  22.983  1.00  0.00    -0.054 SA
ATOM     17  S   UNL A   1      33.647  26.456  22.044  1.00  0.00    -0.052 S 
ATOM     18  C   UNL A   1      31.909  21.935  24.572  1.00  0.00     0.033 C 
BRANCH  18  19
ATOM     19  C   UNL A   1      32.766  20.753  24.494  1.00  0.00     0.018 A 
ATOM     20  C   UNL A   1      32.279  19.648  23.770  1.00  0.00     0.012 A 
ATOM     21  C   UNL A   1      34.019  20.667  25.126  1.00  0.00     0.126 A 
ATOM     22  C   UNL A   1      33.029  18.476  23.664  1.00  0.00     0.001 A 
ATOM     23  C   UNL A   1      34.763  19.485  24.992  1.00  0.00     0.047 A 
ATOM     24  C   UNL A   1      34.274  18.395  24.273  1.00  0.00     0.004 A 
BRANCH  21  25
ATOM     25  O   UNL A   1      34.682  21.592  25.888  1.00  0.00    -0.496 OA
ATOM     26  C   UNL A   1      36.071  21.823  25.723  1.00  0.00     0.278 C 
ENDBRANCH  21  25
ENDBRANCH  18  19
ENDBRANCH   6  11
ENDBRANCH   4   6
ENDBRANCH   3   4
ENDBRANCH   2   3
ENDBRANCH   1   2
BRANCH   1  27
ATOM     27  O   UNL A   1      33.342  30.555  26.541  1.00  0.00    -0.374 OA
BRANCH  27  28
ATOM     28  C   UNL A   1      33.196  31.485  27.614  1.00  0.00     0.202 C 
BRANCH  28  29
ATOM     29  C   UNL A   1      33.102  32.960  27.211  1.00  0.00     0.261 C 
BRANCH  29  30
ATOM     30  O   UNL A   1      32.324  33.714  28.161  1.00  0.00    -0.460 OA
BRANCH  30  31
ATOM     31  C   UNL A   1      32.972  34.758  28.727  1.00  0.00     0.338 C 
ATOM     32  O   UNL A   1      32.616  35.928  28.753  1.00  0.00    -0.246 OA
BRANCH  31  33
ATOM     33  C   UNL A   1      34.121  34.266  29.507  1.00  0.00     0.060 A 
ATOM     34  C   UNL A   1      35.403  34.547  29.017  1.00  0.00     0.016 A 
ATOM     35  C   UNL A   1      33.959  33.514  30.674  1.00  0.00     0.016 A 
ATOM     36  C   UNL A   1      36.529  34.055  29.675  1.00  0.00     0.010 A 
ATOM     37  C   UNL A   1      35.090  33.011  31.326  1.00  0.00     0.010 A 
ATOM     38  C   UNL A   1      36.378  33.263  30.821  1.00  0.00    -0.014 A 
BRANCH  38  39
ATOM     39  C   UNL A   1      37.564  32.627  31.444  1.00  0.00     0.031 A 
ATOM     40  C   UNL A   1      38.227  31.465  30.761  1.00  0.00     0.074 A 
ATOM     41  C   UNL A   1      38.046  33.088  32.613  1.00  0.00     0.049 A 
ATOM     42  N   UNL A   1      39.220  30.717  31.171  1.00  0.00    -0.248 NA
ATOM     43  C   UNL A   1      37.701  31.098  29.438  1.00  0.00     0.031 C 
ATOM     44  C   UNL A   1      37.518  34.235  33.347  1.00  0.00     0.029 A 
ATOM     45  N   UNL A   1      39.081  32.635  33.393  1.00  0.00    -0.354 N 
ATOM     46  C   UNL A   1      39.433  29.787  30.162  1.00  0.00     0.074 A 
ATOM     47  C   UNL A   1      38.451  30.049  29.131  1.00  0.00     0.031 C 
ATOM     48  C   UNL A   1      38.220  34.385  34.483  1.00  0.00     0.029 A 
ATOM     49  C   UNL A   1      39.217  33.320  34.574  1.00  0.00     0.049 A 
ATOM     50  H   UNL A   1      39.669  31.890  33.129  1.00  0.00     0.167 HD
ATOM     51  C   UNL A   1      40.367  28.808  30.101  1.00  0.00     0.037 A 
ATOM     52  C   UNL A   1      40.029  33.091  35.624  1.00  0.00     0.037 A 
ATOM     53  C   UNL A   1      41.342  28.552  31.132  1.00  0.00     0.049 A 
ATOM     54  C   UNL A   1      40.995  31.936  35.574  1.00  0.00     0.074 A 
ATOM     55  C   UNL A   1      42.353  27.607  31.146  1.00  0.00     0.029 A 
ATOM     56  N   UNL A   1      41.419  29.237  32.335  1.00  0.00    -0.354 N 
ATOM     57  N   UNL A   1      41.212  31.079  34.605  1.00  0.00    -0.248 NA
ATOM     58  C   UNL A   1      41.824  31.711  36.767  1.00  0.00     0.031 C 
ATOM     59  C   UNL A   1      43.000  27.677  32.385  1.00  0.00     0.029 A 
ATOM     60  C   UNL A   1      42.431  28.706  33.119  1.00  0.00     0.049 A 
ATOM     61  H   UNL A   1      40.839  29.990  32.594  1.00  0.00     0.167 HD
ATOM     62  C   UNL A   1      42.211  30.229  35.062  1.00  0.00     0.074 A 
ATOM     63  C   UNL A   1      42.573  30.685  36.387  1.00  0.00     0.031 C 
ATOM     64  C   UNL A   1      42.776  29.164  34.440  1.00  0.00     0.037 A 
BRANCH  51  65
ATOM     65  C   UNL A   1      40.364  27.914  28.896  1.00  0.00     0.064 A 
ATOM     66  C   UNL A   1      41.102  28.222  27.743  1.00  0.00     0.173 A 
ATOM     67  C   UNL A   1      39.651  26.705  28.914  1.00  0.00     0.173 A 
ATOM     68  F   UNL A   1      41.791  29.372  27.671  1.00  0.00    -0.203 F 
ATOM     69  C   UNL A   1      41.106  27.366  26.645  1.00  0.00     0.198 A 
ATOM     70  C   UNL A   1      39.682  25.838  27.825  1.00  0.00     0.198 A 
ATOM     71  F   UNL A   1      38.934  26.359  29.994  1.00  0.00    -0.203 F 
ATOM     72  F   UNL A   1      41.784  27.702  25.538  1.00  0.00    -0.200 F 
ATOM     73  C   UNL A   1      40.404  26.171  26.690  1.00  0.00     0.200 A 
ATOM     74  F   UNL A   1      39.013  24.677  27.877  1.00  0.00    -0.200 F 
ATOM     75  F   UNL A   1      40.418  25.343  25.637  1.00  0.00    -0.200 F 
ENDBRANCH  51  65
BRANCH  52  76
ATOM     76  C   UNL A   1      39.940  33.953  36.833  1.00  0.00     0.064 A 
ATOM     77  C   UNL A   1      39.036  33.663  37.864  1.00  0.00     0.173 A 
ATOM     78  C   UNL A   1      40.744  35.095  36.972  1.00  0.00     0.173 A 
ATOM     79  F   UNL A   1      38.227  32.598  37.766  1.00  0.00    -0.203 F 
ATOM     80  C   UNL A   1      38.930  34.489  38.981  1.00  0.00     0.198 A 
ATOM     81  C   UNL A   1      40.657  35.903  38.102  1.00  0.00     0.198 A 
ATOM     82  F   UNL A   1      41.621  35.419  36.012  1.00  0.00    -0.203 F 
ATOM     83  F   UNL A   1      38.024  34.216  39.930  1.00  0.00    -0.200 F 
ATOM     84  C   UNL A   1      39.745  35.605  39.103  1.00  0.00     0.200 A 
ATOM     85  F   UNL A   1      41.457  36.972  38.221  1.00  0.00    -0.200 F 
ATOM     86  F   UNL A   1      39.644  36.397  40.179  1.00  0.00    -0.200 F 
ENDBRANCH  52  76
BRANCH  64  87
ATOM     87  C   UNL A   1      43.852  28.423  35.181  1.00  0.00     0.064 A 
ATOM     88  C   UNL A   1      45.207  28.762  35.041  1.00  0.00     0.173 A 
ATOM     89  C   UNL A   1      43.523  27.392  36.075  1.00  0.00     0.173 A 
ATOM     90  F   UNL A   1      45.575  29.727  34.187  1.00  0.00    -0.203 F 
ATOM     91  C   UNL A   1      46.192  28.082  35.753  1.00  0.00     0.198 A 
ATOM     92  C   UNL A   1      44.508  26.737  36.808  1.00  0.00     0.198 A 
ATOM     93  F   UNL A   1      42.242  27.033  36.252  1.00  0.00    -0.203 F 
ATOM     94  F   UNL A   1      47.483  28.393  35.568  1.00  0.00    -0.200 F 
ATOM     95  C   UNL A   1      45.842  27.077  36.641  1.00  0.00     0.200 A 
ATOM     96  F   UNL A   1      44.166  25.775  37.678  1.00  0.00    -0.200 F 
ATOM     97  F   UNL A   1      46.791  26.432  37.333  1.00  0.00    -0.200 F 
ENDBRANCH  64  87
ENDBRANCH  38  39
ENDBRANCH  31  33
ENDBRANCH  30  31
ENDBRANCH  29  30
ENDBRANCH  28  29
ENDBRANCH  27  28
ENDBRANCH   1  27
TORSDOF 19
ENDMDL
MODEL 3
REMARK VINA RESULT:      -9.5     10.067     15.592
REMARK SMILES CC[C@H](C)[C@@H](C(=O)OCCOCCOC(=O)c1ccc(-c2c3nc(c(-c4c(F)c(F)c(F)c(F)c4F)c4ccc([nH]4)c(-c4c(F)c(F)c(F)c(F)c4F)c4nc(c(-c5c(F)c(F)c(F)c(F)c5F)c5ccc2[nH]5)C=C4)C=C3)cc1)N1C(=O)/C(=C/c2ccccc2OC)SC1=S
REMARK SMILES IDX 10 1 9 2 8 3 6 4 7 5 5 6 3 7 4 8 2 9 1 10 80 11 81 12 94 13
REMARK SMILES IDX 82 14 83 15 93 16 95 17 84 18 85 19 86 20 90 21 87 22 89 23
REMARK SMILES IDX 88 24 91 25 92 26 11 27 12 28 13 29 14 30 15 31 16 32 17 33
REMARK SMILES IDX 18 34 79 35 19 36 78 37 20 38 21 39 22 40 72 41 23 42 77 43
REMARK SMILES IDX 71 44 73 45 24 46 76 47 70 48 69 49 25 51 57 52 37 53 56 54
REMARK SMILES IDX 38 55 41 56 55 57 74 58 39 59 40 60 54 62 75 63 42 64 26 65
REMARK SMILES IDX 27 66 35 67 28 68 29 69 33 70 36 71 30 72 31 73 34 74 32 75
REMARK SMILES IDX 58 76 59 77 67 78 60 79 61 80 65 81 68 82 62 83 63 84 66 85
REMARK SMILES IDX 64 86 43 87 44 88 52 89 45 90 46 91 50 92 53 93 47 94 48 95
REMARK SMILES IDX 51 96 49 97
REMARK H PARENT 73 50 41 61
REMARK Flexibility Score: inf
ROOT
ATOM      1  C   UNL A   1      47.886  38.879  25.852  1.00  0.00     0.202 C 
ENDROOT
BRANCH   1   2
ATOM      2  C   UNL A   1      46.468  39.213  25.375  1.00  0.00     0.261 C 
BRANCH   2   3
ATOM      3  O   UNL A   1      46.261  40.635  25.269  1.00  0.00    -0.462 OA
BRANCH   3   4
ATOM      4  C   UNL A   1      46.627  41.203  24.092  1.00  0.00     0.329 C 
ATOM      5  O   UNL A   1      47.034  40.565  23.126  1.00  0.00    -0.250 OA
BRANCH   4   6
ATOM      6  C   UNL A   1      46.511  42.749  24.125  1.00  0.00     0.204 C 
BRANCH   6   7
ATOM      7  C   UNL A   1      46.118  43.379  25.510  1.00  0.00     0.020 C 
ATOM      8  C   UNL A   1      47.097  43.042  26.647  1.00  0.00     0.010 C 
BRANCH   7   9
ATOM      9  C   UNL A   1      45.985  44.923  25.415  1.00  0.00     0.002 C 
ATOM     10  C   UNL A   1      45.884  45.597  26.780  1.00  0.00     0.004 C 
ENDBRANCH   7   9
ENDBRANCH   6   7
BRANCH   6  11
ATOM     11  N   UNL A   1      45.538  43.038  23.026  1.00  0.00    -0.278 N 
ATOM     12  C   UNL A   1      45.966  43.656  21.864  1.00  0.00     0.267 C 
ATOM     13  C   UNL A   1      44.163  42.972  23.184  1.00  0.00     0.149 C 
ATOM     14  O   UNL A   1      47.104  44.031  21.607  1.00  0.00    -0.268 OA
ATOM     15  C   UNL A   1      44.829  43.908  20.951  1.00  0.00     0.081 C 
ATOM     16  S   UNL A   1      43.351  43.593  21.745  1.00  0.00    -0.054 SA
ATOM     17  S   UNL A   1      43.304  42.408  24.502  1.00  0.00    -0.052 S 
ATOM     18  C   UNL A   1      45.058  44.422  19.736  1.00  0.00     0.033 C 
BRANCH  18  19
ATOM     19  C   UNL A   1      44.059  45.026  18.856  1.00  0.00     0.018 A 
ATOM     20  C   UNL A   1      43.157  44.160  18.211  1.00  0.00     0.012 A 
ATOM     21  C   UNL A   1      43.985  46.410  18.610  1.00  0.00     0.126 A 
ATOM     22  C   UNL A   1      42.185  44.657  17.341  1.00  0.00     0.001 A 
ATOM     23  C   UNL A   1      42.989  46.888  17.745  1.00  0.00     0.047 A 
ATOM     24  C   UNL A   1      42.099  46.023  17.110  1.00  0.00     0.004 A 
BRANCH  21  25
ATOM     25  O   UNL A   1      44.754  47.430  19.102  1.00  0.00    -0.496 OA
ATOM     26  C   UNL A   1      44.290  48.770  19.099  1.00  0.00     0.278 C 
ENDBRANCH  21  25
ENDBRANCH  18  19
ENDBRANCH   6  11
ENDBRANCH   4   6
ENDBRANCH   3   4
ENDBRANCH   2   3
ENDBRANCH   1   2
BRANCH   1  27
ATOM     27  O   UNL A   1      48.337  39.579  27.011  1.00  0.00    -0.374 OA
BRANCH  27  28
ATOM     28  C   UNL A   1      48.787  38.784  28.107  1.00  0.00     0.202 C 
BRANCH  28  29
ATOM     29  C   UNL A   1      47.849  38.722  29.316  1.00  0.00     0.261 C 
BRANCH  29  30
ATOM     30  O   UNL A   1      46.742  37.830  29.075  1.00  0.00    -0.460 OA
BRANCH  30  31
ATOM     31  C   UNL A   1      46.318  37.141  30.160  1.00  0.00     0.338 C 
ATOM     32  O   UNL A   1      46.106  37.579  31.283  1.00  0.00    -0.246 OA
BRANCH  31  33
ATOM     33  C   UNL A   1      45.946  35.771  29.764  1.00  0.00     0.060 A 
ATOM     34  C   UNL A   1      45.200  35.619  28.588  1.00  0.00     0.016 A 
ATOM     35  C   UNL A   1      46.282  34.657  30.538  1.00  0.00     0.016 A 
ATOM     36  C   UNL A   1      44.763  34.356  28.194  1.00  0.00     0.010 A 
ATOM     37  C   UNL A   1      45.833  33.391  30.146  1.00  0.00     0.010 A 
ATOM     38  C   UNL A   1      45.056  33.236  28.984  1.00  0.00    -0.014 A 
BRANCH  38  39
ATOM     39  C   UNL A   1      44.479  31.914  28.639  1.00  0.00     0.031 A 
ATOM     40  C   UNL A   1      43.138  31.524  29.191  1.00  0.00     0.074 A 
ATOM     41  C   UNL A   1      45.151  31.069  27.837  1.00  0.00     0.049 A 
ATOM     42  N   UNL A   1      42.492  30.391  29.082  1.00  0.00    -0.248 NA
ATOM     43  C   UNL A   1      42.429  32.550  29.970  1.00  0.00     0.031 C 
ATOM     44  C   UNL A   1      46.437  31.351  27.205  1.00  0.00     0.029 A 
ATOM     45  N   UNL A   1      44.847  29.793  27.429  1.00  0.00    -0.354 N 
ATOM     46  C   UNL A   1      41.306  30.563  29.783  1.00  0.00     0.074 A 
ATOM     47  C   UNL A   1      41.330  31.902  30.334  1.00  0.00     0.031 C 
ATOM     48  C   UNL A   1      46.824  30.273  26.503  1.00  0.00     0.029 A 
ATOM     49  C   UNL A   1      45.833  29.212  26.672  1.00  0.00     0.049 A 
ATOM     50  H   UNL A   1      44.003  29.341  27.658  1.00  0.00     0.167 HD
ATOM     51  C   UNL A   1      40.288  29.684  29.945  1.00  0.00     0.037 A 
ATOM     52  C   UNL A   1      45.940  27.954  26.202  1.00  0.00     0.037 A 
ATOM     53  C   UNL A   1      40.270  28.353  29.394  1.00  0.00     0.049 A 
ATOM     54  C   UNL A   1      44.838  26.965  26.478  1.00  0.00     0.074 A 
ATOM     55  C   UNL A   1      39.268  27.401  29.473  1.00  0.00     0.029 A 
ATOM     56  N   UNL A   1      41.307  27.782  28.673  1.00  0.00    -0.354 N 
ATOM     57  N   UNL A   1      43.706  27.142  27.115  1.00  0.00    -0.248 NA
ATOM     58  C   UNL A   1      45.032  25.597  25.975  1.00  0.00     0.031 C 
ATOM     59  C   UNL A   1      39.726  26.232  28.855  1.00  0.00     0.029 A 
ATOM     60  C   UNL A   1      40.988  26.475  28.339  1.00  0.00     0.049 A 
ATOM     61  H   UNL A   1      42.146  28.237  28.433  1.00  0.00     0.167 HD
ATOM     62  C   UNL A   1      43.047  25.920  27.073  1.00  0.00     0.074 A 
ATOM     63  C   UNL A   1      43.896  25.014  26.330  1.00  0.00     0.031 C 
ATOM     64  C   UNL A   1      41.847  25.580  27.606  1.00  0.00     0.037 A 
BRANCH  51  65
ATOM     65  C   UNL A   1      39.118  30.118  30.780  1.00  0.00     0.064 A 
ATOM     66  C   UNL A   1      39.091  29.931  32.170  1.00  0.00     0.173 A 
ATOM     67  C   UNL A   1      38.031  30.777  30.185  1.00  0.00     0.173 A 
ATOM     68  F   UNL A   1      40.101  29.297  32.785  1.00  0.00    -0.203 F 
ATOM     69  C   UNL A   1      38.008  30.365  32.930  1.00  0.00     0.198 A 
ATOM     70  C   UNL A   1      36.963  31.235  30.953  1.00  0.00     0.198 A 
ATOM     71  F   UNL A   1      38.009  30.987  28.861  1.00  0.00    -0.203 F 
ATOM     72  F   UNL A   1      37.983  30.137  34.251  1.00  0.00    -0.200 F 
ATOM     73  C   UNL A   1      36.949  31.024  32.322  1.00  0.00     0.200 A 
ATOM     74  F   UNL A   1      35.948  31.884  30.365  1.00  0.00    -0.200 F 
ATOM     75  F   UNL A   1      35.913  31.450  33.057  1.00  0.00    -0.200 F 
ENDBRANCH  51  65
BRANCH  52  76
ATOM     76  C   UNL A   1      47.157  27.544  25.450  1.00  0.00     0.064 A 
ATOM     77  C   UNL A   1      48.248  26.956  26.103  1.00  0.00     0.173 A 
ATOM     78  C   UNL A   1      47.258  27.750  24.065  1.00  0.00     0.173 A 
ATOM     79  F   UNL A   1      48.210  26.762  27.429  1.00  0.00    -0.203 F 
ATOM     80  C   UNL A   1      49.400  26.603  25.403  1.00  0.00     0.198 A 
ATOM     81  C   UNL A   1      48.398  27.369  23.362  1.00  0.00     0.198 A 
ATOM     82  F   UNL A   1      46.244  28.314  23.394  1.00  0.00    -0.203 F 
ATOM     83  F   UNL A   1      50.448  26.086  26.059  1.00  0.00    -0.200 F 
ATOM     84  C   UNL A   1      49.472  26.804  24.032  1.00  0.00     0.200 A 
ATOM     85  F   UNL A   1      48.457  27.554  22.036  1.00  0.00    -0.200 F 
ATOM     86  F   UNL A   1      50.579  26.460  23.359  1.00  0.00    -0.200 F 
ENDBRANCH  52  76
BRANCH  64  87
ATOM     87  C   UNL A   1      41.374  24.169  27.397  1.00  0.00     0.064 A 
ATOM     88  C   UNL A   1      41.997  23.085  28.034  1.00  0.00     0.173 A 
ATOM     89  C   UNL A   1      40.258  23.902  26.588  1.00  0.00     0.173 A 
ATOM     90  F   UNL A   1      43.077  23.284  28.803  1.00  0.00    -0.203 F 
ATOM     91  C   UNL A   1      41.533  21.784  27.850  1.00  0.00     0.198 A 
ATOM     92  C   UNL A   1      39.779  22.604  26.433  1.00  0.00     0.198 A 
ATOM     93  F   UNL A   1      39.622  24.903  25.962  1.00  0.00    -0.203 F 
ATOM     94  F   UNL A   1      42.172  20.760  28.432  1.00  0.00    -0.200 F 
ATOM     95  C   UNL A   1      40.420  21.546  27.058  1.00  0.00     0.200 A 
ATOM     96  F   UNL A   1      38.694  22.379  25.679  1.00  0.00    -0.200 F 
ATOM     97  F   UNL A   1      39.970  20.295  26.892  1.00  0.00    -0.200 F 
ENDBRANCH  64  87
ENDBRANCH  38  39
ENDBRANCH  31  33
ENDBRANCH  30  31
ENDBRANCH  29  30
ENDBRANCH  28  29
ENDBRANCH  27  28
ENDBRANCH   1  27
TORSDOF 19
ENDMDL
