MODEL 1
REMARK VINA RESULT:     -12.6      0.000      0.000
REMARK SMILES O=C(OCCOCCOC(=O)[C@@H]1[C@@H](C(=O)NCc2ccccc2OCc2ccccc2)[C@@H]2C=C[C@H]1C2)c1ccc(-c2c3nc(c(-c4c(F)c(F)c(F)c(F)c4F)c4ccc([nH]4)c(-c4c(F)c(F)c(F)c(F)c4F)c4nc(c(-c5c(F)c(F)c(F)c(F)c5F)c5ccc2[nH]5)C=C4)C=C3)cc1
REMARK SMILES IDX 8 1 7 2 6 3 5 4 4 5 3 6 2 7 1 8 37 9 38 10 99 11 39 12 98 13
REMARK SMILES IDX 40 14 41 15 42 16 92 17 43 18 97 19 91 20 93 21 44 22 96 23
REMARK SMILES IDX 90 24 89 25 45 27 77 28 57 29 76 30 58 31 61 32 75 33 94 34
REMARK SMILES IDX 59 35 60 36 74 38 95 39 62 40 46 41 47 42 55 43 48 44 49 45
REMARK SMILES IDX 53 46 56 47 50 48 51 49 54 50 52 51 78 52 79 53 87 54 80 55
REMARK SMILES IDX 81 56 85 57 88 58 82 59 83 60 86 61 84 62 63 63 64 64 72 65
REMARK SMILES IDX 65 66 66 67 70 68 73 69 67 70 68 71 71 72 69 73 9 74 10 75
REMARK SMILES IDX 11 76 12 77 13 78 35 79 32 80 34 81 36 82 33 83 14 84 15 85
REMARK SMILES IDX 16 86 17 88 18 89 19 90 23 91 20 92 22 93 21 94 24 95 25 96
REMARK SMILES IDX 26 97 27 98 31 99 28 100 30 101 29 102
REMARK H PARENT 93 26 61 37 16 87
REMARK Flexibility Score: inf
ROOT
ATOM      1  C   UNL A   1      32.734  29.857  26.627  1.00  0.00     0.261 C 
ENDROOT
BRANCH   1   2
ATOM      2  C   UNL A   1      33.866  30.566  27.373  1.00  0.00     0.202 C 
BRANCH   2   3
ATOM      3  O   UNL A   1      33.494  31.924  27.651  1.00  0.00    -0.374 OA
BRANCH   3   4
ATOM      4  C   UNL A   1      34.489  32.792  28.202  1.00  0.00     0.202 C 
BRANCH   4   5
ATOM      5  C   UNL A   1      34.404  33.143  29.689  1.00  0.00     0.261 C 
BRANCH   5   6
ATOM      6  O   UNL A   1      34.561  31.971  30.496  1.00  0.00    -0.460 OA
BRANCH   6   7
ATOM      7  C   UNL A   1      35.603  31.678  31.302  1.00  0.00     0.338 C 
ATOM      8  O   UNL A   1      35.526  31.972  32.494  1.00  0.00    -0.246 OA
BRANCH   7   9
ATOM      9  C   UNL A   1      36.858  31.018  30.824  1.00  0.00     0.060 A 
ATOM     10  C   UNL A   1      37.865  30.484  31.636  1.00  0.00     0.016 A 
ATOM     11  C   UNL A   1      36.971  30.837  29.437  1.00  0.00     0.016 A 
ATOM     12  C   UNL A   1      38.932  29.781  31.125  1.00  0.00     0.010 A 
ATOM     13  C   UNL A   1      38.064  30.163  28.897  1.00  0.00     0.010 A 
ATOM     14  C   UNL A   1      39.041  29.649  29.753  1.00  0.00    -0.014 A 
BRANCH  14  15
ATOM     15  C   UNL A   1      40.322  29.165  29.257  1.00  0.00     0.031 A 
ATOM     16  C   UNL A   1      41.441  30.147  29.229  1.00  0.00     0.074 A 
ATOM     17  C   UNL A   1      40.474  27.863  28.988  1.00  0.00     0.049 A 
ATOM     18  N   UNL A   1      42.628  30.032  28.711  1.00  0.00    -0.248 NA
ATOM     19  C   UNL A   1      41.186  31.441  29.888  1.00  0.00     0.031 C 
ATOM     20  C   UNL A   1      39.453  26.834  29.193  1.00  0.00     0.029 A 
ATOM     21  N   UNL A   1      41.548  27.186  28.489  1.00  0.00    -0.354 N 
ATOM     22  C   UNL A   1      43.243  31.255  28.934  1.00  0.00     0.074 A 
ATOM     23  C   UNL A   1      42.313  32.091  29.652  1.00  0.00     0.031 C 
ATOM     24  C   UNL A   1      39.941  25.653  28.784  1.00  0.00     0.029 A 
ATOM     25  C   UNL A   1      41.272  25.869  28.225  1.00  0.00     0.049 A 
ATOM     26  H   UNL A   1      42.428  27.599  28.335  1.00  0.00     0.167 HD
ATOM     27  C   UNL A   1      44.475  31.632  28.531  1.00  0.00     0.037 A 
ATOM     28  C   UNL A   1      42.004  24.977  27.537  1.00  0.00     0.037 A 
ATOM     29  C   UNL A   1      45.341  30.750  27.801  1.00  0.00     0.049 A 
ATOM     30  C   UNL A   1      43.329  25.445  26.999  1.00  0.00     0.074 A 
ATOM     31  C   UNL A   1      46.586  30.999  27.262  1.00  0.00     0.029 A 
ATOM     32  N   UNL A   1      45.024  29.426  27.501  1.00  0.00    -0.354 N 
ATOM     33  N   UNL A   1      43.894  26.627  27.116  1.00  0.00    -0.248 NA
ATOM     34  C   UNL A   1      44.112  24.478  26.227  1.00  0.00     0.031 C 
ATOM     35  C   UNL A   1      46.996  29.845  26.588  1.00  0.00     0.029 A 
ATOM     36  C   UNL A   1      46.040  28.852  26.764  1.00  0.00     0.049 A 
ATOM     37  H   UNL A   1      44.196  28.969  27.774  1.00  0.00     0.167 HD
ATOM     38  C   UNL A   1      45.111  26.541  26.457  1.00  0.00     0.074 A 
ATOM     39  C   UNL A   1      45.197  25.186  25.940  1.00  0.00     0.031 C 
ATOM     40  C   UNL A   1      46.071  27.485  26.293  1.00  0.00     0.037 A 
BRANCH  27  41
ATOM     41  C   UNL A   1      44.854  33.063  28.768  1.00  0.00     0.064 A 
ATOM     42  C   UNL A   1      45.514  33.483  29.934  1.00  0.00     0.173 A 
ATOM     43  C   UNL A   1      44.458  34.049  27.852  1.00  0.00     0.173 A 
ATOM     44  F   UNL A   1      45.881  32.588  30.863  1.00  0.00    -0.203 F 
ATOM     45  C   UNL A   1      45.714  34.837  30.196  1.00  0.00     0.198 A 
ATOM     46  C   UNL A   1      44.691  35.399  28.100  1.00  0.00     0.198 A 
ATOM     47  F   UNL A   1      43.810  33.706  26.728  1.00  0.00    -0.203 F 
ATOM     48  F   UNL A   1      46.264  35.220  31.358  1.00  0.00    -0.200 F 
ATOM     49  C   UNL A   1      45.304  35.793  29.279  1.00  0.00     0.200 A 
ATOM     50  F   UNL A   1      44.292  36.320  27.212  1.00  0.00    -0.200 F 
ATOM     51  F   UNL A   1      45.478  37.095  29.542  1.00  0.00    -0.200 F 
ENDBRANCH  27  41
BRANCH  28  52
ATOM     52  C   UNL A   1      41.457  23.622  27.281  1.00  0.00     0.064 A 
ATOM     53  C   UNL A   1      40.349  23.429  26.449  1.00  0.00     0.173 A 
ATOM     54  C   UNL A   1      42.075  22.479  27.817  1.00  0.00     0.173 A 
ATOM     55  F   UNL A   1      39.715  24.486  25.922  1.00  0.00    -0.203 F 
ATOM     56  C   UNL A   1      39.878  22.147  26.164  1.00  0.00     0.198 A 
ATOM     57  C   UNL A   1      41.621  21.198  27.510  1.00  0.00     0.198 A 
ATOM     58  F   UNL A   1      43.145  22.606  28.617  1.00  0.00    -0.203 F 
ATOM     59  F   UNL A   1      38.801  21.991  25.382  1.00  0.00    -0.200 F 
ATOM     60  C   UNL A   1      40.521  21.033  26.686  1.00  0.00     0.200 A 
ATOM     61  F   UNL A   1      42.259  20.128  28.002  1.00  0.00    -0.200 F 
ATOM     62  F   UNL A   1      40.078  19.803  26.395  1.00  0.00    -0.200 F 
ENDBRANCH  28  52
BRANCH  40  63
ATOM     63  C   UNL A   1      47.318  27.068  25.578  1.00  0.00     0.064 A 
ATOM     64  C   UNL A   1      47.525  27.365  24.225  1.00  0.00     0.173 A 
ATOM     65  C   UNL A   1      48.361  26.465  26.296  1.00  0.00     0.173 A 
ATOM     66  F   UNL A   1      46.548  27.930  23.500  1.00  0.00    -0.203 F 
ATOM     67  C   UNL A   1      48.738  27.069  23.613  1.00  0.00     0.198 A 
ATOM     68  C   UNL A   1      49.582  26.198  25.689  1.00  0.00     0.198 A 
ATOM     69  F   UNL A   1      48.207  26.172  27.597  1.00  0.00    -0.203 F 
ATOM     70  F   UNL A   1      48.912  27.339  22.312  1.00  0.00    -0.200 F 
ATOM     71  C   UNL A   1      49.769  26.499  24.348  1.00  0.00     0.200 A 
ATOM     72  F   UNL A   1      50.583  25.668  26.404  1.00  0.00    -0.200 F 
ATOM     73  F   UNL A   1      50.947  26.243  23.763  1.00  0.00    -0.200 F 
ENDBRANCH  40  63
ENDBRANCH  14  15
ENDBRANCH   7   9
ENDBRANCH   6   7
ENDBRANCH   5   6
ENDBRANCH   4   5
ENDBRANCH   3   4
ENDBRANCH   2   3
ENDBRANCH   1   2
BRANCH   1  74
ATOM     74  O   UNL A   1      33.151  29.739  25.269  1.00  0.00    -0.463 OA
BRANCH  74  75
ATOM     75  C   UNL A   1      33.008  28.486  24.779  1.00  0.00     0.310 C 
ATOM     76  O   UNL A   1      33.932  27.792  24.381  1.00  0.00    -0.252 OA
BRANCH  75  77
ATOM     77  C   UNL A   1      31.570  28.029  24.807  1.00  0.00     0.119 C 
ATOM     78  C   UNL A   1      31.562  26.501  24.567  1.00  0.00     0.100 C 
ATOM     79  C   UNL A   1      30.524  28.554  23.780  1.00  0.00     0.027 C 
ATOM     80  C   UNL A   1      30.495  26.368  23.448  1.00  0.00     0.025 C 
ATOM     81  C   UNL A   1      31.001  28.337  22.375  1.00  0.00    -0.027 C 
ATOM     82  C   UNL A   1      29.486  27.434  23.856  1.00  0.00     0.017 C 
ATOM     83  C   UNL A   1      31.036  27.014  22.186  1.00  0.00    -0.027 C 
BRANCH  78  84
ATOM     84  C   UNL A   1      31.260  25.806  25.887  1.00  0.00     0.224 C 
ATOM     85  O   UNL A   1      30.823  26.389  26.878  1.00  0.00    -0.275 OA
ATOM     86  N   UNL A   1      31.565  24.494  26.001  1.00  0.00    -0.352 N 
ATOM     87  H   UNL A   1      31.534  24.114  26.908  1.00  0.00     0.163 HD
BRANCH  86  88
ATOM     88  C   UNL A   1      31.927  23.599  24.945  1.00  0.00     0.155 C 
BRANCH  88  89
ATOM     89  C   UNL A   1      33.106  22.757  25.277  1.00  0.00     0.013 A 
ATOM     90  C   UNL A   1      33.852  23.207  26.394  1.00  0.00     0.009 A 
ATOM     91  C   UNL A   1      33.580  21.692  24.512  1.00  0.00     0.124 A 
ATOM     92  C   UNL A   1      35.113  22.704  26.669  1.00  0.00     0.001 A 
ATOM     93  C   UNL A   1      34.878  21.230  24.779  1.00  0.00     0.047 A 
ATOM     94  C   UNL A   1      35.645  21.739  25.831  1.00  0.00     0.004 A 
BRANCH  91  95
ATOM     95  O   UNL A   1      32.986  20.989  23.508  1.00  0.00    -0.489 OA
BRANCH  95  96
ATOM     96  C   UNL A   1      32.138  19.848  23.664  1.00  0.00     0.265 C 
BRANCH  96  97
ATOM     97  C   UNL A   1      32.731  18.527  24.113  1.00  0.00    -0.011 A 
ATOM     98  C   UNL A   1      33.511  17.790  23.201  1.00  0.00     0.007 A 
ATOM     99  C   UNL A   1      32.531  18.001  25.395  1.00  0.00     0.007 A 
ATOM    100  C   UNL A   1      34.005  16.528  23.538  1.00  0.00     0.000 A 
ATOM    101  C   UNL A   1      33.009  16.728  25.724  1.00  0.00     0.000 A 
ATOM    102  C   UNL A   1      33.735  15.988  24.792  1.00  0.00     0.000 A 
ENDBRANCH  96  97
ENDBRANCH  95  96
ENDBRANCH  91  95
ENDBRANCH  88  89
ENDBRANCH  86  88
ENDBRANCH  78  84
ENDBRANCH  75  77
ENDBRANCH  74  75
ENDBRANCH   1  74
TORSDOF 20
ENDMDL
MODEL 2
REMARK VINA RESULT:     -12.6      2.882      8.881
REMARK SMILES O=C(OCCOCCOC(=O)[C@@H]1[C@@H](C(=O)NCc2ccccc2OCc2ccccc2)[C@@H]2C=C[C@H]1C2)c1ccc(-c2c3nc(c(-c4c(F)c(F)c(F)c(F)c4F)c4ccc([nH]4)c(-c4c(F)c(F)c(F)c(F)c4F)c4nc(c(-c5c(F)c(F)c(F)c(F)c5F)c5ccc2[nH]5)C=C4)C=C3)cc1
REMARK SMILES IDX 8 1 7 2 6 3 5 4 4 5 3 6 2 7 1 8 37 9 38 10 99 11 39 12 98 13
REMARK SMILES IDX 40 14 41 15 42 16 92 17 43 18 97 19 91 20 93 21 44 22 96 23
REMARK SMILES IDX 90 24 89 25 45 27 77 28 57 29 76 30 58 31 61 32 75 33 94 34
REMARK SMILES IDX 59 35 60 36 74 38 95 39 62 40 46 41 47 42 55 43 48 44 49 45
REMARK SMILES IDX 53 46 56 47 50 48 51 49 54 50 52 51 78 52 79 53 87 54 80 55
REMARK SMILES IDX 81 56 85 57 88 58 82 59 83 60 86 61 84 62 63 63 64 64 72 65
REMARK SMILES IDX 65 66 66 67 70 68 73 69 67 70 68 71 71 72 69 73 9 74 10 75
REMARK SMILES IDX 11 76 12 77 13 78 35 79 32 80 34 81 36 82 33 83 14 84 15 85
REMARK SMILES IDX 16 86 17 88 18 89 19 90 23 91 20 92 22 93 21 94 24 95 25 96
REMARK SMILES IDX 26 97 27 98 31 99 28 100 30 101 29 102
REMARK H PARENT 93 26 61 37 16 87
REMARK Flexibility Score: inf
ROOT
ATOM      1  C   UNL A   1      37.140  22.043  24.979  1.00  0.00     0.261 C 
ENDROOT
BRANCH   1   2
ATOM      2  C   UNL A   1      38.122  22.688  25.958  1.00  0.00     0.202 C 
BRANCH   2   3
ATOM      3  O   UNL A   1      39.284  21.858  26.105  1.00  0.00    -0.374 OA
BRANCH   3   4
ATOM      4  C   UNL A   1      39.353  20.658  25.328  1.00  0.00     0.202 C 
BRANCH   4   5
ATOM      5  C   UNL A   1      39.665  19.344  26.048  1.00  0.00     0.261 C 
BRANCH   5   6
ATOM      6  O   UNL A   1      40.938  18.832  25.641  1.00  0.00    -0.460 OA
BRANCH   6   7
ATOM      7  C   UNL A   1      42.145  19.179  26.135  1.00  0.00     0.338 C 
ATOM      8  O   UNL A   1      42.953  18.288  26.394  1.00  0.00    -0.246 OA
BRANCH   7   9
ATOM      9  C   UNL A   1      42.557  20.594  26.393  1.00  0.00     0.060 A 
ATOM     10  C   UNL A   1      42.533  21.242  27.634  1.00  0.00     0.016 A 
ATOM     11  C   UNL A   1      43.107  21.286  25.304  1.00  0.00     0.016 A 
ATOM     12  C   UNL A   1      43.044  22.506  27.816  1.00  0.00     0.010 A 
ATOM     13  C   UNL A   1      43.593  22.582  25.460  1.00  0.00     0.010 A 
ATOM     14  C   UNL A   1      43.546  23.182  26.720  1.00  0.00    -0.014 A 
BRANCH  14  15
ATOM     15  C   UNL A   1      43.796  24.606  26.905  1.00  0.00     0.031 A 
ATOM     16  C   UNL A   1      45.171  25.087  26.596  1.00  0.00     0.074 A 
ATOM     17  C   UNL A   1      42.776  25.420  27.199  1.00  0.00     0.049 A 
ATOM     18  N   UNL A   1      45.704  26.255  26.804  1.00  0.00    -0.248 NA
ATOM     19  C   UNL A   1      46.070  24.114  25.950  1.00  0.00     0.031 C 
ATOM     20  C   UNL A   1      41.375  25.011  27.316  1.00  0.00     0.029 A 
ATOM     21  N   UNL A   1      42.763  26.761  27.450  1.00  0.00    -0.354 N 
ATOM     22  C   UNL A   1      47.014  26.141  26.365  1.00  0.00     0.074 A 
ATOM     23  C   UNL A   1      47.195  24.803  25.859  1.00  0.00     0.031 C 
ATOM     24  C   UNL A   1      40.639  26.080  27.655  1.00  0.00     0.029 A 
ATOM     25  C   UNL A   1      41.534  27.217  27.848  1.00  0.00     0.049 A 
ATOM     26  H   UNL A   1      43.554  27.340  27.355  1.00  0.00     0.167 HD
ATOM     27  C   UNL A   1      47.976  27.086  26.424  1.00  0.00     0.037 A 
ATOM     28  C   UNL A   1      41.209  28.408  28.379  1.00  0.00     0.037 A 
ATOM     29  C   UNL A   1      47.729  28.394  26.961  1.00  0.00     0.049 A 
ATOM     30  C   UNL A   1      42.316  29.414  28.539  1.00  0.00     0.074 A 
ATOM     31  C   UNL A   1      48.610  29.438  27.154  1.00  0.00     0.029 A 
ATOM     32  N   UNL A   1      46.481  28.826  27.405  1.00  0.00    -0.354 N 
ATOM     33  N   UNL A   1      43.586  29.298  28.218  1.00  0.00    -0.248 NA
ATOM     34  C   UNL A   1      41.963  30.700  29.143  1.00  0.00     0.031 C 
ATOM     35  C   UNL A   1      47.905  30.479  27.768  1.00  0.00     0.029 A 
ATOM     36  C   UNL A   1      46.571  30.113  27.894  1.00  0.00     0.049 A 
ATOM     37  H   UNL A   1      45.655  28.289  27.374  1.00  0.00     0.167 HD
ATOM     38  C   UNL A   1      44.181  30.504  28.554  1.00  0.00     0.074 A 
ATOM     39  C   UNL A   1      43.128  31.336  29.107  1.00  0.00     0.031 C 
ATOM     40  C   UNL A   1      45.473  30.895  28.417  1.00  0.00     0.037 A 
BRANCH  27  41
ATOM     41  C   UNL A   1      49.358  26.667  26.019  1.00  0.00     0.064 A 
ATOM     42  C   UNL A   1      50.253  26.060  26.914  1.00  0.00     0.173 A 
ATOM     43  C   UNL A   1      49.829  26.972  24.732  1.00  0.00     0.173 A 
ATOM     44  F   UNL A   1      49.868  25.781  28.169  1.00  0.00    -0.203 F 
ATOM     45  C   UNL A   1      51.578  25.823  26.554  1.00  0.00     0.198 A 
ATOM     46  C   UNL A   1      51.145  26.702  24.364  1.00  0.00     0.198 A 
ATOM     47  F   UNL A   1      49.022  27.566  23.840  1.00  0.00    -0.203 F 
ATOM     48  F   UNL A   1      52.439  25.326  27.454  1.00  0.00    -0.200 F 
ATOM     49  C   UNL A   1      52.022  26.142  25.279  1.00  0.00     0.200 A 
ATOM     50  F   UNL A   1      51.570  27.013  23.132  1.00  0.00    -0.200 F 
ATOM     51  F   UNL A   1      53.301  25.934  24.941  1.00  0.00    -0.200 F 
ENDBRANCH  27  41
BRANCH  28  52
ATOM     52  C   UNL A   1      39.820  28.650  28.840  1.00  0.00     0.064 A 
ATOM     53  C   UNL A   1      39.423  28.353  30.148  1.00  0.00     0.173 A 
ATOM     54  C   UNL A   1      38.869  29.246  27.993  1.00  0.00     0.173 A 
ATOM     55  F   UNL A   1      40.287  27.772  30.993  1.00  0.00    -0.203 F 
ATOM     56  C   UNL A   1      38.132  28.640  30.593  1.00  0.00     0.198 A 
ATOM     57  C   UNL A   1      37.589  29.558  28.445  1.00  0.00     0.198 A 
ATOM     58  F   UNL A   1      39.197  29.558  26.729  1.00  0.00    -0.203 F 
ATOM     59  F   UNL A   1      37.772  28.325  31.844  1.00  0.00    -0.200 F 
ATOM     60  C   UNL A   1      37.221  29.252  29.744  1.00  0.00     0.200 A 
ATOM     61  F   UNL A   1      36.721  30.166  27.626  1.00  0.00    -0.200 F 
ATOM     62  F   UNL A   1      35.988  29.544  30.179  1.00  0.00    -0.200 F 
ENDBRANCH  28  52
BRANCH  40  63
ATOM     63  C   UNL A   1      45.803  32.299  28.819  1.00  0.00     0.064 A 
ATOM     64  C   UNL A   1      46.320  32.600  30.084  1.00  0.00     0.173 A 
ATOM     65  C   UNL A   1      45.705  33.332  27.874  1.00  0.00     0.173 A 
ATOM     66  F   UNL A   1      46.419  31.643  31.020  1.00  0.00    -0.203 F 
ATOM     67  C   UNL A   1      46.726  33.894  30.394  1.00  0.00     0.198 A 
ATOM     68  C   UNL A   1      46.140  34.616  28.177  1.00  0.00     0.198 A 
ATOM     69  F   UNL A   1      45.224  33.083  26.646  1.00  0.00    -0.203 F 
ATOM     70  F   UNL A   1      47.198  34.171  31.617  1.00  0.00    -0.200 F 
ATOM     71  C   UNL A   1      46.649  34.896  29.436  1.00  0.00     0.200 A 
ATOM     72  F   UNL A   1      46.084  35.577  27.246  1.00  0.00    -0.200 F 
ATOM     73  F   UNL A   1      47.070  36.135  29.727  1.00  0.00    -0.200 F 
ENDBRANCH  40  63
ENDBRANCH  14  15
ENDBRANCH   7   9
ENDBRANCH   6   7
ENDBRANCH   5   6
ENDBRANCH   4   5
ENDBRANCH   3   4
ENDBRANCH   2   3
ENDBRANCH   1   2
BRANCH   1  74
ATOM     74  O   UNL A   1      36.099  21.467  25.764  1.00  0.00    -0.463 OA
BRANCH  74  75
ATOM     75  C   UNL A   1      35.005  22.257  25.854  1.00  0.00     0.310 C 
ATOM     76  O   UNL A   1      34.682  22.876  26.858  1.00  0.00    -0.252 OA
BRANCH  75  77
ATOM     77  C   UNL A   1      34.239  22.312  24.556  1.00  0.00     0.119 C 
ATOM     78  C   UNL A   1      33.250  23.498  24.647  1.00  0.00     0.100 C 
ATOM     79  C   UNL A   1      33.335  21.133  24.088  1.00  0.00     0.027 C 
ATOM     80  C   UNL A   1      31.922  22.831  24.199  1.00  0.00     0.025 C 
ATOM     81  C   UNL A   1      32.334  20.777  25.147  1.00  0.00    -0.027 C 
ATOM     82  C   UNL A   1      32.409  21.870  23.122  1.00  0.00     0.017 C 
ATOM     83  C   UNL A   1      31.508  21.823  25.255  1.00  0.00    -0.027 C 
BRANCH  78  84
ATOM     84  C   UNL A   1      33.774  24.632  23.779  1.00  0.00     0.224 C 
ATOM     85  O   UNL A   1      33.924  24.543  22.561  1.00  0.00    -0.275 OA
ATOM     86  N   UNL A   1      34.171  25.771  24.389  1.00  0.00    -0.352 N 
ATOM     87  H   UNL A   1      34.672  26.413  23.836  1.00  0.00     0.163 HD
BRANCH  86  88
ATOM     88  C   UNL A   1      33.942  26.144  25.752  1.00  0.00     0.155 C 
BRANCH  88  89
ATOM     89  C   UNL A   1      33.341  27.496  25.891  1.00  0.00     0.013 A 
ATOM     90  C   UNL A   1      34.103  28.398  26.672  1.00  0.00     0.009 A 
ATOM     91  C   UNL A   1      32.073  27.867  25.444  1.00  0.00     0.124 A 
ATOM     92  C   UNL A   1      33.567  29.594  27.122  1.00  0.00     0.001 A 
ATOM     93  C   UNL A   1      31.532  29.059  25.949  1.00  0.00     0.047 A 
ATOM     94  C   UNL A   1      32.259  29.906  26.791  1.00  0.00     0.004 A 
BRANCH  91  95
ATOM     95  O   UNL A   1      31.228  27.254  24.569  1.00  0.00    -0.489 OA
BRANCH  95  96
ATOM     96  C   UNL A   1      31.033  27.607  23.197  1.00  0.00     0.265 C 
BRANCH  96  97
ATOM     97  C   UNL A   1      29.862  28.489  22.808  1.00  0.00    -0.011 A 
ATOM     98  C   UNL A   1      30.112  29.653  22.054  1.00  0.00     0.007 A 
ATOM     99  C   UNL A   1      28.541  28.201  23.170  1.00  0.00     0.007 A 
ATOM    100  C   UNL A   1      29.080  30.541  21.747  1.00  0.00     0.000 A 
ATOM    101  C   UNL A   1      27.512  29.102  22.879  1.00  0.00     0.000 A 
ATOM    102  C   UNL A   1      27.783  30.277  22.178  1.00  0.00     0.000 A 
ENDBRANCH  96  97
ENDBRANCH  95  96
ENDBRANCH  91  95
ENDBRANCH  88  89
ENDBRANCH  86  88
ENDBRANCH  78  84
ENDBRANCH  75  77
ENDBRANCH  74  75
ENDBRANCH   1  74
TORSDOF 20
ENDMDL
MODEL 3
REMARK VINA RESULT:     -12.6      3.059      8.941
REMARK SMILES O=C(OCCOCCOC(=O)[C@@H]1[C@@H](C(=O)NCc2ccccc2OCc2ccccc2)[C@@H]2C=C[C@H]1C2)c1ccc(-c2c3nc(c(-c4c(F)c(F)c(F)c(F)c4F)c4ccc([nH]4)c(-c4c(F)c(F)c(F)c(F)c4F)c4nc(c(-c5c(F)c(F)c(F)c(F)c5F)c5ccc2[nH]5)C=C4)C=C3)cc1
REMARK SMILES IDX 8 1 7 2 6 3 5 4 4 5 3 6 2 7 1 8 37 9 38 10 99 11 39 12 98 13
REMARK SMILES IDX 40 14 41 15 42 16 92 17 43 18 97 19 91 20 93 21 44 22 96 23
REMARK SMILES IDX 90 24 89 25 45 27 77 28 57 29 76 30 58 31 61 32 75 33 94 34
REMARK SMILES IDX 59 35 60 36 74 38 95 39 62 40 46 41 47 42 55 43 48 44 49 45
REMARK SMILES IDX 53 46 56 47 50 48 51 49 54 50 52 51 78 52 79 53 87 54 80 55
REMARK SMILES IDX 81 56 85 57 88 58 82 59 83 60 86 61 84 62 63 63 64 64 72 65
REMARK SMILES IDX 65 66 66 67 70 68 73 69 67 70 68 71 71 72 69 73 9 74 10 75
REMARK SMILES IDX 11 76 12 77 13 78 35 79 32 80 34 81 36 82 33 83 14 84 15 85
REMARK SMILES IDX 16 86 17 88 18 89 19 90 23 91 20 92 22 93 21 94 24 95 25 96
REMARK SMILES IDX 26 97 27 98 31 99 28 100 30 101 29 102
REMARK H PARENT 93 26 61 37 16 87
REMARK Flexibility Score: inf
ROOT
ATOM      1  C   UNL A   1      36.880  23.132  24.605  1.00  0.00     0.261 C 
ENDROOT
BRANCH   1   2
ATOM      2  C   UNL A   1      37.787  23.514  25.775  1.00  0.00     0.202 C 
BRANCH   2   3
ATOM      3  O   UNL A   1      38.739  22.468  26.020  1.00  0.00    -0.374 OA
BRANCH   3   4
ATOM      4  C   UNL A   1      38.294  21.114  25.893  1.00  0.00     0.202 C 
BRANCH   4   5
ATOM      5  C   UNL A   1      39.182  20.126  25.132  1.00  0.00     0.261 C 
BRANCH   5   6
ATOM      6  O   UNL A   1      40.110  19.492  26.017  1.00  0.00    -0.460 OA
BRANCH   6   7
ATOM      7  C   UNL A   1      41.443  19.698  26.073  1.00  0.00     0.338 C 
ATOM      8  O   UNL A   1      42.194  18.779  25.745  1.00  0.00    -0.246 OA
BRANCH   7   9
ATOM      9  C   UNL A   1      42.064  20.984  26.518  1.00  0.00     0.060 A 
ATOM     10  C   UNL A   1      42.317  21.357  27.844  1.00  0.00     0.016 A 
ATOM     11  C   UNL A   1      42.518  21.836  25.501  1.00  0.00     0.016 A 
ATOM     12  C   UNL A   1      43.005  22.503  28.170  1.00  0.00     0.010 A 
ATOM     13  C   UNL A   1      43.181  23.021  25.812  1.00  0.00     0.010 A 
ATOM     14  C   UNL A   1      43.408  23.345  27.151  1.00  0.00    -0.014 A 
BRANCH  14  15
ATOM     15  C   UNL A   1      43.860  24.670  27.557  1.00  0.00     0.031 A 
ATOM     16  C   UNL A   1      42.807  25.628  27.996  1.00  0.00     0.074 A 
ATOM     17  C   UNL A   1      45.171  24.919  27.650  1.00  0.00     0.049 A 
ATOM     18  N   UNL A   1      42.905  26.895  28.268  1.00  0.00    -0.248 NA
ATOM     19  C   UNL A   1      41.451  25.072  28.161  1.00  0.00     0.031 C 
ATOM     20  C   UNL A   1      46.234  23.940  27.417  1.00  0.00     0.029 A 
ATOM     21  N   UNL A   1      45.829  26.070  27.970  1.00  0.00    -0.354 N 
ATOM     22  C   UNL A   1      41.617  27.301  28.584  1.00  0.00     0.074 A 
ATOM     23  C   UNL A   1      40.757  26.147  28.494  1.00  0.00     0.031 C 
ATOM     24  C   UNL A   1      47.422  24.548  27.566  1.00  0.00     0.029 A 
ATOM     25  C   UNL A   1      47.188  25.964  27.828  1.00  0.00     0.049 A 
ATOM     26  H   UNL A   1      45.375  26.890  28.270  1.00  0.00     0.167 HD
ATOM     27  C   UNL A   1      41.210  28.551  28.889  1.00  0.00     0.037 A 
ATOM     28  C   UNL A   1      48.114  26.938  27.839  1.00  0.00     0.037 A 
ATOM     29  C   UNL A   1      42.122  29.659  28.940  1.00  0.00     0.049 A 
ATOM     30  C   UNL A   1      47.630  28.343  28.072  1.00  0.00     0.074 A 
ATOM     31  C   UNL A   1      41.859  30.995  29.164  1.00  0.00     0.029 A 
ATOM     32  N   UNL A   1      43.496  29.540  28.747  1.00  0.00    -0.354 N 
ATOM     33  N   UNL A   1      46.403  28.768  28.281  1.00  0.00    -0.248 NA
ATOM     34  C   UNL A   1      48.639  29.404  28.057  1.00  0.00     0.031 C 
ATOM     35  C   UNL A   1      43.068  31.689  29.050  1.00  0.00     0.029 A 
ATOM     36  C   UNL A   1      44.095  30.781  28.824  1.00  0.00     0.049 A 
ATOM     37  H   UNL A   1      43.971  28.693  28.579  1.00  0.00     0.167 HD
ATOM     38  C   UNL A   1      46.492  30.140  28.450  1.00  0.00     0.074 A 
ATOM     39  C   UNL A   1      47.899  30.476  28.315  1.00  0.00     0.031 C 
ATOM     40  C   UNL A   1      45.511  31.044  28.698  1.00  0.00     0.037 A 
BRANCH  27  41
ATOM     41  C   UNL A   1      39.733  28.760  29.047  1.00  0.00     0.064 A 
ATOM     42  C   UNL A   1      38.920  29.210  27.996  1.00  0.00     0.173 A 
ATOM     43  C   UNL A   1      39.139  28.598  30.308  1.00  0.00     0.173 A 
ATOM     44  F   UNL A   1      39.443  29.419  26.778  1.00  0.00    -0.203 F 
ATOM     45  C   UNL A   1      37.584  29.541  28.214  1.00  0.00     0.198 A 
ATOM     46  C   UNL A   1      37.794  28.897  30.515  1.00  0.00     0.198 A 
ATOM     47  F   UNL A   1      39.872  28.184  31.353  1.00  0.00    -0.203 F 
ATOM     48  F   UNL A   1      36.850  30.057  27.216  1.00  0.00    -0.200 F 
ATOM     49  C   UNL A   1      37.022  29.383  29.472  1.00  0.00     0.200 A 
ATOM     50  F   UNL A   1      37.256  28.743  31.732  1.00  0.00    -0.200 F 
ATOM     51  F   UNL A   1      35.744  29.722  29.685  1.00  0.00    -0.200 F 
ENDBRANCH  27  41
BRANCH  28  52
ATOM     52  C   UNL A   1      49.532  26.604  27.558  1.00  0.00     0.064 A 
ATOM     53  C   UNL A   1      50.022  26.551  26.248  1.00  0.00     0.173 A 
ATOM     54  C   UNL A   1      50.447  26.391  28.603  1.00  0.00     0.173 A 
ATOM     55  F   UNL A   1      49.189  26.734  25.214  1.00  0.00    -0.203 F 
ATOM     56  C   UNL A   1      51.370  26.296  25.994  1.00  0.00     0.198 A 
ATOM     57  C   UNL A   1      51.797  26.164  28.350  1.00  0.00     0.198 A 
ATOM     58  F   UNL A   1      50.032  26.436  29.879  1.00  0.00    -0.203 F 
ATOM     59  F   UNL A   1      51.809  26.229  24.729  1.00  0.00    -0.200 F 
ATOM     60  C   UNL A   1      52.258  26.114  27.044  1.00  0.00     0.200 A 
ATOM     61  F   UNL A   1      52.652  26.008  29.370  1.00  0.00    -0.200 F 
ATOM     62  F   UNL A   1      53.555  25.888  26.798  1.00  0.00    -0.200 F 
ENDBRANCH  28  52
BRANCH  40  63
ATOM     63  C   UNL A   1      45.932  32.466  28.895  1.00  0.00     0.064 A 
ATOM     64  C   UNL A   1      45.949  33.383  27.837  1.00  0.00     0.173 A 
ATOM     65  C   UNL A   1      46.210  32.935  30.188  1.00  0.00     0.173 A 
ATOM     66  F   UNL A   1      45.702  32.973  26.583  1.00  0.00    -0.203 F 
ATOM     67  C   UNL A   1      46.233  34.725  28.067  1.00  0.00     0.198 A 
ATOM     68  C   UNL A   1      46.463  34.281  30.418  1.00  0.00     0.198 A 
ATOM     69  F   UNL A   1      46.194  32.091  31.232  1.00  0.00    -0.203 F 
ATOM     70  F   UNL A   1      46.268  35.585  27.039  1.00  0.00    -0.200 F 
ATOM     71  C   UNL A   1      46.475  35.175  29.358  1.00  0.00     0.200 A 
ATOM     72  F   UNL A   1      46.676  34.718  31.666  1.00  0.00    -0.200 F 
ATOM     73  F   UNL A   1      46.719  36.473  29.580  1.00  0.00    -0.200 F 
ENDBRANCH  40  63
ENDBRANCH  14  15
ENDBRANCH   7   9
ENDBRANCH   6   7
ENDBRANCH   5   6
ENDBRANCH   4   5
ENDBRANCH   3   4
ENDBRANCH   2   3
ENDBRANCH   1   2
BRANCH   1  74
ATOM     74  O   UNL A   1      35.561  23.011  25.131  1.00  0.00    -0.463 OA
BRANCH  74  75
ATOM     75  C   UNL A   1      34.854  22.009  24.561  1.00  0.00     0.310 C 
ATOM     76  O   UNL A   1      35.112  20.821  24.693  1.00  0.00    -0.252 OA
BRANCH  75  77
ATOM     77  C   UNL A   1      33.685  22.526  23.761  1.00  0.00     0.119 C 
ATOM     78  C   UNL A   1      33.224  23.852  24.411  1.00  0.00     0.100 C 
ATOM     79  C   UNL A   1      32.360  21.717  23.631  1.00  0.00     0.027 C 
ATOM     80  C   UNL A   1      31.695  23.620  24.542  1.00  0.00     0.025 C 
ATOM     81  C   UNL A   1      31.815  21.366  24.984  1.00  0.00    -0.027 C 
ATOM     82  C   UNL A   1      31.392  22.842  23.268  1.00  0.00     0.017 C 
ATOM     83  C   UNL A   1      31.460  22.519  25.561  1.00  0.00    -0.027 C 
BRANCH  78  84
ATOM     84  C   UNL A   1      33.668  25.005  23.522  1.00  0.00     0.224 C 
ATOM     85  O   UNL A   1      33.746  24.928  22.298  1.00  0.00    -0.275 OA
ATOM     86  N   UNL A   1      34.073  26.149  24.118  1.00  0.00    -0.352 N 
ATOM     87  H   UNL A   1      34.524  26.807  23.542  1.00  0.00     0.163 HD
BRANCH  86  88
ATOM     88  C   UNL A   1      33.917  26.506  25.495  1.00  0.00     0.155 C 
BRANCH  88  89
ATOM     89  C   UNL A   1      33.471  27.911  25.684  1.00  0.00     0.013 A 
ATOM     90  C   UNL A   1      33.920  28.511  26.886  1.00  0.00     0.009 A 
ATOM     91  C   UNL A   1      32.570  28.590  24.865  1.00  0.00     0.124 A 
ATOM     92  C   UNL A   1      33.381  29.704  27.341  1.00  0.00     0.001 A 
ATOM     93  C   UNL A   1      32.003  29.771  25.367  1.00  0.00     0.047 A 
ATOM     94  C   UNL A   1      32.386  30.315  26.596  1.00  0.00     0.004 A 
BRANCH  91  95
ATOM     95  O   UNL A   1      32.120  28.300  23.612  1.00  0.00    -0.489 OA
BRANCH  95  96
ATOM     96  C   UNL A   1      30.845  27.741  23.282  1.00  0.00     0.265 C 
BRANCH  96  97
ATOM     97  C   UNL A   1      29.726  28.649  22.812  1.00  0.00    -0.011 A 
ATOM     98  C   UNL A   1      30.048  29.773  22.027  1.00  0.00     0.007 A 
ATOM     99  C   UNL A   1      28.380  28.423  23.129  1.00  0.00     0.007 A 
ATOM    100  C   UNL A   1      29.063  30.685  21.644  1.00  0.00     0.000 A 
ATOM    101  C   UNL A   1      27.398  29.348  22.762  1.00  0.00     0.000 A 
ATOM    102  C   UNL A   1      27.742  30.484  22.030  1.00  0.00     0.000 A 
ENDBRANCH  96  97
ENDBRANCH  95  96
ENDBRANCH  91  95
ENDBRANCH  88  89
ENDBRANCH  86  88
ENDBRANCH  78  84
ENDBRANCH  75  77
ENDBRANCH  74  75
ENDBRANCH   1  74
TORSDOF 20
ENDMDL
