MODEL 1
REMARK VINA RESULT:     -11.4      0.000      0.000
REMARK SMILES [NH3+][C@@](C(=O)OCCOCCOC(=O)c1ccc(-c2c3nc(c(-c4c(F)c(F)c(F)c(F)c4F)c4ccc([nH]4)c(-c4c(F)c(F)c(F)c(F)c4F)c4nc(c(-c5c(F)c(F)c(F)c(F)c5F)c5ccc2[nH]5)C=C4)C=C3)cc1)(c1ccc(P(=O)([O-])[O-])cc1)C1CC1
REMARK SMILES IDX 8 1 7 2 6 3 5 4 3 5 4 6 2 7 1 8 77 12 78 13 86 14 79 15
REMARK SMILES IDX 85 16 80 17 81 18 82 19 83 20 84 21 87 22 88 23 89 24 9 25
REMARK SMILES IDX 10 26 11 27 12 28 13 29 14 30 15 31 76 32 16 33 75 34 17 35
REMARK SMILES IDX 18 36 19 37 69 38 20 39 74 40 68 41 70 42 21 43 73 44 67 45
REMARK SMILES IDX 66 46 22 48 54 49 34 50 53 51 35 52 38 53 52 54 71 55 36 56
REMARK SMILES IDX 37 57 51 59 72 60 39 61 23 62 24 63 32 64 25 65 26 66 30 67
REMARK SMILES IDX 33 68 27 69 28 70 31 71 29 72 55 73 56 74 64 75 57 76 58 77
REMARK SMILES IDX 62 78 65 79 59 80 60 81 63 82 61 83 40 84 41 85 49 86 42 87
REMARK SMILES IDX 43 88 47 89 50 90 44 91 45 92 48 93 46 94
REMARK H PARENT 1 9 1 10 1 11 70 47 38 58
REMARK Flexibility Score: inf
ROOT
ATOM      1  O   UNL A   1      31.023  27.799  25.192  1.00  0.00    -0.374 OA
ENDROOT
BRANCH   1   2
ATOM      2  C   UNL A   1      31.102  26.621  24.392  1.00  0.00     0.202 C 
BRANCH   2   3
ATOM      3  C   UNL A   1      30.630  25.320  25.045  1.00  0.00     0.261 C 
BRANCH   3   4
ATOM      4  O   UNL A   1      31.743  24.487  25.404  1.00  0.00    -0.458 OA
BRANCH   4   5
ATOM      5  C   UNL A   1      31.595  23.166  25.084  1.00  0.00     0.373 C 
ATOM      6  O   UNL A   1      30.791  22.416  25.633  1.00  0.00    -0.244 OA
BRANCH   5   7
ATOM      7  C   UNL A   1      32.579  22.707  23.924  1.00  0.00     0.221 C 
BRANCH   7   8
ATOM      8  N   UNL A   1      32.018  23.024  22.580  1.00  0.00    -0.339 N 
ATOM      9  H   UNL A   1      32.055  24.031  22.425  1.00  0.00     0.345 HD
ATOM     10  H   UNL A   1      31.050  22.709  22.532  1.00  0.00     0.345 HD
ATOM     11  H   UNL A   1      32.566  22.549  21.862  1.00  0.00     0.345 HD
ENDBRANCH   7   8
BRANCH   7  12
ATOM     12  C   UNL A   1      32.846  21.181  24.006  1.00  0.00     0.024 A 
ATOM     13  C   UNL A   1      32.176  20.256  23.186  1.00  0.00     0.011 A 
ATOM     14  C   UNL A   1      33.722  20.633  24.967  1.00  0.00     0.011 A 
ATOM     15  C   UNL A   1      32.452  18.880  23.238  1.00  0.00     0.010 A 
ATOM     16  C   UNL A   1      33.979  19.257  25.038  1.00  0.00     0.010 A 
ATOM     17  C   UNL A   1      33.375  18.366  24.152  1.00  0.00    -0.016 A 
BRANCH  17  18
ATOM     18  P   UNL A   1      33.798  16.661  24.219  1.00  0.00    -0.038 P 
ATOM     19  O   UNL A   1      32.835  15.684  24.810  1.00  0.00    -0.352 OA
ATOM     20  O   UNL A   1      34.217  16.251  22.722  1.00  0.00    -0.807 OA
ATOM     21  O   UNL A   1      35.243  16.528  24.908  1.00  0.00    -0.807 OA
ENDBRANCH  17  18
ENDBRANCH   7  12
BRANCH   7  22
ATOM     22  C   UNL A   1      33.791  23.639  24.055  1.00  0.00     0.067 C 
ATOM     23  C   UNL A   1      35.134  23.422  23.396  1.00  0.00     0.012 C 
ATOM     24  C   UNL A   1      34.282  24.596  22.988  1.00  0.00     0.012 C 
ENDBRANCH   7  22
ENDBRANCH   5   7
ENDBRANCH   4   5
ENDBRANCH   3   4
ENDBRANCH   2   3
ENDBRANCH   1   2
BRANCH   1  25
ATOM     25  C   UNL A   1      32.095  28.738  25.106  1.00  0.00     0.202 C 
BRANCH  25  26
ATOM     26  C   UNL A   1      31.870  30.121  25.730  1.00  0.00     0.261 C 
BRANCH  26  27
ATOM     27  O   UNL A   1      32.464  30.237  27.036  1.00  0.00    -0.460 OA
BRANCH  27  28
ATOM     28  C   UNL A   1      33.172  31.374  27.234  1.00  0.00     0.338 C 
ATOM     29  O   UNL A   1      32.752  32.525  27.202  1.00  0.00    -0.246 OA
BRANCH  28  30
ATOM     30  C   UNL A   1      34.533  31.056  27.697  1.00  0.00     0.060 A 
ATOM     31  C   UNL A   1      34.817  29.717  27.997  1.00  0.00     0.016 A 
ATOM     32  C   UNL A   1      35.483  32.053  27.929  1.00  0.00     0.016 A 
ATOM     33  C   UNL A   1      36.032  29.374  28.582  1.00  0.00     0.010 A 
ATOM     34  C   UNL A   1      36.699  31.708  28.528  1.00  0.00     0.010 A 
ATOM     35  C   UNL A   1      36.962  30.375  28.893  1.00  0.00    -0.014 A 
BRANCH  35  36
ATOM     36  C   UNL A   1      38.126  30.041  29.747  1.00  0.00     0.031 A 
ATOM     37  C   UNL A   1      39.170  29.101  29.213  1.00  0.00     0.074 A 
ATOM     38  C   UNL A   1      38.272  30.599  30.961  1.00  0.00     0.049 A 
ATOM     39  N   UNL A   1      40.262  28.658  29.784  1.00  0.00    -0.248 NA
ATOM     40  C   UNL A   1      38.955  28.590  27.850  1.00  0.00     0.031 C 
ATOM     41  C   UNL A   1      37.350  31.557  31.565  1.00  0.00     0.029 A 
ATOM     42  N   UNL A   1      39.256  30.434  31.903  1.00  0.00    -0.354 N 
ATOM     43  C   UNL A   1      40.858  27.816  28.854  1.00  0.00     0.074 A 
ATOM     44  C   UNL A   1      39.996  27.786  27.693  1.00  0.00     0.031 C 
ATOM     45  C   UNL A   1      37.809  31.892  32.784  1.00  0.00     0.029 A 
ATOM     46  C   UNL A   1      39.039  31.151  33.053  1.00  0.00     0.049 A 
ATOM     47  H   UNL A   1      40.043  29.858  31.766  1.00  0.00     0.167 HD
ATOM     48  C   UNL A   1      42.024  27.135  28.958  1.00  0.00     0.037 A 
ATOM     49  C   UNL A   1      39.746  31.186  34.199  1.00  0.00     0.037 A 
ATOM     50  C   UNL A   1      42.882  27.171  30.112  1.00  0.00     0.049 A 
ATOM     51  C   UNL A   1      41.005  30.366  34.315  1.00  0.00     0.074 A 
ATOM     52  C   UNL A   1      44.097  26.537  30.306  1.00  0.00     0.029 A 
ATOM     53  N   UNL A   1      42.609  27.877  31.275  1.00  0.00    -0.354 N 
ATOM     54  N   UNL A   1      41.576  29.593  33.423  1.00  0.00    -0.248 NA
ATOM     55  C   UNL A   1      41.718  30.424  35.600  1.00  0.00     0.031 C 
ATOM     56  C   UNL A   1      44.536  26.820  31.604  1.00  0.00     0.029 A 
ATOM     57  C   UNL A   1      43.619  27.672  32.201  1.00  0.00     0.049 A 
ATOM     58  H   UNL A   1      41.815  28.441  31.420  1.00  0.00     0.167 HD
ATOM     59  C   UNL A   1      42.725  29.097  34.024  1.00  0.00     0.074 A 
ATOM     60  C   UNL A   1      42.778  29.665  35.356  1.00  0.00     0.031 C 
ATOM     61  C   UNL A   1      43.657  28.251  33.519  1.00  0.00     0.037 A 
BRANCH  48  62
ATOM     62  C   UNL A   1      42.426  26.270  27.800  1.00  0.00     0.064 A 
ATOM     63  C   UNL A   1      43.325  26.716  26.821  1.00  0.00     0.173 A 
ATOM     64  C   UNL A   1      41.926  24.963  27.686  1.00  0.00     0.173 A 
ATOM     65  F   UNL A   1      43.819  27.962  26.877  1.00  0.00    -0.203 F 
ATOM     66  C   UNL A   1      43.690  25.896  25.756  1.00  0.00     0.198 A 
ATOM     67  C   UNL A   1      42.314  24.137  26.636  1.00  0.00     0.198 A 
ATOM     68  F   UNL A   1      41.064  24.487  28.598  1.00  0.00    -0.203 F 
ATOM     69  F   UNL A   1      44.516  26.359  24.808  1.00  0.00    -0.200 F 
ATOM     70  C   UNL A   1      43.190  24.605  25.668  1.00  0.00     0.200 A 
ATOM     71  F   UNL A   1      41.837  22.886  26.557  1.00  0.00    -0.200 F 
ATOM     72  F   UNL A   1      43.546  23.815  24.646  1.00  0.00    -0.200 F 
ENDBRANCH  48  62
BRANCH  49  73
ATOM     73  C   UNL A   1      39.280  32.024  35.334  1.00  0.00     0.064 A 
ATOM     74  C   UNL A   1      39.637  33.376  35.430  1.00  0.00     0.173 A 
ATOM     75  C   UNL A   1      38.479  31.486  36.352  1.00  0.00     0.173 A 
ATOM     76  F   UNL A   1      40.422  33.929  34.494  1.00  0.00    -0.203 F 
ATOM     77  C   UNL A   1      39.224  34.154  36.510  1.00  0.00     0.198 A 
ATOM     78  C   UNL A   1      38.044  32.271  37.417  1.00  0.00     0.198 A 
ATOM     79  F   UNL A   1      38.112  30.197  36.308  1.00  0.00    -0.203 F 
ATOM     80  F   UNL A   1      39.614  35.433  36.599  1.00  0.00    -0.200 F 
ATOM     81  C   UNL A   1      38.422  33.603  37.499  1.00  0.00     0.200 A 
ATOM     82  F   UNL A   1      37.262  31.738  38.365  1.00  0.00    -0.200 F 
ATOM     83  F   UNL A   1      38.023  34.353  38.534  1.00  0.00    -0.200 F 
ENDBRANCH  49  73
BRANCH  61  84
ATOM     84  C   UNL A   1      44.828  27.913  34.395  1.00  0.00     0.064 A 
ATOM     85  C   UNL A   1      44.819  26.791  35.235  1.00  0.00     0.173 A 
ATOM     86  C   UNL A   1      45.991  28.699  34.358  1.00  0.00     0.173 A 
ATOM     87  F   UNL A   1      43.727  26.017  35.316  1.00  0.00    -0.203 F 
ATOM     88  C   UNL A   1      45.923  26.480  36.024  1.00  0.00     0.198 A 
ATOM     89  C   UNL A   1      47.103  28.369  35.127  1.00  0.00     0.198 A 
ATOM     90  F   UNL A   1      46.052  29.779  33.565  1.00  0.00    -0.203 F 
ATOM     91  F   UNL A   1      45.877  25.428  36.853  1.00  0.00    -0.200 F 
ATOM     92  C   UNL A   1      47.066  27.265  35.964  1.00  0.00     0.200 A 
ATOM     93  F   UNL A   1      48.210  29.120  35.057  1.00  0.00    -0.200 F 
ATOM     94  F   UNL A   1      48.131  26.959  36.719  1.00  0.00    -0.200 F 
ENDBRANCH  61  84
ENDBRANCH  35  36
ENDBRANCH  28  30
ENDBRANCH  27  28
ENDBRANCH  26  27
ENDBRANCH  25  26
ENDBRANCH   1  25
TORSDOF 18
ENDMDL
MODEL 2
REMARK VINA RESULT:     -11.4      4.510     10.002
REMARK SMILES [NH3+][C@@](C(=O)OCCOCCOC(=O)c1ccc(-c2c3nc(c(-c4c(F)c(F)c(F)c(F)c4F)c4ccc([nH]4)c(-c4c(F)c(F)c(F)c(F)c4F)c4nc(c(-c5c(F)c(F)c(F)c(F)c5F)c5ccc2[nH]5)C=C4)C=C3)cc1)(c1ccc(P(=O)([O-])[O-])cc1)C1CC1
REMARK SMILES IDX 8 1 7 2 6 3 5 4 3 5 4 6 2 7 1 8 77 12 78 13 86 14 79 15
REMARK SMILES IDX 85 16 80 17 81 18 82 19 83 20 84 21 87 22 88 23 89 24 9 25
REMARK SMILES IDX 10 26 11 27 12 28 13 29 14 30 15 31 76 32 16 33 75 34 17 35
REMARK SMILES IDX 18 36 19 37 69 38 20 39 74 40 68 41 70 42 21 43 73 44 67 45
REMARK SMILES IDX 66 46 22 48 54 49 34 50 53 51 35 52 38 53 52 54 71 55 36 56
REMARK SMILES IDX 37 57 51 59 72 60 39 61 23 62 24 63 32 64 25 65 26 66 30 67
REMARK SMILES IDX 33 68 27 69 28 70 31 71 29 72 55 73 56 74 64 75 57 76 58 77
REMARK SMILES IDX 62 78 65 79 59 80 60 81 63 82 61 83 40 84 41 85 49 86 42 87
REMARK SMILES IDX 43 88 47 89 50 90 44 91 45 92 48 93 46 94
REMARK H PARENT 1 9 1 10 1 11 70 47 38 58
REMARK Flexibility Score: inf
ROOT
ATOM      1  O   UNL A   1      34.512  20.984  24.393  1.00  0.00    -0.374 OA
ENDROOT
BRANCH   1   2
ATOM      2  C   UNL A   1      33.271  21.685  24.368  1.00  0.00     0.202 C 
BRANCH   2   3
ATOM      3  C   UNL A   1      32.772  22.138  22.994  1.00  0.00     0.261 C 
BRANCH   3   4
ATOM      4  O   UNL A   1      31.796  23.185  23.116  1.00  0.00    -0.458 OA
BRANCH   4   5
ATOM      5  C   UNL A   1      32.256  24.435  22.805  1.00  0.00     0.373 C 
ATOM      6  O   UNL A   1      32.747  24.731  21.719  1.00  0.00    -0.244 OA
BRANCH   5   7
ATOM      7  C   UNL A   1      32.088  25.460  24.007  1.00  0.00     0.221 C 
BRANCH   7   8
ATOM      8  N   UNL A   1      31.559  24.786  25.226  1.00  0.00    -0.339 N 
ATOM      9  H   UNL A   1      30.579  25.036  25.355  1.00  0.00     0.345 HD
ATOM     10  H   UNL A   1      32.095  25.084  26.040  1.00  0.00     0.345 HD
ATOM     11  H   UNL A   1      31.640  23.774  25.118  1.00  0.00     0.345 HD
ENDBRANCH   7   8
BRANCH   7  12
ATOM     12  C   UNL A   1      31.123  26.609  23.613  1.00  0.00     0.024 A 
ATOM     13  C   UNL A   1      31.570  27.782  22.978  1.00  0.00     0.011 A 
ATOM     14  C   UNL A   1      29.752  26.570  23.942  1.00  0.00     0.011 A 
ATOM     15  C   UNL A   1      30.685  28.799  22.588  1.00  0.00     0.010 A 
ATOM     16  C   UNL A   1      28.871  27.597  23.577  1.00  0.00     0.010 A 
ATOM     17  C   UNL A   1      29.319  28.709  22.865  1.00  0.00    -0.016 A 
BRANCH  17  18
ATOM     18  P   UNL A   1      28.161  29.927  22.347  1.00  0.00    -0.038 P 
ATOM     19  O   UNL A   1      28.010  30.230  20.892  1.00  0.00    -0.352 OA
ATOM     20  O   UNL A   1      26.760  29.518  23.019  1.00  0.00    -0.807 OA
ATOM     21  O   UNL A   1      28.436  31.270  23.184  1.00  0.00    -0.807 OA
ENDBRANCH  17  18
ENDBRANCH   7  12
BRANCH   7  22
ATOM     22  C   UNL A   1      33.524  25.850  24.387  1.00  0.00     0.067 C 
ATOM     23  C   UNL A   1      33.916  26.655  25.604  1.00  0.00     0.012 C 
ATOM     24  C   UNL A   1      34.343  25.214  25.490  1.00  0.00     0.012 C 
ENDBRANCH   7  22
ENDBRANCH   5   7
ENDBRANCH   4   5
ENDBRANCH   3   4
ENDBRANCH   2   3
ENDBRANCH   1   2
BRANCH   1  25
ATOM     25  C   UNL A   1      35.601  21.582  25.097  1.00  0.00     0.202 C 
BRANCH  25  26
ATOM     26  C   UNL A   1      36.882  20.750  25.248  1.00  0.00     0.261 C 
BRANCH  26  27
ATOM     27  O   UNL A   1      38.073  21.543  25.091  1.00  0.00    -0.460 OA
BRANCH  27  28
ATOM     28  C   UNL A   1      39.063  21.254  25.969  1.00  0.00     0.338 C 
ATOM     29  O   UNL A   1      39.602  20.168  26.147  1.00  0.00    -0.246 OA
BRANCH  28  30
ATOM     30  C   UNL A   1      39.573  22.486  26.591  1.00  0.00     0.060 A 
ATOM     31  C   UNL A   1      39.060  23.705  26.126  1.00  0.00     0.016 A 
ATOM     32  C   UNL A   1      40.600  22.462  27.537  1.00  0.00     0.016 A 
ATOM     33  C   UNL A   1      39.610  24.907  26.563  1.00  0.00     0.010 A 
ATOM     34  C   UNL A   1      41.159  23.671  27.966  1.00  0.00     0.010 A 
ATOM     35  C   UNL A   1      40.693  24.894  27.450  1.00  0.00    -0.014 A 
BRANCH  35  36
ATOM     36  C   UNL A   1      41.436  26.152  27.702  1.00  0.00     0.031 A 
ATOM     37  C   UNL A   1      40.757  27.255  28.464  1.00  0.00     0.074 A 
ATOM     38  C   UNL A   1      42.709  26.292  27.295  1.00  0.00     0.049 A 
ATOM     39  N   UNL A   1      41.205  28.441  28.789  1.00  0.00    -0.248 NA
ATOM     40  C   UNL A   1      39.385  26.985  28.922  1.00  0.00     0.031 C 
ATOM     41  C   UNL A   1      43.486  25.277  26.589  1.00  0.00     0.029 A 
ATOM     42  N   UNL A   1      43.571  27.352  27.420  1.00  0.00    -0.354 N 
ATOM     43  C   UNL A   1      40.172  29.057  29.483  1.00  0.00     0.074 A 
ATOM     44  C   UNL A   1      39.064  28.128  29.509  1.00  0.00     0.031 C 
ATOM     45  C   UNL A   1      44.713  25.766  26.334  1.00  0.00     0.029 A 
ATOM     46  C   UNL A   1      44.795  27.137  26.836  1.00  0.00     0.049 A 
ATOM     47  H   UNL A   1      43.336  28.187  27.885  1.00  0.00     0.167 HD
ATOM     48  C   UNL A   1      40.154  30.285  30.053  1.00  0.00     0.037 A 
ATOM     49  C   UNL A   1      45.851  27.962  26.705  1.00  0.00     0.037 A 
ATOM     50  C   UNL A   1      41.259  31.205  30.030  1.00  0.00     0.049 A 
ATOM     51  C   UNL A   1      45.780  29.349  27.289  1.00  0.00     0.074 A 
ATOM     52  C   UNL A   1      41.349  32.463  30.600  1.00  0.00     0.029 A 
ATOM     53  N   UNL A   1      42.469  30.967  29.394  1.00  0.00    -0.354 N 
ATOM     54  N   UNL A   1      44.810  29.915  27.967  1.00  0.00    -0.248 NA
ATOM     55  C   UNL A   1      46.954  30.213  27.091  1.00  0.00     0.031 C 
ATOM     56  C   UNL A   1      42.595  33.006  30.267  1.00  0.00     0.029 A 
ATOM     57  C   UNL A   1      43.301  32.066  29.533  1.00  0.00     0.049 A 
ATOM     58  H   UNL A   1      42.701  30.139  28.914  1.00  0.00     0.167 HD
ATOM     59  C   UNL A   1      45.264  31.184  28.299  1.00  0.00     0.074 A 
ATOM     60  C   UNL A   1      46.603  31.304  27.758  1.00  0.00     0.031 C 
ATOM     61  C   UNL A   1      44.633  32.163  28.993  1.00  0.00     0.037 A 
BRANCH  48  62
ATOM     62  C   UNL A   1      38.885  30.716  30.728  1.00  0.00     0.064 A 
ATOM     63  C   UNL A   1      37.802  31.235  30.002  1.00  0.00     0.173 A 
ATOM     64  C   UNL A   1      38.739  30.580  32.117  1.00  0.00     0.173 A 
ATOM     65  F   UNL A   1      37.896  31.400  28.674  1.00  0.00    -0.203 F 
ATOM     66  C   UNL A   1      36.630  31.625  30.646  1.00  0.00     0.198 A 
ATOM     67  C   UNL A   1      37.557  30.946  32.753  1.00  0.00     0.198 A 
ATOM     68  F   UNL A   1      39.745  30.087  32.856  1.00  0.00    -0.203 F 
ATOM     69  F   UNL A   1      35.625  32.160  29.939  1.00  0.00    -0.200 F 
ATOM     70  C   UNL A   1      36.506  31.474  32.019  1.00  0.00     0.200 A 
ATOM     71  F   UNL A   1      37.436  30.790  34.079  1.00  0.00    -0.200 F 
ATOM     72  F   UNL A   1      35.376  31.845  32.637  1.00  0.00    -0.200 F 
ENDBRANCH  48  62
BRANCH  49  73
ATOM     73  C   UNL A   1      47.068  27.503  25.987  1.00  0.00     0.064 A 
ATOM     74  C   UNL A   1      48.146  26.935  26.679  1.00  0.00     0.173 A 
ATOM     75  C   UNL A   1      47.182  27.635  24.595  1.00  0.00     0.173 A 
ATOM     76  F   UNL A   1      48.094  26.812  28.014  1.00  0.00    -0.203 F 
ATOM     77  C   UNL A   1      49.300  26.532  26.008  1.00  0.00     0.198 A 
ATOM     78  C   UNL A   1      48.323  27.206  23.922  1.00  0.00     0.198 A 
ATOM     79  F   UNL A   1      46.179  28.173  23.887  1.00  0.00    -0.203 F 
ATOM     80  F   UNL A   1      50.333  26.032  26.699  1.00  0.00    -0.200 F 
ATOM     81  C   UNL A   1      49.384  26.661  24.630  1.00  0.00     0.200 A 
ATOM     82  F   UNL A   1      48.397  27.323  22.590  1.00  0.00    -0.200 F 
ATOM     83  F   UNL A   1      50.492  26.270  23.986  1.00  0.00    -0.200 F 
ENDBRANCH  49  73
BRANCH  61  84
ATOM     84  C   UNL A   1      45.391  33.435  29.235  1.00  0.00     0.064 A 
ATOM     85  C   UNL A   1      46.225  33.595  30.351  1.00  0.00     0.173 A 
ATOM     86  C   UNL A   1      45.316  34.492  28.314  1.00  0.00     0.173 A 
ATOM     87  F   UNL A   1      46.320  32.619  31.267  1.00  0.00    -0.203 F 
ATOM     88  C   UNL A   1      46.938  34.774  30.548  1.00  0.00     0.198 A 
ATOM     89  C   UNL A   1      46.052  35.658  28.499  1.00  0.00     0.198 A 
ATOM     90  F   UNL A   1      44.538  34.387  27.226  1.00  0.00    -0.203 F 
ATOM     91  F   UNL A   1      47.695  34.921  31.644  1.00  0.00    -0.200 F 
ATOM     92  C   UNL A   1      46.857  35.801  29.619  1.00  0.00     0.200 A 
ATOM     93  F   UNL A   1      45.983  36.644  27.595  1.00  0.00    -0.200 F 
ATOM     94  F   UNL A   1      47.551  36.933  29.807  1.00  0.00    -0.200 F 
ENDBRANCH  61  84
ENDBRANCH  35  36
ENDBRANCH  28  30
ENDBRANCH  27  28
ENDBRANCH  26  27
ENDBRANCH  25  26
ENDBRANCH   1  25
TORSDOF 18
ENDMDL
MODEL 3
REMARK VINA RESULT:     -11.4      0.578      2.039
REMARK SMILES [NH3+][C@@](C(=O)OCCOCCOC(=O)c1ccc(-c2c3nc(c(-c4c(F)c(F)c(F)c(F)c4F)c4ccc([nH]4)c(-c4c(F)c(F)c(F)c(F)c4F)c4nc(c(-c5c(F)c(F)c(F)c(F)c5F)c5ccc2[nH]5)C=C4)C=C3)cc1)(c1ccc(P(=O)([O-])[O-])cc1)C1CC1
REMARK SMILES IDX 8 1 7 2 6 3 5 4 3 5 4 6 2 7 1 8 77 12 78 13 86 14 79 15
REMARK SMILES IDX 85 16 80 17 81 18 82 19 83 20 84 21 87 22 88 23 89 24 9 25
REMARK SMILES IDX 10 26 11 27 12 28 13 29 14 30 15 31 76 32 16 33 75 34 17 35
REMARK SMILES IDX 18 36 19 37 69 38 20 39 74 40 68 41 70 42 21 43 73 44 67 45
REMARK SMILES IDX 66 46 22 48 54 49 34 50 53 51 35 52 38 53 52 54 71 55 36 56
REMARK SMILES IDX 37 57 51 59 72 60 39 61 23 62 24 63 32 64 25 65 26 66 30 67
REMARK SMILES IDX 33 68 27 69 28 70 31 71 29 72 55 73 56 74 64 75 57 76 58 77
REMARK SMILES IDX 62 78 65 79 59 80 60 81 63 82 61 83 40 84 41 85 49 86 42 87
REMARK SMILES IDX 43 88 47 89 50 90 44 91 45 92 48 93 46 94
REMARK H PARENT 1 9 1 10 1 11 70 47 38 58
REMARK Flexibility Score: inf
ROOT
ATOM      1  O   UNL A   1      31.018  27.503  27.187  1.00  0.00    -0.374 OA
ENDROOT
BRANCH   1   2
ATOM      2  C   UNL A   1      31.390  26.715  26.058  1.00  0.00     0.202 C 
BRANCH   2   3
ATOM      3  C   UNL A   1      31.018  25.232  26.110  1.00  0.00     0.261 C 
BRANCH   3   4
ATOM      4  O   UNL A   1      32.074  24.413  25.585  1.00  0.00    -0.458 OA
BRANCH   4   5
ATOM      5  C   UNL A   1      31.708  23.129  25.287  1.00  0.00     0.373 C 
ATOM      6  O   UNL A   1      30.970  22.448  25.994  1.00  0.00    -0.244 OA
BRANCH   5   7
ATOM      7  C   UNL A   1      32.346  22.616  23.925  1.00  0.00     0.221 C 
BRANCH   7   8
ATOM      8  N   UNL A   1      31.434  22.863  22.772  1.00  0.00    -0.339 N 
ATOM      9  H   UNL A   1      30.750  22.109  22.712  1.00  0.00     0.345 HD
ATOM     10  H   UNL A   1      31.977  22.899  21.910  1.00  0.00     0.345 HD
ATOM     11  H   UNL A   1      30.949  23.751  22.905  1.00  0.00     0.345 HD
ENDBRANCH   7   8
BRANCH   7  12
ATOM     12  C   UNL A   1      32.651  21.097  24.004  1.00  0.00     0.024 A 
ATOM     13  C   UNL A   1      32.210  20.191  23.023  1.00  0.00     0.011 A 
ATOM     14  C   UNL A   1      33.324  20.533  25.107  1.00  0.00     0.011 A 
ATOM     15  C   UNL A   1      32.524  18.824  23.080  1.00  0.00     0.010 A 
ATOM     16  C   UNL A   1      33.617  19.165  25.179  1.00  0.00     0.010 A 
ATOM     17  C   UNL A   1      33.251  18.297  24.150  1.00  0.00    -0.016 A 
BRANCH  17  18
ATOM     18  P   UNL A   1      33.721  16.604  24.240  1.00  0.00    -0.038 P 
ATOM     19  O   UNL A   1      32.763  15.602  24.797  1.00  0.00    -0.352 OA
ATOM     20  O   UNL A   1      34.209  16.203  22.763  1.00  0.00    -0.807 OA
ATOM     21  O   UNL A   1      35.140  16.515  24.986  1.00  0.00    -0.807 OA
ENDBRANCH  17  18
ENDBRANCH   7  12
BRANCH   7  22
ATOM     22  C   UNL A   1      33.532  23.558  23.674  1.00  0.00     0.067 C 
ATOM     23  C   UNL A   1      34.771  23.648  24.535  1.00  0.00     0.012 C 
ATOM     24  C   UNL A   1      34.878  23.145  23.119  1.00  0.00     0.012 C 
ENDBRANCH   7  22
ENDBRANCH   5   7
ENDBRANCH   4   5
ENDBRANCH   3   4
ENDBRANCH   2   3
ENDBRANCH   1   2
BRANCH   1  25
ATOM     25  C   UNL A   1      31.911  28.537  27.602  1.00  0.00     0.202 C 
BRANCH  25  26
ATOM     26  C   UNL A   1      31.802  29.890  26.888  1.00  0.00     0.261 C 
BRANCH  26  27
ATOM     27  O   UNL A   1      33.084  30.399  26.476  1.00  0.00    -0.460 OA
BRANCH  27  28
ATOM     28  C   UNL A   1      33.571  31.397  27.250  1.00  0.00     0.338 C 
ATOM     29  O   UNL A   1      32.970  32.391  27.643  1.00  0.00    -0.246 OA
BRANCH  28  30
ATOM     30  C   UNL A   1      34.914  31.054  27.746  1.00  0.00     0.060 A 
ATOM     31  C   UNL A   1      35.183  29.702  27.998  1.00  0.00     0.016 A 
ATOM     32  C   UNL A   1      35.857  32.036  28.053  1.00  0.00     0.016 A 
ATOM     33  C   UNL A   1      36.376  29.329  28.610  1.00  0.00     0.010 A 
ATOM     34  C   UNL A   1      37.051  31.661  28.680  1.00  0.00     0.010 A 
ATOM     35  C   UNL A   1      37.297  30.312  28.996  1.00  0.00    -0.014 A 
BRANCH  35  36
ATOM     36  C   UNL A   1      38.429  29.937  29.875  1.00  0.00     0.031 A 
ATOM     37  C   UNL A   1      39.461  28.975  29.357  1.00  0.00     0.074 A 
ATOM     38  C   UNL A   1      38.559  30.478  31.099  1.00  0.00     0.049 A 
ATOM     39  N   UNL A   1      40.525  28.496  29.950  1.00  0.00    -0.248 NA
ATOM     40  C   UNL A   1      39.267  28.485  27.983  1.00  0.00     0.031 C 
ATOM     41  C   UNL A   1      37.649  31.454  31.690  1.00  0.00     0.029 A 
ATOM     42  N   UNL A   1      39.514  30.276  32.063  1.00  0.00    -0.354 N 
ATOM     43  C   UNL A   1      41.122  27.648  29.026  1.00  0.00     0.074 A 
ATOM     44  C   UNL A   1      40.289  27.654  27.843  1.00  0.00     0.031 C 
ATOM     45  C   UNL A   1      38.085  31.764  32.924  1.00  0.00     0.029 A 
ATOM     46  C   UNL A   1      39.288  30.986  33.216  1.00  0.00     0.049 A 
ATOM     47  H   UNL A   1      40.288  29.680  31.940  1.00  0.00     0.167 HD
ATOM     48  C   UNL A   1      42.266  26.934  29.151  1.00  0.00     0.037 A 
ATOM     49  C   UNL A   1      39.966  30.989  34.380  1.00  0.00     0.037 A 
ATOM     50  C   UNL A   1      43.095  26.934  30.326  1.00  0.00     0.049 A 
ATOM     51  C   UNL A   1      41.198  30.134  34.518  1.00  0.00     0.074 A 
ATOM     52  C   UNL A   1      44.287  26.265  30.544  1.00  0.00     0.029 A 
ATOM     53  N   UNL A   1      42.812  27.634  31.490  1.00  0.00    -0.354 N 
ATOM     54  N   UNL A   1      41.771  29.355  33.631  1.00  0.00    -0.248 NA
ATOM     55  C   UNL A   1      41.880  30.158  35.821  1.00  0.00     0.031 C 
ATOM     56  C   UNL A   1      44.700  26.522  31.856  1.00  0.00     0.029 A 
ATOM     57  C   UNL A   1      43.791  27.392  32.439  1.00  0.00     0.049 A 
ATOM     58  H   UNL A   1      42.030  28.219  31.622  1.00  0.00     0.167 HD
ATOM     59  C   UNL A   1      42.891  28.822  34.255  1.00  0.00     0.074 A 
ATOM     60  C   UNL A   1      42.924  29.373  35.595  1.00  0.00     0.031 C 
ATOM     61  C   UNL A   1      43.811  27.956  33.764  1.00  0.00     0.037 A 
BRANCH  48  62
ATOM     62  C   UNL A   1      42.673  26.071  27.994  1.00  0.00     0.064 A 
ATOM     63  C   UNL A   1      42.177  24.769  27.834  1.00  0.00     0.173 A 
ATOM     64  C   UNL A   1      43.551  26.564  27.016  1.00  0.00     0.173 A 
ATOM     65  F   UNL A   1      41.348  24.245  28.749  1.00  0.00    -0.203 F 
ATOM     66  C   UNL A   1      42.563  23.984  26.749  1.00  0.00     0.198 A 
ATOM     67  C   UNL A   1      43.914  25.787  25.921  1.00  0.00     0.198 A 
ATOM     68  F   UNL A   1      44.052  27.805  27.123  1.00  0.00    -0.203 F 
ATOM     69  F   UNL A   1      42.112  22.727  26.639  1.00  0.00    -0.200 F 
ATOM     70  C   UNL A   1      43.425  24.496  25.791  1.00  0.00     0.200 A 
ATOM     71  F   UNL A   1      44.739  26.287  24.990  1.00  0.00    -0.200 F 
ATOM     72  F   UNL A   1      43.792  23.741  24.746  1.00  0.00    -0.200 F 
ENDBRANCH  48  62
BRANCH  49  73
ATOM     73  C   UNL A   1      39.493  31.827  35.512  1.00  0.00     0.064 A 
ATOM     74  C   UNL A   1      38.567  31.334  36.440  1.00  0.00     0.173 A 
ATOM     75  C   UNL A   1      39.949  33.144  35.679  1.00  0.00     0.173 A 
ATOM     76  F   UNL A   1      38.083  30.090  36.306  1.00  0.00    -0.203 F 
ATOM     77  C   UNL A   1      38.101  32.131  37.485  1.00  0.00     0.198 A 
ATOM     78  C   UNL A   1      39.504  33.930  36.739  1.00  0.00     0.198 A 
ATOM     79  F   UNL A   1      40.834  33.663  34.817  1.00  0.00    -0.203 F 
ATOM     80  F   UNL A   1      37.183  31.649  38.334  1.00  0.00    -0.200 F 
ATOM     81  C   UNL A   1      38.575  33.425  37.638  1.00  0.00     0.200 A 
ATOM     82  F   UNL A   1      39.972  35.176  36.889  1.00  0.00    -0.200 F 
ATOM     83  F   UNL A   1      38.130  34.189  38.644  1.00  0.00    -0.200 F 
ENDBRANCH  49  73
BRANCH  61  84
ATOM     84  C   UNL A   1      44.950  27.576  34.665  1.00  0.00     0.064 A 
ATOM     85  C   UNL A   1      46.122  28.343  34.734  1.00  0.00     0.173 A 
ATOM     86  C   UNL A   1      44.847  26.455  35.504  1.00  0.00     0.173 A 
ATOM     87  F   UNL A   1      46.274  29.415  33.943  1.00  0.00    -0.203 F 
ATOM     88  C   UNL A   1      47.159  27.988  35.592  1.00  0.00     0.198 A 
ATOM     89  C   UNL A   1      45.874  26.119  36.381  1.00  0.00     0.198 A 
ATOM     90  F   UNL A   1      43.743  25.693  35.482  1.00  0.00    -0.203 F 
ATOM     91  F   UNL A   1      48.289  28.710  35.609  1.00  0.00    -0.200 F 
ATOM     92  C   UNL A   1      47.032  26.881  36.420  1.00  0.00     0.200 A 
ATOM     93  F   UNL A   1      45.744  25.059  37.189  1.00  0.00    -0.200 F 
ATOM     94  F   UNL A   1      48.029  26.546  37.251  1.00  0.00    -0.200 F 
ENDBRANCH  61  84
ENDBRANCH  35  36
ENDBRANCH  28  30
ENDBRANCH  27  28
ENDBRANCH  26  27
ENDBRANCH  25  26
ENDBRANCH   1  25
TORSDOF 18
ENDMDL
