MODEL 1
REMARK VINA RESULT:     -11.5      0.000      0.000
REMARK SMILES COc1ccc(-c2c(C)n[nH]c2C)c(C(=O)OCCOCCOC(=O)c2ccc(-c3c4nc(c(-c5c(F)c(F)c(F)c(F)c5F)c5ccc([nH]5)c(-c5c(F)c(F)c(F)c(F)c5F)c5nc(c(-c6c(F)c(F)c(F)c(F)c6F)c6ccc3[nH]6)C=C5)C=C4)cc2)c1
REMARK SMILES IDX 21 1 20 2 19 3 18 4 17 5 15 6 16 7 14 8 3 9 4 10 89 11 5 12
REMARK SMILES IDX 6 13 2 14 1 15 7 16 8 17 12 18 9 19 10 20 11 21 13 22 22 24
REMARK SMILES IDX 23 25 24 26 25 27 26 28 27 29 88 30 28 31 87 32 29 33 30 34
REMARK SMILES IDX 31 35 81 36 32 37 86 38 80 39 82 40 33 41 85 42 79 43 78 44
REMARK SMILES IDX 34 46 66 47 46 48 65 49 47 50 50 51 64 52 83 53 48 54 49 55
REMARK SMILES IDX 63 57 84 58 51 59 35 60 36 61 44 62 37 63 38 64 42 65 45 66
REMARK SMILES IDX 39 67 40 68 43 69 41 70 67 71 68 72 76 73 69 74 70 75 74 76
REMARK SMILES IDX 77 77 71 78 72 79 75 80 73 81 52 82 53 83 61 84 54 85 55 86
REMARK SMILES IDX 59 87 62 88 56 89 57 90 60 91 58 92
REMARK H PARENT 11 23 82 45 50 56
REMARK Flexibility Score: inf
ROOT
ATOM      1  C   UNL A   1      31.812  29.917  25.465  1.00  0.00     0.202 C 
ENDROOT
BRANCH   1   2
ATOM      2  O   UNL A   1      33.087  29.661  24.881  1.00  0.00    -0.374 OA
BRANCH   2   3
ATOM      3  C   UNL A   1      33.576  28.326  25.032  1.00  0.00     0.202 C 
BRANCH   3   4
ATOM      4  C   UNL A   1      33.358  27.715  26.421  1.00  0.00     0.261 C 
BRANCH   4   5
ATOM      5  O   UNL A   1      33.034  26.317  26.288  1.00  0.00    -0.460 OA
BRANCH   5   6
ATOM      6  C   UNL A   1      31.711  26.011  26.198  1.00  0.00     0.338 C 
ATOM      7  O   UNL A   1      30.800  26.644  26.694  1.00  0.00    -0.246 OA
BRANCH   6   8
ATOM      8  C   UNL A   1      31.554  24.816  25.314  1.00  0.00     0.071 A 
ATOM      9  C   UNL A   1      31.580  22.390  25.097  1.00  0.00     0.119 A 
ATOM     10  C   UNL A   1      31.263  22.523  23.744  1.00  0.00     0.047 A 
ATOM     11  C   UNL A   1      31.732  23.534  25.878  1.00  0.00     0.062 A 
ATOM     12  C   UNL A   1      31.103  23.783  23.169  1.00  0.00     0.013 A 
ATOM     13  C   UNL A   1      31.253  24.943  23.940  1.00  0.00     0.000 A 
BRANCH   9  14
ATOM     14  O   UNL A   1      31.721  21.099  25.523  1.00  0.00    -0.497 OA
ATOM     15  C   UNL A   1      32.373  20.193  24.642  1.00  0.00     0.278 C 
ENDBRANCH   9  14
BRANCH  13  16
ATOM     16  C   UNL A   1      31.048  26.221  23.280  1.00  0.00     0.026 A 
ATOM     17  C   UNL A   1      29.872  27.018  23.240  1.00  0.00     0.067 A 
ATOM     18  C   UNL A   1      31.897  26.820  22.365  1.00  0.00     0.040 A 
ATOM     19  C   UNL A   1      28.548  26.704  23.830  1.00  0.00     0.069 C 
ATOM     20  N   UNL A   1      30.046  28.124  22.507  1.00  0.00    -0.180 NA
ATOM     21  N   UNL A   1      31.306  28.022  22.070  1.00  0.00    -0.282 N 
ATOM     22  C   UNL A   1      33.168  26.428  21.715  1.00  0.00     0.067 C 
ATOM     23  H   UNL A   1      31.768  28.742  21.583  1.00  0.00     0.190 HD
ENDBRANCH  13  16
ENDBRANCH   6   8
ENDBRANCH   5   6
ENDBRANCH   4   5
ENDBRANCH   3   4
ENDBRANCH   2   3
ENDBRANCH   1   2
BRANCH   1  24
ATOM     24  C   UNL A   1      31.757  31.161  26.350  1.00  0.00     0.261 C 
BRANCH  24  25
ATOM     25  O   UNL A   1      32.731  31.036  27.394  1.00  0.00    -0.460 OA
BRANCH  25  26
ATOM     26  C   UNL A   1      33.493  32.138  27.568  1.00  0.00     0.338 C 
ATOM     27  O   UNL A   1      33.145  33.305  27.504  1.00  0.00    -0.246 OA
BRANCH  26  28
ATOM     28  C   UNL A   1      34.821  31.717  28.045  1.00  0.00     0.060 A 
ATOM     29  C   UNL A   1      34.984  30.366  28.377  1.00  0.00     0.016 A 
ATOM     30  C   UNL A   1      35.879  32.620  28.173  1.00  0.00     0.016 A 
ATOM     31  C   UNL A   1      36.192  29.922  28.902  1.00  0.00     0.010 A 
ATOM     32  C   UNL A   1      37.089  32.176  28.704  1.00  0.00     0.010 A 
ATOM     33  C   UNL A   1      37.230  30.838  29.112  1.00  0.00    -0.014 A 
BRANCH  33  34
ATOM     34  C   UNL A   1      38.385  30.452  29.949  1.00  0.00     0.031 A 
ATOM     35  C   UNL A   1      39.377  29.483  29.373  1.00  0.00     0.074 A 
ATOM     36  C   UNL A   1      38.545  30.957  31.182  1.00  0.00     0.049 A 
ATOM     37  N   UNL A   1      40.412  28.917  29.937  1.00  0.00    -0.248 NA
ATOM     38  C   UNL A   1      39.165  29.091  27.970  1.00  0.00     0.031 C 
ATOM     39  C   UNL A   1      37.667  31.940  31.812  1.00  0.00     0.029 A 
ATOM     40  N   UNL A   1      39.500  30.695  32.130  1.00  0.00    -0.354 N 
ATOM     41  C   UNL A   1      40.961  28.092  28.965  1.00  0.00     0.074 A 
ATOM     42  C   UNL A   1      40.130  28.204  27.787  1.00  0.00     0.031 C 
ATOM     43  C   UNL A   1      38.116  32.187  33.055  1.00  0.00     0.029 A 
ATOM     44  C   UNL A   1      39.285  31.348  33.316  1.00  0.00     0.049 A 
ATOM     45  H   UNL A   1      40.265  30.095  31.973  1.00  0.00     0.167 HD
ATOM     46  C   UNL A   1      42.065  27.314  29.051  1.00  0.00     0.037 A 
ATOM     47  C   UNL A   1      39.945  31.252  34.485  1.00  0.00     0.037 A 
ATOM     48  C   UNL A   1      42.881  27.214  30.231  1.00  0.00     0.049 A 
ATOM     49  C   UNL A   1      41.132  30.325  34.579  1.00  0.00     0.074 A 
ATOM     50  C   UNL A   1      44.029  26.468  30.428  1.00  0.00     0.029 A 
ATOM     51  N   UNL A   1      42.625  27.881  31.421  1.00  0.00    -0.354 N 
ATOM     52  N   UNL A   1      41.658  29.556  33.656  1.00  0.00    -0.248 NA
ATOM     53  C   UNL A   1      41.819  30.258  35.876  1.00  0.00     0.031 C 
ATOM     54  C   UNL A   1      44.435  26.639  31.754  1.00  0.00     0.029 A 
ATOM     55  C   UNL A   1      43.580  27.544  32.365  1.00  0.00     0.049 A 
ATOM     56  H   UNL A   1      41.876  28.501  31.572  1.00  0.00     0.167 HD
ATOM     57  C   UNL A   1      42.757  28.944  34.246  1.00  0.00     0.074 A 
ATOM     58  C   UNL A   1      42.822  29.434  35.608  1.00  0.00     0.031 C 
ATOM     59  C   UNL A   1      43.636  28.062  33.710  1.00  0.00     0.037 A 
BRANCH  46  60
ATOM     60  C   UNL A   1      42.425  26.487  27.851  1.00  0.00     0.064 A 
ATOM     61  C   UNL A   1      43.369  26.919  26.906  1.00  0.00     0.173 A 
ATOM     62  C   UNL A   1      41.823  25.236  27.647  1.00  0.00     0.173 A 
ATOM     63  F   UNL A   1      43.962  28.116  27.042  1.00  0.00    -0.203 F 
ATOM     64  C   UNL A   1      43.670  26.146  25.788  1.00  0.00     0.198 A 
ATOM     65  C   UNL A   1      42.151  24.450  26.547  1.00  0.00     0.198 A 
ATOM     66  F   UNL A   1      40.913  24.774  28.520  1.00  0.00    -0.203 F 
ATOM     67  F   UNL A   1      44.530  26.607  24.869  1.00  0.00    -0.200 F 
ATOM     68  C   UNL A   1      43.066  24.910  25.613  1.00  0.00     0.200 A 
ATOM     69  F   UNL A   1      41.576  23.251  26.386  1.00  0.00    -0.200 F 
ATOM     70  F   UNL A   1      43.361  24.165  24.538  1.00  0.00    -0.200 F 
ENDBRANCH  46  60
BRANCH  47  71
ATOM     71  C   UNL A   1      39.494  32.043  35.659  1.00  0.00     0.064 A 
ATOM     72  C   UNL A   1      38.517  31.547  36.534  1.00  0.00     0.173 A 
ATOM     73  C   UNL A   1      40.027  33.312  35.929  1.00  0.00     0.173 A 
ATOM     74  F   UNL A   1      37.960  30.349  36.305  1.00  0.00    -0.203 F 
ATOM     75  C   UNL A   1      38.078  32.298  37.624  1.00  0.00     0.198 A 
ATOM     76  C   UNL A   1      39.610  34.048  37.037  1.00  0.00     0.198 A 
ATOM     77  F   UNL A   1      40.966  33.833  35.125  1.00  0.00    -0.203 F 
ATOM     78  F   UNL A   1      37.113  31.818  38.418  1.00  0.00    -0.200 F 
ATOM     79  C   UNL A   1      38.631  33.544  37.878  1.00  0.00     0.200 A 
ATOM     80  F   UNL A   1      40.157  35.246  37.286  1.00  0.00    -0.200 F 
ATOM     81  F   UNL A   1      38.214  34.262  38.930  1.00  0.00    -0.200 F 
ENDBRANCH  47  71
BRANCH  59  82
ATOM     82  C   UNL A   1      44.782  27.614  34.570  1.00  0.00     0.064 A 
ATOM     83  C   UNL A   1      44.715  26.452  35.350  1.00  0.00     0.173 A 
ATOM     84  C   UNL A   1      45.990  28.329  34.558  1.00  0.00     0.173 A 
ATOM     85  F   UNL A   1      43.579  25.740  35.406  1.00  0.00    -0.203 F 
ATOM     86  C   UNL A   1      45.809  26.033  36.103  1.00  0.00     0.198 A 
ATOM     87  C   UNL A   1      47.092  27.890  35.285  1.00  0.00     0.198 A 
ATOM     88  F   UNL A   1      46.109  29.444  33.820  1.00  0.00    -0.203 F 
ATOM     89  F   UNL A   1      45.710  24.942  36.875  1.00  0.00    -0.200 F 
ATOM     90  C   UNL A   1      46.998  26.746  36.062  1.00  0.00     0.200 A 
ATOM     91  F   UNL A   1      48.245  28.570  35.229  1.00  0.00    -0.200 F 
ATOM     92  F   UNL A   1      48.055  26.331  36.775  1.00  0.00    -0.200 F 
ENDBRANCH  59  82
ENDBRANCH  33  34
ENDBRANCH  26  28
ENDBRANCH  25  26
ENDBRANCH  24  25
ENDBRANCH   1  24
TORSDOF 16
ENDMDL
MODEL 2
REMARK VINA RESULT:     -11.4      0.694      7.450
REMARK SMILES COc1ccc(-c2c(C)n[nH]c2C)c(C(=O)OCCOCCOC(=O)c2ccc(-c3c4nc(c(-c5c(F)c(F)c(F)c(F)c5F)c5ccc([nH]5)c(-c5c(F)c(F)c(F)c(F)c5F)c5nc(c(-c6c(F)c(F)c(F)c(F)c6F)c6ccc3[nH]6)C=C5)C=C4)cc2)c1
REMARK SMILES IDX 21 1 20 2 19 3 18 4 17 5 15 6 16 7 14 8 3 9 4 10 89 11 5 12
REMARK SMILES IDX 6 13 2 14 1 15 7 16 8 17 12 18 9 19 10 20 11 21 13 22 22 24
REMARK SMILES IDX 23 25 24 26 25 27 26 28 27 29 88 30 28 31 87 32 29 33 30 34
REMARK SMILES IDX 31 35 81 36 32 37 86 38 80 39 82 40 33 41 85 42 79 43 78 44
REMARK SMILES IDX 34 46 66 47 46 48 65 49 47 50 50 51 64 52 83 53 48 54 49 55
REMARK SMILES IDX 63 57 84 58 51 59 35 60 36 61 44 62 37 63 38 64 42 65 45 66
REMARK SMILES IDX 39 67 40 68 43 69 41 70 67 71 68 72 76 73 69 74 70 75 74 76
REMARK SMILES IDX 77 77 71 78 72 79 75 80 73 81 52 82 53 83 61 84 54 85 55 86
REMARK SMILES IDX 59 87 62 88 56 89 57 90 60 91 58 92
REMARK H PARENT 11 23 82 45 50 56
REMARK Flexibility Score: inf
ROOT
ATOM      1  C   UNL A   1      31.755  30.880  26.601  1.00  0.00     0.202 C 
ENDROOT
BRANCH   1   2
ATOM      2  O   UNL A   1      32.435  30.251  25.517  1.00  0.00    -0.374 OA
BRANCH   2   3
ATOM      3  C   UNL A   1      33.654  29.587  25.857  1.00  0.00     0.202 C 
BRANCH   3   4
ATOM      4  C   UNL A   1      33.505  28.449  26.874  1.00  0.00     0.261 C 
BRANCH   4   5
ATOM      5  O   UNL A   1      33.115  27.240  26.194  1.00  0.00    -0.460 OA
BRANCH   5   6
ATOM      6  C   UNL A   1      31.828  26.836  26.372  1.00  0.00     0.338 C 
ATOM      7  O   UNL A   1      31.026  27.335  27.137  1.00  0.00    -0.246 OA
BRANCH   6   8
ATOM      8  C   UNL A   1      31.533  25.732  25.409  1.00  0.00     0.071 A 
ATOM      9  C   UNL A   1      31.265  23.341  25.027  1.00  0.00     0.119 A 
ATOM     10  C   UNL A   1      30.979  23.603  23.686  1.00  0.00     0.047 A 
ATOM     11  C   UNL A   1      31.549  24.403  25.884  1.00  0.00     0.062 A 
ATOM     12  C   UNL A   1      30.978  24.910  23.198  1.00  0.00     0.013 A 
ATOM     13  C   UNL A   1      31.262  25.988  24.046  1.00  0.00     0.000 A 
BRANCH   9  14
ATOM     14  O   UNL A   1      31.244  22.017  25.363  1.00  0.00    -0.497 OA
ATOM     15  C   UNL A   1      32.161  21.162  24.692  1.00  0.00     0.278 C 
ENDBRANCH   9  14
BRANCH  13  16
ATOM     16  C   UNL A   1      31.221  27.323  23.475  1.00  0.00     0.026 A 
ATOM     17  C   UNL A   1      30.088  28.146  23.232  1.00  0.00     0.067 A 
ATOM     18  C   UNL A   1      32.262  27.980  22.842  1.00  0.00     0.040 A 
ATOM     19  C   UNL A   1      28.662  27.813  23.465  1.00  0.00     0.069 C 
ATOM     20  N   UNL A   1      30.431  29.308  22.664  1.00  0.00    -0.180 NA
ATOM     21  N   UNL A   1      31.759  29.216  22.527  1.00  0.00    -0.282 N 
ATOM     22  C   UNL A   1      33.650  27.617  22.476  1.00  0.00     0.067 C 
ATOM     23  H   UNL A   1      32.323  29.966  22.229  1.00  0.00     0.190 HD
ENDBRANCH  13  16
ENDBRANCH   6   8
ENDBRANCH   5   6
ENDBRANCH   4   5
ENDBRANCH   3   4
ENDBRANCH   2   3
ENDBRANCH   1   2
BRANCH   1  24
ATOM     24  C   UNL A   1      32.107  32.352  26.802  1.00  0.00     0.261 C 
BRANCH  24  25
ATOM     25  O   UNL A   1      32.844  32.496  28.024  1.00  0.00    -0.460 OA
BRANCH  25  26
ATOM     26  C   UNL A   1      33.911  33.318  27.928  1.00  0.00     0.338 C 
ATOM     27  O   UNL A   1      33.912  34.519  27.716  1.00  0.00    -0.246 OA
BRANCH  26  28
ATOM     28  C   UNL A   1      35.117  32.565  28.308  1.00  0.00     0.060 A 
ATOM     29  C   UNL A   1      34.953  31.212  28.632  1.00  0.00     0.016 A 
ATOM     30  C   UNL A   1      36.377  33.166  28.358  1.00  0.00     0.016 A 
ATOM     31  C   UNL A   1      36.040  30.466  29.070  1.00  0.00     0.010 A 
ATOM     32  C   UNL A   1      37.467  32.420  28.803  1.00  0.00     0.010 A 
ATOM     33  C   UNL A   1      37.290  31.084  29.202  1.00  0.00    -0.014 A 
BRANCH  33  34
ATOM     34  C   UNL A   1      38.364  30.403  29.955  1.00  0.00     0.031 A 
ATOM     35  C   UNL A   1      38.573  30.794  31.389  1.00  0.00     0.074 A 
ATOM     36  C   UNL A   1      39.123  29.459  29.376  1.00  0.00     0.049 A 
ATOM     37  N   UNL A   1      39.504  30.419  32.227  1.00  0.00    -0.248 NA
ATOM     38  C   UNL A   1      37.604  31.749  31.951  1.00  0.00     0.031 C 
ATOM     39  C   UNL A   1      38.968  28.973  28.007  1.00  0.00     0.029 A 
ATOM     40  N   UNL A   1      40.190  28.754  29.870  1.00  0.00    -0.354 N 
ATOM     41  C   UNL A   1      39.242  31.104  33.406  1.00  0.00     0.074 A 
ATOM     42  C   UNL A   1      38.087  31.941  33.169  1.00  0.00     0.031 C 
ATOM     43  C   UNL A   1      39.921  28.057  27.763  1.00  0.00     0.029 A 
ATOM     44  C   UNL A   1      40.773  27.928  28.944  1.00  0.00     0.049 A 
ATOM     45  H   UNL A   1      40.507  28.835  30.799  1.00  0.00     0.167 HD
ATOM     46  C   UNL A   1      39.906  31.035  34.583  1.00  0.00     0.037 A 
ATOM     47  C   UNL A   1      41.886  27.177  29.039  1.00  0.00     0.037 A 
ATOM     48  C   UNL A   1      41.054  30.196  34.803  1.00  0.00     0.049 A 
ATOM     49  C   UNL A   1      42.652  27.167  30.339  1.00  0.00     0.074 A 
ATOM     50  C   UNL A   1      41.799  30.035  35.956  1.00  0.00     0.029 A 
ATOM     51  N   UNL A   1      41.626  29.380  33.837  1.00  0.00    -0.354 N 
ATOM     52  N   UNL A   1      42.396  27.805  31.457  1.00  0.00    -0.248 NA
ATOM     53  C   UNL A   1      43.858  26.330  30.391  1.00  0.00     0.031 C 
ATOM     54  C   UNL A   1      42.856  29.165  35.673  1.00  0.00     0.029 A 
ATOM     55  C   UNL A   1      42.730  28.731  34.362  1.00  0.00     0.049 A 
ATOM     56  H   UNL A   1      41.296  29.277  32.915  1.00  0.00     0.167 HD
ATOM     57  C   UNL A   1      43.383  27.418  32.354  1.00  0.00     0.074 A 
ATOM     58  C   UNL A   1      44.242  26.488  31.650  1.00  0.00     0.031 C 
ATOM     59  C   UNL A   1      43.559  27.792  33.646  1.00  0.00     0.037 A 
BRANCH  46  60
ATOM     60  C   UNL A   1      39.430  31.914  35.701  1.00  0.00     0.064 A 
ATOM     61  C   UNL A   1      38.454  31.490  36.617  1.00  0.00     0.173 A 
ATOM     62  C   UNL A   1      39.964  33.201  35.866  1.00  0.00     0.173 A 
ATOM     63  F   UNL A   1      37.896  30.276  36.495  1.00  0.00    -0.203 F 
ATOM     64  C   UNL A   1      38.010  32.333  37.633  1.00  0.00     0.198 A 
ATOM     65  C   UNL A   1      39.543  34.028  36.903  1.00  0.00     0.198 A 
ATOM     66  F   UNL A   1      40.900  33.658  35.019  1.00  0.00    -0.203 F 
ATOM     67  F   UNL A   1      37.035  31.926  38.459  1.00  0.00    -0.200 F 
ATOM     68  C   UNL A   1      38.559  33.597  37.779  1.00  0.00     0.200 A 
ATOM     69  F   UNL A   1      40.083  35.245  37.050  1.00  0.00    -0.200 F 
ATOM     70  F   UNL A   1      38.133  34.405  38.760  1.00  0.00    -0.200 F 
ENDBRANCH  46  60
BRANCH  47  71
ATOM     71  C   UNL A   1      42.347  26.383  27.871  1.00  0.00     0.064 A 
ATOM     72  C   UNL A   1      43.292  26.899  26.973  1.00  0.00     0.173 A 
ATOM     73  C   UNL A   1      41.851  25.094  27.624  1.00  0.00     0.173 A 
ATOM     74  F   UNL A   1      43.780  28.136  27.152  1.00  0.00    -0.203 F 
ATOM     75  C   UNL A   1      43.710  26.163  25.865  1.00  0.00     0.198 A 
ATOM     76  C   UNL A   1      42.293  24.348  26.534  1.00  0.00     0.198 A 
ATOM     77  F   UNL A   1      40.946  24.552  28.453  1.00  0.00    -0.203 F 
ATOM     78  F   UNL A   1      44.582  26.698  25.000  1.00  0.00    -0.200 F 
ATOM     79  C   UNL A   1      43.215  24.886  25.651  1.00  0.00     0.200 A 
ATOM     80  F   UNL A   1      41.822  23.108  26.340  1.00  0.00    -0.200 F 
ATOM     81  F   UNL A   1      43.623  24.176  24.590  1.00  0.00    -0.200 F 
ENDBRANCH  47  71
BRANCH  59  82
ATOM     82  C   UNL A   1      44.686  27.153  34.406  1.00  0.00     0.064 A 
ATOM     83  C   UNL A   1      44.540  25.916  35.049  1.00  0.00     0.173 A 
ATOM     84  C   UNL A   1      45.950  27.762  34.430  1.00  0.00     0.173 A 
ATOM     85  F   UNL A   1      43.348  25.300  35.065  1.00  0.00    -0.203 F 
ATOM     86  C   UNL A   1      45.614  25.322  35.707  1.00  0.00     0.198 A 
ATOM     87  C   UNL A   1      47.030  27.150  35.059  1.00  0.00     0.198 A 
ATOM     88  F   UNL A   1      46.145  28.942  33.821  1.00  0.00    -0.203 F 
ATOM     89  F   UNL A   1      45.442  24.160  36.352  1.00  0.00    -0.200 F 
ATOM     90  C   UNL A   1      46.859  25.934  35.703  1.00  0.00     0.200 A 
ATOM     91  F   UNL A   1      48.235  27.733  35.038  1.00  0.00    -0.200 F 
ATOM     92  F   UNL A   1      47.895  25.352  36.323  1.00  0.00    -0.200 F 
ENDBRANCH  59  82
ENDBRANCH  33  34
ENDBRANCH  26  28
ENDBRANCH  25  26
ENDBRANCH  24  25
ENDBRANCH   1  24
TORSDOF 16
ENDMDL
MODEL 3
REMARK VINA RESULT:     -11.3      1.516      7.824
REMARK SMILES COc1ccc(-c2c(C)n[nH]c2C)c(C(=O)OCCOCCOC(=O)c2ccc(-c3c4nc(c(-c5c(F)c(F)c(F)c(F)c5F)c5ccc([nH]5)c(-c5c(F)c(F)c(F)c(F)c5F)c5nc(c(-c6c(F)c(F)c(F)c(F)c6F)c6ccc3[nH]6)C=C5)C=C4)cc2)c1
REMARK SMILES IDX 21 1 20 2 19 3 18 4 17 5 15 6 16 7 14 8 3 9 4 10 89 11 5 12
REMARK SMILES IDX 6 13 2 14 1 15 7 16 8 17 12 18 9 19 10 20 11 21 13 22 22 24
REMARK SMILES IDX 23 25 24 26 25 27 26 28 27 29 88 30 28 31 87 32 29 33 30 34
REMARK SMILES IDX 31 35 81 36 32 37 86 38 80 39 82 40 33 41 85 42 79 43 78 44
REMARK SMILES IDX 34 46 66 47 46 48 65 49 47 50 50 51 64 52 83 53 48 54 49 55
REMARK SMILES IDX 63 57 84 58 51 59 35 60 36 61 44 62 37 63 38 64 42 65 45 66
REMARK SMILES IDX 39 67 40 68 43 69 41 70 67 71 68 72 76 73 69 74 70 75 74 76
REMARK SMILES IDX 77 77 71 78 72 79 75 80 73 81 52 82 53 83 61 84 54 85 55 86
REMARK SMILES IDX 59 87 62 88 56 89 57 90 60 91 58 92
REMARK H PARENT 11 23 82 45 50 56
REMARK Flexibility Score: inf
ROOT
ATOM      1  C   UNL A   1      31.462  31.889  26.704  1.00  0.00     0.202 C 
ENDROOT
BRANCH   1   2
ATOM      2  O   UNL A   1      32.205  30.765  27.170  1.00  0.00    -0.374 OA
BRANCH   2   3
ATOM      3  C   UNL A   1      33.239  30.305  26.297  1.00  0.00     0.202 C 
BRANCH   3   4
ATOM      4  C   UNL A   1      33.309  28.784  26.128  1.00  0.00     0.261 C 
BRANCH   4   5
ATOM      5  O   UNL A   1      32.135  28.320  25.432  1.00  0.00    -0.460 OA
BRANCH   5   6
ATOM      6  C   UNL A   1      32.057  28.628  24.110  1.00  0.00     0.338 C 
ATOM      7  O   UNL A   1      32.996  28.713  23.343  1.00  0.00    -0.246 OA
BRANCH   6   8
ATOM      8  C   UNL A   1      30.617  28.760  23.731  1.00  0.00     0.071 A 
ATOM      9  C   UNL A   1      28.718  30.226  23.310  1.00  0.00     0.119 A 
ATOM     10  C   UNL A   1      27.938  29.107  23.018  1.00  0.00     0.047 A 
ATOM     11  C   UNL A   1      30.053  30.052  23.673  1.00  0.00     0.062 A 
ATOM     12  C   UNL A   1      28.477  27.822  23.089  1.00  0.00     0.013 A 
ATOM     13  C   UNL A   1      29.816  27.630  23.453  1.00  0.00     0.000 A 
BRANCH   9  14
ATOM     14  O   UNL A   1      28.058  31.419  23.213  1.00  0.00    -0.497 OA
ATOM     15  C   UNL A   1      28.693  32.454  22.474  1.00  0.00     0.278 C 
ENDBRANCH   9  14
BRANCH  13  16
ATOM     16  C   UNL A   1      30.316  26.267  23.485  1.00  0.00     0.026 A 
ATOM     17  C   UNL A   1      30.313  25.348  24.570  1.00  0.00     0.067 A 
ATOM     18  C   UNL A   1      31.104  25.656  22.524  1.00  0.00     0.040 A 
ATOM     19  C   UNL A   1      29.834  25.586  25.953  1.00  0.00     0.069 C 
ATOM     20  N   UNL A   1      30.888  24.187  24.239  1.00  0.00    -0.180 NA
ATOM     21  N   UNL A   1      31.271  24.370  22.971  1.00  0.00    -0.282 N 
ATOM     22  C   UNL A   1      31.734  26.102  21.260  1.00  0.00     0.067 C 
ATOM     23  H   UNL A   1      31.638  23.650  22.409  1.00  0.00     0.190 HD
ENDBRANCH  13  16
ENDBRANCH   6   8
ENDBRANCH   5   6
ENDBRANCH   4   5
ENDBRANCH   3   4
ENDBRANCH   2   3
ENDBRANCH   1   2
BRANCH   1  24
ATOM     24  C   UNL A   1      32.170  33.232  26.874  1.00  0.00     0.261 C 
BRANCH  24  25
ATOM     25  O   UNL A   1      32.863  33.241  28.129  1.00  0.00    -0.460 OA
BRANCH  25  26
ATOM     26  C   UNL A   1      33.978  34.003  28.134  1.00  0.00     0.338 C 
ATOM     27  O   UNL A   1      34.055  35.215  28.024  1.00  0.00    -0.246 OA
BRANCH  26  28
ATOM     28  C   UNL A   1      35.126  33.151  28.487  1.00  0.00     0.060 A 
ATOM     29  C   UNL A   1      34.846  31.860  28.954  1.00  0.00     0.016 A 
ATOM     30  C   UNL A   1      36.443  33.603  28.374  1.00  0.00     0.016 A 
ATOM     31  C   UNL A   1      35.882  31.034  29.373  1.00  0.00     0.010 A 
ATOM     32  C   UNL A   1      37.482  32.777  28.799  1.00  0.00     0.010 A 
ATOM     33  C   UNL A   1      37.198  31.510  29.341  1.00  0.00    -0.014 A 
BRANCH  33  34
ATOM     34  C   UNL A   1      38.257  30.778  30.067  1.00  0.00     0.031 A 
ATOM     35  C   UNL A   1      38.469  31.103  31.517  1.00  0.00     0.074 A 
ATOM     36  C   UNL A   1      39.000  29.846  29.450  1.00  0.00     0.049 A 
ATOM     37  N   UNL A   1      39.389  30.676  32.340  1.00  0.00    -0.248 NA
ATOM     38  C   UNL A   1      37.516  32.052  32.117  1.00  0.00     0.031 C 
ATOM     39  C   UNL A   1      38.841  29.422  28.061  1.00  0.00     0.029 A 
ATOM     40  N   UNL A   1      40.052  29.101  29.915  1.00  0.00    -0.354 N 
ATOM     41  C   UNL A   1      39.137  31.315  33.547  1.00  0.00     0.074 A 
ATOM     42  C   UNL A   1      37.998  32.183  33.342  1.00  0.00     0.031 C 
ATOM     43  C   UNL A   1      39.777  28.500  27.780  1.00  0.00     0.029 A 
ATOM     44  C   UNL A   1      40.623  28.304  28.957  1.00  0.00     0.049 A 
ATOM     45  H   UNL A   1      40.367  29.136  30.848  1.00  0.00     0.167 HD
ATOM     46  C   UNL A   1      39.796  31.183  34.721  1.00  0.00     0.037 A 
ATOM     47  C   UNL A   1      41.721  27.528  29.022  1.00  0.00     0.037 A 
ATOM     48  C   UNL A   1      40.927  30.314  34.907  1.00  0.00     0.049 A 
ATOM     49  C   UNL A   1      42.482  27.449  30.322  1.00  0.00     0.074 A 
ATOM     50  C   UNL A   1      41.665  30.090  36.055  1.00  0.00     0.029 A 
ATOM     51  N   UNL A   1      41.487  29.529  33.909  1.00  0.00    -0.354 N 
ATOM     52  N   UNL A   1      42.235  28.043  31.465  1.00  0.00    -0.248 NA
ATOM     53  C   UNL A   1      43.672  26.588  30.342  1.00  0.00     0.031 C 
ATOM     54  C   UNL A   1      42.707  29.213  35.737  1.00  0.00     0.029 A 
ATOM     55  C   UNL A   1      42.577  28.838  34.408  1.00  0.00     0.049 A 
ATOM     56  H   UNL A   1      41.158  29.472  32.983  1.00  0.00     0.167 HD
ATOM     57  C   UNL A   1      43.211  27.600  32.348  1.00  0.00     0.074 A 
ATOM     58  C   UNL A   1      44.055  26.684  31.607  1.00  0.00     0.031 C 
ATOM     59  C   UNL A   1      43.391  27.915  33.655  1.00  0.00     0.037 A 
BRANCH  46  60
ATOM     60  C   UNL A   1      39.333  32.023  35.875  1.00  0.00     0.064 A 
ATOM     61  C   UNL A   1      39.827  33.317  36.098  1.00  0.00     0.173 A 
ATOM     62  C   UNL A   1      38.371  31.528  36.769  1.00  0.00     0.173 A 
ATOM     63  F   UNL A   1      40.762  33.833  35.285  1.00  0.00    -0.203 F 
ATOM     64  C   UNL A   1      39.401  34.069  37.190  1.00  0.00     0.198 A 
ATOM     65  C   UNL A   1      37.921  32.295  37.839  1.00  0.00     0.198 A 
ATOM     66  F   UNL A   1      37.864  30.296  36.603  1.00  0.00    -0.203 F 
ATOM     67  F   UNL A   1      39.931  35.280  37.415  1.00  0.00    -0.200 F 
ATOM     68  C   UNL A   1      38.443  33.561  38.055  1.00  0.00     0.200 A 
ATOM     69  F   UNL A   1      36.987  31.807  38.666  1.00  0.00    -0.200 F 
ATOM     70  F   UNL A   1      38.031  34.288  39.102  1.00  0.00    -0.200 F 
ENDBRANCH  46  60
BRANCH  47  71
ATOM     71  C   UNL A   1      42.171  26.777  27.822  1.00  0.00     0.064 A 
ATOM     72  C   UNL A   1      41.683  25.491  27.548  1.00  0.00     0.173 A 
ATOM     73  C   UNL A   1      43.099  27.326  26.925  1.00  0.00     0.173 A 
ATOM     74  F   UNL A   1      40.811  24.914  28.388  1.00  0.00    -0.203 F 
ATOM     75  C   UNL A   1      42.120  24.778  26.433  1.00  0.00     0.198 A 
ATOM     76  C   UNL A   1      43.511  26.625  25.794  1.00  0.00     0.198 A 
ATOM     77  F   UNL A   1      43.596  28.554  27.138  1.00  0.00    -0.203 F 
ATOM     78  F   UNL A   1      41.670  23.534  26.220  1.00  0.00    -0.200 F 
ATOM     79  C   UNL A   1      43.028  25.348  25.553  1.00  0.00     0.200 A 
ATOM     80  F   UNL A   1      44.377  27.186  24.938  1.00  0.00    -0.200 F 
ATOM     81  F   UNL A   1      43.441  24.664  24.477  1.00  0.00    -0.200 F 
ENDBRANCH  47  71
BRANCH  59  82
ATOM     82  C   UNL A   1      44.503  27.223  34.389  1.00  0.00     0.064 A 
ATOM     83  C   UNL A   1      45.781  27.785  34.503  1.00  0.00     0.173 A 
ATOM     84  C   UNL A   1      44.259  26.006  35.046  1.00  0.00     0.173 A 
ATOM     85  F   UNL A   1      46.069  28.940  33.883  1.00  0.00    -0.203 F 
ATOM     86  C   UNL A   1      46.782  27.145  35.229  1.00  0.00     0.198 A 
ATOM     87  C   UNL A   1      45.250  25.386  35.800  1.00  0.00     0.198 A 
ATOM     88  F   UNL A   1      43.048  25.431  34.977  1.00  0.00    -0.203 F 
ATOM     89  F   UNL A   1      48.010  27.678  35.290  1.00  0.00    -0.200 F 
ATOM     90  C   UNL A   1      46.512  25.952  35.885  1.00  0.00     0.200 A 
ATOM     91  F   UNL A   1      44.982  24.244  36.447  1.00  0.00    -0.200 F 
ATOM     92  F   UNL A   1      47.472  25.346  36.597  1.00  0.00    -0.200 F 
ENDBRANCH  59  82
ENDBRANCH  33  34
ENDBRANCH  26  28
ENDBRANCH  25  26
ENDBRANCH  24  25
ENDBRANCH   1  24
TORSDOF 16
ENDMDL
