MODEL 1
REMARK VINA RESULT:     -11.2      0.000      0.000
REMARK SMILES O=C(CCn1cc(/C=C\C(=O)c2ccc(F)cc2)c(-c2cccc(Cl)c2)n1)OCCOCCOC(=O)c1ccc(-c2c3nc(c(-c4c(F)c(F)c(F)c(F)c4F)c4ccc([nH]4)c(-c4c(F)c(F)c(F)c(F)c4F)c4nc(c(-c5c(F)c(F)c(F)c(F)c5F)c5ccc2[nH]5)C=C4)C=C3)cc1
REMARK SMILES IDX 29 1 28 2 2 3 1 4 3 5 4 6 5 7 6 8 27 9 7 10 19 11 8 12 9 13
REMARK SMILES IDX 10 14 11 15 12 16 13 17 18 18 14 19 17 20 15 21 16 22 20 23
REMARK SMILES IDX 21 24 26 25 22 26 24 27 23 28 25 29 30 30 31 31 32 32 33 33
REMARK SMILES IDX 34 34 35 35 36 36 37 37 38 38 99 39 39 40 98 41 40 42 41 43
REMARK SMILES IDX 42 44 92 45 43 46 97 47 91 48 93 49 44 50 96 51 90 52 89 53
REMARK SMILES IDX 45 55 77 56 57 57 76 58 58 59 61 60 75 61 94 62 59 63 60 64
REMARK SMILES IDX 74 66 95 67 62 68 46 69 47 70 55 71 48 72 49 73 53 74 56 75
REMARK SMILES IDX 50 76 51 77 54 78 52 79 78 80 79 81 87 82 80 83 81 84 85 85
REMARK SMILES IDX 88 86 82 87 83 88 86 89 84 90 63 91 64 92 72 93 65 94 66 95
REMARK SMILES IDX 70 96 73 97 67 98 68 99 71 100 69 101
REMARK H PARENT 93 54 61 65
REMARK Flexibility Score: inf
ROOT
ATOM      1  C   UNL A   1      33.265  37.288  30.054  1.00  0.00     0.261 C 
ENDROOT
BRANCH   1   2
ATOM      2  O   UNL A   1      32.518  36.868  31.189  1.00  0.00    -0.463 OA
BRANCH   2   3
ATOM      3  C   UNL A   1      33.140  36.645  32.373  1.00  0.00     0.307 C 
ATOM      4  O   UNL A   1      33.350  37.596  33.123  1.00  0.00    -0.252 OA
BRANCH   3   5
ATOM      5  C   UNL A   1      33.745  35.281  32.657  1.00  0.00     0.146 C 
BRANCH   5   6
ATOM      6  C   UNL A   1      35.076  35.207  33.384  1.00  0.00     0.156 C 
BRANCH   6   7
ATOM      7  N   UNL A   1      36.028  34.187  32.980  1.00  0.00    -0.271 N 
ATOM      8  C   UNL A   1      36.007  32.814  33.104  1.00  0.00     0.117 A 
ATOM      9  N   UNL A   1      37.200  34.627  32.515  1.00  0.00    -0.172 NA
ATOM     10  C   UNL A   1      37.344  32.424  33.117  1.00  0.00     0.021 A 
ATOM     11  C   UNL A   1      38.041  33.636  32.801  1.00  0.00     0.100 A 
BRANCH  10  12
ATOM     12  C   UNL A   1      37.844  31.112  33.489  1.00  0.00     0.016 C 
ATOM     13  C   UNL A   1      38.192  30.542  34.674  1.00  0.00     0.053 C 
BRANCH  13  14
ATOM     14  C   UNL A   1      38.252  30.940  36.162  1.00  0.00     0.185 C 
ATOM     15  O   UNL A   1      37.743  30.208  37.003  1.00  0.00    -0.289 OA
BRANCH  14  16
ATOM     16  C   UNL A   1      38.812  32.342  36.530  1.00  0.00     0.022 A 
ATOM     17  C   UNL A   1      40.582  31.937  36.502  1.00  0.00     0.015 A 
ATOM     18  C   UNL A   1      38.260  34.004  37.533  1.00  0.00     0.015 A 
ATOM     19  C   UNL A   1      41.692  32.942  37.428  1.00  0.00     0.040 A 
ATOM     20  C   UNL A   1      39.519  34.919  38.445  1.00  0.00     0.040 A 
ATOM     21  C   UNL A   1      41.165  34.342  38.366  1.00  0.00     0.123 A 
ATOM     22  F   UNL A   1      42.105  35.005  39.058  1.00  0.00    -0.207 F 
ENDBRANCH  14  16
ENDBRANCH  13  14
ENDBRANCH  10  12
BRANCH  11  23
ATOM     23  C   UNL A   1      39.539  33.774  32.761  1.00  0.00     0.004 A 
ATOM     24  C   UNL A   1      41.023  33.698  31.399  1.00  0.00     0.010 A 
ATOM     25  C   UNL A   1      39.851  34.783  34.251  1.00  0.00     0.031 A 
ATOM     26  C   UNL A   1      42.503  34.669  31.661  1.00  0.00     0.002 A 
ATOM     27  C   UNL A   1      41.355  35.685  34.348  1.00  0.00     0.041 A 
ATOM     28  C   UNL A   1      42.602  35.632  33.107  1.00  0.00     0.020 A 
ATOM     29  Cl  UNL A   1      41.628  36.677  35.730  1.00  0.00    -0.084 Cl
ENDBRANCH  11  23
ENDBRANCH   6   7
ENDBRANCH   5   6
ENDBRANCH   3   5
ENDBRANCH   2   3
ENDBRANCH   1   2
BRANCH   1  30
ATOM     30  C   UNL A   1      33.178  36.354  28.868  1.00  0.00     0.202 C 
BRANCH  30  31
ATOM     31  O   UNL A   1      32.699  35.039  29.141  1.00  0.00    -0.374 OA
BRANCH  31  32
ATOM     32  C   UNL A   1      33.292  33.988  28.369  1.00  0.00     0.202 C 
BRANCH  32  33
ATOM     33  C   UNL A   1      34.763  33.748  28.665  1.00  0.00     0.261 C 
BRANCH  33  34
ATOM     34  O   UNL A   1      34.926  32.520  29.348  1.00  0.00    -0.460 OA
BRANCH  34  35
ATOM     35  C   UNL A   1      35.675  31.580  28.722  1.00  0.00     0.338 C 
ATOM     36  O   UNL A   1      35.529  31.117  27.607  1.00  0.00    -0.246 OA
BRANCH  35  37
ATOM     37  C   UNL A   1      36.687  31.145  29.698  1.00  0.00     0.060 A 
ATOM     38  C   UNL A   1      37.859  31.889  29.688  1.00  0.00     0.016 A 
ATOM     39  C   UNL A   1      36.640  29.813  30.137  1.00  0.00     0.016 A 
ATOM     40  C   UNL A   1      39.030  31.175  29.686  1.00  0.00     0.010 A 
ATOM     41  C   UNL A   1      37.799  29.095  30.076  1.00  0.00     0.010 A 
ATOM     42  C   UNL A   1      38.962  29.773  29.733  1.00  0.00    -0.014 A 
BRANCH  42  43
ATOM     43  C   UNL A   1      40.194  29.023  29.681  1.00  0.00     0.031 A 
ATOM     44  C   UNL A   1      40.708  28.878  31.055  1.00  0.00     0.074 A 
ATOM     45  C   UNL A   1      40.730  28.515  28.554  1.00  0.00     0.049 A 
ATOM     46  N   UNL A   1      41.604  29.628  31.599  1.00  0.00    -0.248 NA
ATOM     47  C   UNL A   1      39.935  28.074  32.019  1.00  0.00     0.031 C 
ATOM     48  C   UNL A   1      40.154  28.434  27.211  1.00  0.00     0.029 A 
ATOM     49  N   UNL A   1      41.936  27.894  28.402  1.00  0.00    -0.354 N 
ATOM     50  C   UNL A   1      41.697  29.182  32.907  1.00  0.00     0.074 A 
ATOM     51  C   UNL A   1      40.482  28.465  33.171  1.00  0.00     0.031 C 
ATOM     52  C   UNL A   1      40.907  27.605  26.445  1.00  0.00     0.029 A 
ATOM     53  C   UNL A   1      42.091  27.216  27.189  1.00  0.00     0.049 A 
ATOM     54  H   UNL A   1      42.638  27.922  29.091  1.00  0.00     0.167 HD
ATOM     55  C   UNL A   1      42.920  29.119  33.496  1.00  0.00     0.037 A 
ATOM     56  C   UNL A   1      43.118  26.372  26.889  1.00  0.00     0.037 A 
ATOM     57  C   UNL A   1      43.855  29.955  32.776  1.00  0.00     0.049 A 
ATOM     58  C   UNL A   1      44.229  26.713  27.816  1.00  0.00     0.074 A 
ATOM     59  C   UNL A   1      43.936  31.303  32.486  1.00  0.00     0.029 A 
ATOM     60  N   UNL A   1      44.649  29.315  31.859  1.00  0.00    -0.354 N 
ATOM     61  N   UNL A   1      44.886  27.838  27.768  1.00  0.00    -0.248 NA
ATOM     62  C   UNL A   1      44.264  26.013  29.090  1.00  0.00     0.031 C 
ATOM     63  C   UNL A   1      44.452  31.372  31.158  1.00  0.00     0.029 A 
ATOM     64  C   UNL A   1      44.764  30.081  30.733  1.00  0.00     0.049 A 
ATOM     65  H   UNL A   1      45.074  28.436  31.992  1.00  0.00     0.167 HD
ATOM     66  C   UNL A   1      45.019  28.214  29.096  1.00  0.00     0.074 A 
ATOM     67  C   UNL A   1      44.680  27.016  29.867  1.00  0.00     0.031 C 
ATOM     68  C   UNL A   1      45.080  29.535  29.432  1.00  0.00     0.037 A 
BRANCH  55  69
ATOM     69  C   UNL A   1      43.369  27.960  34.360  1.00  0.00     0.064 A 
ATOM     70  C   UNL A   1      43.486  27.989  35.771  1.00  0.00     0.173 A 
ATOM     71  C   UNL A   1      43.404  26.674  33.785  1.00  0.00     0.173 A 
ATOM     72  F   UNL A   1      43.371  29.108  36.491  1.00  0.00    -0.203 F 
ATOM     73  C   UNL A   1      43.613  26.834  36.537  1.00  0.00     0.198 A 
ATOM     74  C   UNL A   1      43.479  25.516  34.563  1.00  0.00     0.198 A 
ATOM     75  F   UNL A   1      43.266  26.516  32.461  1.00  0.00    -0.203 F 
ATOM     76  F   UNL A   1      43.681  26.939  37.874  1.00  0.00    -0.200 F 
ATOM     77  C   UNL A   1      43.582  25.597  35.939  1.00  0.00     0.200 A 
ATOM     78  F   UNL A   1      43.380  24.317  33.976  1.00  0.00    -0.200 F 
ATOM     79  F   UNL A   1      43.603  24.490  36.689  1.00  0.00    -0.200 F 
ENDBRANCH  55  69
BRANCH  56  80
ATOM     80  C   UNL A   1      43.111  25.069  26.169  1.00  0.00     0.064 A 
ATOM     81  C   UNL A   1      42.397  23.962  26.662  1.00  0.00     0.173 A 
ATOM     82  C   UNL A   1      44.079  24.791  25.181  1.00  0.00     0.173 A 
ATOM     83  F   UNL A   1      41.493  24.111  27.640  1.00  0.00    -0.203 F 
ATOM     84  C   UNL A   1      42.672  22.658  26.240  1.00  0.00     0.198 A 
ATOM     85  C   UNL A   1      44.355  23.484  24.761  1.00  0.00     0.198 A 
ATOM     86  F   UNL A   1      44.834  25.779  24.680  1.00  0.00    -0.203 F 
ATOM     87  F   UNL A   1      42.021  21.628  26.800  1.00  0.00    -0.200 F 
ATOM     88  C   UNL A   1      43.664  22.416  25.306  1.00  0.00     0.200 A 
ATOM     89  F   UNL A   1      45.342  23.255  23.882  1.00  0.00    -0.200 F 
ATOM     90  F   UNL A   1      43.980  21.158  24.967  1.00  0.00    -0.200 F 
ENDBRANCH  56  80
BRANCH  68  91
ATOM     91  C   UNL A   1      45.342  30.534  28.337  1.00  0.00     0.064 A 
ATOM     92  C   UNL A   1      46.639  31.056  28.247  1.00  0.00     0.173 A 
ATOM     93  C   UNL A   1      44.355  31.106  27.513  1.00  0.00     0.173 A 
ATOM     94  F   UNL A   1      47.610  30.573  29.037  1.00  0.00    -0.203 F 
ATOM     95  C   UNL A   1      46.937  32.116  27.399  1.00  0.00     0.198 A 
ATOM     96  C   UNL A   1      44.667  32.143  26.632  1.00  0.00     0.198 A 
ATOM     97  F   UNL A   1      43.074  30.717  27.595  1.00  0.00    -0.203 F 
ATOM     98  F   UNL A   1      48.171  32.639  27.400  1.00  0.00    -0.200 F 
ATOM     99  C   UNL A   1      45.954  32.657  26.589  1.00  0.00     0.200 A 
ATOM    100  F   UNL A   1      43.713  32.679  25.856  1.00  0.00    -0.200 F 
ATOM    101  F   UNL A   1      46.241  33.692  25.786  1.00  0.00    -0.200 F 
ENDBRANCH  68  91
ENDBRANCH  42  43
ENDBRANCH  35  37
ENDBRANCH  34  35
ENDBRANCH  33  34
ENDBRANCH  32  33
ENDBRANCH  31  32
ENDBRANCH  30  31
ENDBRANCH   1  30
TORSDOF 20
ENDMDL
MODEL 2
REMARK VINA RESULT:     -11.0      5.958     12.647
REMARK SMILES O=C(CCn1cc(/C=C\C(=O)c2ccc(F)cc2)c(-c2cccc(Cl)c2)n1)OCCOCCOC(=O)c1ccc(-c2c3nc(c(-c4c(F)c(F)c(F)c(F)c4F)c4ccc([nH]4)c(-c4c(F)c(F)c(F)c(F)c4F)c4nc(c(-c5c(F)c(F)c(F)c(F)c5F)c5ccc2[nH]5)C=C4)C=C3)cc1
REMARK SMILES IDX 29 1 28 2 2 3 1 4 3 5 4 6 5 7 6 8 27 9 7 10 19 11 8 12 9 13
REMARK SMILES IDX 10 14 11 15 12 16 13 17 18 18 14 19 17 20 15 21 16 22 20 23
REMARK SMILES IDX 21 24 26 25 22 26 24 27 23 28 25 29 30 30 31 31 32 32 33 33
REMARK SMILES IDX 34 34 35 35 36 36 37 37 38 38 99 39 39 40 98 41 40 42 41 43
REMARK SMILES IDX 42 44 92 45 43 46 97 47 91 48 93 49 44 50 96 51 90 52 89 53
REMARK SMILES IDX 45 55 77 56 57 57 76 58 58 59 61 60 75 61 94 62 59 63 60 64
REMARK SMILES IDX 74 66 95 67 62 68 46 69 47 70 55 71 48 72 49 73 53 74 56 75
REMARK SMILES IDX 50 76 51 77 54 78 52 79 78 80 79 81 87 82 80 83 81 84 85 85
REMARK SMILES IDX 88 86 82 87 83 88 86 89 84 90 63 91 64 92 72 93 65 94 66 95
REMARK SMILES IDX 70 96 73 97 67 98 68 99 71 100 69 101
REMARK H PARENT 93 54 61 65
REMARK Flexibility Score: inf
ROOT
ATOM      1  C   UNL A   1      41.863  19.233  25.776  1.00  0.00     0.261 C 
ENDROOT
BRANCH   1   2
ATOM      2  O   UNL A   1      41.285  20.134  26.712  1.00  0.00    -0.463 OA
BRANCH   2   3
ATOM      3  C   UNL A   1      40.695  21.278  26.287  1.00  0.00     0.307 C 
ATOM      4  O   UNL A   1      41.377  22.294  26.176  1.00  0.00    -0.252 OA
BRANCH   3   5
ATOM      5  C   UNL A   1      39.182  21.338  26.159  1.00  0.00     0.146 C 
BRANCH   5   6
ATOM      6  C   UNL A   1      38.520  22.683  25.921  1.00  0.00     0.156 C 
BRANCH   6   7
ATOM      7  N   UNL A   1      37.163  22.704  25.404  1.00  0.00    -0.271 N 
ATOM      8  C   UNL A   1      36.647  22.358  24.174  1.00  0.00     0.117 A 
ATOM      9  N   UNL A   1      36.242  23.269  26.190  1.00  0.00    -0.172 NA
ATOM     10  C   UNL A   1      35.482  23.111  24.037  1.00  0.00     0.021 A 
ATOM     11  C   UNL A   1      35.326  23.709  25.331  1.00  0.00     0.100 A 
BRANCH  10  12
ATOM     12  C   UNL A   1      34.726  23.294  22.810  1.00  0.00     0.016 C 
ATOM     13  C   UNL A   1      33.464  22.960  22.428  1.00  0.00     0.053 C 
BRANCH  13  14
ATOM     14  C   UNL A   1      32.235  22.252  23.031  1.00  0.00     0.185 C 
ATOM     15  O   UNL A   1      31.309  22.923  23.474  1.00  0.00    -0.289 OA
BRANCH  14  16
ATOM     16  C   UNL A   1      32.284  20.710  23.209  1.00  0.00     0.022 A 
ATOM     17  C   UNL A   1      33.170  20.653  24.793  1.00  0.00     0.015 A 
ATOM     18  C   UNL A   1      32.286  19.031  22.089  1.00  0.00     0.015 A 
ATOM     19  C   UNL A   1      34.060  19.193  25.211  1.00  0.00     0.040 A 
ATOM     20  C   UNL A   1      33.261  17.621  22.650  1.00  0.00     0.040 A 
ATOM     21  C   UNL A   1      34.112  17.769  24.168  1.00  0.00     0.123 A 
ATOM     22  F   UNL A   1      34.857  16.732  24.583  1.00  0.00    -0.207 F 
ENDBRANCH  14  16
ENDBRANCH  13  14
ENDBRANCH  10  12
BRANCH  11  23
ATOM     23  C   UNL A   1      34.244  24.690  25.693  1.00  0.00     0.004 A 
ATOM     24  C   UNL A   1      33.616  26.518  25.119  1.00  0.00     0.010 A 
ATOM     25  C   UNL A   1      32.987  23.590  26.431  1.00  0.00     0.031 A 
ATOM     26  C   UNL A   1      31.882  26.935  25.270  1.00  0.00     0.002 A 
ATOM     27  C   UNL A   1      31.324  24.150  26.496  1.00  0.00     0.041 A 
ATOM     28  C   UNL A   1      30.809  25.736  25.932  1.00  0.00     0.020 A 
ATOM     29  Cl  UNL A   1      30.128  23.093  27.146  1.00  0.00    -0.084 Cl
ENDBRANCH  11  23
ENDBRANCH   6   7
ENDBRANCH   5   6
ENDBRANCH   3   5
ENDBRANCH   2   3
ENDBRANCH   1   2
BRANCH   1  30
ATOM     30  C   UNL A   1      43.063  18.474  26.297  1.00  0.00     0.202 C 
BRANCH  30  31
ATOM     31  O   UNL A   1      44.068  18.157  25.337  1.00  0.00    -0.374 OA
BRANCH  31  32
ATOM     32  C   UNL A   1      45.410  18.498  25.707  1.00  0.00     0.202 C 
BRANCH  32  33
ATOM     33  C   UNL A   1      46.063  19.535  24.809  1.00  0.00     0.261 C 
BRANCH  33  34
ATOM     34  O   UNL A   1      46.003  20.811  25.418  1.00  0.00    -0.460 OA
BRANCH  34  35
ATOM     35  C   UNL A   1      45.040  21.648  24.960  1.00  0.00     0.338 C 
ATOM     36  O   UNL A   1      44.022  21.370  24.354  1.00  0.00    -0.246 OA
BRANCH  35  37
ATOM     37  C   UNL A   1      45.502  23.011  25.268  1.00  0.00     0.060 A 
ATOM     38  C   UNL A   1      45.978  23.183  26.560  1.00  0.00     0.016 A 
ATOM     39  C   UNL A   1      44.973  24.066  24.510  1.00  0.00     0.016 A 
ATOM     40  C   UNL A   1      45.515  24.283  27.235  1.00  0.00     0.010 A 
ATOM     41  C   UNL A   1      44.463  25.131  25.195  1.00  0.00     0.010 A 
ATOM     42  C   UNL A   1      44.642  25.160  26.571  1.00  0.00    -0.014 A 
BRANCH  42  43
ATOM     43  C   UNL A   1      44.118  26.290  27.299  1.00  0.00     0.031 A 
ATOM     44  C   UNL A   1      45.033  27.430  27.110  1.00  0.00     0.074 A 
ATOM     45  C   UNL A   1      42.960  26.283  27.987  1.00  0.00     0.049 A 
ATOM     46  N   UNL A   1      45.961  27.787  27.931  1.00  0.00    -0.248 NA
ATOM     47  C   UNL A   1      45.172  28.010  25.762  1.00  0.00     0.031 C 
ATOM     48  C   UNL A   1      41.912  25.262  28.023  1.00  0.00     0.029 A 
ATOM     49  N   UNL A   1      42.450  27.264  28.787  1.00  0.00    -0.354 N 
ATOM     50  C   UNL A   1      46.614  28.833  27.300  1.00  0.00     0.074 A 
ATOM     51  C   UNL A   1      46.291  28.721  25.905  1.00  0.00     0.031 C 
ATOM     52  C   UNL A   1      40.801  25.772  28.613  1.00  0.00     0.029 A 
ATOM     53  C   UNL A   1      41.104  27.095  29.128  1.00  0.00     0.049 A 
ATOM     54  H   UNL A   1      42.986  28.028  29.098  1.00  0.00     0.167 HD
ATOM     55  C   UNL A   1      47.026  29.893  28.042  1.00  0.00     0.037 A 
ATOM     56  C   UNL A   1      40.330  28.028  29.750  1.00  0.00     0.037 A 
ATOM     57  C   UNL A   1      47.091  29.522  29.437  1.00  0.00     0.049 A 
ATOM     58  C   UNL A   1      41.263  28.967  30.427  1.00  0.00     0.074 A 
ATOM     59  C   UNL A   1      47.802  28.588  30.167  1.00  0.00     0.029 A 
ATOM     60  N   UNL A   1      46.001  29.858  30.199  1.00  0.00    -0.354 N 
ATOM     61  N   UNL A   1      42.010  28.632  31.441  1.00  0.00    -0.248 NA
ATOM     62  C   UNL A   1      41.716  30.116  29.660  1.00  0.00     0.031 C 
ATOM     63  C   UNL A   1      46.890  28.107  31.153  1.00  0.00     0.029 A 
ATOM     64  C   UNL A   1      45.704  28.835  31.057  1.00  0.00     0.049 A 
ATOM     65  H   UNL A   1      45.507  30.708  30.138  1.00  0.00     0.167 HD
ATOM     66  C   UNL A   1      43.239  29.212  31.168  1.00  0.00     0.074 A 
ATOM     67  C   UNL A   1      42.977  30.172  30.095  1.00  0.00     0.031 C 
ATOM     68  C   UNL A   1      44.388  28.630  31.619  1.00  0.00     0.037 A 
BRANCH  55  69
ATOM     69  C   UNL A   1      46.875  31.332  27.593  1.00  0.00     0.064 A 
ATOM     70  C   UNL A   1      47.938  32.185  27.212  1.00  0.00     0.173 A 
ATOM     71  C   UNL A   1      45.589  31.790  27.246  1.00  0.00     0.173 A 
ATOM     72  F   UNL A   1      49.225  31.864  27.368  1.00  0.00    -0.203 F 
ATOM     73  C   UNL A   1      47.733  33.384  26.534  1.00  0.00     0.198 A 
ATOM     74  C   UNL A   1      45.392  32.967  26.520  1.00  0.00     0.198 A 
ATOM     75  F   UNL A   1      44.505  31.051  27.522  1.00  0.00    -0.203 F 
ATOM     76  F   UNL A   1      48.794  34.122  26.173  1.00  0.00    -0.200 F 
ATOM     77  C   UNL A   1      46.464  33.763  26.164  1.00  0.00     0.200 A 
ATOM     78  F   UNL A   1      44.161  33.291  26.106  1.00  0.00    -0.200 F 
ATOM     79  F   UNL A   1      46.284  34.863  25.425  1.00  0.00    -0.200 F 
ENDBRANCH  55  69
BRANCH  56  80
ATOM     80  C   UNL A   1      38.914  28.419  29.506  1.00  0.00     0.064 A 
ATOM     81  C   UNL A   1      38.491  28.901  28.255  1.00  0.00     0.173 A 
ATOM     82  C   UNL A   1      38.039  28.654  30.588  1.00  0.00     0.173 A 
ATOM     83  F   UNL A   1      39.273  28.777  27.173  1.00  0.00    -0.203 F 
ATOM     84  C   UNL A   1      37.303  29.620  28.103  1.00  0.00     0.198 A 
ATOM     85  C   UNL A   1      36.849  29.377  30.435  1.00  0.00     0.198 A 
ATOM     86  F   UNL A   1      38.376  28.263  31.825  1.00  0.00    -0.203 F 
ATOM     87  F   UNL A   1      36.983  30.131  26.905  1.00  0.00    -0.200 F 
ATOM     88  C   UNL A   1      36.492  29.876  29.195  1.00  0.00     0.200 A 
ATOM     89  F   UNL A   1      36.088  29.650  31.505  1.00  0.00    -0.200 F 
ATOM     90  F   UNL A   1      35.397  30.638  29.060  1.00  0.00    -0.200 F 
ENDBRANCH  56  80
BRANCH  68  91
ATOM     91  C   UNL A   1      44.276  27.566  32.679  1.00  0.00     0.064 A 
ATOM     92  C   UNL A   1      44.534  27.955  34.001  1.00  0.00     0.173 A 
ATOM     93  C   UNL A   1      44.102  26.193  32.430  1.00  0.00     0.173 A 
ATOM     94  F   UNL A   1      44.746  29.249  34.288  1.00  0.00    -0.203 F 
ATOM     95  C   UNL A   1      44.643  27.020  35.023  1.00  0.00     0.198 A 
ATOM     96  C   UNL A   1      44.170  25.261  33.467  1.00  0.00     0.198 A 
ATOM     97  F   UNL A   1      43.929  25.733  31.182  1.00  0.00    -0.203 F 
ATOM     98  F   UNL A   1      44.969  27.424  36.259  1.00  0.00    -0.200 F 
ATOM     99  C   UNL A   1      44.456  25.674  34.758  1.00  0.00     0.200 A 
ATOM    100  F   UNL A   1      44.004  23.954  33.210  1.00  0.00    -0.200 F 
ATOM    101  F   UNL A   1      44.580  24.774  35.744  1.00  0.00    -0.200 F 
ENDBRANCH  68  91
ENDBRANCH  42  43
ENDBRANCH  35  37
ENDBRANCH  34  35
ENDBRANCH  33  34
ENDBRANCH  32  33
ENDBRANCH  31  32
ENDBRANCH  30  31
ENDBRANCH   1  30
TORSDOF 20
ENDMDL
MODEL 3
REMARK VINA RESULT:     -11.0      5.905     12.411
REMARK SMILES O=C(CCn1cc(/C=C\C(=O)c2ccc(F)cc2)c(-c2cccc(Cl)c2)n1)OCCOCCOC(=O)c1ccc(-c2c3nc(c(-c4c(F)c(F)c(F)c(F)c4F)c4ccc([nH]4)c(-c4c(F)c(F)c(F)c(F)c4F)c4nc(c(-c5c(F)c(F)c(F)c(F)c5F)c5ccc2[nH]5)C=C4)C=C3)cc1
REMARK SMILES IDX 29 1 28 2 2 3 1 4 3 5 4 6 5 7 6 8 27 9 7 10 19 11 8 12 9 13
REMARK SMILES IDX 10 14 11 15 12 16 13 17 18 18 14 19 17 20 15 21 16 22 20 23
REMARK SMILES IDX 21 24 26 25 22 26 24 27 23 28 25 29 30 30 31 31 32 32 33 33
REMARK SMILES IDX 34 34 35 35 36 36 37 37 38 38 99 39 39 40 98 41 40 42 41 43
REMARK SMILES IDX 42 44 92 45 43 46 97 47 91 48 93 49 44 50 96 51 90 52 89 53
REMARK SMILES IDX 45 55 77 56 57 57 76 58 58 59 61 60 75 61 94 62 59 63 60 64
REMARK SMILES IDX 74 66 95 67 62 68 46 69 47 70 55 71 48 72 49 73 53 74 56 75
REMARK SMILES IDX 50 76 51 77 54 78 52 79 78 80 79 81 87 82 80 83 81 84 85 85
REMARK SMILES IDX 88 86 82 87 83 88 86 89 84 90 63 91 64 92 72 93 65 94 66 95
REMARK SMILES IDX 70 96 73 97 67 98 68 99 71 100 69 101
REMARK H PARENT 93 54 61 65
REMARK Flexibility Score: inf
ROOT
ATOM      1  C   UNL A   1      41.494  20.831  27.856  1.00  0.00     0.261 C 
ENDROOT
BRANCH   1   2
ATOM      2  O   UNL A   1      40.165  21.137  27.451  1.00  0.00    -0.463 OA
BRANCH   2   3
ATOM      3  C   UNL A   1      39.942  21.999  26.428  1.00  0.00     0.307 C 
ATOM      4  O   UNL A   1      40.831  22.181  25.600  1.00  0.00    -0.252 OA
BRANCH   3   5
ATOM      5  C   UNL A   1      38.697  22.869  26.439  1.00  0.00     0.146 C 
BRANCH   5   6
ATOM      6  C   UNL A   1      37.593  22.580  25.438  1.00  0.00     0.156 C 
BRANCH   6   7
ATOM      7  N   UNL A   1      36.245  23.022  25.749  1.00  0.00    -0.271 N 
ATOM      8  C   UNL A   1      35.119  22.326  26.133  1.00  0.00     0.117 A 
ATOM      9  N   UNL A   1      35.979  24.309  25.512  1.00  0.00    -0.172 NA
ATOM     10  C   UNL A   1      34.042  23.106  25.717  1.00  0.00     0.021 A 
ATOM     11  C   UNL A   1      34.669  24.319  25.277  1.00  0.00     0.100 A 
BRANCH  10  12
ATOM     12  C   UNL A   1      32.654  22.681  25.659  1.00  0.00     0.016 C 
ATOM     13  C   UNL A   1      32.022  21.621  25.089  1.00  0.00     0.053 C 
BRANCH  13  14
ATOM     14  C   UNL A   1      32.392  20.383  24.249  1.00  0.00     0.185 C 
ATOM     15  O   UNL A   1      32.184  20.390  23.040  1.00  0.00    -0.289 OA
BRANCH  14  16
ATOM     16  C   UNL A   1      32.864  19.101  24.988  1.00  0.00     0.022 A 
ATOM     17  C   UNL A   1      34.648  19.268  24.699  1.00  0.00     0.015 A 
ATOM     18  C   UNL A   1      32.176  17.269  25.483  1.00  0.00     0.015 A 
ATOM     19  C   UNL A   1      35.653  17.824  24.759  1.00  0.00     0.040 A 
ATOM     20  C   UNL A   1      33.333  15.885  25.487  1.00  0.00     0.040 A 
ATOM     21  C   UNL A   1      35.006  16.218  25.111  1.00  0.00     0.123 A 
ATOM     22  F   UNL A   1      35.870  15.192  25.092  1.00  0.00    -0.207 F 
ENDBRANCH  14  16
ENDBRANCH  13  14
ENDBRANCH  10  12
BRANCH  11  23
ATOM     23  C   UNL A   1      33.940  25.479  24.654  1.00  0.00     0.004 A 
ATOM     24  C   UNL A   1      33.011  25.917  22.920  1.00  0.00     0.010 A 
ATOM     25  C   UNL A   1      33.380  26.393  26.133  1.00  0.00     0.031 A 
ATOM     26  C   UNL A   1      31.654  27.083  22.923  1.00  0.00     0.002 A 
ATOM     27  C   UNL A   1      32.025  27.498  25.967  1.00  0.00     0.041 A 
ATOM     28  C   UNL A   1      31.206  27.810  24.440  1.00  0.00     0.020 A 
ATOM     29  Cl  UNL A   1      31.463  28.323  27.371  1.00  0.00    -0.084 Cl
ENDBRANCH  11  23
ENDBRANCH   6   7
ENDBRANCH   5   6
ENDBRANCH   3   5
ENDBRANCH   2   3
ENDBRANCH   1   2
BRANCH   1  30
ATOM     30  C   UNL A   1      41.949  19.433  27.503  1.00  0.00     0.202 C 
BRANCH  30  31
ATOM     31  O   UNL A   1      41.684  19.008  26.168  1.00  0.00    -0.374 OA
BRANCH  31  32
ATOM     32  C   UNL A   1      42.837  18.773  25.350  1.00  0.00     0.202 C 
BRANCH  32  33
ATOM     33  C   UNL A   1      44.050  19.609  25.722  1.00  0.00     0.261 C 
BRANCH  33  34
ATOM     34  O   UNL A   1      44.301  20.573  24.718  1.00  0.00    -0.460 OA
BRANCH  34  35
ATOM     35  C   UNL A   1      45.568  21.049  24.647  1.00  0.00     0.338 C 
ATOM     36  O   UNL A   1      46.612  20.439  24.778  1.00  0.00    -0.246 OA
BRANCH  35  37
ATOM     37  C   UNL A   1      45.449  22.503  24.455  1.00  0.00     0.060 A 
ATOM     38  C   UNL A   1      46.464  23.249  25.038  1.00  0.00     0.016 A 
ATOM     39  C   UNL A   1      44.171  23.026  24.211  1.00  0.00     0.016 A 
ATOM     40  C   UNL A   1      46.071  24.340  25.770  1.00  0.00     0.010 A 
ATOM     41  C   UNL A   1      43.768  24.076  24.985  1.00  0.00     0.010 A 
ATOM     42  C   UNL A   1      44.701  24.641  25.844  1.00  0.00    -0.014 A 
BRANCH  42  43
ATOM     43  C   UNL A   1      44.286  25.760  26.654  1.00  0.00     0.031 A 
ATOM     44  C   UNL A   1      45.225  26.874  26.424  1.00  0.00     0.074 A 
ATOM     45  C   UNL A   1      43.193  25.767  27.442  1.00  0.00     0.049 A 
ATOM     46  N   UNL A   1      46.234  27.166  27.171  1.00  0.00    -0.248 NA
ATOM     47  C   UNL A   1      45.267  27.500  25.090  1.00  0.00     0.031 C 
ATOM     48  C   UNL A   1      42.114  24.783  27.534  1.00  0.00     0.029 A 
ATOM     49  N   UNL A   1      42.793  26.735  28.317  1.00  0.00    -0.354 N 
ATOM     50  C   UNL A   1      46.868  28.212  26.521  1.00  0.00     0.074 A 
ATOM     51  C   UNL A   1      46.421  28.165  25.158  1.00  0.00     0.031 C 
ATOM     52  C   UNL A   1      41.080  25.309  28.238  1.00  0.00     0.029 A 
ATOM     53  C   UNL A   1      41.477  26.600  28.770  1.00  0.00     0.049 A 
ATOM     54  H   UNL A   1      43.384  27.467  28.605  1.00  0.00     0.167 HD
ATOM     55  C   UNL A   1      47.384  29.229  27.260  1.00  0.00     0.037 A 
ATOM     56  C   UNL A   1      40.796  27.535  29.490  1.00  0.00     0.037 A 
ATOM     57  C   UNL A   1      47.556  28.803  28.631  1.00  0.00     0.049 A 
ATOM     58  C   UNL A   1      41.820  28.415  30.114  1.00  0.00     0.074 A 
ATOM     59  C   UNL A   1      48.292  27.817  29.261  1.00  0.00     0.029 A 
ATOM     60  N   UNL A   1      46.551  29.147  29.498  1.00  0.00    -0.354 N 
ATOM     61  N   UNL A   1      42.640  28.015  31.046  1.00  0.00    -0.248 NA
ATOM     62  C   UNL A   1      42.248  29.575  29.350  1.00  0.00     0.031 C 
ATOM     63  C   UNL A   1      47.452  27.332  30.307  1.00  0.00     0.029 A 
ATOM     64  C   UNL A   1      46.291  28.104  30.343  1.00  0.00     0.049 A 
ATOM     65  H   UNL A   1      46.086  30.016  29.510  1.00  0.00     0.167 HD
ATOM     66  C   UNL A   1      43.862  28.562  30.685  1.00  0.00     0.074 A 
ATOM     67  C   UNL A   1      43.543  29.571  29.673  1.00  0.00     0.031 C 
ATOM     68  C   UNL A   1      45.023  27.923  31.011  1.00  0.00     0.037 A 
BRANCH  55  69
ATOM     69  C   UNL A   1      47.249  30.688  26.876  1.00  0.00     0.064 A 
ATOM     70  C   UNL A   1      46.026  31.375  26.692  1.00  0.00     0.173 A 
ATOM     71  C   UNL A   1      48.387  31.512  26.983  1.00  0.00     0.173 A 
ATOM     72  F   UNL A   1      44.839  30.762  26.673  1.00  0.00    -0.203 F 
ATOM     73  C   UNL A   1      45.946  32.763  26.632  1.00  0.00     0.198 A 
ATOM     74  C   UNL A   1      48.294  32.907  26.976  1.00  0.00     0.198 A 
ATOM     75  F   UNL A   1      49.598  30.979  27.196  1.00  0.00    -0.203 F 
ATOM     76  F   UNL A   1      44.744  33.345  26.494  1.00  0.00    -0.200 F 
ATOM     77  C   UNL A   1      47.074  33.531  26.801  1.00  0.00     0.200 A 
ATOM     78  F   UNL A   1      49.387  33.644  27.209  1.00  0.00    -0.200 F 
ATOM     79  F   UNL A   1      46.975  34.865  26.845  1.00  0.00    -0.200 F 
ENDBRANCH  55  69
BRANCH  56  80
ATOM     80  C   UNL A   1      39.381  27.984  29.386  1.00  0.00     0.064 A 
ATOM     81  C   UNL A   1      38.894  28.616  28.228  1.00  0.00     0.173 A 
ATOM     82  C   UNL A   1      38.584  28.115  30.544  1.00  0.00     0.173 A 
ATOM     83  F   UNL A   1      39.602  28.597  27.090  1.00  0.00    -0.203 F 
ATOM     84  C   UNL A   1      37.721  29.375  28.238  1.00  0.00     0.198 A 
ATOM     85  C   UNL A   1      37.410  28.878  30.553  1.00  0.00     0.198 A 
ATOM     86  F   UNL A   1      38.987  27.578  31.705  1.00  0.00    -0.203 F 
ATOM     87  F   UNL A   1      37.342  30.026  27.129  1.00  0.00    -0.200 F 
ATOM     88  C   UNL A   1      36.989  29.524  29.404  1.00  0.00     0.200 A 
ATOM     89  F   UNL A   1      36.727  29.046  31.695  1.00  0.00    -0.200 F 
ATOM     90  F   UNL A   1      35.912  30.321  29.428  1.00  0.00    -0.200 F 
ENDBRANCH  56  80
BRANCH  68  91
ATOM     91  C   UNL A   1      44.963  26.825  32.040  1.00  0.00     0.064 A 
ATOM     92  C   UNL A   1      44.768  25.520  31.568  1.00  0.00     0.173 A 
ATOM     93  C   UNL A   1      44.920  27.025  33.431  1.00  0.00     0.173 A 
ATOM     94  F   UNL A   1      44.761  25.280  30.248  1.00  0.00    -0.203 F 
ATOM     95  C   UNL A   1      44.511  24.466  32.437  1.00  0.00     0.198 A 
ATOM     96  C   UNL A   1      44.704  25.956  34.304  1.00  0.00     0.198 A 
ATOM     97  F   UNL A   1      45.021  28.254  33.958  1.00  0.00    -0.203 F 
ATOM     98  F   UNL A   1      44.250  23.248  31.942  1.00  0.00    -0.200 F 
ATOM     99  C   UNL A   1      44.484  24.682  33.804  1.00  0.00     0.200 A 
ATOM    100  F   UNL A   1      44.662  26.165  35.628  1.00  0.00    -0.200 F 
ATOM    101  F   UNL A   1      44.218  23.666  34.637  1.00  0.00    -0.200 F 
ENDBRANCH  68  91
ENDBRANCH  42  43
ENDBRANCH  35  37
ENDBRANCH  34  35
ENDBRANCH  33  34
ENDBRANCH  32  33
ENDBRANCH  31  32
ENDBRANCH  30  31
ENDBRANCH   1  30
TORSDOF 20
ENDMDL
