MODEL 1
REMARK VINA RESULT:     -12.8      0.000      0.000
REMARK SMILES Cc1cc(S(F)(F)(F)(F)F)cc2c1O[C@H](C(F)(F)F)C(C(=O)OCCOCCOC(=O)c1ccc(-c3c4nc(c(-c5c(F)c(F)c(F)c(F)c5F)c5ccc([nH]5)c(-c5c(F)c(F)c(F)c(F)c5F)c5nc(c(-c6c(F)c(F)c(F)c(F)c6F)c6ccc3[nH]6)C=C5)C=C4)cc1)=C2
REMARK SMILES IDX 27 1 26 2 25 3 24 4 23 5 21 6 22 7 20 8 1 9 2 10 3 11 13 12
REMARK SMILES IDX 4 13 12 14 14 15 11 16 95 17 15 18 5 19 6 20 7 21 8 22 9 23
REMARK SMILES IDX 10 24 16 25 17 26 18 27 19 28 28 29 29 30 30 31 31 32 32 33
REMARK SMILES IDX 33 34 94 35 34 36 93 37 35 38 36 39 37 40 87 41 38 42 92 43
REMARK SMILES IDX 86 44 88 45 39 46 91 47 85 48 84 49 40 51 72 52 52 53 71 54
REMARK SMILES IDX 53 55 56 56 70 57 89 58 54 59 55 60 69 62 90 63 57 64 41 65
REMARK SMILES IDX 42 66 50 67 43 68 44 69 48 70 51 71 45 72 46 73 49 74 47 75
REMARK SMILES IDX 73 76 74 77 82 78 75 79 76 80 80 81 83 82 77 83 78 84 81 85
REMARK SMILES IDX 79 86 58 87 59 88 67 89 60 90 61 91 65 92 68 93 62 94 63 95
REMARK SMILES IDX 66 96 64 97
REMARK H PARENT 88 50 56 61
REMARK Flexibility Score: inf
ROOT
ATOM      1  C   UNL A   1      38.455  19.425  24.999  1.00  0.00     0.202 C 
ENDROOT
BRANCH   1   2
ATOM      2  O   UNL A   1      37.644  20.584  24.882  1.00  0.00    -0.374 OA
BRANCH   2   3
ATOM      3  C   UNL A   1      38.304  21.685  25.494  1.00  0.00     0.202 C 
BRANCH   3   4
ATOM      4  C   UNL A   1      37.381  22.893  25.489  1.00  0.00     0.261 C 
BRANCH   4   5
ATOM      5  O   UNL A   1      36.110  22.515  24.980  1.00  0.00    -0.460 OA
BRANCH   5   6
ATOM      6  C   UNL A   1      35.576  23.176  23.842  1.00  0.00     0.338 C 
ATOM      7  O   UNL A   1      36.114  23.013  22.702  1.00  0.00    -0.246 OA
BRANCH   6   8
ATOM      8  C   UNL A   1      34.361  24.077  23.987  1.00  0.00     0.087 C 
ATOM      9  C   UNL A   1      29.638  26.149  23.783  1.00  0.00     0.048 C 
ATOM     10  C   UNL A   1      30.992  26.532  24.355  1.00  0.00    -0.007 A 
ATOM     11  C   UNL A   1      31.086  27.669  25.129  1.00  0.00     0.031 A 
ATOM     12  C   UNL A   1      32.105  25.702  24.221  1.00  0.00     0.130 A 
ATOM     13  C   UNL A   1      32.275  27.994  25.770  1.00  0.00     0.108 A 
ATOM     14  C   UNL A   1      33.311  26.034  24.878  1.00  0.00     0.019 A 
ATOM     15  O   UNL A   1      32.069  24.478  23.410  1.00  0.00    -0.475 OA
ATOM     16  C   UNL A   1      33.376  27.191  25.657  1.00  0.00     0.036 A 
ATOM     17  C   UNL A   1      34.462  25.146  24.720  1.00  0.00     0.027 C 
ATOM     18  C   UNL A   1      33.185  23.724  23.326  1.00  0.00     0.316 C 
BRANCH  13  19
ATOM     19  S   UNL A   1      32.368  29.502  26.768  1.00  0.00     0.310 S 
ATOM     20  F   UNL A   1      33.726  29.104  27.483  1.00  0.00    -0.094 F 
ATOM     21  F   UNL A   1      31.615  28.732  27.919  1.00  0.00    -0.094 F 
ATOM     22  F   UNL A   1      32.378  30.809  27.609  1.00  0.00    -0.094 F 
ATOM     23  F   UNL A   1      33.242  30.215  25.664  1.00  0.00    -0.094 F 
ATOM     24  F   UNL A   1      32.463  28.152  25.951  1.00  0.00    -0.094 F 
ENDBRANCH  13  19
BRANCH  18  25
ATOM     25  C   UNL A   1      32.773  22.455  24.056  1.00  0.00     0.430 C 
ATOM     26  F   UNL A   1      33.458  21.423  23.572  1.00  0.00    -0.167 F 
ATOM     27  F   UNL A   1      33.028  22.588  25.353  1.00  0.00    -0.167 F 
ATOM     28  F   UNL A   1      31.471  22.246  23.879  1.00  0.00    -0.167 F 
ENDBRANCH  18  25
ENDBRANCH   6   8
ENDBRANCH   5   6
ENDBRANCH   4   5
ENDBRANCH   3   4
ENDBRANCH   2   3
ENDBRANCH   1   2
BRANCH   1  29
ATOM     29  C   UNL A   1      39.658  19.733  25.876  1.00  0.00     0.261 C 
BRANCH  29  30
ATOM     30  O   UNL A   1      40.642  18.725  25.700  1.00  0.00    -0.460 OA
BRANCH  30  31
ATOM     31  C   UNL A   1      41.987  18.971  26.083  1.00  0.00     0.338 C 
ATOM     32  O   UNL A   1      42.809  18.005  26.171  1.00  0.00    -0.246 OA
BRANCH  31  33
ATOM     33  C   UNL A   1      42.443  20.388  26.390  1.00  0.00     0.060 A 
ATOM     34  C   UNL A   1      42.960  21.230  25.412  1.00  0.00     0.016 A 
ATOM     35  C   UNL A   1      42.337  20.848  27.618  1.00  0.00     0.016 A 
ATOM     36  C   UNL A   1      42.860  22.618  25.656  1.00  0.00     0.010 A 
ATOM     37  C   UNL A   1      42.742  22.150  27.933  1.00  0.00     0.010 A 
ATOM     38  C   UNL A   1      42.998  23.024  26.982  1.00  0.00    -0.014 A 
BRANCH  38  39
ATOM     39  C   UNL A   1      43.434  24.439  27.323  1.00  0.00     0.031 A 
ATOM     40  C   UNL A   1      44.767  24.786  27.096  1.00  0.00     0.074 A 
ATOM     41  C   UNL A   1      42.473  25.321  27.788  1.00  0.00     0.049 A 
ATOM     42  N   UNL A   1      45.332  25.985  27.244  1.00  0.00    -0.248 NA
ATOM     43  C   UNL A   1      45.796  23.843  26.634  1.00  0.00     0.031 C 
ATOM     44  C   UNL A   1      41.125  24.981  28.011  1.00  0.00     0.029 A 
ATOM     45  N   UNL A   1      42.632  26.650  28.112  1.00  0.00    -0.354 N 
ATOM     46  C   UNL A   1      46.624  25.930  26.911  1.00  0.00     0.074 A 
ATOM     47  C   UNL A   1      46.943  24.550  26.521  1.00  0.00     0.031 C 
ATOM     48  C   UNL A   1      40.483  26.085  28.475  1.00  0.00     0.029 A 
ATOM     49  C   UNL A   1      41.419  27.134  28.549  1.00  0.00     0.049 A 
ATOM     50  H   UNL A   1      43.468  27.164  28.045  1.00  0.00     0.167 HD
ATOM     51  C   UNL A   1      47.548  26.976  26.918  1.00  0.00     0.037 A 
ATOM     52  C   UNL A   1      41.126  28.414  28.991  1.00  0.00     0.037 A 
ATOM     53  C   UNL A   1      47.243  28.267  27.319  1.00  0.00     0.049 A 
ATOM     54  C   UNL A   1      42.064  29.447  29.053  1.00  0.00     0.074 A 
ATOM     55  C   UNL A   1      48.160  29.336  27.324  1.00  0.00     0.029 A 
ATOM     56  N   UNL A   1      46.036  28.746  27.779  1.00  0.00    -0.354 N 
ATOM     57  N   UNL A   1      43.345  29.401  28.684  1.00  0.00    -0.248 NA
ATOM     58  C   UNL A   1      41.772  30.798  29.551  1.00  0.00     0.031 C 
ATOM     59  C   UNL A   1      47.518  30.440  27.789  1.00  0.00     0.029 A 
ATOM     60  C   UNL A   1      46.189  30.081  28.083  1.00  0.00     0.049 A 
ATOM     61  H   UNL A   1      45.206  28.223  27.873  1.00  0.00     0.167 HD
ATOM     62  C   UNL A   1      43.920  30.591  28.871  1.00  0.00     0.074 A 
ATOM     63  C   UNL A   1      42.919  31.504  29.439  1.00  0.00     0.031 C 
ATOM     64  C   UNL A   1      45.238  30.952  28.589  1.00  0.00     0.037 A 
BRANCH  51  65
ATOM     65  C   UNL A   1      48.966  26.684  26.458  1.00  0.00     0.064 A 
ATOM     66  C   UNL A   1      49.323  26.862  25.136  1.00  0.00     0.173 A 
ATOM     67  C   UNL A   1      49.918  26.233  27.360  1.00  0.00     0.173 A 
ATOM     68  F   UNL A   1      48.416  27.294  24.263  1.00  0.00    -0.203 F 
ATOM     69  C   UNL A   1      50.556  26.610  24.727  1.00  0.00     0.198 A 
ATOM     70  C   UNL A   1      51.203  25.984  26.899  1.00  0.00     0.198 A 
ATOM     71  F   UNL A   1      49.607  26.045  28.639  1.00  0.00    -0.203 F 
ATOM     72  F   UNL A   1      50.864  26.786  23.445  1.00  0.00    -0.200 F 
ATOM     73  C   UNL A   1      51.489  26.184  25.563  1.00  0.00     0.200 A 
ATOM     74  F   UNL A   1      52.146  25.556  27.733  1.00  0.00    -0.200 F 
ATOM     75  F   UNL A   1      52.717  25.949  25.111  1.00  0.00    -0.200 F 
ENDBRANCH  51  65
BRANCH  52  76
ATOM     76  C   UNL A   1      39.703  28.711  29.436  1.00  0.00     0.064 A 
ATOM     77  C   UNL A   1      38.787  29.236  28.545  1.00  0.00     0.173 A 
ATOM     78  C   UNL A   1      39.307  28.457  30.741  1.00  0.00     0.173 A 
ATOM     79  F   UNL A   1      39.158  29.483  27.291  1.00  0.00    -0.203 F 
ATOM     80  C   UNL A   1      37.547  29.497  28.924  1.00  0.00     0.198 A 
ATOM     81  C   UNL A   1      37.997  28.737  31.103  1.00  0.00     0.198 A 
ATOM     82  F   UNL A   1      40.164  27.956  31.626  1.00  0.00    -0.203 F 
ATOM     83  F   UNL A   1      36.693  30.009  28.043  1.00  0.00    -0.200 F 
ATOM     84  C   UNL A   1      37.135  29.261  30.159  1.00  0.00     0.200 A 
ATOM     85  F   UNL A   1      37.577  28.503  32.343  1.00  0.00    -0.200 F 
ATOM     86  F   UNL A   1      35.878  29.533  30.497  1.00  0.00    -0.200 F 
ENDBRANCH  52  76
BRANCH  64  87
ATOM     87  C   UNL A   1      45.657  32.390  28.853  1.00  0.00     0.064 A 
ATOM     88  C   UNL A   1      45.480  33.354  27.880  1.00  0.00     0.173 A 
ATOM     89  C   UNL A   1      46.169  32.760  30.088  1.00  0.00     0.173 A 
ATOM     90  F   UNL A   1      44.989  33.009  26.694  1.00  0.00    -0.203 F 
ATOM     91  C   UNL A   1      45.795  34.618  28.115  1.00  0.00     0.198 A 
ATOM     92  C   UNL A   1      46.483  34.094  30.302  1.00  0.00     0.198 A 
ATOM     93  F   UNL A   1      46.357  31.856  31.045  1.00  0.00    -0.203 F 
ATOM     94  F   UNL A   1      45.619  35.520  27.155  1.00  0.00    -0.200 F 
ATOM     95  C   UNL A   1      46.280  35.005  29.284  1.00  0.00     0.200 A 
ATOM     96  F   UNL A   1      46.971  34.491  31.474  1.00  0.00    -0.200 F 
ATOM     97  F   UNL A   1      46.579  36.287  29.480  1.00  0.00    -0.200 F 
ENDBRANCH  64  87
ENDBRANCH  38  39
ENDBRANCH  31  33
ENDBRANCH  30  31
ENDBRANCH  29  30
ENDBRANCH   1  29
TORSDOF 16
ENDMDL
MODEL 2
REMARK VINA RESULT:     -12.6      4.390      8.754
REMARK SMILES Cc1cc(S(F)(F)(F)(F)F)cc2c1O[C@H](C(F)(F)F)C(C(=O)OCCOCCOC(=O)c1ccc(-c3c4nc(c(-c5c(F)c(F)c(F)c(F)c5F)c5ccc([nH]5)c(-c5c(F)c(F)c(F)c(F)c5F)c5nc(c(-c6c(F)c(F)c(F)c(F)c6F)c6ccc3[nH]6)C=C5)C=C4)cc1)=C2
REMARK SMILES IDX 27 1 26 2 25 3 24 4 23 5 21 6 22 7 20 8 1 9 2 10 3 11 13 12
REMARK SMILES IDX 4 13 12 14 14 15 11 16 95 17 15 18 5 19 6 20 7 21 8 22 9 23
REMARK SMILES IDX 10 24 16 25 17 26 18 27 19 28 28 29 29 30 30 31 31 32 32 33
REMARK SMILES IDX 33 34 94 35 34 36 93 37 35 38 36 39 37 40 87 41 38 42 92 43
REMARK SMILES IDX 86 44 88 45 39 46 91 47 85 48 84 49 40 51 72 52 52 53 71 54
REMARK SMILES IDX 53 55 56 56 70 57 89 58 54 59 55 60 69 62 90 63 57 64 41 65
REMARK SMILES IDX 42 66 50 67 43 68 44 69 48 70 51 71 45 72 46 73 49 74 47 75
REMARK SMILES IDX 73 76 74 77 82 78 75 79 76 80 80 81 83 82 77 83 78 84 81 85
REMARK SMILES IDX 79 86 58 87 59 88 67 89 60 90 61 91 65 92 68 93 62 94 63 95
REMARK SMILES IDX 66 96 64 97
REMARK H PARENT 88 50 56 61
REMARK Flexibility Score: inf
ROOT
ATOM      1  C   UNL A   1      42.646  20.647  26.290  1.00  0.00     0.202 C 
ENDROOT
BRANCH   1   2
ATOM      2  O   UNL A   1      41.691  19.963  25.493  1.00  0.00    -0.374 OA
BRANCH   2   3
ATOM      3  C   UNL A   1      40.436  19.957  26.160  1.00  0.00     0.202 C 
BRANCH   3   4
ATOM      4  C   UNL A   1      40.087  21.371  26.595  1.00  0.00     0.261 C 
BRANCH   4   5
ATOM      5  O   UNL A   1      39.146  21.926  25.687  1.00  0.00    -0.460 OA
BRANCH   5   6
ATOM      6  C   UNL A   1      38.243  22.929  26.126  1.00  0.00     0.338 C 
ATOM      7  O   UNL A   1      38.506  23.610  27.167  1.00  0.00    -0.246 OA
BRANCH   6   8
ATOM      8  C   UNL A   1      36.961  23.189  25.353  1.00  0.00     0.087 C 
ATOM      9  C   UNL A   1      32.920  22.893  22.154  1.00  0.00     0.048 C 
ATOM     10  C   UNL A   1      33.440  23.870  23.195  1.00  0.00    -0.007 A 
ATOM     11  C   UNL A   1      32.662  24.957  23.529  1.00  0.00     0.031 A 
ATOM     12  C   UNL A   1      34.617  23.627  23.903  1.00  0.00     0.130 A 
ATOM     13  C   UNL A   1      33.040  25.812  24.558  1.00  0.00     0.108 A 
ATOM     14  C   UNL A   1      34.996  24.495  24.952  1.00  0.00     0.019 A 
ATOM     15  O   UNL A   1      35.489  22.487  23.595  1.00  0.00    -0.475 OA
ATOM     16  C   UNL A   1      34.186  25.588  25.269  1.00  0.00     0.036 A 
ATOM     17  C   UNL A   1      36.235  24.218  25.677  1.00  0.00     0.027 C 
ATOM     18  C   UNL A   1      36.613  22.315  24.323  1.00  0.00     0.316 C 
BRANCH  13  19
ATOM     19  S   UNL A   1      32.002  27.238  24.961  1.00  0.00     0.310 S 
ATOM     20  F   UNL A   1      32.876  27.691  26.203  1.00  0.00    -0.094 F 
ATOM     21  F   UNL A   1      31.196  26.315  25.952  1.00  0.00    -0.094 F 
ATOM     22  F   UNL A   1      31.059  28.436  25.265  1.00  0.00    -0.094 F 
ATOM     23  F   UNL A   1      32.903  28.183  24.074  1.00  0.00    -0.094 F 
ATOM     24  F   UNL A   1      33.033  26.062  24.730  1.00  0.00    -0.094 F 
ENDBRANCH  13  19
BRANCH  18  25
ATOM     25  C   UNL A   1      36.316  21.029  25.077  1.00  0.00     0.430 C 
ATOM     26  F   UNL A   1      37.310  20.166  24.889  1.00  0.00    -0.167 F 
ATOM     27  F   UNL A   1      36.197  21.294  26.374  1.00  0.00    -0.167 F 
ATOM     28  F   UNL A   1      35.181  20.503  24.625  1.00  0.00    -0.167 F 
ENDBRANCH  18  25
ENDBRANCH   6   8
ENDBRANCH   5   6
ENDBRANCH   4   5
ENDBRANCH   3   4
ENDBRANCH   2   3
ENDBRANCH   1   2
BRANCH   1  29
ATOM     29  C   UNL A   1      43.590  21.429  25.391  1.00  0.00     0.261 C 
BRANCH  29  30
ATOM     30  O   UNL A   1      42.950  22.620  24.957  1.00  0.00    -0.460 OA
BRANCH  30  31
ATOM     31  C   UNL A   1      43.597  23.874  25.121  1.00  0.00     0.338 C 
ATOM     32  O   UNL A   1      44.512  24.226  24.312  1.00  0.00    -0.246 OA
BRANCH  31  33
ATOM     33  C   UNL A   1      43.195  24.794  26.262  1.00  0.00     0.060 A 
ATOM     34  C   UNL A   1      43.959  25.893  26.635  1.00  0.00     0.016 A 
ATOM     35  C   UNL A   1      42.078  24.558  26.917  1.00  0.00     0.016 A 
ATOM     36  C   UNL A   1      43.281  26.937  27.303  1.00  0.00     0.010 A 
ATOM     37  C   UNL A   1      41.676  25.389  27.968  1.00  0.00     0.010 A 
ATOM     38  C   UNL A   1      42.255  26.555  28.165  1.00  0.00    -0.014 A 
BRANCH  38  39
ATOM     39  C   UNL A   1      41.816  27.459  29.304  1.00  0.00     0.031 A 
ATOM     40  C   UNL A   1      40.694  28.265  29.104  1.00  0.00     0.074 A 
ATOM     41  C   UNL A   1      42.520  27.394  30.495  1.00  0.00     0.049 A 
ATOM     42  N   UNL A   1      40.094  29.060  29.992  1.00  0.00    -0.248 NA
ATOM     43  C   UNL A   1      39.965  28.361  27.831  1.00  0.00     0.031 C 
ATOM     44  C   UNL A   1      43.648  26.577  30.706  1.00  0.00     0.029 A 
ATOM     45  N   UNL A   1      42.273  28.082  31.661  1.00  0.00    -0.354 N 
ATOM     46  C   UNL A   1      39.037  29.656  29.437  1.00  0.00     0.074 A 
ATOM     47  C   UNL A   1      38.942  29.221  28.037  1.00  0.00     0.031 C 
ATOM     48  C   UNL A   1      44.082  26.780  31.979  1.00  0.00     0.029 A 
ATOM     49  C   UNL A   1      43.232  27.726  32.583  1.00  0.00     0.049 A 
ATOM     50  H   UNL A   1      41.538  28.720  31.811  1.00  0.00     0.167 HD
ATOM     51  C   UNL A   1      38.149  30.546  30.043  1.00  0.00     0.037 A 
ATOM     52  C   UNL A   1      43.375  28.188  33.881  1.00  0.00     0.037 A 
ATOM     53  C   UNL A   1      38.267  30.975  31.356  1.00  0.00     0.049 A 
ATOM     54  C   UNL A   1      42.519  29.122  34.470  1.00  0.00     0.074 A 
ATOM     55  C   UNL A   1      37.375  31.864  31.985  1.00  0.00     0.029 A 
ATOM     56  N   UNL A   1      39.240  30.637  32.270  1.00  0.00    -0.354 N 
ATOM     57  N   UNL A   1      41.441  29.688  33.928  1.00  0.00    -0.248 NA
ATOM     58  C   UNL A   1      42.681  29.644  35.835  1.00  0.00     0.031 C 
ATOM     59  C   UNL A   1      37.809  32.067  33.258  1.00  0.00     0.029 A 
ATOM     60  C   UNL A   1      38.980  31.308  33.444  1.00  0.00     0.049 A 
ATOM     61  H   UNL A   1      39.992  30.020  32.111  1.00  0.00     0.167 HD
ATOM     62  C   UNL A   1      40.866  30.515  34.804  1.00  0.00     0.074 A 
ATOM     63  C   UNL A   1      41.660  30.504  36.039  1.00  0.00     0.031 C 
ATOM     64  C   UNL A   1      39.710  31.275  34.622  1.00  0.00     0.037 A 
BRANCH  51  65
ATOM     65  C   UNL A   1      36.985  31.072  29.219  1.00  0.00     0.064 A 
ATOM     66  C   UNL A   1      35.910  30.256  28.927  1.00  0.00     0.173 A 
ATOM     67  C   UNL A   1      36.992  32.377  28.749  1.00  0.00     0.173 A 
ATOM     68  F   UNL A   1      35.896  29.003  29.374  1.00  0.00    -0.203 F 
ATOM     69  C   UNL A   1      34.894  30.707  28.210  1.00  0.00     0.198 A 
ATOM     70  C   UNL A   1      35.907  32.818  28.005  1.00  0.00     0.198 A 
ATOM     71  F   UNL A   1      38.014  33.187  29.007  1.00  0.00    -0.203 F 
ATOM     72  F   UNL A   1      33.877  29.892  27.942  1.00  0.00    -0.200 F 
ATOM     73  C   UNL A   1      34.865  31.948  27.751  1.00  0.00     0.200 A 
ATOM     74  F   UNL A   1      35.871  34.064  27.541  1.00  0.00    -0.200 F 
ATOM     75  F   UNL A   1      33.821  32.361  27.040  1.00  0.00    -0.200 F 
ENDBRANCH  51  65
BRANCH  52  76
ATOM     76  C   UNL A   1      44.529  27.649  34.711  1.00  0.00     0.064 A 
ATOM     77  C   UNL A   1      45.773  28.245  34.650  1.00  0.00     0.173 A 
ATOM     78  C   UNL A   1      44.345  26.552  35.540  1.00  0.00     0.173 A 
ATOM     79  F   UNL A   1      45.958  29.297  33.857  1.00  0.00    -0.203 F 
ATOM     80  C   UNL A   1      46.782  27.782  35.369  1.00  0.00     0.198 A 
ATOM     81  C   UNL A   1      45.423  26.096  36.286  1.00  0.00     0.198 A 
ATOM     82  F   UNL A   1      43.161  25.950  35.620  1.00  0.00    -0.203 F 
ATOM     83  F   UNL A   1      47.968  28.375  35.281  1.00  0.00    -0.200 F 
ATOM     84  C   UNL A   1      46.639  26.742  36.175  1.00  0.00     0.200 A 
ATOM     85  F   UNL A   1      45.287  25.051  37.097  1.00  0.00    -0.200 F 
ATOM     86  F   UNL A   1      47.678  26.312  36.884  1.00  0.00    -0.200 F 
ENDBRANCH  52  76
BRANCH  64  87
ATOM     87  C   UNL A   1      39.221  32.120  35.788  1.00  0.00     0.064 A 
ATOM     88  C   UNL A   1      38.336  31.590  36.706  1.00  0.00     0.173 A 
ATOM     89  C   UNL A   1      39.697  33.410  35.973  1.00  0.00     0.173 A 
ATOM     90  F   UNL A   1      37.875  30.354  36.538  1.00  0.00    -0.203 F 
ATOM     91  C   UNL A   1      37.941  32.299  37.752  1.00  0.00     0.198 A 
ATOM     92  C   UNL A   1      39.267  34.122  37.083  1.00  0.00     0.198 A 
ATOM     93  F   UNL A   1      40.546  33.953  35.105  1.00  0.00    -0.203 F 
ATOM     94  F   UNL A   1      37.083  31.761  38.614  1.00  0.00    -0.200 F 
ATOM     95  C   UNL A   1      38.380  33.529  37.961  1.00  0.00     0.200 A 
ATOM     96  F   UNL A   1      39.704  35.360  37.299  1.00  0.00    -0.200 F 
ATOM     97  F   UNL A   1      37.962  34.204  39.028  1.00  0.00    -0.200 F 
ENDBRANCH  64  87
ENDBRANCH  38  39
ENDBRANCH  31  33
ENDBRANCH  30  31
ENDBRANCH  29  30
ENDBRANCH   1  29
TORSDOF 16
ENDMDL
MODEL 3
REMARK VINA RESULT:     -12.6      3.127      4.749
REMARK SMILES Cc1cc(S(F)(F)(F)(F)F)cc2c1O[C@H](C(F)(F)F)C(C(=O)OCCOCCOC(=O)c1ccc(-c3c4nc(c(-c5c(F)c(F)c(F)c(F)c5F)c5ccc([nH]5)c(-c5c(F)c(F)c(F)c(F)c5F)c5nc(c(-c6c(F)c(F)c(F)c(F)c6F)c6ccc3[nH]6)C=C5)C=C4)cc1)=C2
REMARK SMILES IDX 27 1 26 2 25 3 24 4 23 5 21 6 22 7 20 8 1 9 2 10 3 11 13 12
REMARK SMILES IDX 4 13 12 14 14 15 11 16 95 17 15 18 5 19 6 20 7 21 8 22 9 23
REMARK SMILES IDX 10 24 16 25 17 26 18 27 19 28 28 29 29 30 30 31 31 32 32 33
REMARK SMILES IDX 33 34 94 35 34 36 93 37 35 38 36 39 37 40 87 41 38 42 92 43
REMARK SMILES IDX 86 44 88 45 39 46 91 47 85 48 84 49 40 51 72 52 52 53 71 54
REMARK SMILES IDX 53 55 56 56 70 57 89 58 54 59 55 60 69 62 90 63 57 64 41 65
REMARK SMILES IDX 42 66 50 67 43 68 44 69 48 70 51 71 45 72 46 73 49 74 47 75
REMARK SMILES IDX 73 76 74 77 82 78 75 79 76 80 80 81 83 82 77 83 78 84 81 85
REMARK SMILES IDX 79 86 58 87 59 88 67 89 60 90 61 91 65 92 68 93 62 94 63 95
REMARK SMILES IDX 66 96 64 97
REMARK H PARENT 88 50 56 61
REMARK Flexibility Score: inf
ROOT
ATOM      1  C   UNL A   1      35.708  22.622  24.045  1.00  0.00     0.202 C 
ENDROOT
BRANCH   1   2
ATOM      2  O   UNL A   1      34.762  22.011  24.909  1.00  0.00    -0.374 OA
BRANCH   2   3
ATOM      3  C   UNL A   1      33.556  21.773  24.195  1.00  0.00     0.202 C 
BRANCH   3   4
ATOM      4  C   UNL A   1      32.406  21.630  25.180  1.00  0.00     0.261 C 
BRANCH   4   5
ATOM      5  O   UNL A   1      31.465  22.671  24.963  1.00  0.00    -0.460 OA
BRANCH   5   6
ATOM      6  C   UNL A   1      31.160  23.581  26.009  1.00  0.00     0.338 C 
ATOM      7  O   UNL A   1      30.826  23.144  27.155  1.00  0.00    -0.246 OA
BRANCH   6   8
ATOM      8  C   UNL A   1      31.233  25.078  25.760  1.00  0.00     0.087 C 
ATOM      9  C   UNL A   1      32.522  30.077  25.764  1.00  0.00     0.048 C 
ATOM     10  C   UNL A   1      31.464  29.206  25.107  1.00  0.00    -0.007 A 
ATOM     11  C   UNL A   1      30.631  29.772  24.167  1.00  0.00     0.031 A 
ATOM     12  C   UNL A   1      31.402  27.831  25.338  1.00  0.00     0.130 A 
ATOM     13  C   UNL A   1      29.730  28.991  23.454  1.00  0.00     0.108 A 
ATOM     14  C   UNL A   1      30.488  27.040  24.607  1.00  0.00     0.019 A 
ATOM     15  O   UNL A   1      32.262  27.169  26.326  1.00  0.00    -0.475 OA
ATOM     16  C   UNL A   1      29.656  27.641  23.660  1.00  0.00     0.036 A 
ATOM     17  C   UNL A   1      30.442  25.602  24.870  1.00  0.00     0.027 C 
ATOM     18  C   UNL A   1      32.144  25.835  26.496  1.00  0.00     0.316 C 
BRANCH  13  19
ATOM     19  S   UNL A   1      28.640  29.770  22.237  1.00  0.00     0.310 S 
ATOM     20  F   UNL A   1      28.865  31.242  22.782  1.00  0.00    -0.094 F 
ATOM     21  F   UNL A   1      27.462  29.639  23.275  1.00  0.00    -0.094 F 
ATOM     22  F   UNL A   1      27.677  30.374  21.177  1.00  0.00    -0.094 F 
ATOM     23  F   UNL A   1      29.857  30.022  21.263  1.00  0.00    -0.094 F 
ATOM     24  F   UNL A   1      29.649  29.262  23.343  1.00  0.00    -0.094 F 
ENDBRANCH  13  19
BRANCH  18  25
ATOM     25  C   UNL A   1      33.480  25.325  25.978  1.00  0.00     0.430 C 
ATOM     26  F   UNL A   1      33.838  24.244  26.665  1.00  0.00    -0.167 F 
ATOM     27  F   UNL A   1      33.366  25.015  24.690  1.00  0.00    -0.167 F 
ATOM     28  F   UNL A   1      34.403  26.271  26.126  1.00  0.00    -0.167 F 
ENDBRANCH  18  25
ENDBRANCH   6   8
ENDBRANCH   5   6
ENDBRANCH   4   5
ENDBRANCH   3   4
ENDBRANCH   2   3
ENDBRANCH   1   2
BRANCH   1  29
ATOM     29  C   UNL A   1      36.671  23.467  24.864  1.00  0.00     0.261 C 
BRANCH  29  30
ATOM     30  O   UNL A   1      37.271  22.662  25.867  1.00  0.00    -0.460 OA
BRANCH  30  31
ATOM     31  C   UNL A   1      38.662  22.776  26.131  1.00  0.00     0.338 C 
ATOM     32  O   UNL A   1      39.443  21.815  25.845  1.00  0.00    -0.246 OA
BRANCH  31  33
ATOM     33  C   UNL A   1      39.216  24.046  26.756  1.00  0.00     0.060 A 
ATOM     34  C   UNL A   1      40.151  24.845  26.109  1.00  0.00     0.016 A 
ATOM     35  C   UNL A   1      38.791  24.417  27.944  1.00  0.00     0.016 A 
ATOM     36  C   UNL A   1      40.202  26.201  26.501  1.00  0.00     0.010 A 
ATOM     37  C   UNL A   1      39.277  25.584  28.545  1.00  0.00     0.010 A 
ATOM     38  C   UNL A   1      39.966  26.464  27.849  1.00  0.00    -0.014 A 
BRANCH  38  39
ATOM     39  C   UNL A   1      40.489  27.733  28.499  1.00  0.00     0.031 A 
ATOM     40  C   UNL A   1      41.856  27.815  28.768  1.00  0.00     0.074 A 
ATOM     41  C   UNL A   1      39.591  28.759  28.740  1.00  0.00     0.049 A 
ATOM     42  N   UNL A   1      42.530  28.860  29.251  1.00  0.00    -0.248 NA
ATOM     43  C   UNL A   1      42.807  26.715  28.545  1.00  0.00     0.031 C 
ATOM     44  C   UNL A   1      38.212  28.687  28.463  1.00  0.00     0.029 A 
ATOM     45  N   UNL A   1      39.850  30.002  29.273  1.00  0.00    -0.354 N 
ATOM     46  C   UNL A   1      43.828  28.565  29.354  1.00  0.00     0.074 A 
ATOM     47  C   UNL A   1      44.024  27.179  28.908  1.00  0.00     0.031 C 
ATOM     48  C   UNL A   1      37.645  29.865  28.837  1.00  0.00     0.029 A 
ATOM     49  C   UNL A   1      38.661  30.693  29.351  1.00  0.00     0.049 A 
ATOM     50  H   UNL A   1      40.732  30.338  29.552  1.00  0.00     0.167 HD
ATOM     51  C   UNL A   1      44.855  29.397  29.801  1.00  0.00     0.037 A 
ATOM     52  C   UNL A   1      38.454  31.972  29.841  1.00  0.00     0.037 A 
ATOM     53  C   UNL A   1      44.653  30.693  30.251  1.00  0.00     0.049 A 
ATOM     54  C   UNL A   1      39.473  32.785  30.343  1.00  0.00     0.074 A 
ATOM     55  C   UNL A   1      45.679  31.548  30.697  1.00  0.00     0.029 A 
ATOM     56  N   UNL A   1      43.461  31.375  30.351  1.00  0.00    -0.354 N 
ATOM     57  N   UNL A   1      40.775  32.504  30.409  1.00  0.00    -0.248 NA
ATOM     58  C   UNL A   1      39.260  34.130  30.895  1.00  0.00     0.031 C 
ATOM     59  C   UNL A   1      45.112  32.727  31.070  1.00  0.00     0.029 A 
ATOM     60  C   UNL A   1      43.723  32.627  30.864  1.00  0.00     0.049 A 
ATOM     61  H   UNL A   1      42.574  31.028  30.099  1.00  0.00     0.167 HD
ATOM     62  C   UNL A   1      41.442  33.535  30.931  1.00  0.00     0.074 A 
ATOM     63  C   UNL A   1      40.476  34.592  31.258  1.00  0.00     0.031 C 
ATOM     64  C   UNL A   1      42.818  33.638  31.145  1.00  0.00     0.037 A 
BRANCH  51  65
ATOM     65  C   UNL A   1      46.274  28.854  29.793  1.00  0.00     0.064 A 
ATOM     66  C   UNL A   1      47.052  28.946  28.657  1.00  0.00     0.173 A 
ATOM     67  C   UNL A   1      46.803  28.256  30.929  1.00  0.00     0.173 A 
ATOM     68  F   UNL A   1      46.553  29.518  27.563  1.00  0.00    -0.203 F 
ATOM     69  C   UNL A   1      48.289  28.475  28.643  1.00  0.00     0.198 A 
ATOM     70  C   UNL A   1      48.104  27.778  30.880  1.00  0.00     0.198 A 
ATOM     71  F   UNL A   1      46.079  28.146  32.038  1.00  0.00    -0.203 F 
ATOM     72  F   UNL A   1      49.008  28.575  27.528  1.00  0.00    -0.200 F 
ATOM     73  C   UNL A   1      48.825  27.905  29.709  1.00  0.00     0.200 A 
ATOM     74  F   UNL A   1      48.651  27.204  31.948  1.00  0.00    -0.200 F 
ATOM     75  F   UNL A   1      50.073  27.450  29.652  1.00  0.00    -0.200 F 
ENDBRANCH  51  65
BRANCH  52  76
ATOM     76  C   UNL A   1      37.037  32.522  29.833  1.00  0.00     0.064 A 
ATOM     77  C   UNL A   1      36.569  33.234  28.746  1.00  0.00     0.173 A 
ATOM     78  C   UNL A   1      36.197  32.316  30.917  1.00  0.00     0.173 A 
ATOM     79  F   UNL A   1      37.368  33.437  27.701  1.00  0.00    -0.203 F 
ATOM     80  C   UNL A   1      35.338  33.716  28.731  1.00  0.00     0.198 A 
ATOM     81  C   UNL A   1      34.909  32.830  30.866  1.00  0.00     0.198 A 
ATOM     82  F   UNL A   1      36.616  31.639  31.983  1.00  0.00    -0.203 F 
ATOM     83  F   UNL A   1      34.922  34.403  27.671  1.00  0.00    -0.200 F 
ATOM     84  C   UNL A   1      34.509  33.532  29.746  1.00  0.00     0.200 A 
ATOM     85  F   UNL A   1      34.071  32.649  31.883  1.00  0.00    -0.200 F 
ATOM     86  F   UNL A   1      33.277  34.029  29.688  1.00  0.00    -0.200 F 
ENDBRANCH  52  76
BRANCH  64  87
ATOM     87  C   UNL A   1      43.355  34.938  31.721  1.00  0.00     0.064 A 
ATOM     88  C   UNL A   1      43.682  35.985  30.883  1.00  0.00     0.173 A 
ATOM     89  C   UNL A   1      43.474  35.106  33.092  1.00  0.00     0.173 A 
ATOM     90  F   UNL A   1      43.570  35.835  29.567  1.00  0.00    -0.203 F 
ATOM     91  C   UNL A   1      44.105  37.139  31.375  1.00  0.00     0.198 A 
ATOM     92  C   UNL A   1      43.914  36.329  33.575  1.00  0.00     0.198 A 
ATOM     93  F   UNL A   1      43.174  34.115  33.928  1.00  0.00    -0.203 F 
ATOM     94  F   UNL A   1      44.417  38.126  30.541  1.00  0.00    -0.200 F 
ATOM     95  C   UNL A   1      44.224  37.334  32.679  1.00  0.00     0.200 A 
ATOM     96  F   UNL A   1      44.037  36.533  34.884  1.00  0.00    -0.200 F 
ATOM     97  F   UNL A   1      44.647  38.511  33.132  1.00  0.00    -0.200 F 
ENDBRANCH  64  87
ENDBRANCH  38  39
ENDBRANCH  31  33
ENDBRANCH  30  31
ENDBRANCH  29  30
ENDBRANCH   1  29
TORSDOF 16
ENDMDL
