MODEL 1
REMARK VINA RESULT:     -13.1      0.000      0.000
REMARK SMILES COc1ccc(/C=C2/C(=O)N(c3ccccc3)C(=O)N=C2OCCOCCOC(=O)c2ccc(-c3c4nc(c(-c5c(F)c(F)c(F)c(F)c5F)c5ccc([nH]5)c(-c5c(F)c(F)c(F)c(F)c5F)c5nc(c(-c6c(F)c(F)c(F)c(F)c6F)c6ccc3[nH]6)C=C5)C=C4)cc2)cc1C(=O)[O-]
REMARK SMILES IDX 26 1 25 2 24 3 23 4 22 5 21 6 7 7 8 8 9 9 10 10 11 11 20 12
REMARK SMILES IDX 18 13 19 14 6 15 3 16 4 17 95 18 5 19 94 20 2 21 1 22 96 23
REMARK SMILES IDX 97 24 98 25 12 26 13 27 17 28 14 29 16 30 15 31 27 32 28 33
REMARK SMILES IDX 29 34 30 35 31 36 32 37 93 38 33 39 92 40 34 41 35 42 36 43
REMARK SMILES IDX 86 44 37 45 91 46 85 47 87 48 38 49 90 50 84 51 83 52 39 54
REMARK SMILES IDX 71 55 51 56 70 57 52 58 55 59 69 60 88 61 53 62 54 63 68 65
REMARK SMILES IDX 89 66 56 67 40 68 41 69 49 70 42 71 43 72 47 73 50 74 44 75
REMARK SMILES IDX 45 76 48 77 46 78 72 79 73 80 81 81 74 82 75 83 79 84 82 85
REMARK SMILES IDX 76 86 77 87 80 88 78 89 57 90 58 91 66 92 59 93 60 94 64 95
REMARK SMILES IDX 67 96 61 97 62 98 65 99 63 100
REMARK H PARENT 87 53 55 64
REMARK Flexibility Score: inf
ROOT
ATOM      1  C   UNL A   1      32.124  28.174  27.101  1.00  0.00     0.202 C 
ENDROOT
BRANCH   1   2
ATOM      2  O   UNL A   1      30.937  27.390  26.991  1.00  0.00    -0.374 OA
BRANCH   2   3
ATOM      3  C   UNL A   1      31.099  26.043  26.541  1.00  0.00     0.202 C 
BRANCH   3   4
ATOM      4  C   UNL A   1      29.847  25.432  25.917  1.00  0.00     0.260 C 
BRANCH   4   5
ATOM      5  O   UNL A   1      29.972  25.457  24.476  1.00  0.00    -0.475 OA
BRANCH   5   6
ATOM      6  C   UNL A   1      29.642  26.581  23.824  1.00  0.00     0.231 C 
ATOM      7  C   UNL A   1      32.093  26.956  23.119  1.00  0.00     0.027 C 
ATOM      8  C   UNL A   1      30.771  27.276  23.183  1.00  0.00     0.103 C 
ATOM      9  C   UNL A   1      30.384  28.622  22.602  1.00  0.00     0.272 C 
ATOM     10  O   UNL A   1      31.216  29.303  22.001  1.00  0.00    -0.268 OA
ATOM     11  N   UNL A   1      29.075  29.030  22.861  1.00  0.00    -0.226 N 
ATOM     12  N   UNL A   1      28.433  26.986  23.874  1.00  0.00    -0.156 NA
ATOM     13  C   UNL A   1      28.078  28.188  23.363  1.00  0.00     0.358 C 
ATOM     14  O   UNL A   1      26.886  28.486  23.349  1.00  0.00    -0.245 OA
BRANCH   7  15
ATOM     15  C   UNL A   1      32.982  25.859  23.612  1.00  0.00    -0.024 A 
ATOM     16  C   UNL A   1      34.609  23.637  24.403  1.00  0.00     0.127 A 
ATOM     17  C   UNL A   1      34.841  24.918  24.898  1.00  0.00     0.048 A 
ATOM     18  C   UNL A   1      33.480  23.436  23.612  1.00  0.00     0.040 A 
ATOM     19  C   UNL A   1      34.007  25.994  24.549  1.00  0.00     0.012 A 
ATOM     20  C   UNL A   1      32.715  24.542  23.175  1.00  0.00     0.022 A 
BRANCH  16  21
ATOM     21  O   UNL A   1      35.503  22.690  24.820  1.00  0.00    -0.496 OA
ATOM     22  C   UNL A   1      36.618  22.490  23.952  1.00  0.00     0.278 C 
ENDBRANCH  16  21
BRANCH  18  23
ATOM     23  C   UNL A   1      32.964  22.092  23.274  1.00  0.00     0.075 C 
ATOM     24  O   UNL A   1      33.008  21.113  23.983  1.00  0.00    -0.545 OA
ATOM     25  O   UNL A   1      32.528  22.042  22.001  1.00  0.00    -0.545 OA
ENDBRANCH  18  23
ENDBRANCH   7  15
BRANCH  11  26
ATOM     26  C   UNL A   1      28.644  30.342  22.487  1.00  0.00     0.054 A 
ATOM     27  C   UNL A   1      28.278  30.593  21.153  1.00  0.00     0.027 A 
ATOM     28  C   UNL A   1      28.721  31.408  23.387  1.00  0.00     0.027 A 
ATOM     29  C   UNL A   1      28.028  31.895  20.718  1.00  0.00     0.002 A 
ATOM     30  C   UNL A   1      28.501  32.714  22.939  1.00  0.00     0.002 A 
ATOM     31  C   UNL A   1      28.160  32.956  21.606  1.00  0.00     0.000 A 
ENDBRANCH  11  26
ENDBRANCH   5   6
ENDBRANCH   4   5
ENDBRANCH   3   4
ENDBRANCH   2   3
ENDBRANCH   1   2
BRANCH   1  32
ATOM     32  C   UNL A   1      31.912  29.689  27.057  1.00  0.00     0.261 C 
BRANCH  32  33
ATOM     33  O   UNL A   1      33.048  30.349  26.475  1.00  0.00    -0.460 OA
BRANCH  33  34
ATOM     34  C   UNL A   1      33.551  31.358  27.224  1.00  0.00     0.338 C 
ATOM     35  O   UNL A   1      32.963  32.343  27.635  1.00  0.00    -0.246 OA
BRANCH  34  36
ATOM     36  C   UNL A   1      34.927  31.028  27.641  1.00  0.00     0.060 A 
ATOM     37  C   UNL A   1      35.278  29.674  27.697  1.00  0.00     0.016 A 
ATOM     38  C   UNL A   1      35.826  32.014  28.050  1.00  0.00     0.016 A 
ATOM     39  C   UNL A   1      36.510  29.294  28.223  1.00  0.00     0.010 A 
ATOM     40  C   UNL A   1      37.055  31.628  28.590  1.00  0.00     0.010 A 
ATOM     41  C   UNL A   1      37.388  30.267  28.715  1.00  0.00    -0.014 A 
BRANCH  41  42
ATOM     42  C   UNL A   1      38.563  29.850  29.518  1.00  0.00     0.031 A 
ATOM     43  C   UNL A   1      38.714  30.381  30.917  1.00  0.00     0.074 A 
ATOM     44  C   UNL A   1      39.467  28.985  29.026  1.00  0.00     0.049 A 
ATOM     45  N   UNL A   1      39.649  30.145  31.802  1.00  0.00    -0.248 NA
ATOM     46  C   UNL A   1      37.673  31.313  31.376  1.00  0.00     0.031 C 
ATOM     47  C   UNL A   1      39.430  28.393  27.691  1.00  0.00     0.029 A 
ATOM     48  N   UNL A   1      40.597  28.457  29.598  1.00  0.00    -0.354 N 
ATOM     49  C   UNL A   1      39.313  30.903  32.915  1.00  0.00     0.074 A 
ATOM     50  C   UNL A   1      38.119  31.648  32.576  1.00  0.00     0.031 C 
ATOM     51  C   UNL A   1      40.488  27.579  27.545  1.00  0.00     0.029 A 
ATOM     52  C   UNL A   1      41.283  27.602  28.772  1.00  0.00     0.049 A 
ATOM     53  H   UNL A   1      40.888  28.671  30.513  1.00  0.00     0.167 HD
ATOM     54  C   UNL A   1      39.927  30.957  34.121  1.00  0.00     0.037 A 
ATOM     55  C   UNL A   1      42.422  26.916  28.985  1.00  0.00     0.037 A 
ATOM     56  C   UNL A   1      41.103  30.204  34.466  1.00  0.00     0.049 A 
ATOM     57  C   UNL A   1      43.108  27.017  30.322  1.00  0.00     0.074 A 
ATOM     58  C   UNL A   1      41.782  30.165  35.669  1.00  0.00     0.029 A 
ATOM     59  N   UNL A   1      41.776  29.357  33.597  1.00  0.00    -0.354 N 
ATOM     60  N   UNL A   1      42.760  27.704  31.383  1.00  0.00    -0.248 NA
ATOM     61  C   UNL A   1      44.340  26.236  30.491  1.00  0.00     0.031 C 
ATOM     62  C   UNL A   1      42.893  29.325  35.518  1.00  0.00     0.029 A 
ATOM     63  C   UNL A   1      42.876  28.804  34.233  1.00  0.00     0.049 A 
ATOM     64  H   UNL A   1      41.512  29.177  32.666  1.00  0.00     0.167 HD
ATOM     65  C   UNL A   1      43.707  27.412  32.355  1.00  0.00     0.074 A 
ATOM     66  C   UNL A   1      44.641  26.478  31.759  1.00  0.00     0.031 C 
ATOM     67  C   UNL A   1      43.793  27.870  33.629  1.00  0.00     0.037 A 
BRANCH  54  68
ATOM     68  C   UNL A   1      39.331  31.878  35.147  1.00  0.00     0.064 A 
ATOM     69  C   UNL A   1      39.627  33.251  35.164  1.00  0.00     0.173 A 
ATOM     70  C   UNL A   1      38.468  31.380  36.134  1.00  0.00     0.173 A 
ATOM     71  F   UNL A   1      40.461  33.773  34.253  1.00  0.00    -0.203 F 
ATOM     72  C   UNL A   1      39.115  34.081  36.158  1.00  0.00     0.198 A 
ATOM     73  C   UNL A   1      37.934  32.220  37.107  1.00  0.00     0.198 A 
ATOM     74  F   UNL A   1      38.152  30.077  36.161  1.00  0.00    -0.203 F 
ATOM     75  F   UNL A   1      39.466  35.374  36.194  1.00  0.00    -0.200 F 
ATOM     76  C   UNL A   1      38.266  33.566  37.126  1.00  0.00     0.200 A 
ATOM     77  F   UNL A   1      37.106  31.723  38.036  1.00  0.00    -0.200 F 
ATOM     78  F   UNL A   1      37.780  34.365  38.086  1.00  0.00    -0.200 F 
ENDBRANCH  54  68
BRANCH  55  79
ATOM     79  C   UNL A   1      42.965  26.039  27.918  1.00  0.00     0.064 A 
ATOM     80  C   UNL A   1      43.839  26.546  26.948  1.00  0.00     0.173 A 
ATOM     81  C   UNL A   1      42.624  24.681  27.846  1.00  0.00     0.173 A 
ATOM     82  F   UNL A   1      44.175  27.844  26.963  1.00  0.00    -0.203 F 
ATOM     83  C   UNL A   1      44.342  25.731  25.936  1.00  0.00     0.198 A 
ATOM     84  C   UNL A   1      43.146  23.861  26.847  1.00  0.00     0.198 A 
ATOM     85  F   UNL A   1      41.787  24.150  28.750  1.00  0.00    -0.203 F 
ATOM     86  F   UNL A   1      45.147  26.250  24.998  1.00  0.00    -0.200 F 
ATOM     87  C   UNL A   1      44.000  24.388  25.891  1.00  0.00     0.200 A 
ATOM     88  F   UNL A   1      42.819  22.562  26.809  1.00  0.00    -0.200 F 
ATOM     89  F   UNL A   1      44.488  23.604  24.919  1.00  0.00    -0.200 F 
ENDBRANCH  55  79
BRANCH  67  90
ATOM     90  C   UNL A   1      44.910  27.337  34.477  1.00  0.00     0.064 A 
ATOM     91  C   UNL A   1      46.149  27.989  34.562  1.00  0.00     0.173 A 
ATOM     92  C   UNL A   1      44.728  26.172  35.238  1.00  0.00     0.173 A 
ATOM     93  F   UNL A   1      46.379  29.099  33.843  1.00  0.00    -0.203 F 
ATOM     94  C   UNL A   1      47.175  27.477  35.354  1.00  0.00     0.198 A 
ATOM     95  C   UNL A   1      45.745  25.679  36.050  1.00  0.00     0.198 A 
ATOM     96  F   UNL A   1      43.560  25.514  35.197  1.00  0.00    -0.203 F 
ATOM     97  F   UNL A   1      48.367  28.088  35.378  1.00  0.00    -0.200 F 
ATOM     98  C   UNL A   1      46.970  26.326  36.101  1.00  0.00     0.200 A 
ATOM     99  F   UNL A   1      45.541  24.575  36.782  1.00  0.00    -0.200 F 
ATOM    100  F   UNL A   1      47.957  25.836  36.863  1.00  0.00    -0.200 F 
ENDBRANCH  67  90
ENDBRANCH  41  42
ENDBRANCH  34  36
ENDBRANCH  33  34
ENDBRANCH  32  33
ENDBRANCH   1  32
TORSDOF 17
ENDMDL
MODEL 2
REMARK VINA RESULT:     -13.0      4.037      9.271
REMARK SMILES COc1ccc(/C=C2/C(=O)N(c3ccccc3)C(=O)N=C2OCCOCCOC(=O)c2ccc(-c3c4nc(c(-c5c(F)c(F)c(F)c(F)c5F)c5ccc([nH]5)c(-c5c(F)c(F)c(F)c(F)c5F)c5nc(c(-c6c(F)c(F)c(F)c(F)c6F)c6ccc3[nH]6)C=C5)C=C4)cc2)cc1C(=O)[O-]
REMARK SMILES IDX 26 1 25 2 24 3 23 4 22 5 21 6 7 7 8 8 9 9 10 10 11 11 20 12
REMARK SMILES IDX 18 13 19 14 6 15 3 16 4 17 95 18 5 19 94 20 2 21 1 22 96 23
REMARK SMILES IDX 97 24 98 25 12 26 13 27 17 28 14 29 16 30 15 31 27 32 28 33
REMARK SMILES IDX 29 34 30 35 31 36 32 37 93 38 33 39 92 40 34 41 35 42 36 43
REMARK SMILES IDX 86 44 37 45 91 46 85 47 87 48 38 49 90 50 84 51 83 52 39 54
REMARK SMILES IDX 71 55 51 56 70 57 52 58 55 59 69 60 88 61 53 62 54 63 68 65
REMARK SMILES IDX 89 66 56 67 40 68 41 69 49 70 42 71 43 72 47 73 50 74 44 75
REMARK SMILES IDX 45 76 48 77 46 78 72 79 73 80 81 81 74 82 75 83 79 84 82 85
REMARK SMILES IDX 76 86 77 87 80 88 78 89 57 90 58 91 66 92 59 93 60 94 64 95
REMARK SMILES IDX 67 96 61 97 62 98 65 99 63 100
REMARK H PARENT 87 53 55 64
REMARK Flexibility Score: inf
ROOT
ATOM      1  C   UNL A   1      36.465  20.804  24.961  1.00  0.00     0.202 C 
ENDROOT
BRANCH   1   2
ATOM      2  O   UNL A   1      36.206  22.010  25.678  1.00  0.00    -0.374 OA
BRANCH   2   3
ATOM      3  C   UNL A   1      35.913  23.170  24.896  1.00  0.00     0.202 C 
BRANCH   3   4
ATOM      4  C   UNL A   1      35.873  22.920  23.390  1.00  0.00     0.260 C 
BRANCH   4   5
ATOM      5  O   UNL A   1      34.508  23.042  22.924  1.00  0.00    -0.475 OA
BRANCH   5   6
ATOM      6  C   UNL A   1      33.845  24.179  23.178  1.00  0.00     0.231 C 
ATOM      7  C   UNL A   1      32.195  22.938  24.720  1.00  0.00     0.027 C 
ATOM      8  C   UNL A   1      32.690  24.032  24.079  1.00  0.00     0.103 C 
ATOM      9  C   UNL A   1      31.874  25.303  24.207  1.00  0.00     0.272 C 
ATOM     10  O   UNL A   1      30.897  25.343  24.957  1.00  0.00    -0.268 OA
ATOM     11  N   UNL A   1      32.272  26.354  23.380  1.00  0.00    -0.226 N 
ATOM     12  N   UNL A   1      34.208  25.246  22.580  1.00  0.00    -0.156 NA
ATOM     13  C   UNL A   1      33.484  26.385  22.683  1.00  0.00     0.358 C 
ATOM     14  O   UNL A   1      33.930  27.408  22.168  1.00  0.00    -0.245 OA
BRANCH   7  15
ATOM     15  C   UNL A   1      32.528  21.483  24.826  1.00  0.00    -0.024 A 
ATOM     16  C   UNL A   1      33.184  18.694  24.820  1.00  0.00     0.127 A 
ATOM     17  C   UNL A   1      33.196  19.439  25.996  1.00  0.00     0.048 A 
ATOM     18  C   UNL A   1      32.715  19.310  23.661  1.00  0.00     0.040 A 
ATOM     19  C   UNL A   1      32.822  20.794  26.002  1.00  0.00     0.012 A 
ATOM     20  C   UNL A   1      32.450  20.698  23.654  1.00  0.00     0.022 A 
BRANCH  16  21
ATOM     21  O   UNL A   1      33.578  17.392  24.961  1.00  0.00    -0.496 OA
ATOM     22  C   UNL A   1      32.649  16.552  25.644  1.00  0.00     0.278 C 
ENDBRANCH  16  21
BRANCH  18  23
ATOM     23  C   UNL A   1      32.376  18.558  22.433  1.00  0.00     0.075 C 
ATOM     24  O   UNL A   1      32.515  17.368  22.265  1.00  0.00    -0.545 OA
ATOM     25  O   UNL A   1      31.991  19.387  21.444  1.00  0.00    -0.545 OA
ENDBRANCH  18  23
ENDBRANCH   7  15
BRANCH  11  26
ATOM     26  C   UNL A   1      31.489  27.550  23.310  1.00  0.00     0.054 A 
ATOM     27  C   UNL A   1      31.671  28.551  24.281  1.00  0.00     0.027 A 
ATOM     28  C   UNL A   1      30.450  27.676  22.384  1.00  0.00     0.027 A 
ATOM     29  C   UNL A   1      30.804  29.642  24.347  1.00  0.00     0.002 A 
ATOM     30  C   UNL A   1      29.565  28.754  22.475  1.00  0.00     0.002 A 
ATOM     31  C   UNL A   1      29.739  29.732  23.457  1.00  0.00     0.000 A 
ENDBRANCH  11  26
ENDBRANCH   5   6
ENDBRANCH   4   5
ENDBRANCH   3   4
ENDBRANCH   2   3
ENDBRANCH   1   2
BRANCH   1  32
ATOM     32  C   UNL A   1      37.854  20.201  25.180  1.00  0.00     0.261 C 
BRANCH  32  33
ATOM     33  O   UNL A   1      38.848  21.232  25.301  1.00  0.00    -0.460 OA
BRANCH  33  34
ATOM     34  C   UNL A   1      39.757  21.019  26.280  1.00  0.00     0.338 C 
ATOM     35  O   UNL A   1      40.341  19.981  26.540  1.00  0.00    -0.246 OA
BRANCH  34  36
ATOM     36  C   UNL A   1      40.094  22.299  26.932  1.00  0.00     0.060 A 
ATOM     37  C   UNL A   1      39.408  23.442  26.504  1.00  0.00     0.016 A 
ATOM     38  C   UNL A   1      41.116  22.394  27.876  1.00  0.00     0.016 A 
ATOM     39  C   UNL A   1      39.784  24.697  26.974  1.00  0.00     0.010 A 
ATOM     40  C   UNL A   1      41.501  23.657  28.334  1.00  0.00     0.010 A 
ATOM     41  C   UNL A   1      40.863  24.817  27.857  1.00  0.00    -0.014 A 
BRANCH  41  42
ATOM     42  C   UNL A   1      41.433  26.157  28.136  1.00  0.00     0.031 A 
ATOM     43  C   UNL A   1      42.813  26.480  27.632  1.00  0.00     0.074 A 
ATOM     44  C   UNL A   1      40.723  27.089  28.796  1.00  0.00     0.049 A 
ATOM     45  N   UNL A   1      43.505  27.586  27.747  1.00  0.00    -0.248 NA
ATOM     46  C   UNL A   1      43.512  25.405  26.911  1.00  0.00     0.031 C 
ATOM     47  C   UNL A   1      39.375  26.904  29.326  1.00  0.00     0.029 A 
ATOM     48  N   UNL A   1      41.045  28.380  29.134  1.00  0.00    -0.354 N 
ATOM     49  C   UNL A   1      44.718  27.336  27.120  1.00  0.00     0.074 A 
ATOM     50  C   UNL A   1      44.690  25.959  26.676  1.00  0.00     0.031 C 
ATOM     51  C   UNL A   1      38.980  28.042  29.922  1.00  0.00     0.029 A 
ATOM     52  C   UNL A   1      40.054  29.029  29.825  1.00  0.00     0.049 A 
ATOM     53  H   UNL A   1      41.905  28.799  28.903  1.00  0.00     0.167 HD
ATOM     54  C   UNL A   1      45.754  28.183  26.910  1.00  0.00     0.037 A 
ATOM     55  C   UNL A   1      40.018  30.281  30.320  1.00  0.00     0.037 A 
ATOM     56  C   UNL A   1      45.776  29.557  27.335  1.00  0.00     0.049 A 
ATOM     57  C   UNL A   1      41.195  31.196  30.106  1.00  0.00     0.074 A 
ATOM     58  C   UNL A   1      46.764  30.505  27.144  1.00  0.00     0.029 A 
ATOM     59  N   UNL A   1      44.757  30.176  28.044  1.00  0.00    -0.354 N 
ATOM     60  N   UNL A   1      42.321  30.964  29.476  1.00  0.00    -0.248 NA
ATOM     61  C   UNL A   1      41.087  32.551  30.663  1.00  0.00     0.031 C 
ATOM     62  C   UNL A   1      46.361  31.690  27.773  1.00  0.00     0.029 A 
ATOM     63  C   UNL A   1      45.100  31.491  28.314  1.00  0.00     0.049 A 
ATOM     64  H   UNL A   1      43.915  29.745  28.315  1.00  0.00     0.167 HD
ATOM     65  C   UNL A   1      43.040  32.151  29.530  1.00  0.00     0.074 A 
ATOM     66  C   UNL A   1      42.218  33.104  30.248  1.00  0.00     0.031 C 
ATOM     67  C   UNL A   1      44.268  32.430  29.024  1.00  0.00     0.037 A 
BRANCH  54  68
ATOM     68  C   UNL A   1      46.952  27.628  26.195  1.00  0.00     0.064 A 
ATOM     69  C   UNL A   1      48.037  27.075  26.895  1.00  0.00     0.173 A 
ATOM     70  C   UNL A   1      47.024  27.663  24.795  1.00  0.00     0.173 A 
ATOM     71  F   UNL A   1      48.024  27.033  28.236  1.00  0.00    -0.203 F 
ATOM     72  C   UNL A   1      49.167  26.619  26.221  1.00  0.00     0.198 A 
ATOM     73  C   UNL A   1      48.143  27.178  24.123  1.00  0.00     0.198 A 
ATOM     74  F   UNL A   1      46.015  28.179  24.078  1.00  0.00    -0.203 F 
ATOM     75  F   UNL A   1      50.217  26.159  26.914  1.00  0.00    -0.200 F 
ATOM     76  C   UNL A   1      49.218  26.668  24.837  1.00  0.00     0.200 A 
ATOM     77  F   UNL A   1      48.188  27.217  22.785  1.00  0.00    -0.200 F 
ATOM     78  F   UNL A   1      50.309  26.235  24.190  1.00  0.00    -0.200 F 
ENDBRANCH  54  68
BRANCH  55  79
ATOM     79  C   UNL A   1      38.807  30.758  31.034  1.00  0.00     0.064 A 
ATOM     80  C   UNL A   1      38.725  30.689  32.431  1.00  0.00     0.173 A 
ATOM     81  C   UNL A   1      37.713  31.292  30.340  1.00  0.00     0.173 A 
ATOM     82  F   UNL A   1      39.738  30.164  33.136  1.00  0.00    -0.203 F 
ATOM     83  C   UNL A   1      37.586  31.122  33.107  1.00  0.00     0.198 A 
ATOM     84  C   UNL A   1      36.584  31.746  31.018  1.00  0.00     0.198 A 
ATOM     85  F   UNL A   1      37.744  31.375  29.001  1.00  0.00    -0.203 F 
ATOM     86  F   UNL A   1      37.517  31.009  34.441  1.00  0.00    -0.200 F 
ATOM     87  C   UNL A   1      36.519  31.656  32.400  1.00  0.00     0.200 A 
ATOM     88  F   UNL A   1      35.557  32.268  30.333  1.00  0.00    -0.200 F 
ATOM     89  F   UNL A   1      35.426  32.076  33.051  1.00  0.00    -0.200 F 
ENDBRANCH  55  79
BRANCH  67  90
ATOM     90  C   UNL A   1      44.779  33.831  29.194  1.00  0.00     0.064 A 
ATOM     91  C   UNL A   1      44.496  34.838  28.259  1.00  0.00     0.173 A 
ATOM     92  C   UNL A   1      45.538  34.176  30.323  1.00  0.00     0.173 A 
ATOM     93  F   UNL A   1      43.787  34.556  27.156  1.00  0.00    -0.203 F 
ATOM     94  C   UNL A   1      44.982  36.132  28.434  1.00  0.00     0.198 A 
ATOM     95  C   UNL A   1      45.996  35.477  30.508  1.00  0.00     0.198 A 
ATOM     96  F   UNL A   1      45.829  33.252  31.249  1.00  0.00    -0.203 F 
ATOM     97  F   UNL A   1      44.744  37.066  27.502  1.00  0.00    -0.200 F 
ATOM     98  C   UNL A   1      45.726  36.452  29.560  1.00  0.00     0.200 A 
ATOM     99  F   UNL A   1      46.704  35.787  31.604  1.00  0.00    -0.200 F 
ATOM    100  F   UNL A   1      46.190  37.698  29.727  1.00  0.00    -0.200 F 
ENDBRANCH  67  90
ENDBRANCH  41  42
ENDBRANCH  34  36
ENDBRANCH  33  34
ENDBRANCH  32  33
ENDBRANCH   1  32
TORSDOF 17
ENDMDL
MODEL 3
REMARK VINA RESULT:     -13.0      0.505      6.896
REMARK SMILES COc1ccc(/C=C2/C(=O)N(c3ccccc3)C(=O)N=C2OCCOCCOC(=O)c2ccc(-c3c4nc(c(-c5c(F)c(F)c(F)c(F)c5F)c5ccc([nH]5)c(-c5c(F)c(F)c(F)c(F)c5F)c5nc(c(-c6c(F)c(F)c(F)c(F)c6F)c6ccc3[nH]6)C=C5)C=C4)cc2)cc1C(=O)[O-]
REMARK SMILES IDX 26 1 25 2 24 3 23 4 22 5 21 6 7 7 8 8 9 9 10 10 11 11 20 12
REMARK SMILES IDX 18 13 19 14 6 15 3 16 4 17 95 18 5 19 94 20 2 21 1 22 96 23
REMARK SMILES IDX 97 24 98 25 12 26 13 27 17 28 14 29 16 30 15 31 27 32 28 33
REMARK SMILES IDX 29 34 30 35 31 36 32 37 93 38 33 39 92 40 34 41 35 42 36 43
REMARK SMILES IDX 86 44 37 45 91 46 85 47 87 48 38 49 90 50 84 51 83 52 39 54
REMARK SMILES IDX 71 55 51 56 70 57 52 58 55 59 69 60 88 61 53 62 54 63 68 65
REMARK SMILES IDX 89 66 56 67 40 68 41 69 49 70 42 71 43 72 47 73 50 74 44 75
REMARK SMILES IDX 45 76 48 77 46 78 72 79 73 80 81 81 74 82 75 83 79 84 82 85
REMARK SMILES IDX 76 86 77 87 80 88 78 89 57 90 58 91 66 92 59 93 60 94 64 95
REMARK SMILES IDX 67 96 61 97 62 98 65 99 63 100
REMARK H PARENT 87 53 55 64
REMARK Flexibility Score: inf
ROOT
ATOM      1  C   UNL A   1      32.083  27.983  27.063  1.00  0.00     0.202 C 
ENDROOT
BRANCH   1   2
ATOM      2  O   UNL A   1      30.934  27.138  27.125  1.00  0.00    -0.374 OA
BRANCH   2   3
ATOM      3  C   UNL A   1      31.076  25.824  26.579  1.00  0.00     0.202 C 
BRANCH   3   4
ATOM      4  C   UNL A   1      29.824  25.295  25.882  1.00  0.00     0.260 C 
BRANCH   4   5
ATOM      5  O   UNL A   1      30.015  25.357  24.449  1.00  0.00    -0.475 OA
BRANCH   5   6
ATOM      6  C   UNL A   1      29.693  26.491  23.810  1.00  0.00     0.231 C 
ATOM      7  C   UNL A   1      32.162  26.913  23.203  1.00  0.00     0.027 C 
ATOM      8  C   UNL A   1      30.834  27.214  23.225  1.00  0.00     0.103 C 
ATOM      9  C   UNL A   1      30.450  28.568  22.659  1.00  0.00     0.272 C 
ATOM     10  O   UNL A   1      31.294  29.273  22.104  1.00  0.00    -0.268 OA
ATOM     11  N   UNL A   1      29.127  28.953  22.879  1.00  0.00    -0.226 N 
ATOM     12  N   UNL A   1      28.478  26.878  23.824  1.00  0.00    -0.156 NA
ATOM     13  C   UNL A   1      28.124  28.086  23.326  1.00  0.00     0.358 C 
ATOM     14  O   UNL A   1      26.929  28.369  23.275  1.00  0.00    -0.245 OA
BRANCH   7  15
ATOM     15  C   UNL A   1      33.048  25.818  23.705  1.00  0.00    -0.024 A 
ATOM     16  C   UNL A   1      34.668  23.597  24.514  1.00  0.00     0.127 A 
ATOM     17  C   UNL A   1      34.908  24.882  24.993  1.00  0.00     0.048 A 
ATOM     18  C   UNL A   1      33.534  23.393  23.730  1.00  0.00     0.040 A 
ATOM     19  C   UNL A   1      34.077  25.958  24.635  1.00  0.00     0.012 A 
ATOM     20  C   UNL A   1      32.773  24.498  23.284  1.00  0.00     0.022 A 
BRANCH  16  21
ATOM     21  O   UNL A   1      35.558  22.650  24.938  1.00  0.00    -0.496 OA
ATOM     22  C   UNL A   1      36.883  23.130  25.169  1.00  0.00     0.278 C 
ENDBRANCH  16  21
BRANCH  18  23
ATOM     23  C   UNL A   1      33.010  22.047  23.409  1.00  0.00     0.075 C 
ATOM     24  O   UNL A   1      33.057  21.075  24.127  1.00  0.00    -0.545 OA
ATOM     25  O   UNL A   1      32.562  21.987  22.141  1.00  0.00    -0.545 OA
ENDBRANCH  18  23
ENDBRANCH   7  15
BRANCH  11  26
ATOM     26  C   UNL A   1      28.691  30.267  22.518  1.00  0.00     0.054 A 
ATOM     27  C   UNL A   1      28.285  30.519  21.195  1.00  0.00     0.027 A 
ATOM     28  C   UNL A   1      28.802  31.333  23.414  1.00  0.00     0.027 A 
ATOM     29  C   UNL A   1      28.028  31.822  20.767  1.00  0.00     0.002 A 
ATOM     30  C   UNL A   1      28.575  32.640  22.972  1.00  0.00     0.002 A 
ATOM     31  C   UNL A   1      28.194  32.883  21.651  1.00  0.00     0.000 A 
ENDBRANCH  11  26
ENDBRANCH   5   6
ENDBRANCH   4   5
ENDBRANCH   3   4
ENDBRANCH   2   3
ENDBRANCH   1   2
BRANCH   1  32
ATOM     32  C   UNL A   1      31.860  29.336  26.385  1.00  0.00     0.261 C 
BRANCH  32  33
ATOM     33  O   UNL A   1      33.115  29.972  26.088  1.00  0.00    -0.460 OA
BRANCH  33  34
ATOM     34  C   UNL A   1      33.452  30.967  26.941  1.00  0.00     0.338 C 
ATOM     35  O   UNL A   1      32.740  31.870  27.349  1.00  0.00    -0.246 OA
BRANCH  34  36
ATOM     36  C   UNL A   1      34.806  30.728  27.473  1.00  0.00     0.060 A 
ATOM     37  C   UNL A   1      35.216  29.398  27.623  1.00  0.00     0.016 A 
ATOM     38  C   UNL A   1      35.624  31.776  27.895  1.00  0.00     0.016 A 
ATOM     39  C   UNL A   1      36.421  29.106  28.255  1.00  0.00     0.010 A 
ATOM     40  C   UNL A   1      36.826  31.480  28.542  1.00  0.00     0.010 A 
ATOM     41  C   UNL A   1      37.213  30.145  28.760  1.00  0.00    -0.014 A 
BRANCH  41  42
ATOM     42  C   UNL A   1      38.343  29.826  29.665  1.00  0.00     0.031 A 
ATOM     43  C   UNL A   1      39.419  28.892  29.184  1.00  0.00     0.074 A 
ATOM     44  C   UNL A   1      38.434  30.384  30.885  1.00  0.00     0.049 A 
ATOM     45  N   UNL A   1      40.501  28.481  29.795  1.00  0.00    -0.248 NA
ATOM     46  C   UNL A   1      39.244  28.336  27.833  1.00  0.00     0.031 C 
ATOM     47  C   UNL A   1      37.464  31.311  31.463  1.00  0.00     0.029 A 
ATOM     48  N   UNL A   1      39.392  30.248  31.858  1.00  0.00    -0.354 N 
ATOM     49  C   UNL A   1      41.129  27.617  28.908  1.00  0.00     0.074 A 
ATOM     50  C   UNL A   1      40.281  27.519  27.740  1.00  0.00     0.031 C 
ATOM     51  C   UNL A   1      37.877  31.664  32.692  1.00  0.00     0.029 A 
ATOM     52  C   UNL A   1      39.133  30.979  32.990  1.00  0.00     0.049 A 
ATOM     53  H   UNL A   1      40.189  29.680  31.753  1.00  0.00     0.167 HD
ATOM     54  C   UNL A   1      42.317  26.981  29.042  1.00  0.00     0.037 A 
ATOM     55  C   UNL A   1      39.835  31.083  34.135  1.00  0.00     0.037 A 
ATOM     56  C   UNL A   1      43.170  27.090  30.194  1.00  0.00     0.049 A 
ATOM     57  C   UNL A   1      41.136  30.339  34.276  1.00  0.00     0.074 A 
ATOM     58  C   UNL A   1      44.406  26.511  30.414  1.00  0.00     0.029 A 
ATOM     59  N   UNL A   1      42.867  27.831  31.328  1.00  0.00    -0.354 N 
ATOM     60  N   UNL A   1      41.742  29.557  33.416  1.00  0.00    -0.248 NA
ATOM     61  C   UNL A   1      41.856  30.505  35.546  1.00  0.00     0.031 C 
ATOM     62  C   UNL A   1      44.835  26.868  31.699  1.00  0.00     0.029 A 
ATOM     63  C   UNL A   1      43.887  27.710  32.259  1.00  0.00     0.049 A 
ATOM     64  H   UNL A   1      42.049  28.365  31.453  1.00  0.00     0.167 HD
ATOM     65  C   UNL A   1      42.928  29.166  34.024  1.00  0.00     0.074 A 
ATOM     66  C   UNL A   1      42.959  29.804  35.325  1.00  0.00     0.031 C 
ATOM     67  C   UNL A   1      43.906  28.357  33.547  1.00  0.00     0.037 A 
BRANCH  54  68
ATOM     68  C   UNL A   1      42.747  26.098  27.906  1.00  0.00     0.064 A 
ATOM     69  C   UNL A   1      43.621  26.557  26.906  1.00  0.00     0.173 A 
ATOM     70  C   UNL A   1      42.269  24.784  27.806  1.00  0.00     0.173 A 
ATOM     71  F   UNL A   1      44.092  27.812  26.945  1.00  0.00    -0.203 F 
ATOM     72  C   UNL A   1      43.962  25.746  25.826  1.00  0.00     0.198 A 
ATOM     73  C   UNL A   1      42.638  23.966  26.742  1.00  0.00     0.198 A 
ATOM     74  F   UNL A   1      41.435  24.295  28.736  1.00  0.00    -0.203 F 
ATOM     75  F   UNL A   1      44.742  26.229  24.849  1.00  0.00    -0.200 F 
ATOM     76  C   UNL A   1      43.474  24.451  25.747  1.00  0.00     0.200 A 
ATOM     77  F   UNL A   1      42.174  22.711  26.670  1.00  0.00    -0.200 F 
ATOM     78  F   UNL A   1      43.799  23.674  24.704  1.00  0.00    -0.200 F 
ENDBRANCH  54  68
BRANCH  55  79
ATOM     79  C   UNL A   1      39.340  31.959  35.226  1.00  0.00     0.064 A 
ATOM     80  C   UNL A   1      39.659  33.323  35.251  1.00  0.00     0.173 A 
ATOM     81  C   UNL A   1      38.541  31.455  36.261  1.00  0.00     0.173 A 
ATOM     82  F   UNL A   1      40.441  33.845  34.295  1.00  0.00    -0.203 F 
ATOM     83  C   UNL A   1      39.209  34.148  36.280  1.00  0.00     0.198 A 
ATOM     84  C   UNL A   1      38.072  32.285  37.277  1.00  0.00     0.198 A 
ATOM     85  F   UNL A   1      38.212  30.154  36.283  1.00  0.00    -0.203 F 
ATOM     86  F   UNL A   1      39.560  35.442  36.301  1.00  0.00    -0.200 F 
ATOM     87  C   UNL A   1      38.410  33.630  37.288  1.00  0.00     0.200 A 
ATOM     88  F   UNL A   1      37.295  31.783  38.247  1.00  0.00    -0.200 F 
ATOM     89  F   UNL A   1      37.975  34.425  38.275  1.00  0.00    -0.200 F 
ENDBRANCH  55  79
BRANCH  67  90
ATOM     90  C   UNL A   1      45.111  28.148  34.418  1.00  0.00     0.064 A 
ATOM     91  C   UNL A   1      46.223  29.002  34.356  1.00  0.00     0.173 A 
ATOM     92  C   UNL A   1      45.140  27.096  35.345  1.00  0.00     0.173 A 
ATOM     93  F   UNL A   1      46.250  30.014  33.476  1.00  0.00    -0.203 F 
ATOM     94  C   UNL A   1      47.332  28.790  35.172  1.00  0.00     0.198 A 
ATOM     95  C   UNL A   1      46.239  26.906  36.178  1.00  0.00     0.198 A 
ATOM     96  F   UNL A   1      44.100  26.257  35.448  1.00  0.00    -0.203 F 
ATOM     97  F   UNL A   1      48.404  29.587  35.060  1.00  0.00    -0.200 F 
ATOM     98  C   UNL A   1      47.337  27.747  36.085  1.00  0.00     0.200 A 
ATOM     99  F   UNL A   1      46.236  25.905  37.071  1.00  0.00    -0.200 F 
ATOM    100  F   UNL A   1      48.405  27.547  36.870  1.00  0.00    -0.200 F 
ENDBRANCH  67  90
ENDBRANCH  41  42
ENDBRANCH  34  36
ENDBRANCH  33  34
ENDBRANCH  32  33
ENDBRANCH   1  32
TORSDOF 17
ENDMDL
