MODEL 1
REMARK VINA RESULT:     -11.2      0.000      0.000
REMARK SMILES Cc1ccc(NC(=O)C[C@H]2C(=O)NCCN2C(=O)CCC(=O)OCCOCCOC(=O)c2ccc(-c3c4nc(c(-c5c(F)c(F)c(F)c(F)c5F)c5ccc([nH]5)c(-c5c(F)c(F)c(F)c(F)c5F)c5nc(c(-c6c(F)c(F)c(F)c(F)c6F)c6ccc3[nH]6)C=C5)C=C4)cc2)c(C)c1
REMARK SMILES IDX 24 1 23 2 21 3 22 4 20 5 19 6 17 7 18 8 16 9 10 10 11 11
REMARK SMILES IDX 12 12 13 13 15 14 14 15 9 17 7 18 6 19 8 21 5 22 1 23 2 24
REMARK SMILES IDX 3 25 97 26 4 27 95 28 96 29 25 30 26 31 27 32 28 33 29 34
REMARK SMILES IDX 30 35 31 36 32 37 33 38 94 39 34 40 93 41 35 42 36 43 37 44
REMARK SMILES IDX 87 45 38 46 92 47 86 48 88 49 39 50 91 51 85 52 84 53 40 55
REMARK SMILES IDX 72 56 52 57 71 58 53 59 56 60 70 61 89 62 54 63 55 64 69 66
REMARK SMILES IDX 90 67 57 68 41 69 42 70 50 71 43 72 44 73 48 74 51 75 45 76
REMARK SMILES IDX 46 77 49 78 47 79 73 80 74 81 82 82 75 83 76 84 80 85 83 86
REMARK SMILES IDX 77 87 78 88 81 89 79 90 58 91 59 92 67 93 60 94 61 95 65 96
REMARK SMILES IDX 68 97 62 98 63 99 66 100 64 101
REMARK H PARENT 13 16 6 20 88 54 56 65
REMARK Flexibility Score: inf
ROOT
ATOM      1  C   UNL A   1      35.631  32.431  27.994  1.00  0.00     0.261 C 
ENDROOT
BRANCH   1   2
ATOM      2  O   UNL A   1      34.929  31.222  28.356  1.00  0.00    -0.463 OA
BRANCH   2   3
ATOM      3  C   UNL A   1      34.022  30.683  27.505  1.00  0.00     0.306 C 
ATOM      4  O   UNL A   1      32.969  31.208  27.176  1.00  0.00    -0.252 OA
BRANCH   3   5
ATOM      5  C   UNL A   1      34.483  29.319  27.008  1.00  0.00     0.132 C 
BRANCH   5   6
ATOM      6  C   UNL A   1      33.375  28.384  26.550  1.00  0.00     0.112 C 
BRANCH   6   7
ATOM      7  C   UNL A   1      33.065  28.125  25.068  1.00  0.00     0.223 C 
ATOM      8  O   UNL A   1      34.014  28.261  24.283  1.00  0.00    -0.275 OA
BRANCH   7   9
ATOM      9  N   UNL A   1      31.858  27.616  24.598  1.00  0.00    -0.328 N 
ATOM     10  C   UNL A   1      31.705  26.404  23.792  1.00  0.00     0.183 C 
ATOM     11  C   UNL A   1      31.460  26.731  22.319  1.00  0.00     0.243 C 
ATOM     12  O   UNL A   1      31.406  25.880  21.436  1.00  0.00    -0.273 OA
ATOM     13  N   UNL A   1      31.424  28.056  22.004  1.00  0.00    -0.353 N 
ATOM     14  C   UNL A   1      30.823  28.619  24.311  1.00  0.00     0.141 C 
ATOM     15  C   UNL A   1      31.046  29.132  22.896  1.00  0.00     0.137 C 
ATOM     16  H   UNL A   1      31.679  28.304  21.086  1.00  0.00     0.163 HD
BRANCH  10  17
ATOM     17  C   UNL A   1      30.836  25.242  24.272  1.00  0.00     0.135 C 
BRANCH  17  18
ATOM     18  C   UNL A   1      30.855  24.862  25.734  1.00  0.00     0.227 C 
ATOM     19  N   UNL A   1      31.766  24.004  26.285  1.00  0.00    -0.326 N 
ATOM     20  H   UNL A   1      31.545  23.685  27.190  1.00  0.00     0.169 HD
ATOM     21  O   UNL A   1      30.027  25.367  26.502  1.00  0.00    -0.275 OA
BRANCH  19  22
ATOM     22  C   UNL A   1      32.971  23.513  25.756  1.00  0.00     0.044 A 
ATOM     23  C   UNL A   1      36.512  22.974  23.384  1.00  0.00     0.044 C 
ATOM     24  C   UNL A   1      35.345  23.073  24.321  1.00  0.00    -0.051 A 
ATOM     25  C   UNL A   1      35.242  24.162  25.186  1.00  0.00     0.005 A 
ATOM     26  C   UNL A   1      34.303  22.135  24.291  1.00  0.00     0.009 A 
ATOM     27  C   UNL A   1      34.075  24.364  25.919  1.00  0.00     0.026 A 
ATOM     28  C   UNL A   1      33.125  22.318  25.044  1.00  0.00    -0.027 A 
ATOM     29  C   UNL A   1      32.153  21.172  25.127  1.00  0.00     0.046 C 
ENDBRANCH  19  22
ENDBRANCH  17  18
ENDBRANCH  10  17
ENDBRANCH   7   9
ENDBRANCH   6   7
ENDBRANCH   5   6
ENDBRANCH   3   5
ENDBRANCH   2   3
ENDBRANCH   1   2
BRANCH   1  30
ATOM     30  C   UNL A   1      35.332  33.573  28.980  1.00  0.00     0.202 C 
BRANCH  30  31
ATOM     31  O   UNL A   1      33.935  33.812  29.174  1.00  0.00    -0.374 OA
BRANCH  31  32
ATOM     32  C   UNL A   1      33.486  35.060  28.657  1.00  0.00     0.202 C 
BRANCH  32  33
ATOM     33  C   UNL A   1      32.913  35.975  29.736  1.00  0.00     0.261 C 
BRANCH  33  34
ATOM     34  O   UNL A   1      32.409  35.187  30.833  1.00  0.00    -0.460 OA
BRANCH  34  35
ATOM     35  C   UNL A   1      32.784  35.568  32.077  1.00  0.00     0.338 C 
ATOM     36  O   UNL A   1      32.180  36.294  32.846  1.00  0.00    -0.246 OA
BRANCH  35  37
ATOM     37  C   UNL A   1      34.041  34.868  32.414  1.00  0.00     0.060 A 
ATOM     38  C   UNL A   1      35.252  35.547  32.245  1.00  0.00     0.016 A 
ATOM     39  C   UNL A   1      34.029  33.585  32.974  1.00  0.00     0.016 A 
ATOM     40  C   UNL A   1      36.454  34.953  32.649  1.00  0.00     0.010 A 
ATOM     41  C   UNL A   1      35.223  33.030  33.453  1.00  0.00     0.010 A 
ATOM     42  C   UNL A   1      36.453  33.689  33.253  1.00  0.00    -0.014 A 
BRANCH  42  43
ATOM     43  C   UNL A   1      37.730  32.949  33.454  1.00  0.00     0.031 A 
ATOM     44  C   UNL A   1      38.484  33.203  34.736  1.00  0.00     0.074 A 
ATOM     45  C   UNL A   1      38.217  32.061  32.562  1.00  0.00     0.049 A 
ATOM     46  N   UNL A   1      39.600  32.679  35.172  1.00  0.00    -0.248 NA
ATOM     47  C   UNL A   1      37.921  34.228  35.633  1.00  0.00     0.031 C 
ATOM     48  C   UNL A   1      37.635  31.741  31.259  1.00  0.00     0.029 A 
ATOM     49  N   UNL A   1      39.329  31.253  32.635  1.00  0.00    -0.354 N 
ATOM     50  C   UNL A   1      39.866  33.322  36.374  1.00  0.00     0.074 A 
ATOM     51  C   UNL A   1      38.869  34.350  36.542  1.00  0.00     0.031 C 
ATOM     52  C   UNL A   1      38.382  30.787  30.668  1.00  0.00     0.029 A 
ATOM     53  C   UNL A   1      39.490  30.425  31.551  1.00  0.00     0.049 A 
ATOM     54  H   UNL A   1      39.953  31.268  33.397  1.00  0.00     0.167 HD
ATOM     55  C   UNL A   1      40.809  33.048  37.303  1.00  0.00     0.037 A 
ATOM     56  C   UNL A   1      40.412  29.467  31.319  1.00  0.00     0.037 A 
ATOM     57  C   UNL A   1      41.768  31.991  37.185  1.00  0.00     0.049 A 
ATOM     58  C   UNL A   1      41.454  29.162  32.374  1.00  0.00     0.074 A 
ATOM     59  C   UNL A   1      42.734  31.596  38.090  1.00  0.00     0.029 A 
ATOM     60  N   UNL A   1      41.867  31.150  36.089  1.00  0.00    -0.354 N 
ATOM     61  N   UNL A   1      41.635  29.712  33.549  1.00  0.00    -0.248 NA
ATOM     62  C   UNL A   1      42.407  28.080  32.073  1.00  0.00     0.031 C 
ATOM     63  C   UNL A   1      43.438  30.525  37.530  1.00  0.00     0.029 A 
ATOM     64  C   UNL A   1      42.885  30.236  36.292  1.00  0.00     0.049 A 
ATOM     65  H   UNL A   1      41.298  31.194  35.287  1.00  0.00     0.167 HD
ATOM     66  C   UNL A   1      42.684  29.019  34.142  1.00  0.00     0.074 A 
ATOM     67  C   UNL A   1      43.099  28.002  33.200  1.00  0.00     0.031 C 
ATOM     68  C   UNL A   1      43.256  29.207  35.357  1.00  0.00     0.037 A 
BRANCH  55  69
ATOM     69  C   UNL A   1      40.806  33.903  38.533  1.00  0.00     0.064 A 
ATOM     70  C   UNL A   1      39.953  33.621  39.615  1.00  0.00     0.173 A 
ATOM     71  C   UNL A   1      41.610  35.047  38.609  1.00  0.00     0.173 A 
ATOM     72  F   UNL A   1      39.142  32.552  39.573  1.00  0.00    -0.203 F 
ATOM     73  C   UNL A   1      39.869  34.484  40.703  1.00  0.00     0.198 A 
ATOM     74  C   UNL A   1      41.548  35.889  39.717  1.00  0.00     0.198 A 
ATOM     75  F   UNL A   1      42.436  35.362  37.601  1.00  0.00    -0.203 F 
ATOM     76  F   UNL A   1      38.986  34.239  41.681  1.00  0.00    -0.200 F 
ATOM     77  C   UNL A   1      40.668  35.615  40.754  1.00  0.00     0.200 A 
ATOM     78  F   UNL A   1      42.322  36.982  39.768  1.00  0.00    -0.200 F 
ATOM     79  F   UNL A   1      40.575  36.454  41.794  1.00  0.00    -0.200 F 
ENDBRANCH  55  69
BRANCH  56  80
ATOM     80  C   UNL A   1      40.380  28.667  30.064  1.00  0.00     0.064 A 
ATOM     81  C   UNL A   1      41.005  29.133  28.898  1.00  0.00     0.173 A 
ATOM     82  C   UNL A   1      39.662  27.466  29.981  1.00  0.00     0.173 A 
ATOM     83  F   UNL A   1      41.674  30.296  28.917  1.00  0.00    -0.203 F 
ATOM     84  C   UNL A   1      40.884  28.449  27.689  1.00  0.00     0.198 A 
ATOM     85  C   UNL A   1      39.562  26.768  28.776  1.00  0.00     0.198 A 
ATOM     86  F   UNL A   1      39.036  26.981  31.063  1.00  0.00    -0.203 F 
ATOM     87  F   UNL A   1      41.433  28.955  26.576  1.00  0.00    -0.200 F 
ATOM     88  C   UNL A   1      40.163  27.267  27.630  1.00  0.00     0.200 A 
ATOM     89  F   UNL A   1      38.860  25.628  28.720  1.00  0.00    -0.200 F 
ATOM     90  F   UNL A   1      40.028  26.620  26.463  1.00  0.00    -0.200 F 
ENDBRANCH  56  80
BRANCH  68  91
ATOM     91  C   UNL A   1      44.352  28.269  35.770  1.00  0.00     0.064 A 
ATOM     92  C   UNL A   1      44.082  27.083  36.466  1.00  0.00     0.173 A 
ATOM     93  C   UNL A   1      45.679  28.524  35.393  1.00  0.00     0.173 A 
ATOM     94  F   UNL A   1      42.830  26.800  36.857  1.00  0.00    -0.203 F 
ATOM     95  C   UNL A   1      45.104  26.193  36.783  1.00  0.00     0.198 A 
ATOM     96  C   UNL A   1      46.694  27.619  35.687  1.00  0.00     0.198 A 
ATOM     97  F   UNL A   1      45.988  29.640  34.714  1.00  0.00    -0.203 F 
ATOM     98  F   UNL A   1      44.829  25.081  37.478  1.00  0.00    -0.200 F 
ATOM     99  C   UNL A   1      46.407  26.456  36.386  1.00  0.00     0.200 A 
ATOM    100  F   UNL A   1      47.949  27.868  35.288  1.00  0.00    -0.200 F 
ATOM    101  F   UNL A   1      47.386  25.590  36.679  1.00  0.00    -0.200 F 
ENDBRANCH  68  91
ENDBRANCH  42  43
ENDBRANCH  35  37
ENDBRANCH  34  35
ENDBRANCH  33  34
ENDBRANCH  32  33
ENDBRANCH  31  32
ENDBRANCH  30  31
ENDBRANCH   1  30
TORSDOF 20
ENDMDL
MODEL 2
REMARK VINA RESULT:     -10.9      4.808      7.540
REMARK SMILES Cc1ccc(NC(=O)C[C@H]2C(=O)NCCN2C(=O)CCC(=O)OCCOCCOC(=O)c2ccc(-c3c4nc(c(-c5c(F)c(F)c(F)c(F)c5F)c5ccc([nH]5)c(-c5c(F)c(F)c(F)c(F)c5F)c5nc(c(-c6c(F)c(F)c(F)c(F)c6F)c6ccc3[nH]6)C=C5)C=C4)cc2)c(C)c1
REMARK SMILES IDX 24 1 23 2 21 3 22 4 20 5 19 6 17 7 18 8 16 9 10 10 11 11
REMARK SMILES IDX 12 12 13 13 15 14 14 15 9 17 7 18 6 19 8 21 5 22 1 23 2 24
REMARK SMILES IDX 3 25 97 26 4 27 95 28 96 29 25 30 26 31 27 32 28 33 29 34
REMARK SMILES IDX 30 35 31 36 32 37 33 38 94 39 34 40 93 41 35 42 36 43 37 44
REMARK SMILES IDX 87 45 38 46 92 47 86 48 88 49 39 50 91 51 85 52 84 53 40 55
REMARK SMILES IDX 72 56 52 57 71 58 53 59 56 60 70 61 89 62 54 63 55 64 69 66
REMARK SMILES IDX 90 67 57 68 41 69 42 70 50 71 43 72 44 73 48 74 51 75 45 76
REMARK SMILES IDX 46 77 49 78 47 79 73 80 74 81 82 82 75 83 76 84 80 85 83 86
REMARK SMILES IDX 77 87 78 88 81 89 79 90 58 91 59 92 67 93 60 94 61 95 65 96
REMARK SMILES IDX 68 97 62 98 63 99 66 100 64 101
REMARK H PARENT 13 16 6 20 88 54 56 65
REMARK Flexibility Score: inf
ROOT
ATOM      1  C   UNL A   1      34.786  31.877  29.152  1.00  0.00     0.261 C 
ENDROOT
BRANCH   1   2
ATOM      2  O   UNL A   1      34.517  31.721  27.741  1.00  0.00    -0.463 OA
BRANCH   2   3
ATOM      3  C   UNL A   1      33.685  30.739  27.315  1.00  0.00     0.306 C 
ATOM      4  O   UNL A   1      32.511  30.894  27.017  1.00  0.00    -0.252 OA
BRANCH   3   5
ATOM      5  C   UNL A   1      34.405  29.398  27.261  1.00  0.00     0.132 C 
BRANCH   5   6
ATOM      6  C   UNL A   1      33.994  28.482  26.119  1.00  0.00     0.112 C 
BRANCH   6   7
ATOM      7  C   UNL A   1      32.928  27.387  26.275  1.00  0.00     0.223 C 
ATOM      8  O   UNL A   1      32.117  27.545  27.199  1.00  0.00    -0.275 OA
BRANCH   7   9
ATOM      9  N   UNL A   1      32.738  26.346  25.371  1.00  0.00    -0.328 N 
ATOM     10  C   UNL A   1      33.686  25.938  24.334  1.00  0.00     0.183 C 
ATOM     11  C   UNL A   1      33.255  26.428  22.950  1.00  0.00     0.243 C 
ATOM     12  O   UNL A   1      33.944  26.298  21.942  1.00  0.00    -0.273 OA
ATOM     13  N   UNL A   1      32.096  27.141  22.908  1.00  0.00    -0.353 N 
ATOM     14  C   UNL A   1      31.341  26.094  24.991  1.00  0.00     0.141 C 
ATOM     15  C   UNL A   1      30.993  27.026  23.839  1.00  0.00     0.137 C 
ATOM     16  H   UNL A   1      32.000  27.794  22.178  1.00  0.00     0.163 HD
BRANCH  10  17
ATOM     17  C   UNL A   1      34.243  24.516  24.289  1.00  0.00     0.135 C 
BRANCH  17  18
ATOM     18  C   UNL A   1      35.176  24.055  25.384  1.00  0.00     0.227 C 
ATOM     19  N   UNL A   1      35.053  22.858  26.035  1.00  0.00    -0.326 N 
ATOM     20  H   UNL A   1      35.591  22.772  26.855  1.00  0.00     0.169 HD
ATOM     21  O   UNL A   1      36.132  24.771  25.706  1.00  0.00    -0.275 OA
BRANCH  19  22
ATOM     22  C   UNL A   1      34.278  21.734  25.707  1.00  0.00     0.044 A 
ATOM     23  C   UNL A   1      32.334  18.547  23.579  1.00  0.00     0.044 C 
ATOM     24  C   UNL A   1      32.990  19.576  24.452  1.00  0.00    -0.051 A 
ATOM     25  C   UNL A   1      34.375  19.567  24.612  1.00  0.00     0.005 A 
ATOM     26  C   UNL A   1      32.249  20.606  25.050  1.00  0.00     0.009 A 
ATOM     27  C   UNL A   1      35.010  20.624  25.260  1.00  0.00     0.026 A 
ATOM     28  C   UNL A   1      32.879  21.671  25.726  1.00  0.00    -0.027 A 
ATOM     29  C   UNL A   1      32.017  22.614  26.520  1.00  0.00     0.046 C 
ENDBRANCH  19  22
ENDBRANCH  17  18
ENDBRANCH  10  17
ENDBRANCH   7   9
ENDBRANCH   6   7
ENDBRANCH   5   6
ENDBRANCH   3   5
ENDBRANCH   2   3
ENDBRANCH   1   2
BRANCH   1  30
ATOM     30  C   UNL A   1      34.746  33.356  29.572  1.00  0.00     0.202 C 
BRANCH  30  31
ATOM     31  O   UNL A   1      34.045  33.586  30.798  1.00  0.00    -0.374 OA
BRANCH  31  32
ATOM     32  C   UNL A   1      34.428  32.710  31.853  1.00  0.00     0.202 C 
BRANCH  32  33
ATOM     33  C   UNL A   1      34.844  33.455  33.118  1.00  0.00     0.261 C 
BRANCH  33  34
ATOM     34  O   UNL A   1      36.275  33.636  33.134  1.00  0.00    -0.460 OA
BRANCH  34  35
ATOM     35  C   UNL A   1      36.998  32.698  33.791  1.00  0.00     0.338 C 
ATOM     36  O   UNL A   1      36.878  32.345  34.951  1.00  0.00    -0.246 OA
BRANCH  35  37
ATOM     37  C   UNL A   1      37.928  32.074  32.827  1.00  0.00     0.060 A 
ATOM     38  C   UNL A   1      38.935  31.236  33.315  1.00  0.00     0.016 A 
ATOM     39  C   UNL A   1      37.760  32.239  31.447  1.00  0.00     0.016 A 
ATOM     40  C   UNL A   1      39.770  30.548  32.426  1.00  0.00     0.010 A 
ATOM     41  C   UNL A   1      38.543  31.484  30.563  1.00  0.00     0.010 A 
ATOM     42  C   UNL A   1      39.585  30.667  31.043  1.00  0.00    -0.014 A 
BRANCH  42  43
ATOM     43  C   UNL A   1      40.613  30.146  30.099  1.00  0.00     0.031 A 
ATOM     44  C   UNL A   1      41.748  31.070  29.733  1.00  0.00     0.074 A 
ATOM     45  C   UNL A   1      40.580  28.898  29.587  1.00  0.00     0.049 A 
ATOM     46  N   UNL A   1      42.783  30.864  28.957  1.00  0.00    -0.248 NA
ATOM     47  C   UNL A   1      41.684  32.434  30.283  1.00  0.00     0.031 C 
ATOM     48  C   UNL A   1      39.529  27.904  29.803  1.00  0.00     0.029 A 
ATOM     49  N   UNL A   1      41.484  28.252  28.772  1.00  0.00    -0.354 N 
ATOM     50  C   UNL A   1      43.467  32.071  28.926  1.00  0.00     0.074 A 
ATOM     51  C   UNL A   1      42.678  33.033  29.656  1.00  0.00     0.031 C 
ATOM     52  C   UNL A   1      39.861  26.768  29.159  1.00  0.00     0.029 A 
ATOM     53  C   UNL A   1      41.148  26.950  28.489  1.00  0.00     0.049 A 
ATOM     54  H   UNL A   1      42.297  28.685  28.424  1.00  0.00     0.167 HD
ATOM     55  C   UNL A   1      44.680  32.356  28.402  1.00  0.00     0.037 A 
ATOM     56  C   UNL A   1      41.823  26.011  27.792  1.00  0.00     0.037 A 
ATOM     57  C   UNL A   1      45.508  31.400  27.729  1.00  0.00     0.049 A 
ATOM     58  C   UNL A   1      43.186  26.340  27.223  1.00  0.00     0.074 A 
ATOM     59  C   UNL A   1      46.774  31.571  27.206  1.00  0.00     0.029 A 
ATOM     60  N   UNL A   1      45.147  30.082  27.503  1.00  0.00    -0.354 N 
ATOM     61  N   UNL A   1      43.866  27.458  27.284  1.00  0.00    -0.248 NA
ATOM     62  C   UNL A   1      43.885  25.259  26.506  1.00  0.00     0.031 C 
ATOM     63  C   UNL A   1      47.174  30.357  26.637  1.00  0.00     0.029 A 
ATOM     64  C   UNL A   1      46.167  29.426  26.840  1.00  0.00     0.049 A 
ATOM     65  H   UNL A   1      44.293  29.673  27.775  1.00  0.00     0.167 HD
ATOM     66  C   UNL A   1      45.082  27.204  26.658  1.00  0.00     0.074 A 
ATOM     67  C   UNL A   1      45.051  25.823  26.228  1.00  0.00     0.031 C 
ATOM     68  C   UNL A   1      46.131  28.039  26.455  1.00  0.00     0.037 A 
BRANCH  55  69
ATOM     69  C   UNL A   1      45.173  33.760  28.578  1.00  0.00     0.064 A 
ATOM     70  C   UNL A   1      45.923  34.133  29.707  1.00  0.00     0.173 A 
ATOM     71  C   UNL A   1      44.843  34.754  27.648  1.00  0.00     0.173 A 
ATOM     72  F   UNL A   1      46.237  33.220  30.640  1.00  0.00    -0.203 F 
ATOM     73  C   UNL A   1      46.277  35.461  29.923  1.00  0.00     0.198 A 
ATOM     74  C   UNL A   1      45.230  36.076  27.851  1.00  0.00     0.198 A 
ATOM     75  F   UNL A   1      44.125  34.448  26.557  1.00  0.00    -0.203 F 
ATOM     76  F   UNL A   1      46.915  35.806  31.050  1.00  0.00    -0.200 F 
ATOM     77  C   UNL A   1      45.932  36.430  28.994  1.00  0.00     0.200 A 
ATOM     78  F   UNL A   1      44.899  37.014  26.952  1.00  0.00    -0.200 F 
ATOM     79  F   UNL A   1      46.258  37.711  29.211  1.00  0.00    -0.200 F 
ENDBRANCH  55  69
BRANCH  56  80
ATOM     80  C   UNL A   1      41.269  24.639  27.629  1.00  0.00     0.064 A 
ATOM     81  C   UNL A   1      41.871  23.542  28.264  1.00  0.00     0.173 A 
ATOM     82  C   UNL A   1      40.185  24.384  26.779  1.00  0.00     0.173 A 
ATOM     83  F   UNL A   1      42.935  23.730  29.060  1.00  0.00    -0.203 F 
ATOM     84  C   UNL A   1      41.432  22.240  28.027  1.00  0.00     0.198 A 
ATOM     85  C   UNL A   1      39.730  23.082  26.562  1.00  0.00     0.198 A 
ATOM     86  F   UNL A   1      39.581  25.395  26.138  1.00  0.00    -0.203 F 
ATOM     87  F   UNL A   1      42.070  21.205  28.593  1.00  0.00    -0.200 F 
ATOM     88  C   UNL A   1      40.362  22.011  27.177  1.00  0.00     0.200 A 
ATOM     89  F   UNL A   1      38.699  22.864  25.735  1.00  0.00    -0.200 F 
ATOM     90  F   UNL A   1      39.954  20.758  26.932  1.00  0.00    -0.200 F 
ENDBRANCH  56  80
BRANCH  68  91
ATOM     91  C   UNL A   1      47.354  27.481  25.789  1.00  0.00     0.064 A 
ATOM     92  C   UNL A   1      47.524  27.532  24.399  1.00  0.00     0.173 A 
ATOM     93  C   UNL A   1      48.404  26.961  26.563  1.00  0.00     0.173 A 
ATOM     94  F   UNL A   1      46.544  28.011  23.618  1.00  0.00    -0.203 F 
ATOM     95  C   UNL A   1      48.694  27.069  23.805  1.00  0.00     0.198 A 
ATOM     96  C   UNL A   1      49.584  26.525  25.967  1.00  0.00     0.198 A 
ATOM     97  F   UNL A   1      48.296  26.902  27.899  1.00  0.00    -0.203 F 
ATOM     98  F   UNL A   1      48.822  27.097  22.471  1.00  0.00    -0.200 F 
ATOM     99  C   UNL A   1      49.726  26.574  24.589  1.00  0.00     0.200 A 
ATOM    100  F   UNL A   1      50.586  26.062  26.728  1.00  0.00    -0.200 F 
ATOM    101  F   UNL A   1      50.858  26.143  24.015  1.00  0.00    -0.200 F 
ENDBRANCH  68  91
ENDBRANCH  42  43
ENDBRANCH  35  37
ENDBRANCH  34  35
ENDBRANCH  33  34
ENDBRANCH  32  33
ENDBRANCH  31  32
ENDBRANCH  30  31
ENDBRANCH   1  30
TORSDOF 20
ENDMDL
MODEL 3
REMARK VINA RESULT:     -10.9      3.609      9.051
REMARK SMILES Cc1ccc(NC(=O)C[C@H]2C(=O)NCCN2C(=O)CCC(=O)OCCOCCOC(=O)c2ccc(-c3c4nc(c(-c5c(F)c(F)c(F)c(F)c5F)c5ccc([nH]5)c(-c5c(F)c(F)c(F)c(F)c5F)c5nc(c(-c6c(F)c(F)c(F)c(F)c6F)c6ccc3[nH]6)C=C5)C=C4)cc2)c(C)c1
REMARK SMILES IDX 24 1 23 2 21 3 22 4 20 5 19 6 17 7 18 8 16 9 10 10 11 11
REMARK SMILES IDX 12 12 13 13 15 14 14 15 9 17 7 18 6 19 8 21 5 22 1 23 2 24
REMARK SMILES IDX 3 25 97 26 4 27 95 28 96 29 25 30 26 31 27 32 28 33 29 34
REMARK SMILES IDX 30 35 31 36 32 37 33 38 94 39 34 40 93 41 35 42 36 43 37 44
REMARK SMILES IDX 87 45 38 46 92 47 86 48 88 49 39 50 91 51 85 52 84 53 40 55
REMARK SMILES IDX 72 56 52 57 71 58 53 59 56 60 70 61 89 62 54 63 55 64 69 66
REMARK SMILES IDX 90 67 57 68 41 69 42 70 50 71 43 72 44 73 48 74 51 75 45 76
REMARK SMILES IDX 46 77 49 78 47 79 73 80 74 81 82 82 75 83 76 84 80 85 83 86
REMARK SMILES IDX 77 87 78 88 81 89 79 90 58 91 59 92 67 93 60 94 61 95 65 96
REMARK SMILES IDX 68 97 62 98 63 99 66 100 64 101
REMARK H PARENT 13 16 6 20 88 54 56 65
REMARK Flexibility Score: inf
ROOT
ATOM      1  C   UNL A   1      39.899  20.597  25.965  1.00  0.00     0.261 C 
ENDROOT
BRANCH   1   2
ATOM      2  O   UNL A   1      39.067  21.762  25.769  1.00  0.00    -0.463 OA
BRANCH   2   3
ATOM      3  C   UNL A   1      37.819  21.626  25.260  1.00  0.00     0.306 C 
ATOM      4  O   UNL A   1      37.280  20.562  24.997  1.00  0.00    -0.252 OA
BRANCH   3   5
ATOM      5  C   UNL A   1      37.165  22.985  25.045  1.00  0.00     0.132 C 
BRANCH   5   6
ATOM      6  C   UNL A   1      36.128  23.381  26.083  1.00  0.00     0.112 C 
BRANCH   6   7
ATOM      7  C   UNL A   1      34.728  22.750  26.142  1.00  0.00     0.223 C 
ATOM      8  O   UNL A   1      34.612  21.752  26.868  1.00  0.00    -0.275 OA
BRANCH   7   9
ATOM      9  N   UNL A   1      33.592  23.312  25.568  1.00  0.00    -0.328 N 
ATOM     10  C   UNL A   1      32.611  24.145  26.266  1.00  0.00     0.183 C 
ATOM     11  C   UNL A   1      31.338  23.364  26.594  1.00  0.00     0.243 C 
ATOM     12  O   UNL A   1      30.419  23.822  27.267  1.00  0.00    -0.273 OA
ATOM     13  N   UNL A   1      31.321  22.062  26.196  1.00  0.00    -0.353 N 
ATOM     14  C   UNL A   1      32.995  22.537  24.471  1.00  0.00     0.141 C 
ATOM     15  C   UNL A   1      32.059  21.504  25.082  1.00  0.00     0.137 C 
ATOM     16  H   UNL A   1      30.756  21.444  26.713  1.00  0.00     0.163 HD
BRANCH  10  17
ATOM     17  C   UNL A   1      32.306  25.566  25.795  1.00  0.00     0.135 C 
BRANCH  17  18
ATOM     18  C   UNL A   1      33.059  26.129  24.612  1.00  0.00     0.227 C 
ATOM     19  N   UNL A   1      32.517  27.004  23.712  1.00  0.00    -0.326 N 
ATOM     20  H   UNL A   1      33.038  27.129  22.886  1.00  0.00     0.169 HD
ATOM     21  O   UNL A   1      34.245  25.818  24.446  1.00  0.00    -0.275 OA
BRANCH  19  22
ATOM     22  C   UNL A   1      31.331  27.751  23.789  1.00  0.00     0.044 A 
ATOM     23  C   UNL A   1      27.794  29.983  22.802  1.00  0.00     0.044 C 
ATOM     24  C   UNL A   1      28.965  29.180  23.287  1.00  0.00    -0.051 A 
ATOM     25  C   UNL A   1      29.027  27.813  23.017  1.00  0.00     0.005 A 
ATOM     26  C   UNL A   1      30.048  29.789  23.939  1.00  0.00     0.009 A 
ATOM     27  C   UNL A   1      30.191  27.100  23.293  1.00  0.00     0.026 A 
ATOM     28  C   UNL A   1      31.223  29.072  24.242  1.00  0.00    -0.027 A 
ATOM     29  C   UNL A   1      32.246  29.730  25.127  1.00  0.00     0.046 C 
ENDBRANCH  19  22
ENDBRANCH  17  18
ENDBRANCH  10  17
ENDBRANCH   7   9
ENDBRANCH   6   7
ENDBRANCH   5   6
ENDBRANCH   3   5
ENDBRANCH   2   3
ENDBRANCH   1   2
BRANCH   1  30
ATOM     30  C   UNL A   1      41.320  20.988  26.405  1.00  0.00     0.202 C 
BRANCH  30  31
ATOM     31  O   UNL A   1      42.056  21.697  25.403  1.00  0.00    -0.374 OA
BRANCH  31  32
ATOM     32  C   UNL A   1      43.466  21.676  25.602  1.00  0.00     0.202 C 
BRANCH  32  33
ATOM     33  C   UNL A   1      44.188  22.781  24.835  1.00  0.00     0.261 C 
BRANCH  33  34
ATOM     34  O   UNL A   1      45.060  23.508  25.723  1.00  0.00    -0.460 OA
BRANCH  34  35
ATOM     35  C   UNL A   1      45.177  24.838  25.504  1.00  0.00     0.338 C 
ATOM     36  O   UNL A   1      45.765  25.393  24.592  1.00  0.00    -0.246 OA
BRANCH  35  37
ATOM     37  C   UNL A   1      44.373  25.546  26.522  1.00  0.00     0.060 A 
ATOM     38  C   UNL A   1      44.573  26.919  26.698  1.00  0.00     0.016 A 
ATOM     39  C   UNL A   1      43.369  24.886  27.240  1.00  0.00     0.016 A 
ATOM     40  C   UNL A   1      43.760  27.641  27.580  1.00  0.00     0.010 A 
ATOM     41  C   UNL A   1      42.505  25.628  28.057  1.00  0.00     0.010 A 
ATOM     42  C   UNL A   1      42.721  27.004  28.271  1.00  0.00    -0.014 A 
BRANCH  42  43
ATOM     43  C   UNL A   1      42.022  27.699  29.387  1.00  0.00     0.031 A 
ATOM     44  C   UNL A   1      42.645  27.607  30.758  1.00  0.00     0.074 A 
ATOM     45  C   UNL A   1      40.889  28.412  29.218  1.00  0.00     0.049 A 
ATOM     46  N   UNL A   1      42.260  28.135  31.893  1.00  0.00    -0.248 NA
ATOM     47  C   UNL A   1      43.847  26.764  30.875  1.00  0.00     0.031 C 
ATOM     48  C   UNL A   1      40.139  28.557  27.971  1.00  0.00     0.029 A 
ATOM     49  N   UNL A   1      40.174  29.164  30.124  1.00  0.00    -0.354 N 
ATOM     50  C   UNL A   1      43.163  27.672  32.840  1.00  0.00     0.074 A 
ATOM     51  C   UNL A   1      44.039  26.735  32.180  1.00  0.00     0.031 C 
ATOM     52  C   UNL A   1      39.085  29.369  28.185  1.00  0.00     0.029 A 
ATOM     53  C   UNL A   1      39.086  29.805  29.581  1.00  0.00     0.049 A 
ATOM     54  H   UNL A   1      40.420  29.235  31.075  1.00  0.00     0.167 HD
ATOM     55  C   UNL A   1      43.312  28.037  34.134  1.00  0.00     0.037 A 
ATOM     56  C   UNL A   1      38.215  30.667  30.147  1.00  0.00     0.037 A 
ATOM     57  C   UNL A   1      42.496  29.013  34.791  1.00  0.00     0.049 A 
ATOM     58  C   UNL A   1      38.402  31.077  31.591  1.00  0.00     0.074 A 
ATOM     59  C   UNL A   1      42.593  29.493  36.082  1.00  0.00     0.029 A 
ATOM     60  N   UNL A   1      41.433  29.669  34.190  1.00  0.00    -0.354 N 
ATOM     61  N   UNL A   1      39.319  30.706  32.450  1.00  0.00    -0.248 NA
ATOM     62  C   UNL A   1      37.439  32.050  32.135  1.00  0.00     0.031 C 
ATOM     63  C   UNL A   1      41.570  30.427  36.274  1.00  0.00     0.029 A 
ATOM     64  C   UNL A   1      40.860  30.549  35.089  1.00  0.00     0.049 A 
ATOM     65  H   UNL A   1      41.132  29.531  33.263  1.00  0.00     0.167 HD
ATOM     66  C   UNL A   1      39.073  31.428  33.613  1.00  0.00     0.074 A 
ATOM     67  C   UNL A   1      37.922  32.265  33.350  1.00  0.00     0.031 C 
ATOM     68  C   UNL A   1      39.738  31.401  34.795  1.00  0.00     0.037 A 
BRANCH  55  69
ATOM     69  C   UNL A   1      44.428  27.384  34.890  1.00  0.00     0.064 A 
ATOM     70  C   UNL A   1      44.236  26.167  35.567  1.00  0.00     0.173 A 
ATOM     71  C   UNL A   1      45.679  28.005  34.993  1.00  0.00     0.173 A 
ATOM     72  F   UNL A   1      43.044  25.551  35.521  1.00  0.00    -0.203 F 
ATOM     73  C   UNL A   1      45.239  25.625  36.363  1.00  0.00     0.198 A 
ATOM     74  C   UNL A   1      46.693  27.440  35.763  1.00  0.00     0.198 A 
ATOM     75  F   UNL A   1      45.911  29.169  34.369  1.00  0.00    -0.203 F 
ATOM     76  F   UNL A   1      45.003  24.511  37.068  1.00  0.00    -0.200 F 
ATOM     77  C   UNL A   1      46.468  26.261  36.459  1.00  0.00     0.200 A 
ATOM     78  F   UNL A   1      47.882  28.053  35.854  1.00  0.00    -0.200 F 
ATOM     79  F   UNL A   1      47.428  25.748  37.238  1.00  0.00    -0.200 F 
ENDBRANCH  55  69
BRANCH  56  80
ATOM     80  C   UNL A   1      37.109  31.265  29.350  1.00  0.00     0.064 A 
ATOM     81  C   UNL A   1      37.130  32.623  28.998  1.00  0.00     0.173 A 
ATOM     82  C   UNL A   1      35.977  30.519  28.994  1.00  0.00     0.173 A 
ATOM     83  F   UNL A   1      38.176  33.388  29.347  1.00  0.00    -0.203 F 
ATOM     84  C   UNL A   1      36.048  33.220  28.352  1.00  0.00     0.198 A 
ATOM     85  C   UNL A   1      34.905  31.111  28.326  1.00  0.00     0.198 A 
ATOM     86  F   UNL A   1      35.900  29.220  29.317  1.00  0.00    -0.203 F 
ATOM     87  F   UNL A   1      36.067  34.535  28.090  1.00  0.00    -0.200 F 
ATOM     88  C   UNL A   1      34.936  32.463  28.016  1.00  0.00     0.200 A 
ATOM     89  F   UNL A   1      33.829  30.379  28.007  1.00  0.00    -0.200 F 
ATOM     90  F   UNL A   1      33.887  33.041  27.415  1.00  0.00    -0.200 F 
ENDBRANCH  56  80
BRANCH  68  91
ATOM     91  C   UNL A   1      39.283  32.334  35.878  1.00  0.00     0.064 A 
ATOM     92  C   UNL A   1      38.359  31.935  36.853  1.00  0.00     0.173 A 
ATOM     93  C   UNL A   1      39.842  33.617  35.986  1.00  0.00     0.173 A 
ATOM     94  F   UNL A   1      37.790  30.721  36.786  1.00  0.00    -0.203 F 
ATOM     95  C   UNL A   1      37.998  32.792  37.888  1.00  0.00     0.198 A 
ATOM     96  C   UNL A   1      39.500  34.461  37.038  1.00  0.00     0.198 A 
ATOM     97  F   UNL A   1      40.740  34.042  35.085  1.00  0.00    -0.203 F 
ATOM     98  F   UNL A   1      37.088  32.401  38.791  1.00  0.00    -0.200 F 
ATOM     99  C   UNL A   1      38.575  34.050  37.986  1.00  0.00     0.200 A 
ATOM    100  F   UNL A   1      40.070  35.669  37.139  1.00  0.00    -0.200 F 
ATOM    101  F   UNL A   1      38.238  34.867  38.993  1.00  0.00    -0.200 F 
ENDBRANCH  68  91
ENDBRANCH  42  43
ENDBRANCH  35  37
ENDBRANCH  34  35
ENDBRANCH  33  34
ENDBRANCH  32  33
ENDBRANCH  31  32
ENDBRANCH  30  31
ENDBRANCH   1  30
TORSDOF 20
ENDMDL
