MODEL 1
REMARK VINA RESULT:     -11.1      0.000      0.000
REMARK SMILES Cc1nc(C[NH2+][C@@H](C(=O)OCCOCCOC(=O)c2ccc(-c3c4nc(c(-c5c(F)c(F)c(F)c(F)c5F)c5ccc([nH]5)c(-c5c(F)c(F)c(F)c(F)c5F)c5nc(c(-c6c(F)c(F)c(F)c(F)c6F)c6ccc3[nH]6)C=C5)C=C4)cc2)c2ccccc2)sc1C
REMARK SMILES IDX 12 1 11 2 10 3 8 4 9 5 7 6 6 7 5 10 4 11 1 12 2 13 3 14
REMARK SMILES IDX 89 15 88 16 90 17 82 18 83 19 87 20 84 21 86 22 85 23 13 24
REMARK SMILES IDX 14 25 15 26 16 27 17 28 18 29 19 30 20 31 81 32 21 33 80 34
REMARK SMILES IDX 22 35 23 36 24 37 74 38 25 39 79 40 73 41 75 42 26 43 78 44
REMARK SMILES IDX 72 45 71 46 27 48 59 49 39 50 58 51 40 52 43 53 57 54 76 55
REMARK SMILES IDX 41 56 42 57 56 59 77 60 44 61 28 62 29 63 37 64 30 65 31 66
REMARK SMILES IDX 35 67 38 68 32 69 33 70 36 71 34 72 60 73 61 74 69 75 62 76
REMARK SMILES IDX 63 77 67 78 70 79 64 80 65 81 68 82 66 83 45 84 46 85 54 86
REMARK SMILES IDX 47 87 48 88 52 89 55 90 49 91 50 92 53 93 51 94
REMARK H PARENT 6 8 6 9 75 47 43 58
REMARK Flexibility Score: inf
ROOT
ATOM      1  C   UNL A   1      36.761  21.954  24.526  1.00  0.00     0.202 C 
ENDROOT
BRANCH   1   2
ATOM      2  C   UNL A   1      36.292  23.324  25.017  1.00  0.00     0.261 C 
BRANCH   2   3
ATOM      3  O   UNL A   1      34.861  23.415  24.892  1.00  0.00    -0.459 OA
BRANCH   3   4
ATOM      4  C   UNL A   1      34.147  22.882  25.922  1.00  0.00     0.369 C 
ATOM      5  O   UNL A   1      34.587  22.785  27.065  1.00  0.00    -0.245 OA
BRANCH   4   6
ATOM      6  C   UNL A   1      32.706  22.449  25.519  1.00  0.00     0.325 C 
BRANCH   6   7
ATOM      7  N   UNL A   1      31.686  22.486  26.596  1.00  0.00    -0.325 N 
ATOM      8  H   UNL A   1      31.453  21.525  26.845  1.00  0.00     0.347 HD
ATOM      9  H   UNL A   1      32.098  23.014  27.364  1.00  0.00     0.347 HD
BRANCH   7  10
ATOM     10  C   UNL A   1      30.442  23.179  26.241  1.00  0.00     0.330 C 
BRANCH  10  11
ATOM     11  C   UNL A   1      30.688  24.650  25.990  1.00  0.00     0.148 A 
ATOM     12  C   UNL A   1      31.805  27.859  27.179  1.00  0.00     0.068 C 
ATOM     13  C   UNL A   1      31.270  26.772  26.321  1.00  0.00     0.052 A 
ATOM     14  N   UNL A   1      31.166  25.502  26.874  1.00  0.00    -0.240 NA
ATOM     15  C   UNL A   1      30.846  26.872  25.007  1.00  0.00     0.025 A 
ATOM     16  S   UNL A   1      30.315  25.340  24.467  1.00  0.00    -0.118 S 
ATOM     17  C   UNL A   1      30.809  28.060  24.110  1.00  0.00     0.058 C 
ENDBRANCH  10  11
ENDBRANCH   7  10
ENDBRANCH   6   7
BRANCH   6  18
ATOM     18  C   UNL A   1      32.785  21.063  24.866  1.00  0.00     0.021 A 
ATOM     19  C   UNL A   1      32.480  20.835  23.512  1.00  0.00     0.010 A 
ATOM     20  C   UNL A   1      33.054  19.945  25.675  1.00  0.00     0.010 A 
ATOM     21  C   UNL A   1      32.410  19.537  22.998  1.00  0.00     0.001 A 
ATOM     22  C   UNL A   1      32.991  18.649  25.159  1.00  0.00     0.001 A 
ATOM     23  C   UNL A   1      32.657  18.444  23.824  1.00  0.00     0.000 A 
ENDBRANCH   6  18
ENDBRANCH   4   6
ENDBRANCH   3   4
ENDBRANCH   2   3
ENDBRANCH   1   2
BRANCH   1  24
ATOM     24  O   UNL A   1      37.775  21.316  25.302  1.00  0.00    -0.374 OA
BRANCH  24  25
ATOM     25  C   UNL A   1      38.112  19.973  24.965  1.00  0.00     0.202 C 
BRANCH  25  26
ATOM     26  C   UNL A   1      39.318  19.355  25.687  1.00  0.00     0.261 C 
BRANCH  26  27
ATOM     27  O   UNL A   1      40.389  20.290  25.893  1.00  0.00    -0.460 OA
BRANCH  27  28
ATOM     28  C   UNL A   1      40.780  20.437  27.184  1.00  0.00     0.338 C 
ATOM     29  O   UNL A   1      41.052  19.556  27.987  1.00  0.00    -0.246 OA
BRANCH  28  30
ATOM     30  C   UNL A   1      41.004  21.865  27.460  1.00  0.00     0.060 A 
ATOM     31  C   UNL A   1      40.329  22.815  26.686  1.00  0.00     0.016 A 
ATOM     32  C   UNL A   1      41.898  22.268  28.450  1.00  0.00     0.016 A 
ATOM     33  C   UNL A   1      40.554  24.176  26.898  1.00  0.00     0.010 A 
ATOM     34  C   UNL A   1      42.099  23.629  28.686  1.00  0.00     0.010 A 
ATOM     35  C   UNL A   1      41.456  24.592  27.886  1.00  0.00    -0.014 A 
BRANCH  35  36
ATOM     36  C   UNL A   1      41.873  26.013  27.982  1.00  0.00     0.031 A 
ATOM     37  C   UNL A   1      43.202  26.412  27.400  1.00  0.00     0.074 A 
ATOM     38  C   UNL A   1      41.095  26.932  28.583  1.00  0.00     0.049 A 
ATOM     39  N   UNL A   1      43.832  27.556  27.465  1.00  0.00    -0.248 NA
ATOM     40  C   UNL A   1      43.927  25.368  26.657  1.00  0.00     0.031 C 
ATOM     41  C   UNL A   1      39.776  26.680  29.160  1.00  0.00     0.029 A 
ATOM     42  N   UNL A   1      41.317  28.267  28.820  1.00  0.00    -0.354 N 
ATOM     43  C   UNL A   1      45.034  27.362  26.796  1.00  0.00     0.074 A 
ATOM     44  C   UNL A   1      45.064  25.981  26.368  1.00  0.00     0.031 C 
ATOM     45  C   UNL A   1      39.306  27.823  29.689  1.00  0.00     0.029 A 
ATOM     46  C   UNL A   1      40.309  28.875  29.527  1.00  0.00     0.049 A 
ATOM     47  H   UNL A   1      42.122  28.743  28.512  1.00  0.00     0.167 HD
ATOM     48  C   UNL A   1      46.019  28.257  26.550  1.00  0.00     0.037 A 
ATOM     49  C   UNL A   1      40.220  30.130  30.009  1.00  0.00     0.037 A 
ATOM     50  C   UNL A   1      45.974  29.637  26.956  1.00  0.00     0.049 A 
ATOM     51  C   UNL A   1      41.354  31.096  29.767  1.00  0.00     0.074 A 
ATOM     52  C   UNL A   1      46.906  30.634  26.727  1.00  0.00     0.029 A 
ATOM     53  N   UNL A   1      44.939  30.213  27.677  1.00  0.00    -0.354 N 
ATOM     54  N   UNL A   1      42.477  30.911  29.117  1.00  0.00    -0.248 NA
ATOM     55  C   UNL A   1      41.203  32.448  30.325  1.00  0.00     0.031 C 
ATOM     56  C   UNL A   1      46.459  31.800  27.355  1.00  0.00     0.029 A 
ATOM     57  C   UNL A   1      45.219  31.547  27.921  1.00  0.00     0.049 A 
ATOM     58  H   UNL A   1      44.125  29.743  27.971  1.00  0.00     0.167 HD
ATOM     59  C   UNL A   1      43.149  32.127  29.157  1.00  0.00     0.074 A 
ATOM     60  C   UNL A   1      42.302  33.046  29.888  1.00  0.00     0.031 C 
ATOM     61  C   UNL A   1      44.356  32.454  28.635  1.00  0.00     0.037 A 
BRANCH  48  62
ATOM     62  C   UNL A   1      47.237  27.767  25.821  1.00  0.00     0.064 A 
ATOM     63  C   UNL A   1      47.319  27.780  24.421  1.00  0.00     0.173 A 
ATOM     64  C   UNL A   1      48.349  27.298  26.539  1.00  0.00     0.173 A 
ATOM     65  F   UNL A   1      46.278  28.203  23.688  1.00  0.00    -0.203 F 
ATOM     66  C   UNL A   1      48.455  27.315  23.766  1.00  0.00     0.198 A 
ATOM     67  C   UNL A   1      49.497  26.865  25.880  1.00  0.00     0.198 A 
ATOM     68  F   UNL A   1      48.325  27.265  27.879  1.00  0.00    -0.203 F 
ATOM     69  F   UNL A   1      48.490  27.286  22.425  1.00  0.00    -0.200 F 
ATOM     70  C   UNL A   1      49.546  26.865  24.495  1.00  0.00     0.200 A 
ATOM     71  F   UNL A   1      50.554  26.444  26.588  1.00  0.00    -0.200 F 
ATOM     72  F   UNL A   1      50.642  26.425  23.863  1.00  0.00    -0.200 F 
ENDBRANCH  48  62
BRANCH  49  73
ATOM     73  C   UNL A   1      39.018  30.552  30.777  1.00  0.00     0.064 A 
ATOM     74  C   UNL A   1      38.982  30.446  32.176  1.00  0.00     0.173 A 
ATOM     75  C   UNL A   1      37.874  31.044  30.132  1.00  0.00     0.173 A 
ATOM     76  F   UNL A   1      40.040  29.957  32.837  1.00  0.00    -0.203 F 
ATOM     77  C   UNL A   1      37.842  30.798  32.895  1.00  0.00     0.198 A 
ATOM     78  C   UNL A   1      36.746  31.423  30.856  1.00  0.00     0.198 A 
ATOM     79  F   UNL A   1      37.855  31.162  28.797  1.00  0.00    -0.203 F 
ATOM     80  F   UNL A   1      37.816  30.638  34.226  1.00  0.00    -0.200 F 
ATOM     81  C   UNL A   1      36.726  31.292  32.236  1.00  0.00     0.200 A 
ATOM     82  F   UNL A   1      35.675  31.911  30.215  1.00  0.00    -0.200 F 
ATOM     83  F   UNL A   1      35.630  31.631  32.928  1.00  0.00    -0.200 F 
ENDBRANCH  49  73
BRANCH  61  84
ATOM     84  C   UNL A   1      44.815  33.877  28.781  1.00  0.00     0.064 A 
ATOM     85  C   UNL A   1      45.623  34.289  29.849  1.00  0.00     0.173 A 
ATOM     86  C   UNL A   1      44.481  34.830  27.805  1.00  0.00     0.173 A 
ATOM     87  F   UNL A   1      45.960  33.421  30.816  1.00  0.00    -0.203 F 
ATOM     88  C   UNL A   1      46.060  35.608  29.950  1.00  0.00     0.198 A 
ATOM     89  C   UNL A   1      44.947  36.139  27.891  1.00  0.00     0.198 A 
ATOM     90  F   UNL A   1      43.718  34.486  26.757  1.00  0.00    -0.203 F 
ATOM     91  F   UNL A   1      46.793  35.990  31.005  1.00  0.00    -0.200 F 
ATOM     92  C   UNL A   1      45.729  36.529  28.967  1.00  0.00     0.200 A 
ATOM     93  F   UNL A   1      44.640  37.022  26.931  1.00  0.00    -0.200 F 
ATOM     94  F   UNL A   1      46.160  37.794  29.060  1.00  0.00    -0.200 F 
ENDBRANCH  61  84
ENDBRANCH  35  36
ENDBRANCH  28  30
ENDBRANCH  27  28
ENDBRANCH  26  27
ENDBRANCH  25  26
ENDBRANCH  24  25
ENDBRANCH   1  24
TORSDOF 18
ENDMDL
MODEL 2
REMARK VINA RESULT:     -10.9      2.120      7.908
REMARK SMILES Cc1nc(C[NH2+][C@@H](C(=O)OCCOCCOC(=O)c2ccc(-c3c4nc(c(-c5c(F)c(F)c(F)c(F)c5F)c5ccc([nH]5)c(-c5c(F)c(F)c(F)c(F)c5F)c5nc(c(-c6c(F)c(F)c(F)c(F)c6F)c6ccc3[nH]6)C=C5)C=C4)cc2)c2ccccc2)sc1C
REMARK SMILES IDX 12 1 11 2 10 3 8 4 9 5 7 6 6 7 5 10 4 11 1 12 2 13 3 14
REMARK SMILES IDX 89 15 88 16 90 17 82 18 83 19 87 20 84 21 86 22 85 23 13 24
REMARK SMILES IDX 14 25 15 26 16 27 17 28 18 29 19 30 20 31 81 32 21 33 80 34
REMARK SMILES IDX 22 35 23 36 24 37 74 38 25 39 79 40 73 41 75 42 26 43 78 44
REMARK SMILES IDX 72 45 71 46 27 48 59 49 39 50 58 51 40 52 43 53 57 54 76 55
REMARK SMILES IDX 41 56 42 57 56 59 77 60 44 61 28 62 29 63 37 64 30 65 31 66
REMARK SMILES IDX 35 67 38 68 32 69 33 70 36 71 34 72 60 73 61 74 69 75 62 76
REMARK SMILES IDX 63 77 67 78 70 79 64 80 65 81 68 82 66 83 45 84 46 85 54 86
REMARK SMILES IDX 47 87 48 88 52 89 55 90 49 91 50 92 53 93 51 94
REMARK H PARENT 6 8 6 9 75 47 43 58
REMARK Flexibility Score: inf
ROOT
ATOM      1  C   UNL A   1      37.997  23.476  26.147  1.00  0.00     0.202 C 
ENDROOT
BRANCH   1   2
ATOM      2  C   UNL A   1      36.530  23.310  25.747  1.00  0.00     0.261 C 
BRANCH   2   3
ATOM      3  O   UNL A   1      36.282  24.028  24.524  1.00  0.00    -0.459 OA
BRANCH   3   4
ATOM      4  C   UNL A   1      35.148  23.675  23.857  1.00  0.00     0.369 C 
ATOM      5  O   UNL A   1      35.157  23.118  22.763  1.00  0.00    -0.245 OA
BRANCH   4   6
ATOM      6  C   UNL A   1      33.841  24.008  24.638  1.00  0.00     0.325 C 
BRANCH   6   7
ATOM      7  N   UNL A   1      32.606  23.336  24.164  1.00  0.00    -0.325 N 
ATOM      8  H   UNL A   1      31.873  24.041  24.082  1.00  0.00     0.347 HD
ATOM      9  H   UNL A   1      32.842  22.894  23.276  1.00  0.00     0.347 HD
BRANCH   7  10
ATOM     10  C   UNL A   1      32.113  22.266  25.038  1.00  0.00     0.330 C 
BRANCH  10  11
ATOM     11  C   UNL A   1      32.610  20.913  24.579  1.00  0.00     0.148 A 
ATOM     12  C   UNL A   1      32.289  18.061  22.407  1.00  0.00     0.068 C 
ATOM     13  C   UNL A   1      32.764  19.000  23.455  1.00  0.00     0.052 A 
ATOM     14  N   UNL A   1      32.062  20.186  23.627  1.00  0.00    -0.240 NA
ATOM     15  C   UNL A   1      33.843  18.832  24.305  1.00  0.00     0.025 A 
ATOM     16  S   UNL A   1      33.971  20.194  25.330  1.00  0.00    -0.118 S 
ATOM     17  C   UNL A   1      34.804  17.699  24.407  1.00  0.00     0.058 C 
ENDBRANCH  10  11
ENDBRANCH   7  10
ENDBRANCH   6   7
BRANCH   6  18
ATOM     18  C   UNL A   1      33.675  25.533  24.670  1.00  0.00     0.021 A 
ATOM     19  C   UNL A   1      33.606  26.322  23.507  1.00  0.00     0.010 A 
ATOM     20  C   UNL A   1      33.715  26.195  25.910  1.00  0.00     0.010 A 
ATOM     21  C   UNL A   1      33.615  27.717  23.582  1.00  0.00     0.001 A 
ATOM     22  C   UNL A   1      33.717  27.590  25.984  1.00  0.00     0.001 A 
ATOM     23  C   UNL A   1      33.680  28.350  24.820  1.00  0.00     0.000 A 
ENDBRANCH   6  18
ENDBRANCH   4   6
ENDBRANCH   3   4
ENDBRANCH   2   3
ENDBRANCH   1   2
BRANCH   1  24
ATOM     24  O   UNL A   1      38.819  22.313  26.040  1.00  0.00    -0.374 OA
BRANCH  24  25
ATOM     25  C   UNL A   1      38.310  21.220  25.281  1.00  0.00     0.202 C 
BRANCH  25  26
ATOM     26  C   UNL A   1      39.141  19.929  25.277  1.00  0.00     0.261 C 
BRANCH  26  27
ATOM     27  O   UNL A   1      39.946  19.776  26.457  1.00  0.00    -0.460 OA
BRANCH  27  28
ATOM     28  C   UNL A   1      41.274  19.620  26.227  1.00  0.00     0.338 C 
ATOM     29  O   UNL A   1      41.833  18.681  25.676  1.00  0.00    -0.246 OA
BRANCH  28  30
ATOM     30  C   UNL A   1      41.976  20.861  26.594  1.00  0.00     0.060 A 
ATOM     31  C   UNL A   1      42.142  21.164  27.950  1.00  0.00     0.016 A 
ATOM     32  C   UNL A   1      42.436  21.737  25.613  1.00  0.00     0.016 A 
ATOM     33  C   UNL A   1      42.767  22.353  28.327  1.00  0.00     0.010 A 
ATOM     34  C   UNL A   1      43.090  22.910  25.989  1.00  0.00     0.010 A 
ATOM     35  C   UNL A   1      43.228  23.244  27.349  1.00  0.00    -0.014 A 
BRANCH  35  36
ATOM     36  C   UNL A   1      43.694  24.604  27.721  1.00  0.00     0.031 A 
ATOM     37  C   UNL A   1      42.665  25.644  28.071  1.00  0.00     0.074 A 
ATOM     38  C   UNL A   1      45.002  24.915  27.738  1.00  0.00     0.049 A 
ATOM     39  N   UNL A   1      42.816  26.921  28.309  1.00  0.00    -0.248 NA
ATOM     40  C   UNL A   1      41.269  25.181  28.143  1.00  0.00     0.031 C 
ATOM     41  C   UNL A   1      46.098  23.992  27.448  1.00  0.00     0.029 A 
ATOM     42  N   UNL A   1      45.629  26.110  27.998  1.00  0.00    -0.354 N 
ATOM     43  C   UNL A   1      41.538  27.416  28.534  1.00  0.00     0.074 A 
ATOM     44  C   UNL A   1      40.619  26.313  28.364  1.00  0.00     0.031 C 
ATOM     45  C   UNL A   1      47.263  24.655  27.541  1.00  0.00     0.029 A 
ATOM     46  C   UNL A   1      46.994  26.058  27.855  1.00  0.00     0.049 A 
ATOM     47  H   UNL A   1      45.146  26.926  28.263  1.00  0.00     0.167 HD
ATOM     48  C   UNL A   1      41.164  28.675  28.865  1.00  0.00     0.037 A 
ATOM     49  C   UNL A   1      47.915  27.037  27.942  1.00  0.00     0.037 A 
ATOM     50  C   UNL A   1      42.084  29.764  29.058  1.00  0.00     0.049 A 
ATOM     51  C   UNL A   1      47.469  28.444  28.261  1.00  0.00     0.074 A 
ATOM     52  C   UNL A   1      41.810  31.069  29.426  1.00  0.00     0.029 A 
ATOM     53  N   UNL A   1      43.459  29.673  28.897  1.00  0.00    -0.354 N 
ATOM     54  N   UNL A   1      46.262  28.899  28.491  1.00  0.00    -0.248 NA
ATOM     55  C   UNL A   1      48.519  29.470  28.333  1.00  0.00     0.031 C 
ATOM     56  C   UNL A   1      43.013  31.781  29.436  1.00  0.00     0.029 A 
ATOM     57  C   UNL A   1      44.044  30.905  29.136  1.00  0.00     0.049 A 
ATOM     58  H   UNL A   1      43.946  28.854  28.649  1.00  0.00     0.167 HD
ATOM     59  C   UNL A   1      46.409  30.253  28.771  1.00  0.00     0.074 A 
ATOM     60  C   UNL A   1      47.826  30.542  28.690  1.00  0.00     0.031 C 
ATOM     61  C   UNL A   1      45.459  31.172  29.069  1.00  0.00     0.037 A 
BRANCH  48  62
ATOM     62  C   UNL A   1      39.695  28.944  29.022  1.00  0.00     0.064 A 
ATOM     63  C   UNL A   1      38.904  29.388  27.952  1.00  0.00     0.173 A 
ATOM     64  C   UNL A   1      39.066  28.732  30.259  1.00  0.00     0.173 A 
ATOM     65  F   UNL A   1      39.461  29.621  26.753  1.00  0.00    -0.203 F 
ATOM     66  C   UNL A   1      37.546  29.637  28.120  1.00  0.00     0.198 A 
ATOM     67  C   UNL A   1      37.700  28.951  30.415  1.00  0.00     0.198 A 
ATOM     68  F   UNL A   1      39.774  28.308  31.315  1.00  0.00    -0.203 F 
ATOM     69  F   UNL A   1      36.821  30.114  27.097  1.00  0.00    -0.200 F 
ATOM     70  C   UNL A   1      36.943  29.412  29.348  1.00  0.00     0.200 A 
ATOM     71  F   UNL A   1      37.117  28.720  31.599  1.00  0.00    -0.200 F 
ATOM     72  F   UNL A   1      35.633  29.646  29.507  1.00  0.00    -0.200 F 
ENDBRANCH  48  62
BRANCH  49  73
ATOM     73  C   UNL A   1      49.353  26.732  27.718  1.00  0.00     0.064 A 
ATOM     74  C   UNL A   1      50.193  26.387  28.788  1.00  0.00     0.173 A 
ATOM     75  C   UNL A   1      49.924  26.801  26.440  1.00  0.00     0.173 A 
ATOM     76  F   UNL A   1      49.701  26.334  30.034  1.00  0.00    -0.203 F 
ATOM     77  C   UNL A   1      51.550  26.144  28.589  1.00  0.00     0.198 A 
ATOM     78  C   UNL A   1      51.275  26.529  26.237  1.00  0.00     0.198 A 
ATOM     79  F   UNL A   1      49.166  27.128  25.383  1.00  0.00    -0.203 F 
ATOM     80  F   UNL A   1      52.340  25.868  29.636  1.00  0.00    -0.200 F 
ATOM     81  C   UNL A   1      52.090  26.209  27.313  1.00  0.00     0.200 A 
ATOM     82  F   UNL A   1      51.789  26.581  25.000  1.00  0.00    -0.200 F 
ATOM     83  F   UNL A   1      53.395  25.974  27.121  1.00  0.00    -0.200 F 
ENDBRANCH  49  73
BRANCH  61  84
ATOM     84  C   UNL A   1      45.917  32.567  29.387  1.00  0.00     0.064 A 
ATOM     85  C   UNL A   1      46.288  32.947  30.684  1.00  0.00     0.173 A 
ATOM     86  C   UNL A   1      46.035  33.522  28.364  1.00  0.00     0.173 A 
ATOM     87  F   UNL A   1      46.181  32.077  31.700  1.00  0.00    -0.203 F 
ATOM     88  C   UNL A   1      46.736  34.239  30.951  1.00  0.00     0.198 A 
ATOM     89  C   UNL A   1      46.515  34.801  28.628  1.00  0.00     0.198 A 
ATOM     90  F   UNL A   1      45.702  33.207  27.103  1.00  0.00    -0.203 F 
ATOM     91  F   UNL A   1      47.041  34.594  32.207  1.00  0.00    -0.200 F 
ATOM     92  C   UNL A   1      46.858  35.161  29.922  1.00  0.00     0.200 A 
ATOM     93  F   UNL A   1      46.648  35.684  27.629  1.00  0.00    -0.200 F 
ATOM     94  F   UNL A   1      47.301  36.399  30.179  1.00  0.00    -0.200 F 
ENDBRANCH  61  84
ENDBRANCH  35  36
ENDBRANCH  28  30
ENDBRANCH  27  28
ENDBRANCH  26  27
ENDBRANCH  25  26
ENDBRANCH  24  25
ENDBRANCH   1  24
TORSDOF 18
ENDMDL
MODEL 3
REMARK VINA RESULT:     -10.9      4.454      7.614
REMARK SMILES Cc1nc(C[NH2+][C@@H](C(=O)OCCOCCOC(=O)c2ccc(-c3c4nc(c(-c5c(F)c(F)c(F)c(F)c5F)c5ccc([nH]5)c(-c5c(F)c(F)c(F)c(F)c5F)c5nc(c(-c6c(F)c(F)c(F)c(F)c6F)c6ccc3[nH]6)C=C5)C=C4)cc2)c2ccccc2)sc1C
REMARK SMILES IDX 12 1 11 2 10 3 8 4 9 5 7 6 6 7 5 10 4 11 1 12 2 13 3 14
REMARK SMILES IDX 89 15 88 16 90 17 82 18 83 19 87 20 84 21 86 22 85 23 13 24
REMARK SMILES IDX 14 25 15 26 16 27 17 28 18 29 19 30 20 31 81 32 21 33 80 34
REMARK SMILES IDX 22 35 23 36 24 37 74 38 25 39 79 40 73 41 75 42 26 43 78 44
REMARK SMILES IDX 72 45 71 46 27 48 59 49 39 50 58 51 40 52 43 53 57 54 76 55
REMARK SMILES IDX 41 56 42 57 56 59 77 60 44 61 28 62 29 63 37 64 30 65 31 66
REMARK SMILES IDX 35 67 38 68 32 69 33 70 36 71 34 72 60 73 61 74 69 75 62 76
REMARK SMILES IDX 63 77 67 78 70 79 64 80 65 81 68 82 66 83 45 84 46 85 54 86
REMARK SMILES IDX 47 87 48 88 52 89 55 90 49 91 50 92 53 93 51 94
REMARK H PARENT 6 8 6 9 75 47 43 58
REMARK Flexibility Score: inf
ROOT
ATOM      1  C   UNL A   1      33.922  28.074  23.844  1.00  0.00     0.202 C 
ENDROOT
BRANCH   1   2
ATOM      2  C   UNL A   1      33.356  26.690  23.522  1.00  0.00     0.261 C 
BRANCH   2   3
ATOM      3  O   UNL A   1      34.268  25.678  23.986  1.00  0.00    -0.459 OA
BRANCH   3   4
ATOM      4  C   UNL A   1      33.903  25.041  25.133  1.00  0.00     0.369 C 
ATOM      5  O   UNL A   1      33.521  25.634  26.138  1.00  0.00    -0.245 OA
BRANCH   4   6
ATOM      6  C   UNL A   1      33.979  23.489  25.030  1.00  0.00     0.325 C 
BRANCH   6   7
ATOM      7  N   UNL A   1      33.047  22.729  25.901  1.00  0.00    -0.325 N 
ATOM      8  H   UNL A   1      33.567  21.962  26.328  1.00  0.00     0.347 HD
ATOM      9  H   UNL A   1      32.680  23.396  26.579  1.00  0.00     0.347 HD
BRANCH   7  10
ATOM     10  C   UNL A   1      31.884  22.162  25.210  1.00  0.00     0.330 C 
BRANCH  10  11
ATOM     11  C   UNL A   1      32.153  20.741  24.765  1.00  0.00     0.148 A 
ATOM     12  C   UNL A   1      32.857  17.309  25.591  1.00  0.00     0.068 C 
ATOM     13  C   UNL A   1      32.592  18.561  24.839  1.00  0.00     0.052 A 
ATOM     14  N   UNL A   1      32.385  19.724  25.569  1.00  0.00    -0.240 NA
ATOM     15  C   UNL A   1      32.528  18.717  23.464  1.00  0.00     0.025 A 
ATOM     16  S   UNL A   1      32.200  20.354  23.096  1.00  0.00    -0.118 S 
ATOM     17  C   UNL A   1      32.702  17.706  22.386  1.00  0.00     0.058 C 
ENDBRANCH  10  11
ENDBRANCH   7  10
ENDBRANCH   6   7
BRANCH   6  18
ATOM     18  C   UNL A   1      35.435  23.061  25.256  1.00  0.00     0.021 A 
ATOM     19  C   UNL A   1      36.341  23.807  26.031  1.00  0.00     0.010 A 
ATOM     20  C   UNL A   1      35.929  21.941  24.564  1.00  0.00     0.010 A 
ATOM     21  C   UNL A   1      37.696  23.467  26.080  1.00  0.00     0.001 A 
ATOM     22  C   UNL A   1      37.282  21.599  24.619  1.00  0.00     0.001 A 
ATOM     23  C   UNL A   1      38.167  22.368  25.366  1.00  0.00     0.000 A 
ENDBRANCH   6  18
ENDBRANCH   4   6
ENDBRANCH   3   4
ENDBRANCH   2   3
ENDBRANCH   1   2
BRANCH   1  24
ATOM     24  O   UNL A   1      33.368  28.735  24.982  1.00  0.00    -0.374 OA
BRANCH  24  25
ATOM     25  C   UNL A   1      32.067  29.299  24.843  1.00  0.00     0.202 C 
BRANCH  25  26
ATOM     26  C   UNL A   1      31.715  30.474  25.766  1.00  0.00     0.261 C 
BRANCH  26  27
ATOM     27  O   UNL A   1      32.469  30.473  26.990  1.00  0.00    -0.460 OA
BRANCH  27  28
ATOM     28  C   UNL A   1      33.158  31.614  27.238  1.00  0.00     0.338 C 
ATOM     29  O   UNL A   1      32.758  32.766  27.144  1.00  0.00    -0.246 OA
BRANCH  28  30
ATOM     30  C   UNL A   1      34.465  31.270  27.822  1.00  0.00     0.060 A 
ATOM     31  C   UNL A   1      34.740  29.929  28.113  1.00  0.00     0.016 A 
ATOM     32  C   UNL A   1      35.399  32.261  28.114  1.00  0.00     0.016 A 
ATOM     33  C   UNL A   1      35.954  29.578  28.705  1.00  0.00     0.010 A 
ATOM     34  C   UNL A   1      36.627  31.908  28.676  1.00  0.00     0.010 A 
ATOM     35  C   UNL A   1      36.898  30.568  29.009  1.00  0.00    -0.014 A 
BRANCH  35  36
ATOM     36  C   UNL A   1      38.092  30.250  29.831  1.00  0.00     0.031 A 
ATOM     37  C   UNL A   1      39.113  29.294  29.274  1.00  0.00     0.074 A 
ATOM     38  C   UNL A   1      38.264  30.786  31.053  1.00  0.00     0.049 A 
ATOM     39  N   UNL A   1      40.168  28.773  29.846  1.00  0.00    -0.248 NA
ATOM     40  C   UNL A   1      38.903  28.854  27.885  1.00  0.00     0.031 C 
ATOM     41  C   UNL A   1      37.366  31.744  31.694  1.00  0.00     0.029 A 
ATOM     42  N   UNL A   1      39.257  30.583  31.981  1.00  0.00    -0.354 N 
ATOM     43  C   UNL A   1      40.729  27.927  28.897  1.00  0.00     0.074 A 
ATOM     44  C   UNL A   1      39.878  27.973  27.729  1.00  0.00     0.031 C 
ATOM     45  C   UNL A   1      37.844  32.043  32.913  1.00  0.00     0.029 A 
ATOM     46  C   UNL A   1      39.059  31.266  33.157  1.00  0.00     0.049 A 
ATOM     47  H   UNL A   1      40.036  30.003  31.820  1.00  0.00     0.167 HD
ATOM     48  C   UNL A   1      41.860  27.188  28.987  1.00  0.00     0.037 A 
ATOM     49  C   UNL A   1      39.764  31.243  34.304  1.00  0.00     0.037 A 
ATOM     50  C   UNL A   1      42.718  27.164  30.142  1.00  0.00     0.049 A 
ATOM     51  C   UNL A   1      40.993  30.371  34.399  1.00  0.00     0.074 A 
ATOM     52  C   UNL A   1      43.903  26.474  30.322  1.00  0.00     0.029 A 
ATOM     53  N   UNL A   1      42.479  27.865  31.316  1.00  0.00    -0.354 N 
ATOM     54  N   UNL A   1      41.527  29.590  33.492  1.00  0.00    -0.248 NA
ATOM     55  C   UNL A   1      41.715  30.382  35.680  1.00  0.00     0.031 C 
ATOM     56  C   UNL A   1      44.354  26.715  31.623  1.00  0.00     0.029 A 
ATOM     57  C   UNL A   1      43.484  27.605  32.232  1.00  0.00     0.049 A 
ATOM     58  H   UNL A   1      41.709  28.458  31.473  1.00  0.00     0.167 HD
ATOM     59  C   UNL A   1      42.665  29.046  34.078  1.00  0.00     0.074 A 
ATOM     60  C   UNL A   1      42.748  29.594  35.415  1.00  0.00     0.031 C 
ATOM     61  C   UNL A   1      43.561  28.174  33.554  1.00  0.00     0.037 A 
BRANCH  48  62
ATOM     62  C   UNL A   1      42.224  26.330  27.810  1.00  0.00     0.064 A 
ATOM     63  C   UNL A   1      43.191  26.727  26.874  1.00  0.00     0.173 A 
ATOM     64  C   UNL A   1      41.612  25.080  27.630  1.00  0.00     0.173 A 
ATOM     65  F   UNL A   1      43.795  27.920  26.992  1.00  0.00    -0.203 F 
ATOM     66  C   UNL A   1      43.510  25.919  25.787  1.00  0.00     0.198 A 
ATOM     67  C   UNL A   1      41.957  24.260  26.559  1.00  0.00     0.198 A 
ATOM     68  F   UNL A   1      40.682  24.651  28.495  1.00  0.00    -0.203 F 
ATOM     69  F   UNL A   1      44.397  26.344  24.875  1.00  0.00    -0.200 F 
ATOM     70  C   UNL A   1      42.899  24.683  25.634  1.00  0.00     0.200 A 
ATOM     71  F   UNL A   1      41.375  23.061  26.421  1.00  0.00    -0.200 F 
ATOM     72  F   UNL A   1      43.212  23.904  24.590  1.00  0.00    -0.200 F 
ENDBRANCH  48  62
BRANCH  49  73
ATOM     73  C   UNL A   1      39.329  32.066  35.465  1.00  0.00     0.064 A 
ATOM     74  C   UNL A   1      39.766  33.390  35.616  1.00  0.00     0.173 A 
ATOM     75  C   UNL A   1      38.489  31.541  36.458  1.00  0.00     0.173 A 
ATOM     76  F   UNL A   1      40.592  33.930  34.707  1.00  0.00    -0.203 F 
ATOM     77  C   UNL A   1      39.396  34.149  36.724  1.00  0.00     0.198 A 
ATOM     78  C   UNL A   1      38.096  32.310  37.550  1.00  0.00     0.198 A 
ATOM     79  F   UNL A   1      38.045  30.279  36.363  1.00  0.00    -0.203 F 
ATOM     80  F   UNL A   1      39.870  35.394  36.869  1.00  0.00    -0.200 F 
ATOM     81  C   UNL A   1      38.557  33.611  37.688  1.00  0.00     0.200 A 
ATOM     82  F   UNL A   1      37.275  31.790  38.473  1.00  0.00    -0.200 F 
ATOM     83  F   UNL A   1      38.200  34.341  38.754  1.00  0.00    -0.200 F 
ENDBRANCH  49  73
BRANCH  61  84
ATOM     84  C   UNL A   1      44.742  27.797  34.404  1.00  0.00     0.064 A 
ATOM     85  C   UNL A   1      44.727  26.667  35.233  1.00  0.00     0.173 A 
ATOM     86  C   UNL A   1      45.924  28.551  34.343  1.00  0.00     0.173 A 
ATOM     87  F   UNL A   1      43.617  25.919  35.337  1.00  0.00    -0.203 F 
ATOM     88  C   UNL A   1      45.844  26.321  35.991  1.00  0.00     0.198 A 
ATOM     89  C   UNL A   1      47.049  28.184  35.076  1.00  0.00     0.198 A 
ATOM     90  F   UNL A   1      45.994  29.637  33.558  1.00  0.00    -0.203 F 
ATOM     91  F   UNL A   1      45.791  25.263  36.813  1.00  0.00    -0.200 F 
ATOM     92  C   UNL A   1      47.005  27.073  35.905  1.00  0.00     0.200 A 
ATOM     93  F   UNL A   1      48.175  28.902  34.978  1.00  0.00    -0.200 F 
ATOM     94  F   UNL A   1      48.081  26.731  36.625  1.00  0.00    -0.200 F 
ENDBRANCH  61  84
ENDBRANCH  35  36
ENDBRANCH  28  30
ENDBRANCH  27  28
ENDBRANCH  26  27
ENDBRANCH  25  26
ENDBRANCH  24  25
ENDBRANCH   1  24
TORSDOF 18
ENDMDL
