MODEL 1
REMARK VINA RESULT:     -12.3      0.000      0.000
REMARK SMILES Cc1ccnc(C(=O)c2[nH]c3ccc(C(C)(C)C)cc3c2CC(=O)OCCOCCOC(=O)c2ccc(-c3c4nc(c(-c5c(F)c(F)c(F)c(F)c5F)c5ccc([nH]5)c(-c5c(F)c(F)c(F)c(F)c5F)c5nc(c(-c6c(F)c(F)c(F)c(F)c6F)c6ccc3[nH]6)C=C5)C=C4)cc2)c1
REMARK SMILES IDX 27 1 26 2 25 3 23 4 24 5 22 6 21 7 9 8 10 9 11 10 20 12
REMARK SMILES IDX 12 13 19 14 13 15 14 16 7 17 8 18 6 19 1 20 2 21 3 22 97 23
REMARK SMILES IDX 4 24 5 25 15 26 16 27 17 28 18 29 28 30 29 31 30 32 31 33
REMARK SMILES IDX 32 34 33 35 34 36 35 37 96 38 36 39 95 40 37 41 38 42 39 43
REMARK SMILES IDX 89 44 40 45 94 46 88 47 90 48 41 49 93 50 87 51 86 52 42 54
REMARK SMILES IDX 74 55 54 56 73 57 55 58 58 59 72 60 91 61 56 62 57 63 71 65
REMARK SMILES IDX 92 66 59 67 43 68 44 69 52 70 45 71 46 72 50 73 53 74 47 75
REMARK SMILES IDX 48 76 51 77 49 78 75 79 76 80 84 81 77 82 78 83 82 84 85 85
REMARK SMILES IDX 79 86 80 87 83 88 81 89 60 90 61 91 69 92 62 93 63 94 67 95
REMARK SMILES IDX 70 96 64 97 65 98 68 99 66 100
REMARK H PARENT 10 11 90 53 58 64
REMARK Flexibility Score: inf
ROOT
ATOM      1  C   UNL A   1      33.264  30.710  27.112  1.00  0.00     0.202 C 
ENDROOT
BRANCH   1   2
ATOM      2  C   UNL A   1      33.607  29.224  27.264  1.00  0.00     0.261 C 
BRANCH   2   3
ATOM      3  O   UNL A   1      32.474  28.413  27.643  1.00  0.00    -0.463 OA
BRANCH   3   4
ATOM      4  C   UNL A   1      32.285  27.300  26.882  1.00  0.00     0.310 C 
ATOM      5  O   UNL A   1      31.229  26.670  26.846  1.00  0.00    -0.252 OA
BRANCH   4   6
ATOM      6  C   UNL A   1      33.495  26.810  26.119  1.00  0.00     0.161 C 
BRANCH   6   7
ATOM      7  C   UNL A   1      33.335  26.349  24.694  1.00  0.00     0.000 A 
ATOM      8  C   UNL A   1      32.790  27.059  23.620  1.00  0.00     0.093 A 
ATOM      9  N   UNL A   1      32.856  26.223  22.521  1.00  0.00    -0.352 N 
ATOM     10  C   UNL A   1      33.125  24.933  22.917  1.00  0.00     0.046 A 
ATOM     11  H   UNL A   1      32.729  26.511  21.588  1.00  0.00     0.167 HD
ATOM     12  C   UNL A   1      33.452  24.990  24.265  1.00  0.00     0.004 A 
ATOM     13  C   UNL A   1      33.080  23.726  22.211  1.00  0.00     0.027 A 
ATOM     14  C   UNL A   1      33.716  23.784  24.945  1.00  0.00     0.015 A 
ATOM     15  C   UNL A   1      33.280  22.536  22.935  1.00  0.00     0.006 A 
ATOM     16  C   UNL A   1      33.566  22.535  24.308  1.00  0.00    -0.042 A 
BRANCH   8  17
ATOM     17  C   UNL A   1      32.254  28.416  23.651  1.00  0.00     0.227 C 
ATOM     18  O   UNL A   1      32.993  29.395  23.752  1.00  0.00    -0.285 OA
BRANCH  17  19
ATOM     19  C   UNL A   1      30.783  28.682  23.632  1.00  0.00     0.113 A 
ATOM     20  C   UNL A   1      28.322  31.552  23.433  1.00  0.00     0.044 C 
ATOM     21  C   UNL A   1      28.914  30.175  23.460  1.00  0.00    -0.047 A 
ATOM     22  C   UNL A   1      28.120  29.068  23.146  1.00  0.00     0.023 A 
ATOM     23  C   UNL A   1      30.279  29.978  23.696  1.00  0.00     0.036 A 
ATOM     24  C   UNL A   1      28.703  27.813  23.126  1.00  0.00     0.112 A 
ATOM     25  N   UNL A   1      30.008  27.595  23.379  1.00  0.00    -0.253 NA
ENDBRANCH  17  19
ENDBRANCH   8  17
BRANCH  16  26
ATOM     26  C   UNL A   1      33.642  21.257  25.163  1.00  0.00    -0.013 C 
ATOM     27  C   UNL A   1      35.024  20.593  25.001  1.00  0.00     0.016 C 
ATOM     28  C   UNL A   1      33.432  21.635  26.651  1.00  0.00     0.016 C 
ATOM     29  C   UNL A   1      32.572  20.201  24.814  1.00  0.00     0.016 C 
ENDBRANCH  16  26
ENDBRANCH   6   7
ENDBRANCH   4   6
ENDBRANCH   3   4
ENDBRANCH   2   3
ENDBRANCH   1   2
BRANCH   1  30
ATOM     30  O   UNL A   1      31.989  31.054  26.569  1.00  0.00    -0.374 OA
BRANCH  30  31
ATOM     31  C   UNL A   1      31.488  32.353  26.876  1.00  0.00     0.202 C 
BRANCH  31  32
ATOM     32  C   UNL A   1      32.522  33.439  27.206  1.00  0.00     0.261 C 
BRANCH  32  33
ATOM     33  O   UNL A   1      32.155  34.251  28.332  1.00  0.00    -0.460 OA
BRANCH  33  34
ATOM     34  C   UNL A   1      33.114  35.116  28.737  1.00  0.00     0.338 C 
ATOM     35  O   UNL A   1      33.043  36.334  28.817  1.00  0.00    -0.246 OA
BRANCH  34  36
ATOM     36  C   UNL A   1      34.268  34.361  29.247  1.00  0.00     0.060 A 
ATOM     37  C   UNL A   1      34.037  33.444  30.281  1.00  0.00     0.016 A 
ATOM     38  C   UNL A   1      35.555  34.574  28.753  1.00  0.00     0.016 A 
ATOM     39  C   UNL A   1      35.103  32.745  30.838  1.00  0.00     0.010 A 
ATOM     40  C   UNL A   1      36.625  33.882  29.324  1.00  0.00     0.010 A 
ATOM     41  C   UNL A   1      36.405  32.980  30.380  1.00  0.00    -0.014 A 
BRANCH  41  42
ATOM     42  C   UNL A   1      37.551  32.348  31.071  1.00  0.00     0.031 A 
ATOM     43  C   UNL A   1      38.293  31.236  30.388  1.00  0.00     0.074 A 
ATOM     44  C   UNL A   1      37.922  32.777  32.290  1.00  0.00     0.049 A 
ATOM     45  N   UNL A   1      39.288  30.510  30.826  1.00  0.00    -0.248 NA
ATOM     46  C   UNL A   1      37.852  30.895  29.025  1.00  0.00     0.031 C 
ATOM     47  C   UNL A   1      37.292  33.875  33.023  1.00  0.00     0.029 A 
ATOM     48  N   UNL A   1      38.912  32.336  33.129  1.00  0.00    -0.354 N 
ATOM     49  C   UNL A   1      39.587  29.622  29.800  1.00  0.00     0.074 A 
ATOM     50  C   UNL A   1      38.655  29.884  28.725  1.00  0.00     0.031 C 
ATOM     51  C   UNL A   1      37.906  34.017  34.209  1.00  0.00     0.029 A 
ATOM     52  C   UNL A   1      38.943  32.995  34.334  1.00  0.00     0.049 A 
ATOM     53  H   UNL A   1      39.541  31.616  32.892  1.00  0.00     0.167 HD
ATOM     54  C   UNL A   1      40.558  28.679  29.765  1.00  0.00     0.037 A 
ATOM     55  C   UNL A   1      39.707  32.774  35.421  1.00  0.00     0.037 A 
ATOM     56  C   UNL A   1      41.480  28.434  30.843  1.00  0.00     0.049 A 
ATOM     57  C   UNL A   1      40.724  31.662  35.381  1.00  0.00     0.074 A 
ATOM     58  C   UNL A   1      42.525  27.531  30.897  1.00  0.00     0.029 A 
ATOM     59  N   UNL A   1      41.455  29.092  32.066  1.00  0.00    -0.354 N 
ATOM     60  N   UNL A   1      41.031  30.855  34.394  1.00  0.00    -0.248 NA
ATOM     61  C   UNL A   1      41.497  31.427  36.608  1.00  0.00     0.031 C 
ATOM     62  C   UNL A   1      43.092  27.595  32.173  1.00  0.00     0.029 A 
ATOM     63  C   UNL A   1      42.440  28.581  32.896  1.00  0.00     0.049 A 
ATOM     64  H   UNL A   1      40.831  29.813  32.306  1.00  0.00     0.167 HD
ATOM     65  C   UNL A   1      42.045  30.034  34.870  1.00  0.00     0.074 A 
ATOM     66  C   UNL A   1      42.316  30.457  36.229  1.00  0.00     0.031 C 
ATOM     67  C   UNL A   1      42.691  29.019  34.246  1.00  0.00     0.037 A 
BRANCH  54  68
ATOM     68  C   UNL A   1      40.655  27.818  28.539  1.00  0.00     0.064 A 
ATOM     69  C   UNL A   1      39.961  26.604  28.429  1.00  0.00     0.173 A 
ATOM     70  C   UNL A   1      41.411  28.243  27.437  1.00  0.00     0.173 A 
ATOM     71  F   UNL A   1      39.235  26.145  29.459  1.00  0.00    -0.203 F 
ATOM     72  C   UNL A   1      40.037  25.838  27.268  1.00  0.00     0.198 A 
ATOM     73  C   UNL A   1      41.462  27.491  26.267  1.00  0.00     0.198 A 
ATOM     74  F   UNL A   1      42.092  29.399  27.487  1.00  0.00    -0.203 F 
ATOM     75  F   UNL A   1      39.397  24.663  27.198  1.00  0.00    -0.200 F 
ATOM     76  C   UNL A   1      40.780  26.286  26.184  1.00  0.00     0.200 A 
ATOM     77  F   UNL A   1      42.168  27.932  25.217  1.00  0.00    -0.200 F 
ATOM     78  F   UNL A   1      40.840  25.555  25.063  1.00  0.00    -0.200 F 
ENDBRANCH  54  68
BRANCH  55  79
ATOM     79  C   UNL A   1      39.527  33.599  36.645  1.00  0.00     0.064 A 
ATOM     80  C   UNL A   1      38.718  33.159  37.702  1.00  0.00     0.173 A 
ATOM     81  C   UNL A   1      40.134  34.858  36.773  1.00  0.00     0.173 A 
ATOM     82  F   UNL A   1      38.094  31.975  37.619  1.00  0.00    -0.203 F 
ATOM     83  C   UNL A   1      38.505  33.954  38.827  1.00  0.00     0.198 A 
ATOM     84  C   UNL A   1      39.947  35.638  37.912  1.00  0.00     0.198 A 
ATOM     85  F   UNL A   1      40.914  35.331  35.789  1.00  0.00    -0.203 F 
ATOM     86  F   UNL A   1      37.681  33.532  39.797  1.00  0.00    -0.200 F 
ATOM     87  C   UNL A   1      39.124  35.190  38.934  1.00  0.00     0.200 A 
ATOM     88  F   UNL A   1      40.556  36.827  38.015  1.00  0.00    -0.200 F 
ATOM     89  F   UNL A   1      38.917  35.955  40.014  1.00  0.00    -0.200 F 
ENDBRANCH  55  79
BRANCH  67  90
ATOM     90  C   UNL A   1      43.765  28.309  35.019  1.00  0.00     0.064 A 
ATOM     91  C   UNL A   1      45.088  28.770  35.027  1.00  0.00     0.173 A 
ATOM     92  C   UNL A   1      43.455  27.183  35.797  1.00  0.00     0.173 A 
ATOM     93  F   UNL A   1      45.438  29.834  34.287  1.00  0.00    -0.203 F 
ATOM     94  C   UNL A   1      46.071  28.114  35.765  1.00  0.00     0.198 A 
ATOM     95  C   UNL A   1      44.432  26.550  36.561  1.00  0.00     0.198 A 
ATOM     96  F   UNL A   1      42.202  26.708  35.831  1.00  0.00    -0.203 F 
ATOM     97  F   UNL A   1      47.339  28.542  35.718  1.00  0.00    -0.200 F 
ATOM     98  C   UNL A   1      45.739  27.011  36.538  1.00  0.00     0.200 A 
ATOM     99  F   UNL A   1      44.107  25.495  37.321  1.00  0.00    -0.200 F 
ATOM    100  F   UNL A   1      46.683  26.388  37.256  1.00  0.00    -0.200 F 
ENDBRANCH  67  90
ENDBRANCH  41  42
ENDBRANCH  34  36
ENDBRANCH  33  34
ENDBRANCH  32  33
ENDBRANCH  31  32
ENDBRANCH  30  31
ENDBRANCH   1  30
TORSDOF 18
ENDMDL
MODEL 2
REMARK VINA RESULT:     -12.2      0.868      1.919
REMARK SMILES Cc1ccnc(C(=O)c2[nH]c3ccc(C(C)(C)C)cc3c2CC(=O)OCCOCCOC(=O)c2ccc(-c3c4nc(c(-c5c(F)c(F)c(F)c(F)c5F)c5ccc([nH]5)c(-c5c(F)c(F)c(F)c(F)c5F)c5nc(c(-c6c(F)c(F)c(F)c(F)c6F)c6ccc3[nH]6)C=C5)C=C4)cc2)c1
REMARK SMILES IDX 27 1 26 2 25 3 23 4 24 5 22 6 21 7 9 8 10 9 11 10 20 12
REMARK SMILES IDX 12 13 19 14 13 15 14 16 7 17 8 18 6 19 1 20 2 21 3 22 97 23
REMARK SMILES IDX 4 24 5 25 15 26 16 27 17 28 18 29 28 30 29 31 30 32 31 33
REMARK SMILES IDX 32 34 33 35 34 36 35 37 96 38 36 39 95 40 37 41 38 42 39 43
REMARK SMILES IDX 89 44 40 45 94 46 88 47 90 48 41 49 93 50 87 51 86 52 42 54
REMARK SMILES IDX 74 55 54 56 73 57 55 58 58 59 72 60 91 61 56 62 57 63 71 65
REMARK SMILES IDX 92 66 59 67 43 68 44 69 52 70 45 71 46 72 50 73 53 74 47 75
REMARK SMILES IDX 48 76 51 77 49 78 75 79 76 80 84 81 77 82 78 83 82 84 85 85
REMARK SMILES IDX 79 86 80 87 83 88 81 89 60 90 61 91 69 92 62 93 63 94 67 95
REMARK SMILES IDX 70 96 64 97 65 98 68 99 66 100
REMARK H PARENT 10 11 90 53 58 64
REMARK Flexibility Score: inf
ROOT
ATOM      1  C   UNL A   1      32.823  30.397  27.307  1.00  0.00     0.202 C 
ENDROOT
BRANCH   1   2
ATOM      2  C   UNL A   1      33.294  28.989  26.926  1.00  0.00     0.261 C 
BRANCH   2   3
ATOM      3  O   UNL A   1      32.466  27.943  27.479  1.00  0.00    -0.463 OA
BRANCH   3   4
ATOM      4  C   UNL A   1      31.927  27.092  26.562  1.00  0.00     0.310 C 
ATOM      5  O   UNL A   1      31.220  26.131  26.858  1.00  0.00    -0.252 OA
BRANCH   4   6
ATOM      6  C   UNL A   1      32.314  27.344  25.123  1.00  0.00     0.161 C 
BRANCH   6   7
ATOM      7  C   UNL A   1      31.996  26.307  24.078  1.00  0.00     0.000 A 
ATOM      8  C   UNL A   1      30.775  26.089  23.431  1.00  0.00     0.093 A 
ATOM      9  N   UNL A   1      30.972  25.031  22.564  1.00  0.00    -0.352 N 
ATOM     10  C   UNL A   1      32.151  24.385  22.858  1.00  0.00     0.046 A 
ATOM     11  H   UNL A   1      30.357  24.777  21.839  1.00  0.00     0.167 HD
ATOM     12  C   UNL A   1      32.819  25.176  23.782  1.00  0.00     0.004 A 
ATOM     13  C   UNL A   1      32.667  23.164  22.410  1.00  0.00     0.027 A 
ATOM     14  C   UNL A   1      34.043  24.711  24.306  1.00  0.00     0.015 A 
ATOM     15  C   UNL A   1      33.854  22.697  23.003  1.00  0.00     0.006 A 
ATOM     16  C   UNL A   1      34.543  23.435  23.978  1.00  0.00    -0.042 A 
BRANCH   8  17
ATOM     17  C   UNL A   1      29.535  26.831  23.632  1.00  0.00     0.227 C 
ATOM     18  O   UNL A   1      28.599  26.353  24.273  1.00  0.00    -0.285 OA
BRANCH  17  19
ATOM     19  C   UNL A   1      29.312  28.175  23.017  1.00  0.00     0.113 A 
ATOM     20  C   UNL A   1      27.327  31.354  23.545  1.00  0.00     0.044 C 
ATOM     21  C   UNL A   1      28.309  30.353  23.017  1.00  0.00    -0.047 A 
ATOM     22  C   UNL A   1      29.294  30.754  22.109  1.00  0.00     0.023 A 
ATOM     23  C   UNL A   1      28.327  29.036  23.490  1.00  0.00     0.036 A 
ATOM     24  C   UNL A   1      30.222  29.823  21.677  1.00  0.00     0.112 A 
ATOM     25  N   UNL A   1      30.242  28.543  22.095  1.00  0.00    -0.253 NA
ENDBRANCH  17  19
ENDBRANCH   8  17
BRANCH  16  26
ATOM     26  C   UNL A   1      35.756  22.895  24.757  1.00  0.00    -0.013 C 
ATOM     27  C   UNL A   1      36.932  22.636  23.793  1.00  0.00     0.016 C 
ATOM     28  C   UNL A   1      36.186  23.948  25.809  1.00  0.00     0.016 C 
ATOM     29  C   UNL A   1      35.481  21.584  25.523  1.00  0.00     0.016 C 
ENDBRANCH  16  26
ENDBRANCH   6   7
ENDBRANCH   4   6
ENDBRANCH   3   4
ENDBRANCH   2   3
ENDBRANCH   1   2
BRANCH   1  30
ATOM     30  O   UNL A   1      31.932  31.072  26.419  1.00  0.00    -0.374 OA
BRANCH  30  31
ATOM     31  C   UNL A   1      31.477  32.362  26.821  1.00  0.00     0.202 C 
BRANCH  31  32
ATOM     32  C   UNL A   1      32.550  33.402  27.173  1.00  0.00     0.261 C 
BRANCH  32  33
ATOM     33  O   UNL A   1      32.180  34.253  28.269  1.00  0.00    -0.460 OA
BRANCH  33  34
ATOM     34  C   UNL A   1      33.147  35.115  28.661  1.00  0.00     0.338 C 
ATOM     35  O   UNL A   1      33.081  36.334  28.741  1.00  0.00    -0.246 OA
BRANCH  34  36
ATOM     36  C   UNL A   1      34.305  34.357  29.157  1.00  0.00     0.060 A 
ATOM     37  C   UNL A   1      34.085  33.443  30.194  1.00  0.00     0.016 A 
ATOM     38  C   UNL A   1      35.586  34.567  28.646  1.00  0.00     0.016 A 
ATOM     39  C   UNL A   1      35.156  32.740  30.739  1.00  0.00     0.010 A 
ATOM     40  C   UNL A   1      36.662  33.872  29.204  1.00  0.00     0.010 A 
ATOM     41  C   UNL A   1      36.453  32.971  30.264  1.00  0.00    -0.014 A 
BRANCH  41  42
ATOM     42  C   UNL A   1      37.605  32.336  30.941  1.00  0.00     0.031 A 
ATOM     43  C   UNL A   1      38.347  31.235  30.240  1.00  0.00     0.074 A 
ATOM     44  C   UNL A   1      37.983  32.754  32.161  1.00  0.00     0.049 A 
ATOM     45  N   UNL A   1      39.348  30.509  30.664  1.00  0.00    -0.248 NA
ATOM     46  C   UNL A   1      37.899  30.907  28.877  1.00  0.00     0.031 C 
ATOM     47  C   UNL A   1      37.353  33.841  32.910  1.00  0.00     0.029 A 
ATOM     48  N   UNL A   1      38.980  32.308  32.990  1.00  0.00    -0.354 N 
ATOM     49  C   UNL A   1      39.644  29.633  29.627  1.00  0.00     0.074 A 
ATOM     50  C   UNL A   1      38.704  29.902  28.561  1.00  0.00     0.031 C 
ATOM     51  C   UNL A   1      37.975  33.973  34.094  1.00  0.00     0.029 A 
ATOM     52  C   UNL A   1      39.016  32.954  34.201  1.00  0.00     0.049 A 
ATOM     53  H   UNL A   1      39.610  31.593  32.740  1.00  0.00     0.167 HD
ATOM     54  C   UNL A   1      40.618  28.694  29.575  1.00  0.00     0.037 A 
ATOM     55  C   UNL A   1      39.788  32.724  35.281  1.00  0.00     0.037 A 
ATOM     56  C   UNL A   1      41.549  28.441  30.645  1.00  0.00     0.049 A 
ATOM     57  C   UNL A   1      40.809  31.617  35.222  1.00  0.00     0.074 A 
ATOM     58  C   UNL A   1      42.597  27.541  30.682  1.00  0.00     0.029 A 
ATOM     59  N   UNL A   1      41.529  29.086  31.875  1.00  0.00    -0.354 N 
ATOM     60  N   UNL A   1      41.112  30.822  34.225  1.00  0.00    -0.248 NA
ATOM     61  C   UNL A   1      41.591  31.372  36.442  1.00  0.00     0.031 C 
ATOM     62  C   UNL A   1      43.172  27.594  31.955  1.00  0.00     0.029 A 
ATOM     63  C   UNL A   1      42.521  28.570  32.693  1.00  0.00     0.049 A 
ATOM     64  H   UNL A   1      40.903  29.802  32.127  1.00  0.00     0.167 HD
ATOM     65  C   UNL A   1      42.133  30.000  34.686  1.00  0.00     0.074 A 
ATOM     66  C   UNL A   1      42.411  30.409  36.047  1.00  0.00     0.031 C 
ATOM     67  C   UNL A   1      42.779  28.994  34.046  1.00  0.00     0.037 A 
BRANCH  54  68
ATOM     68  C   UNL A   1      40.711  27.847  28.340  1.00  0.00     0.064 A 
ATOM     69  C   UNL A   1      41.488  28.228  27.236  1.00  0.00     0.173 A 
ATOM     70  C   UNL A   1      40.055  26.608  28.283  1.00  0.00     0.173 A 
ATOM     71  F   UNL A   1      42.125  29.408  27.233  1.00  0.00    -0.203 F 
ATOM     72  C   UNL A   1      41.589  27.408  26.114  1.00  0.00     0.198 A 
ATOM     73  C   UNL A   1      40.181  25.778  27.173  1.00  0.00     0.198 A 
ATOM     74  F   UNL A   1      39.301  26.193  29.313  1.00  0.00    -0.203 F 
ATOM     75  F   UNL A   1      42.306  27.809  25.055  1.00  0.00    -0.200 F 
ATOM     76  C   UNL A   1      40.943  26.180  26.087  1.00  0.00     0.200 A 
ATOM     77  F   UNL A   1      39.567  24.587  27.155  1.00  0.00    -0.200 F 
ATOM     78  F   UNL A   1      41.053  25.387  25.012  1.00  0.00    -0.200 F 
ENDBRANCH  54  68
BRANCH  55  79
ATOM     79  C   UNL A   1      39.612  33.535  36.515  1.00  0.00     0.064 A 
ATOM     80  C   UNL A   1      38.700  33.154  37.508  1.00  0.00     0.173 A 
ATOM     81  C   UNL A   1      40.331  34.725  36.715  1.00  0.00     0.173 A 
ATOM     82  F   UNL A   1      37.969  32.040  37.354  1.00  0.00    -0.203 F 
ATOM     83  C   UNL A   1      38.495  33.940  38.640  1.00  0.00     0.198 A 
ATOM     84  C   UNL A   1      40.149  35.494  37.862  1.00  0.00     0.198 A 
ATOM     85  F   UNL A   1      41.213  35.140  35.794  1.00  0.00    -0.203 F 
ATOM     86  F   UNL A   1      37.575  33.581  39.546  1.00  0.00    -0.200 F 
ATOM     87  C   UNL A   1      39.223  35.107  38.820  1.00  0.00     0.200 A 
ATOM     88  F   UNL A   1      40.864  36.613  38.036  1.00  0.00    -0.200 F 
ATOM     89  F   UNL A   1      39.025  35.864  39.907  1.00  0.00    -0.200 F 
ENDBRANCH  55  79
BRANCH  67  90
ATOM     90  C   UNL A   1      43.860  28.281  34.805  1.00  0.00     0.064 A 
ATOM     91  C   UNL A   1      43.601  27.102  35.517  1.00  0.00     0.173 A 
ATOM     92  C   UNL A   1      45.180  28.757  34.780  1.00  0.00     0.173 A 
ATOM     93  F   UNL A   1      42.353  26.614  35.585  1.00  0.00    -0.203 F 
ATOM     94  C   UNL A   1      44.618  26.440  36.201  1.00  0.00     0.198 A 
ATOM     95  C   UNL A   1      46.201  28.074  35.435  1.00  0.00     0.198 A 
ATOM     96  F   UNL A   1      45.483  29.876  34.105  1.00  0.00    -0.203 F 
ATOM     97  F   UNL A   1      44.337  25.343  36.917  1.00  0.00    -0.200 F 
ATOM     98  C   UNL A   1      45.917  26.921  36.151  1.00  0.00     0.200 A 
ATOM     99  F   UNL A   1      47.459  28.532  35.372  1.00  0.00    -0.200 F 
ATOM    100  F   UNL A   1      46.897  26.277  36.800  1.00  0.00    -0.200 F 
ENDBRANCH  67  90
ENDBRANCH  41  42
ENDBRANCH  34  36
ENDBRANCH  33  34
ENDBRANCH  32  33
ENDBRANCH  31  32
ENDBRANCH  30  31
ENDBRANCH   1  30
TORSDOF 18
ENDMDL
MODEL 3
REMARK VINA RESULT:     -12.1      1.095      7.220
REMARK SMILES Cc1ccnc(C(=O)c2[nH]c3ccc(C(C)(C)C)cc3c2CC(=O)OCCOCCOC(=O)c2ccc(-c3c4nc(c(-c5c(F)c(F)c(F)c(F)c5F)c5ccc([nH]5)c(-c5c(F)c(F)c(F)c(F)c5F)c5nc(c(-c6c(F)c(F)c(F)c(F)c6F)c6ccc3[nH]6)C=C5)C=C4)cc2)c1
REMARK SMILES IDX 27 1 26 2 25 3 23 4 24 5 22 6 21 7 9 8 10 9 11 10 20 12
REMARK SMILES IDX 12 13 19 14 13 15 14 16 7 17 8 18 6 19 1 20 2 21 3 22 97 23
REMARK SMILES IDX 4 24 5 25 15 26 16 27 17 28 18 29 28 30 29 31 30 32 31 33
REMARK SMILES IDX 32 34 33 35 34 36 35 37 96 38 36 39 95 40 37 41 38 42 39 43
REMARK SMILES IDX 89 44 40 45 94 46 88 47 90 48 41 49 93 50 87 51 86 52 42 54
REMARK SMILES IDX 74 55 54 56 73 57 55 58 58 59 72 60 91 61 56 62 57 63 71 65
REMARK SMILES IDX 92 66 59 67 43 68 44 69 52 70 45 71 46 72 50 73 53 74 47 75
REMARK SMILES IDX 48 76 51 77 49 78 75 79 76 80 84 81 77 82 78 83 82 84 85 85
REMARK SMILES IDX 79 86 80 87 83 88 81 89 60 90 61 91 69 92 62 93 63 94 67 95
REMARK SMILES IDX 70 96 64 97 65 98 68 99 66 100
REMARK H PARENT 10 11 90 53 58 64
REMARK Flexibility Score: inf
ROOT
ATOM      1  C   UNL A   1      33.073  30.451  26.997  1.00  0.00     0.202 C 
ENDROOT
BRANCH   1   2
ATOM      2  C   UNL A   1      33.380  28.964  26.788  1.00  0.00     0.261 C 
BRANCH   2   3
ATOM      3  O   UNL A   1      32.374  28.278  26.010  1.00  0.00    -0.463 OA
BRANCH   3   4
ATOM      4  C   UNL A   1      31.506  27.521  26.734  1.00  0.00     0.310 C 
ATOM      5  O   UNL A   1      31.125  27.815  27.866  1.00  0.00    -0.252 OA
BRANCH   4   6
ATOM      6  C   UNL A   1      31.075  26.220  26.095  1.00  0.00     0.161 C 
BRANCH   6   7
ATOM      7  C   UNL A   1      31.396  25.965  24.646  1.00  0.00     0.000 A 
ATOM      8  C   UNL A   1      30.618  26.283  23.527  1.00  0.00     0.093 A 
ATOM      9  N   UNL A   1      31.325  25.852  22.421  1.00  0.00    -0.352 N 
ATOM     10  C   UNL A   1      32.346  25.013  22.802  1.00  0.00     0.046 A 
ATOM     11  H   UNL A   1      31.125  26.110  21.492  1.00  0.00     0.167 HD
ATOM     12  C   UNL A   1      32.427  25.086  24.186  1.00  0.00     0.004 A 
ATOM     13  C   UNL A   1      33.182  24.180  22.050  1.00  0.00     0.027 A 
ATOM     14  C   UNL A   1      33.362  24.268  24.851  1.00  0.00     0.015 A 
ATOM     15  C   UNL A   1      34.056  23.326  22.749  1.00  0.00     0.006 A 
ATOM     16  C   UNL A   1      34.141  23.326  24.149  1.00  0.00    -0.042 A 
BRANCH   8  17
ATOM     17  C   UNL A   1      29.315  26.940  23.527  1.00  0.00     0.227 C 
ATOM     18  O   UNL A   1      28.309  26.368  23.947  1.00  0.00    -0.285 OA
BRANCH  17  19
ATOM     19  C   UNL A   1      29.123  28.308  22.958  1.00  0.00     0.113 A 
ATOM     20  C   UNL A   1      27.282  31.544  23.646  1.00  0.00     0.044 C 
ATOM     21  C   UNL A   1      28.205  30.522  23.055  1.00  0.00    -0.047 A 
ATOM     22  C   UNL A   1      29.172  30.911  22.123  1.00  0.00     0.023 A 
ATOM     23  C   UNL A   1      28.189  29.192  23.490  1.00  0.00     0.036 A 
ATOM     24  C   UNL A   1      30.048  29.959  21.632  1.00  0.00     0.112 A 
ATOM     25  N   UNL A   1      30.032  28.668  22.013  1.00  0.00    -0.253 NA
ENDBRANCH  17  19
ENDBRANCH   8  17
BRANCH  16  26
ATOM     26  C   UNL A   1      34.969  22.308  24.954  1.00  0.00    -0.013 C 
ATOM     27  C   UNL A   1      34.310  20.915  24.883  1.00  0.00     0.016 C 
ATOM     28  C   UNL A   1      36.392  22.227  24.347  1.00  0.00     0.016 C 
ATOM     29  C   UNL A   1      35.138  22.670  26.444  1.00  0.00     0.016 C 
ENDBRANCH  16  26
ENDBRANCH   6   7
ENDBRANCH   4   6
ENDBRANCH   3   4
ENDBRANCH   2   3
ENDBRANCH   1   2
BRANCH   1  30
ATOM     30  O   UNL A   1      31.919  30.996  26.357  1.00  0.00    -0.374 OA
BRANCH  30  31
ATOM     31  C   UNL A   1      31.449  32.253  26.840  1.00  0.00     0.202 C 
BRANCH  31  32
ATOM     32  C   UNL A   1      32.500  33.346  27.076  1.00  0.00     0.261 C 
BRANCH  32  33
ATOM     33  O   UNL A   1      32.335  34.035  28.324  1.00  0.00    -0.460 OA
BRANCH  33  34
ATOM     34  C   UNL A   1      33.378  34.824  28.672  1.00  0.00     0.338 C 
ATOM     35  O   UNL A   1      33.403  36.044  28.761  1.00  0.00    -0.246 OA
BRANCH  34  36
ATOM     36  C   UNL A   1      34.502  33.982  29.109  1.00  0.00     0.060 A 
ATOM     37  C   UNL A   1      34.211  32.889  29.934  1.00  0.00     0.016 A 
ATOM     38  C   UNL A   1      35.818  34.280  28.753  1.00  0.00     0.016 A 
ATOM     39  C   UNL A   1      35.243  32.093  30.422  1.00  0.00     0.010 A 
ATOM     40  C   UNL A   1      36.853  33.489  29.255  1.00  0.00     0.010 A 
ATOM     41  C   UNL A   1      36.571  32.405  30.106  1.00  0.00    -0.014 A 
BRANCH  41  42
ATOM     42  C   UNL A   1      37.673  31.650  30.742  1.00  0.00     0.031 A 
ATOM     43  C   UNL A   1      38.057  31.973  32.156  1.00  0.00     0.074 A 
ATOM     44  C   UNL A   1      38.308  30.682  30.059  1.00  0.00     0.049 A 
ATOM     45  N   UNL A   1      39.019  31.476  32.889  1.00  0.00    -0.248 NA
ATOM     46  C   UNL A   1      37.248  32.996  32.838  1.00  0.00     0.031 C 
ATOM     47  C   UNL A   1      37.985  30.265  28.694  1.00  0.00     0.029 A 
ATOM     48  N   UNL A   1      39.362  29.880  30.415  1.00  0.00    -0.354 N 
ATOM     49  C   UNL A   1      38.939  32.130  34.112  1.00  0.00     0.074 A 
ATOM     50  C   UNL A   1      37.848  33.076  34.018  1.00  0.00     0.031 C 
ATOM     51  C   UNL A   1      38.831  29.289  28.325  1.00  0.00     0.029 A 
ATOM     52  C   UNL A   1      39.777  29.043  29.410  1.00  0.00     0.049 A 
ATOM     53  H   UNL A   1      39.780  29.904  31.306  1.00  0.00     0.167 HD
ATOM     54  C   UNL A   1      39.707  31.948  35.212  1.00  0.00     0.037 A 
ATOM     55  C   UNL A   1      40.823  28.195  29.368  1.00  0.00     0.037 A 
ATOM     56  C   UNL A   1      40.787  30.999  35.290  1.00  0.00     0.049 A 
ATOM     57  C   UNL A   1      41.711  28.075  30.580  1.00  0.00     0.074 A 
ATOM     58  C   UNL A   1      41.604  30.707  36.366  1.00  0.00     0.029 A 
ATOM     59  N   UNL A   1      41.208  30.197  34.238  1.00  0.00    -0.354 N 
ATOM     60  N   UNL A   1      41.604  28.664  31.747  1.00  0.00    -0.248 NA
ATOM     61  C   UNL A   1      42.867  27.175  30.468  1.00  0.00     0.031 C 
ATOM     62  C   UNL A   1      42.559  29.776  35.949  1.00  0.00     0.029 A 
ATOM     63  C   UNL A   1      42.302  29.442  34.629  1.00  0.00     0.049 A 
ATOM     64  H   UNL A   1      40.791  30.169  33.347  1.00  0.00     0.167 HD
ATOM     65  C   UNL A   1      42.661  28.191  32.514  1.00  0.00     0.074 A 
ATOM     66  C   UNL A   1      43.385  27.249  31.686  1.00  0.00     0.031 C 
ATOM     67  C   UNL A   1      43.007  28.510  33.786  1.00  0.00     0.037 A 
BRANCH  54  68
ATOM     68  C   UNL A   1      39.434  32.812  36.409  1.00  0.00     0.064 A 
ATOM     69  C   UNL A   1      40.096  34.031  36.610  1.00  0.00     0.173 A 
ATOM     70  C   UNL A   1      38.454  32.436  37.340  1.00  0.00     0.173 A 
ATOM     71  F   UNL A   1      41.052  34.430  35.757  1.00  0.00    -0.203 F 
ATOM     72  C   UNL A   1      39.801  34.834  37.709  1.00  0.00     0.198 A 
ATOM     73  C   UNL A   1      38.140  33.255  38.422  1.00  0.00     0.198 A 
ATOM     74  F   UNL A   1      37.787  31.281  37.194  1.00  0.00    -0.203 F 
ATOM     75  F   UNL A   1      40.473  35.978  37.902  1.00  0.00    -0.200 F 
ATOM     76  C   UNL A   1      38.817  34.450  38.609  1.00  0.00     0.200 A 
ATOM     77  F   UNL A   1      37.180  32.888  39.281  1.00  0.00    -0.200 F 
ATOM     78  F   UNL A   1      38.524  35.230  39.658  1.00  0.00    -0.200 F 
ENDBRANCH  54  68
BRANCH  55  79
ATOM     79  C   UNL A   1      41.107  27.414  28.134  1.00  0.00     0.064 A 
ATOM     80  C   UNL A   1      41.900  27.944  27.108  1.00  0.00     0.173 A 
ATOM     81  C   UNL A   1      40.567  26.132  27.942  1.00  0.00     0.173 A 
ATOM     82  F   UNL A   1      42.419  29.175  27.231  1.00  0.00    -0.203 F 
ATOM     83  C   UNL A   1      42.123  27.236  25.929  1.00  0.00     0.198 A 
ATOM     84  C   UNL A   1      40.818  25.411  26.776  1.00  0.00     0.198 A 
ATOM     85  F   UNL A   1      39.797  25.578  28.889  1.00  0.00    -0.203 F 
ATOM     86  F   UNL A   1      42.839  27.791  24.941  1.00  0.00    -0.200 F 
ATOM     87  C   UNL A   1      41.587  25.968  25.765  1.00  0.00     0.200 A 
ATOM     88  F   UNL A   1      40.307  24.181  26.629  1.00  0.00    -0.200 F 
ATOM     89  F   UNL A   1      41.800  25.287  24.632  1.00  0.00    -0.200 F 
ENDBRANCH  55  79
BRANCH  67  90
ATOM     90  C   UNL A   1      44.210  27.821  34.363  1.00  0.00     0.064 A 
ATOM     91  C   UNL A   1      45.485  28.399  34.303  1.00  0.00     0.173 A 
ATOM     92  C   UNL A   1      44.075  26.590  35.023  1.00  0.00     0.173 A 
ATOM     93  F   UNL A   1      45.668  29.567  33.669  1.00  0.00    -0.203 F 
ATOM     94  C   UNL A   1      46.589  27.757  34.859  1.00  0.00     0.198 A 
ATOM     95  C   UNL A   1      45.175  25.968  35.609  1.00  0.00     0.198 A 
ATOM     96  F   UNL A   1      42.875  25.999  35.116  1.00  0.00    -0.203 F 
ATOM     97  F   UNL A   1      47.807  28.304  34.746  1.00  0.00    -0.200 F 
ATOM     98  C   UNL A   1      46.431  26.548  35.520  1.00  0.00     0.200 A 
ATOM     99  F   UNL A   1      45.017  24.808  36.262  1.00  0.00    -0.200 F 
ATOM    100  F   UNL A   1      47.492  25.938  36.065  1.00  0.00    -0.200 F 
ENDBRANCH  67  90
ENDBRANCH  41  42
ENDBRANCH  34  36
ENDBRANCH  33  34
ENDBRANCH  32  33
ENDBRANCH  31  32
ENDBRANCH  30  31
ENDBRANCH   1  30
TORSDOF 18
ENDMDL
