MODEL 1
REMARK VINA RESULT:     -12.9      0.000      0.000
REMARK SMILES Cc1cc(C(=O)OCCOCCOC(=O)c2ccc(-c3c4nc(c(-c5c(F)c(F)c(F)c(F)c5F)c5ccc([nH]5)c(-c5c(F)c(F)c(F)c(F)c5F)c5nc(c(-c6c(F)c(F)c(F)c(F)c6F)c6ccc3[nH]6)C=C5)C=C4)cc2)ccc1NC(=O)N1C[C@@H](C)[C@H](C)C1
REMARK SMILES IDX 11 1 10 2 9 3 8 4 7 5 5 6 6 7 4 8 1 9 2 10 3 11 81 12 80 13
REMARK SMILES IDX 79 14 82 15 83 16 84 18 85 19 86 20 91 21 87 22 89 23 88 24
REMARK SMILES IDX 90 25 12 26 13 27 14 28 15 29 16 30 17 31 78 32 18 33 77 34
REMARK SMILES IDX 19 35 20 36 21 37 71 38 22 39 76 40 70 41 72 42 23 43 75 44
REMARK SMILES IDX 69 45 68 46 24 48 56 49 36 50 55 51 37 52 40 53 54 54 73 55
REMARK SMILES IDX 38 56 39 57 53 59 74 60 41 61 25 62 26 63 34 64 27 65 28 66
REMARK SMILES IDX 32 67 35 68 29 69 30 70 33 71 31 72 57 73 58 74 66 75 59 76
REMARK SMILES IDX 60 77 64 78 67 79 61 80 62 81 65 82 63 83 42 84 43 85 51 86
REMARK SMILES IDX 44 87 45 88 49 89 52 90 46 91 47 92 50 93 48 94
REMARK H PARENT 82 17 72 47 40 58
REMARK Flexibility Score: inf
ROOT
ATOM      1  C   UNL A   1      33.299  35.319  28.783  1.00  0.00     0.202 C 
ENDROOT
BRANCH   1   2
ATOM      2  O   UNL A   1      32.552  34.206  28.335  1.00  0.00    -0.374 OA
BRANCH   2   3
ATOM      3  C   UNL A   1      33.310  33.082  27.926  1.00  0.00     0.202 C 
BRANCH   3   4
ATOM      4  C   UNL A   1      32.328  32.142  27.294  1.00  0.00     0.261 C 
BRANCH   4   5
ATOM      5  O   UNL A   1      32.939  30.991  26.684  1.00  0.00    -0.460 OA
BRANCH   5   6
ATOM      6  C   UNL A   1      32.236  29.822  26.631  1.00  0.00     0.338 C 
ATOM      7  O   UNL A   1      31.779  29.188  27.556  1.00  0.00    -0.246 OA
BRANCH   6   8
ATOM      8  C   UNL A   1      32.229  29.416  25.214  1.00  0.00     0.060 A 
ATOM      9  C   UNL A   1      29.825  28.912  22.349  1.00  0.00     0.046 C 
ATOM     10  C   UNL A   1      31.067  28.787  23.184  1.00  0.00    -0.027 A 
ATOM     11  C   UNL A   1      31.048  29.349  24.476  1.00  0.00     0.021 A 
ATOM     12  C   UNL A   1      32.270  28.222  22.725  1.00  0.00     0.045 A 
ATOM     13  C   UNL A   1      33.460  28.578  23.346  1.00  0.00     0.027 A 
ATOM     14  C   UNL A   1      33.444  29.123  24.603  1.00  0.00     0.018 A 
BRANCH  12  15
ATOM     15  N   UNL A   1      32.315  27.265  21.698  1.00  0.00    -0.308 N 
ATOM     16  C   UNL A   1      32.807  25.982  21.762  1.00  0.00     0.321 C 
ATOM     17  H   UNL A   1      31.950  27.545  20.828  1.00  0.00     0.171 HD
ATOM     18  O   UNL A   1      33.231  25.455  20.733  1.00  0.00    -0.248 OA
ATOM     19  N   UNL A   1      32.827  25.333  22.978  1.00  0.00    -0.324 N 
ATOM     20  C   UNL A   1      33.906  24.432  23.332  1.00  0.00     0.125 C 
ATOM     21  C   UNL A   1      31.669  25.141  23.854  1.00  0.00     0.125 C 
ATOM     22  C   UNL A   1      33.270  23.372  24.223  1.00  0.00     0.010 C 
ATOM     23  C   UNL A   1      32.126  24.131  24.920  1.00  0.00     0.010 C 
ATOM     24  C   UNL A   1      34.266  22.755  25.196  1.00  0.00     0.010 C 
ATOM     25  C   UNL A   1      31.010  23.206  25.401  1.00  0.00     0.010 C 
ENDBRANCH  12  15
ENDBRANCH   6   8
ENDBRANCH   5   6
ENDBRANCH   4   5
ENDBRANCH   3   4
ENDBRANCH   2   3
ENDBRANCH   1   2
BRANCH   1  26
ATOM     26  C   UNL A   1      32.931  35.724  30.216  1.00  0.00     0.261 C 
BRANCH  26  27
ATOM     27  O   UNL A   1      33.205  34.622  31.109  1.00  0.00    -0.460 OA
BRANCH  27  28
ATOM     28  C   UNL A   1      34.381  34.677  31.794  1.00  0.00     0.338 C 
ATOM     29  O   UNL A   1      34.803  35.652  32.395  1.00  0.00    -0.246 OA
BRANCH  28  30
ATOM     30  C   UNL A   1      35.220  33.486  31.458  1.00  0.00     0.060 A 
ATOM     31  C   UNL A   1      35.125  32.310  32.231  1.00  0.00     0.016 A 
ATOM     32  C   UNL A   1      36.311  33.668  30.613  1.00  0.00     0.016 A 
ATOM     33  C   UNL A   1      36.197  31.400  32.276  1.00  0.00     0.010 A 
ATOM     34  C   UNL A   1      37.398  32.830  30.742  1.00  0.00     0.010 A 
ATOM     35  C   UNL A   1      37.373  31.712  31.595  1.00  0.00    -0.014 A 
BRANCH  35  36
ATOM     36  C   UNL A   1      38.681  31.067  31.761  1.00  0.00     0.031 A 
ATOM     37  C   UNL A   1      38.988  29.888  30.916  1.00  0.00     0.074 A 
ATOM     38  C   UNL A   1      39.702  31.718  32.379  1.00  0.00     0.049 A 
ATOM     39  N   UNL A   1      40.085  29.223  30.997  1.00  0.00    -0.248 NA
ATOM     40  C   UNL A   1      38.073  29.318  29.926  1.00  0.00     0.031 C 
ATOM     41  C   UNL A   1      41.142  31.596  32.119  1.00  0.00     0.029 A 
ATOM     42  N   UNL A   1      39.663  32.712  33.368  1.00  0.00    -0.354 N 
ATOM     43  C   UNL A   1      40.181  28.423  29.887  1.00  0.00     0.074 A 
ATOM     44  C   UNL A   1      38.851  28.403  29.337  1.00  0.00     0.031 C 
ATOM     45  C   UNL A   1      41.836  32.224  33.084  1.00  0.00     0.029 A 
ATOM     46  C   UNL A   1      40.878  32.675  34.076  1.00  0.00     0.049 A 
ATOM     47  H   UNL A   1      38.914  33.328  33.539  1.00  0.00     0.167 HD
ATOM     48  C   UNL A   1      41.421  27.989  29.525  1.00  0.00     0.037 A 
ATOM     49  C   UNL A   1      40.898  32.448  35.415  1.00  0.00     0.037 A 
ATOM     50  C   UNL A   1      42.399  28.312  30.579  1.00  0.00     0.049 A 
ATOM     51  C   UNL A   1      41.568  31.128  35.639  1.00  0.00     0.074 A 
ATOM     52  C   UNL A   1      43.455  29.202  30.671  1.00  0.00     0.029 A 
ATOM     53  N   UNL A   1      42.146  27.874  31.883  1.00  0.00    -0.354 N 
ATOM     54  N   UNL A   1      41.623  30.219  34.702  1.00  0.00    -0.248 NA
ATOM     55  C   UNL A   1      42.333  30.764  36.825  1.00  0.00     0.031 C 
ATOM     56  C   UNL A   1      43.761  29.366  32.057  1.00  0.00     0.029 A 
ATOM     57  C   UNL A   1      42.926  28.545  32.805  1.00  0.00     0.049 A 
ATOM     58  H   UNL A   1      41.493  27.176  32.115  1.00  0.00     0.167 HD
ATOM     59  C   UNL A   1      42.489  29.244  35.072  1.00  0.00     0.074 A 
ATOM     60  C   UNL A   1      42.866  29.591  36.433  1.00  0.00     0.031 C 
ATOM     61  C   UNL A   1      42.845  28.234  34.232  1.00  0.00     0.037 A 
BRANCH  48  62
ATOM     62  C   UNL A   1      41.803  27.397  28.180  1.00  0.00     0.064 A 
ATOM     63  C   UNL A   1      42.243  26.056  28.098  1.00  0.00     0.173 A 
ATOM     64  C   UNL A   1      41.839  28.094  26.952  1.00  0.00     0.173 A 
ATOM     65  F   UNL A   1      42.293  25.276  29.188  1.00  0.00    -0.203 F 
ATOM     66  C   UNL A   1      42.661  25.468  26.898  1.00  0.00     0.198 A 
ATOM     67  C   UNL A   1      42.207  27.490  25.744  1.00  0.00     0.198 A 
ATOM     68  F   UNL A   1      41.582  29.402  26.863  1.00  0.00    -0.203 F 
ATOM     69  F   UNL A   1      43.106  24.203  26.896  1.00  0.00    -0.200 F 
ATOM     70  C   UNL A   1      42.624  26.178  25.716  1.00  0.00     0.200 A 
ATOM     71  F   UNL A   1      42.172  28.204  24.608  1.00  0.00    -0.200 F 
ATOM     72  F   UNL A   1      43.008  25.613  24.564  1.00  0.00    -0.200 F 
ENDBRANCH  48  62
BRANCH  49  73
ATOM     73  C   UNL A   1      39.729  33.078  36.093  1.00  0.00     0.064 A 
ATOM     74  C   UNL A   1      38.736  32.188  36.565  1.00  0.00     0.173 A 
ATOM     75  C   UNL A   1      39.831  34.320  36.740  1.00  0.00     0.173 A 
ATOM     76  F   UNL A   1      38.610  30.973  36.008  1.00  0.00    -0.203 F 
ATOM     77  C   UNL A   1      37.995  32.461  37.716  1.00  0.00     0.198 A 
ATOM     78  C   UNL A   1      39.088  34.586  37.899  1.00  0.00     0.198 A 
ATOM     79  F   UNL A   1      40.757  35.209  36.356  1.00  0.00    -0.203 F 
ATOM     80  F   UNL A   1      37.193  31.519  38.235  1.00  0.00    -0.200 F 
ATOM     81  C   UNL A   1      38.204  33.642  38.406  1.00  0.00     0.200 A 
ATOM     82  F   UNL A   1      39.311  35.711  38.594  1.00  0.00    -0.200 F 
ATOM     83  F   UNL A   1      37.620  33.832  39.598  1.00  0.00    -0.200 F 
ENDBRANCH  49  73
BRANCH  61  84
ATOM     84  C   UNL A   1      43.200  26.869  34.740  1.00  0.00     0.064 A 
ATOM     85  C   UNL A   1      42.230  25.902  35.062  1.00  0.00     0.173 A 
ATOM     86  C   UNL A   1      44.537  26.419  34.729  1.00  0.00     0.173 A 
ATOM     87  F   UNL A   1      40.917  26.159  34.967  1.00  0.00    -0.203 F 
ATOM     88  C   UNL A   1      42.576  24.608  35.437  1.00  0.00     0.198 A 
ATOM     89  C   UNL A   1      44.873  25.103  35.031  1.00  0.00     0.198 A 
ATOM     90  F   UNL A   1      45.551  27.226  34.387  1.00  0.00    -0.203 F 
ATOM     91  F   UNL A   1      41.615  23.744  35.793  1.00  0.00    -0.200 F 
ATOM     92  C   UNL A   1      43.896  24.205  35.411  1.00  0.00     0.200 A 
ATOM     93  F   UNL A   1      46.147  24.704  34.927  1.00  0.00    -0.200 F 
ATOM     94  F   UNL A   1      44.222  22.946  35.727  1.00  0.00    -0.200 F 
ENDBRANCH  61  84
ENDBRANCH  35  36
ENDBRANCH  28  30
ENDBRANCH  27  28
ENDBRANCH  26  27
ENDBRANCH   1  26
TORSDOF 15
ENDMDL
MODEL 2
REMARK VINA RESULT:     -12.7      5.292     11.374
REMARK SMILES Cc1cc(C(=O)OCCOCCOC(=O)c2ccc(-c3c4nc(c(-c5c(F)c(F)c(F)c(F)c5F)c5ccc([nH]5)c(-c5c(F)c(F)c(F)c(F)c5F)c5nc(c(-c6c(F)c(F)c(F)c(F)c6F)c6ccc3[nH]6)C=C5)C=C4)cc2)ccc1NC(=O)N1C[C@@H](C)[C@H](C)C1
REMARK SMILES IDX 11 1 10 2 9 3 8 4 7 5 5 6 6 7 4 8 1 9 2 10 3 11 81 12 80 13
REMARK SMILES IDX 79 14 82 15 83 16 84 18 85 19 86 20 91 21 87 22 89 23 88 24
REMARK SMILES IDX 90 25 12 26 13 27 14 28 15 29 16 30 17 31 78 32 18 33 77 34
REMARK SMILES IDX 19 35 20 36 21 37 71 38 22 39 76 40 70 41 72 42 23 43 75 44
REMARK SMILES IDX 69 45 68 46 24 48 56 49 36 50 55 51 37 52 40 53 54 54 73 55
REMARK SMILES IDX 38 56 39 57 53 59 74 60 41 61 25 62 26 63 34 64 27 65 28 66
REMARK SMILES IDX 32 67 35 68 29 69 30 70 33 71 31 72 57 73 58 74 66 75 59 76
REMARK SMILES IDX 60 77 64 78 67 79 61 80 62 81 65 82 63 83 42 84 43 85 51 86
REMARK SMILES IDX 44 87 45 88 49 89 52 90 46 91 47 92 50 93 48 94
REMARK H PARENT 82 17 72 47 40 58
REMARK Flexibility Score: inf
ROOT
ATOM      1  C   UNL A   1      42.655  18.769  26.179  1.00  0.00     0.202 C 
ENDROOT
BRANCH   1   2
ATOM      2  O   UNL A   1      41.621  19.539  25.601  1.00  0.00    -0.374 OA
BRANCH   2   3
ATOM      3  C   UNL A   1      40.693  20.103  26.509  1.00  0.00     0.202 C 
BRANCH   3   4
ATOM      4  C   UNL A   1      40.170  21.337  25.836  1.00  0.00     0.261 C 
BRANCH   4   5
ATOM      5  O   UNL A   1      38.753  21.527  25.999  1.00  0.00    -0.460 OA
BRANCH   5   6
ATOM      6  C   UNL A   1      37.897  20.788  25.237  1.00  0.00     0.338 C 
ATOM      7  O   UNL A   1      38.111  19.725  24.697  1.00  0.00    -0.246 OA
BRANCH   6   8
ATOM      8  C   UNL A   1      36.671  21.595  25.104  1.00  0.00     0.060 A 
ATOM      9  C   UNL A   1      33.434  22.279  26.920  1.00  0.00     0.046 C 
ATOM     10  C   UNL A   1      34.427  22.191  25.797  1.00  0.00    -0.027 A 
ATOM     11  C   UNL A   1      35.651  21.543  26.054  1.00  0.00     0.021 A 
ATOM     12  C   UNL A   1      34.247  22.789  24.538  1.00  0.00     0.045 A 
ATOM     13  C   UNL A   1      35.363  23.079  23.765  1.00  0.00     0.027 A 
ATOM     14  C   UNL A   1      36.554  22.448  24.012  1.00  0.00     0.018 A 
BRANCH  12  15
ATOM     15  N   UNL A   1      32.976  23.055  24.000  1.00  0.00    -0.308 N 
ATOM     16  C   UNL A   1      32.061  23.991  24.423  1.00  0.00     0.321 C 
ATOM     17  H   UNL A   1      32.708  22.506  23.230  1.00  0.00     0.171 HD
ATOM     18  O   UNL A   1      30.865  23.793  24.213  1.00  0.00    -0.248 OA
ATOM     19  N   UNL A   1      32.511  25.115  25.083  1.00  0.00    -0.324 N 
ATOM     20  C   UNL A   1      31.747  25.707  26.164  1.00  0.00     0.125 C 
ATOM     21  C   UNL A   1      33.523  26.045  24.579  1.00  0.00     0.125 C 
ATOM     22  C   UNL A   1      32.036  27.202  26.089  1.00  0.00     0.010 C 
ATOM     23  C   UNL A   1      33.466  27.261  25.519  1.00  0.00     0.010 C 
ATOM     24  C   UNL A   1      31.896  27.891  27.440  1.00  0.00     0.010 C 
ATOM     25  C   UNL A   1      33.768  28.586  24.821  1.00  0.00     0.010 C 
ENDBRANCH  12  15
ENDBRANCH   6   8
ENDBRANCH   5   6
ENDBRANCH   4   5
ENDBRANCH   3   4
ENDBRANCH   2   3
ENDBRANCH   1   2
BRANCH   1  26
ATOM     26  C   UNL A   1      43.936  18.792  25.336  1.00  0.00     0.261 C 
BRANCH  26  27
ATOM     27  O   UNL A   1      44.002  20.035  24.602  1.00  0.00    -0.460 OA
BRANCH  27  28
ATOM     28  C   UNL A   1      44.892  20.960  25.058  1.00  0.00     0.338 C 
ATOM     29  O   UNL A   1      46.026  20.719  25.442  1.00  0.00    -0.246 OA
BRANCH  28  30
ATOM     30  C   UNL A   1      44.193  22.258  25.306  1.00  0.00     0.060 A 
ATOM     31  C   UNL A   1      44.405  23.354  24.445  1.00  0.00     0.016 A 
ATOM     32  C   UNL A   1      43.620  22.466  26.557  1.00  0.00     0.016 A 
ATOM     33  C   UNL A   1      44.190  24.668  24.900  1.00  0.00     0.010 A 
ATOM     34  C   UNL A   1      43.513  23.755  27.033  1.00  0.00     0.010 A 
ATOM     35  C   UNL A   1      43.827  24.867  26.232  1.00  0.00    -0.014 A 
BRANCH  35  36
ATOM     36  C   UNL A   1      43.856  26.137  26.969  1.00  0.00     0.031 A 
ATOM     37  C   UNL A   1      42.584  26.884  27.119  1.00  0.00     0.074 A 
ATOM     38  C   UNL A   1      44.899  26.439  27.786  1.00  0.00     0.049 A 
ATOM     39  N   UNL A   1      42.494  28.019  27.714  1.00  0.00    -0.248 NA
ATOM     40  C   UNL A   1      41.296  26.444  26.579  1.00  0.00     0.031 C 
ATOM     41  C   UNL A   1      44.879  27.236  29.020  1.00  0.00     0.029 A 
ATOM     42  N   UNL A   1      46.239  26.032  27.718  1.00  0.00    -0.354 N 
ATOM     43  C   UNL A   1      41.168  28.269  27.956  1.00  0.00     0.074 A 
ATOM     44  C   UNL A   1      40.463  27.348  27.105  1.00  0.00     0.031 C 
ATOM     45  C   UNL A   1      46.137  27.501  29.414  1.00  0.00     0.029 A 
ATOM     46  C   UNL A   1      47.023  26.990  28.386  1.00  0.00     0.049 A 
ATOM     47  H   UNL A   1      46.573  25.217  27.279  1.00  0.00     0.167 HD
ATOM     48  C   UNL A   1      40.862  29.151  28.948  1.00  0.00     0.037 A 
ATOM     49  C   UNL A   1      48.012  27.657  27.735  1.00  0.00     0.037 A 
ATOM     50  C   UNL A   1      42.082  29.834  29.415  1.00  0.00     0.049 A 
ATOM     51  C   UNL A   1      47.614  29.098  27.663  1.00  0.00     0.074 A 
ATOM     52  C   UNL A   1      42.823  29.788  30.582  1.00  0.00     0.029 A 
ATOM     53  N   UNL A   1      42.879  30.494  28.475  1.00  0.00    -0.354 N 
ATOM     54  N   UNL A   1      46.365  29.470  27.756  1.00  0.00    -0.248 NA
ATOM     55  C   UNL A   1      48.538  30.224  27.630  1.00  0.00     0.031 C 
ATOM     56  C   UNL A   1      44.111  30.336  30.298  1.00  0.00     0.029 A 
ATOM     57  C   UNL A   1      44.140  30.759  28.975  1.00  0.00     0.049 A 
ATOM     58  H   UNL A   1      42.580  30.739  27.571  1.00  0.00     0.167 HD
ATOM     59  C   UNL A   1      46.307  30.814  27.916  1.00  0.00     0.074 A 
ATOM     60  C   UNL A   1      47.685  31.257  27.771  1.00  0.00     0.031 C 
ATOM     61  C   UNL A   1      45.138  31.463  28.170  1.00  0.00     0.037 A 
BRANCH  48  62
ATOM     62  C   UNL A   1      39.504  29.319  29.607  1.00  0.00     0.064 A 
ATOM     63  C   UNL A   1      39.266  28.768  30.886  1.00  0.00     0.173 A 
ATOM     64  C   UNL A   1      38.373  29.934  29.024  1.00  0.00     0.173 A 
ATOM     65  F   UNL A   1      40.236  28.125  31.554  1.00  0.00    -0.203 F 
ATOM     66  C   UNL A   1      38.021  28.841  31.525  1.00  0.00     0.198 A 
ATOM     67  C   UNL A   1      37.145  30.053  29.684  1.00  0.00     0.198 A 
ATOM     68  F   UNL A   1      38.377  30.395  27.770  1.00  0.00    -0.203 F 
ATOM     69  F   UNL A   1      37.851  28.260  32.721  1.00  0.00    -0.200 F 
ATOM     70  C   UNL A   1      36.966  29.502  30.932  1.00  0.00     0.200 A 
ATOM     71  F   UNL A   1      36.128  30.692  29.083  1.00  0.00    -0.200 F 
ATOM     72  F   UNL A   1      35.779  29.588  31.547  1.00  0.00    -0.200 F 
ENDBRANCH  48  62
BRANCH  49  73
ATOM     73  C   UNL A   1      48.698  26.782  26.741  1.00  0.00     0.064 A 
ATOM     74  C   UNL A   1      48.487  27.110  25.381  1.00  0.00     0.173 A 
ATOM     75  C   UNL A   1      49.881  26.093  27.053  1.00  0.00     0.173 A 
ATOM     76  F   UNL A   1      47.390  27.797  25.023  1.00  0.00    -0.203 F 
ATOM     77  C   UNL A   1      49.473  26.901  24.416  1.00  0.00     0.198 A 
ATOM     78  C   UNL A   1      50.869  25.891  26.081  1.00  0.00     0.198 A 
ATOM     79  F   UNL A   1      50.154  25.760  28.322  1.00  0.00    -0.203 F 
ATOM     80  F   UNL A   1      49.309  27.387  23.176  1.00  0.00    -0.200 F 
ATOM     81  C   UNL A   1      50.681  26.331  24.777  1.00  0.00     0.200 A 
ATOM     82  F   UNL A   1      52.056  25.373  26.429  1.00  0.00    -0.200 F 
ATOM     83  F   UNL A   1      51.689  26.283  23.893  1.00  0.00    -0.200 F 
ENDBRANCH  49  73
BRANCH  61  84
ATOM     84  C   UNL A   1      44.893  32.868  27.703  1.00  0.00     0.064 A 
ATOM     85  C   UNL A   1      44.220  33.162  26.503  1.00  0.00     0.173 A 
ATOM     86  C   UNL A   1      45.153  33.966  28.549  1.00  0.00     0.173 A 
ATOM     87  F   UNL A   1      43.786  32.196  25.680  1.00  0.00    -0.203 F 
ATOM     88  C   UNL A   1      43.914  34.467  26.132  1.00  0.00     0.198 A 
ATOM     89  C   UNL A   1      44.775  35.262  28.209  1.00  0.00     0.198 A 
ATOM     90  F   UNL A   1      45.738  33.814  29.745  1.00  0.00    -0.203 F 
ATOM     91  F   UNL A   1      43.327  34.697  24.950  1.00  0.00    -0.200 F 
ATOM     92  C   UNL A   1      44.181  35.516  26.989  1.00  0.00     0.200 A 
ATOM     93  F   UNL A   1      44.969  36.258  29.082  1.00  0.00    -0.200 F 
ATOM     94  F   UNL A   1      43.842  36.765  26.650  1.00  0.00    -0.200 F 
ENDBRANCH  61  84
ENDBRANCH  35  36
ENDBRANCH  28  30
ENDBRANCH  27  28
ENDBRANCH  26  27
ENDBRANCH   1  26
TORSDOF 15
ENDMDL
MODEL 3
REMARK VINA RESULT:     -12.5      4.866     11.177
REMARK SMILES Cc1cc(C(=O)OCCOCCOC(=O)c2ccc(-c3c4nc(c(-c5c(F)c(F)c(F)c(F)c5F)c5ccc([nH]5)c(-c5c(F)c(F)c(F)c(F)c5F)c5nc(c(-c6c(F)c(F)c(F)c(F)c6F)c6ccc3[nH]6)C=C5)C=C4)cc2)ccc1NC(=O)N1C[C@@H](C)[C@H](C)C1
REMARK SMILES IDX 11 1 10 2 9 3 8 4 7 5 5 6 6 7 4 8 1 9 2 10 3 11 81 12 80 13
REMARK SMILES IDX 79 14 82 15 83 16 84 18 85 19 86 20 91 21 87 22 89 23 88 24
REMARK SMILES IDX 90 25 12 26 13 27 14 28 15 29 16 30 17 31 78 32 18 33 77 34
REMARK SMILES IDX 19 35 20 36 21 37 71 38 22 39 76 40 70 41 72 42 23 43 75 44
REMARK SMILES IDX 69 45 68 46 24 48 56 49 36 50 55 51 37 52 40 53 54 54 73 55
REMARK SMILES IDX 38 56 39 57 53 59 74 60 41 61 25 62 26 63 34 64 27 65 28 66
REMARK SMILES IDX 32 67 35 68 29 69 30 70 33 71 31 72 57 73 58 74 66 75 59 76
REMARK SMILES IDX 60 77 64 78 67 79 61 80 62 81 65 82 63 83 42 84 43 85 51 86
REMARK SMILES IDX 44 87 45 88 49 89 52 90 46 91 47 92 50 93 48 94
REMARK H PARENT 82 17 72 47 40 58
REMARK Flexibility Score: inf
ROOT
ATOM      1  C   UNL A   1      40.978  19.703  26.054  1.00  0.00     0.202 C 
ENDROOT
BRANCH   1   2
ATOM      2  O   UNL A   1      40.313  20.646  26.869  1.00  0.00    -0.374 OA
BRANCH   2   3
ATOM      3  C   UNL A   1      39.866  21.818  26.213  1.00  0.00     0.202 C 
BRANCH   3   4
ATOM      4  C   UNL A   1      38.472  21.514  25.751  1.00  0.00     0.261 C 
BRANCH   4   5
ATOM      5  O   UNL A   1      37.659  22.685  25.555  1.00  0.00    -0.460 OA
BRANCH   5   6
ATOM      6  C   UNL A   1      36.729  22.682  24.557  1.00  0.00     0.338 C 
ATOM      7  O   UNL A   1      36.880  23.007  23.400  1.00  0.00    -0.246 OA
BRANCH   6   8
ATOM      8  C   UNL A   1      35.454  22.302  25.190  1.00  0.00     0.060 A 
ATOM      9  C   UNL A   1      32.527  19.978  24.661  1.00  0.00     0.046 C 
ATOM     10  C   UNL A   1      33.326  21.145  25.167  1.00  0.00    -0.027 A 
ATOM     11  C   UNL A   1      34.610  21.346  24.625  1.00  0.00     0.021 A 
ATOM     12  C   UNL A   1      32.906  21.993  26.207  1.00  0.00     0.045 A 
ATOM     13  C   UNL A   1      33.861  22.701  26.925  1.00  0.00     0.027 A 
ATOM     14  C   UNL A   1      35.110  22.899  26.399  1.00  0.00     0.018 A 
BRANCH  12  15
ATOM     15  N   UNL A   1      31.550  22.201  26.515  1.00  0.00    -0.308 N 
ATOM     16  C   UNL A   1      30.860  23.391  26.518  1.00  0.00     0.321 C 
ATOM     17  H   UNL A   1      31.034  21.400  26.758  1.00  0.00     0.171 HD
ATOM     18  O   UNL A   1      29.878  23.507  27.251  1.00  0.00    -0.248 OA
ATOM     19  N   UNL A   1      31.297  24.420  25.712  1.00  0.00    -0.324 N 
ATOM     20  C   UNL A   1      31.203  25.802  26.141  1.00  0.00     0.125 C 
ATOM     21  C   UNL A   1      31.521  24.329  24.268  1.00  0.00     0.125 C 
ATOM     22  C   UNL A   1      30.983  26.606  24.865  1.00  0.00     0.010 C 
ATOM     23  C   UNL A   1      31.715  25.778  23.791  1.00  0.00     0.010 C 
ATOM     24  C   UNL A   1      31.498  28.034  24.980  1.00  0.00     0.010 C 
ATOM     25  C   UNL A   1      31.181  26.034  22.384  1.00  0.00     0.010 C 
ENDBRANCH  12  15
ENDBRANCH   6   8
ENDBRANCH   5   6
ENDBRANCH   4   5
ENDBRANCH   3   4
ENDBRANCH   2   3
ENDBRANCH   1   2
BRANCH   1  26
ATOM     26  C   UNL A   1      42.501  19.751  26.236  1.00  0.00     0.261 C 
BRANCH  26  27
ATOM     27  O   UNL A   1      43.085  20.522  25.163  1.00  0.00    -0.460 OA
BRANCH  27  28
ATOM     28  C   UNL A   1      44.015  21.451  25.522  1.00  0.00     0.338 C 
ATOM     29  O   UNL A   1      45.192  21.219  25.749  1.00  0.00    -0.246 OA
BRANCH  28  30
ATOM     30  C   UNL A   1      43.337  22.730  25.893  1.00  0.00     0.060 A 
ATOM     31  C   UNL A   1      43.252  23.784  24.960  1.00  0.00     0.016 A 
ATOM     32  C   UNL A   1      43.107  22.984  27.242  1.00  0.00     0.016 A 
ATOM     33  C   UNL A   1      43.095  25.111  25.399  1.00  0.00     0.010 A 
ATOM     34  C   UNL A   1      43.060  24.293  27.673  1.00  0.00     0.010 A 
ATOM     35  C   UNL A   1      43.089  25.370  26.769  1.00  0.00    -0.014 A 
BRANCH  35  36
ATOM     36  C   UNL A   1      43.243  26.679  27.416  1.00  0.00     0.031 A 
ATOM     37  C   UNL A   1      42.016  27.445  27.741  1.00  0.00     0.074 A 
ATOM     38  C   UNL A   1      44.412  27.018  28.023  1.00  0.00     0.049 A 
ATOM     39  N   UNL A   1      42.029  28.613  28.275  1.00  0.00    -0.248 NA
ATOM     40  C   UNL A   1      40.655  26.987  27.457  1.00  0.00     0.031 C 
ATOM     41  C   UNL A   1      44.604  27.884  29.194  1.00  0.00     0.029 A 
ATOM     42  N   UNL A   1      45.720  26.596  27.748  1.00  0.00    -0.354 N 
ATOM     43  C   UNL A   1      40.764  28.888  28.728  1.00  0.00     0.074 A 
ATOM     44  C   UNL A   1      39.923  27.926  28.066  1.00  0.00     0.031 C 
ATOM     45  C   UNL A   1      45.911  28.159  29.349  1.00  0.00     0.029 A 
ATOM     46  C   UNL A   1      46.607  27.584  28.215  1.00  0.00     0.049 A 
ATOM     47  H   UNL A   1      45.974  25.754  27.306  1.00  0.00     0.167 HD
ATOM     48  C   UNL A   1      40.633  29.828  29.706  1.00  0.00     0.037 A 
ATOM     49  C   UNL A   1      47.468  28.203  27.366  1.00  0.00     0.037 A 
ATOM     50  C   UNL A   1      41.914  30.525  29.916  1.00  0.00     0.049 A 
ATOM     51  C   UNL A   1      47.062  29.642  27.281  1.00  0.00     0.074 A 
ATOM     52  C   UNL A   1      42.846  30.538  30.938  1.00  0.00     0.029 A 
ATOM     53  N   UNL A   1      42.537  31.124  28.815  1.00  0.00    -0.354 N 
ATOM     54  N   UNL A   1      45.847  30.029  27.566  1.00  0.00    -0.248 NA
ATOM     55  C   UNL A   1      47.965  30.756  27.025  1.00  0.00     0.031 C 
ATOM     56  C   UNL A   1      44.065  31.059  30.405  1.00  0.00     0.029 A 
ATOM     57  C   UNL A   1      43.865  31.405  29.074  1.00  0.00     0.049 A 
ATOM     58  H   UNL A   1      42.086  31.320  27.964  1.00  0.00     0.167 HD
ATOM     59  C   UNL A   1      45.816  31.381  27.657  1.00  0.00     0.074 A 
ATOM     60  C   UNL A   1      47.148  31.802  27.251  1.00  0.00     0.031 C 
ATOM     61  C   UNL A   1      44.708  32.054  28.071  1.00  0.00     0.037 A 
BRANCH  48  62
ATOM     62  C   UNL A   1      39.409  30.045  30.578  1.00  0.00     0.064 A 
ATOM     63  C   UNL A   1      38.259  30.667  30.040  1.00  0.00     0.173 A 
ATOM     64  C   UNL A   1      39.312  29.745  31.955  1.00  0.00     0.173 A 
ATOM     65  F   UNL A   1      38.212  31.039  28.752  1.00  0.00    -0.203 F 
ATOM     66  C   UNL A   1      37.119  30.945  30.804  1.00  0.00     0.198 A 
ATOM     67  C   UNL A   1      38.153  29.975  32.706  1.00  0.00     0.198 A 
ATOM     68  F   UNL A   1      40.345  29.274  32.659  1.00  0.00    -0.203 F 
ATOM     69  F   UNL A   1      36.078  31.575  30.242  1.00  0.00    -0.200 F 
ATOM     70  C   UNL A   1      37.058  30.581  32.133  1.00  0.00     0.200 A 
ATOM     71  F   UNL A   1      38.120  29.621  34.000  1.00  0.00    -0.200 F 
ATOM     72  F   UNL A   1      35.963  30.830  32.863  1.00  0.00    -0.200 F 
ENDBRANCH  48  62
BRANCH  49  73
ATOM     73  C   UNL A   1      47.973  27.267  26.320  1.00  0.00     0.064 A 
ATOM     74  C   UNL A   1      47.489  27.489  25.010  1.00  0.00     0.173 A 
ATOM     75  C   UNL A   1      49.214  26.623  26.441  1.00  0.00     0.173 A 
ATOM     76  F   UNL A   1      46.323  28.128  24.827  1.00  0.00    -0.203 F 
ATOM     77  C   UNL A   1      48.274  27.223  23.886  1.00  0.00     0.198 A 
ATOM     78  C   UNL A   1      49.999  26.364  25.309  1.00  0.00     0.198 A 
ATOM     79  F   UNL A   1      49.741  26.391  27.651  1.00  0.00    -0.203 F 
ATOM     80  F   UNL A   1      47.856  27.612  22.671  1.00  0.00    -0.200 F 
ATOM     81  C   UNL A   1      49.546  26.702  24.040  1.00  0.00     0.200 A 
ATOM     82  F   UNL A   1      51.247  25.894  25.452  1.00  0.00    -0.200 F 
ATOM     83  F   UNL A   1      50.362  26.605  22.981  1.00  0.00    -0.200 F 
ENDBRANCH  49  73
BRANCH  61  84
ATOM     84  C   UNL A   1      44.385  33.431  27.573  1.00  0.00     0.064 A 
ATOM     85  C   UNL A   1      43.856  33.671  26.292  1.00  0.00     0.173 A 
ATOM     86  C   UNL A   1      44.411  34.540  28.446  1.00  0.00     0.173 A 
ATOM     87  F   UNL A   1      43.641  32.676  25.418  1.00  0.00    -0.203 F 
ATOM     88  C   UNL A   1      43.469  34.942  25.881  1.00  0.00     0.198 A 
ATOM     89  C   UNL A   1      43.951  35.794  28.055  1.00  0.00     0.198 A 
ATOM     90  F   UNL A   1      44.840  34.433  29.710  1.00  0.00    -0.203 F 
ATOM     91  F   UNL A   1      43.028  35.126  24.629  1.00  0.00    -0.200 F 
ATOM     92  C   UNL A   1      43.506  36.001  26.765  1.00  0.00     0.200 A 
ATOM     93  F   UNL A   1      43.919  36.794  28.945  1.00  0.00    -0.200 F 
ATOM     94  F   UNL A   1      43.089  37.213  26.382  1.00  0.00    -0.200 F 
ENDBRANCH  61  84
ENDBRANCH  35  36
ENDBRANCH  28  30
ENDBRANCH  27  28
ENDBRANCH  26  27
ENDBRANCH   1  26
TORSDOF 15
ENDMDL
