MODEL 1
REMARK VINA RESULT:     -11.8      0.000      0.000
REMARK SMILES C/C(=N\Nc1nc(-c2ccc(Cl)cc2)cs1)c1nnn(-c2ccc(C(=O)OCCOCCOC(=O)c3ccc(-c4c5nc(c(-c6c(F)c(F)c(F)c(F)c6F)c6ccc([nH]6)c(-c6c(F)c(F)c(F)c(F)c6F)c6nc(c(-c7c(F)c(F)c(F)c(F)c7F)c7ccc4[nH]7)C=C6)C=C5)cc3)cc2)c1C
REMARK SMILES IDX 28 1 27 2 25 3 26 4 24 5 21 6 22 7 100 8 23 9 99 10 20 11
REMARK SMILES IDX 17 12 18 13 101 14 19 15 102 16 2 17 1 18 3 19 4 20 5 22
REMARK SMILES IDX 6 23 16 24 7 25 15 26 8 27 9 28 14 29 10 30 13 31 11 32
REMARK SMILES IDX 12 33 29 34 30 35 31 36 32 37 33 38 34 39 35 40 36 41 37 42
REMARK SMILES IDX 98 43 38 44 97 45 39 46 40 47 41 48 91 49 42 50 96 51 90 52
REMARK SMILES IDX 92 53 43 54 95 55 89 56 88 57 44 59 76 60 56 61 75 62 57 63
REMARK SMILES IDX 60 64 74 65 93 66 58 67 59 68 73 70 94 71 61 72 45 73 46 74
REMARK SMILES IDX 54 75 47 76 48 77 52 78 55 79 49 80 50 81 53 82 51 83 77 84
REMARK SMILES IDX 78 85 86 86 79 87 80 88 84 89 87 90 81 91 82 92 85 93 83 94
REMARK SMILES IDX 62 95 63 96 71 97 64 98 65 99 69 100 72 101 66 102 67 103
REMARK SMILES IDX 70 104 68 105
REMARK H PARENT 4 21 92 58 60 69
REMARK Flexibility Score: inf
ROOT
ATOM      1  C   UNL A   1      42.051  19.402  25.839  1.00  0.00     0.261 C 
ENDROOT
BRANCH   1   2
ATOM      2  O   UNL A   1      41.370  20.080  26.908  1.00  0.00    -0.460 OA
BRANCH   2   3
ATOM      3  C   UNL A   1      41.155  21.396  26.690  1.00  0.00     0.338 C 
ATOM      4  O   UNL A   1      41.993  22.287  26.667  1.00  0.00    -0.246 OA
BRANCH   3   5
ATOM      5  C   UNL A   1      39.742  21.637  26.342  1.00  0.00     0.060 A 
ATOM      6  C   UNL A   1      37.278  22.101  25.184  1.00  0.00     0.067 A 
ATOM      7  C   UNL A   1      37.757  20.790  25.234  1.00  0.00     0.029 A 
ATOM      8  C   UNL A   1      37.938  23.143  25.852  1.00  0.00     0.029 A 
ATOM      9  C   UNL A   1      39.011  20.568  25.797  1.00  0.00     0.018 A 
ATOM     10  C   UNL A   1      39.177  22.910  26.441  1.00  0.00     0.018 A 
BRANCH   6  11
ATOM     11  N   UNL A   1      36.308  22.419  24.211  1.00  0.00    -0.217 N 
ATOM     12  C   UNL A   1      34.495  23.194  23.283  1.00  0.00     0.132 A 
ATOM     13  N   UNL A   1      35.508  23.230  22.363  1.00  0.00    -0.128 NA
ATOM     14  C   UNL A   1      34.974  22.678  24.475  1.00  0.00     0.071 A 
ATOM     15  N   UNL A   1      36.627  22.845  22.969  1.00  0.00    -0.061 NA
ATOM     16  C   UNL A   1      34.340  22.593  25.819  1.00  0.00     0.069 C 
BRANCH  12  17
ATOM     17  C   UNL A   1      33.171  23.762  23.079  1.00  0.00     0.087 C 
ATOM     18  C   UNL A   1      32.027  22.805  23.300  1.00  0.00     0.071 C 
ATOM     19  N   UNL A   1      33.152  24.991  22.648  1.00  0.00    -0.176 NA
BRANCH  19  20
ATOM     20  N   UNL A   1      32.038  25.663  22.204  1.00  0.00    -0.252 N 
ATOM     21  H   UNL A   1      31.784  25.461  21.274  1.00  0.00     0.193 HD
BRANCH  20  22
ATOM     22  C   UNL A   1      31.225  26.555  22.826  1.00  0.00     0.203 A 
ATOM     23  N   UNL A   1      30.538  27.510  22.248  1.00  0.00    -0.219 NA
ATOM     24  S   UNL A   1      31.058  26.528  24.547  1.00  0.00    -0.103 S 
ATOM     25  C   UNL A   1      30.106  28.432  23.176  1.00  0.00     0.084 A 
ATOM     26  C   UNL A   1      30.300  28.070  24.490  1.00  0.00     0.097 A 
BRANCH  25  27
ATOM     27  C   UNL A   1      29.582  29.706  22.726  1.00  0.00     0.001 A 
ATOM     28  C   UNL A   1      29.352  30.727  23.657  1.00  0.00     0.012 A 
ATOM     29  C   UNL A   1      29.183  29.886  21.393  1.00  0.00     0.012 A 
ATOM     30  C   UNL A   1      28.752  31.925  23.258  1.00  0.00     0.021 A 
ATOM     31  C   UNL A   1      28.570  31.080  20.998  1.00  0.00     0.021 A 
ATOM     32  C   UNL A   1      28.362  32.094  21.932  1.00  0.00     0.041 A 
ATOM     33  Cl  UNL A   1      27.600  33.558  21.445  1.00  0.00    -0.084 Cl
ENDBRANCH  25  27
ENDBRANCH  20  22
ENDBRANCH  19  20
ENDBRANCH  12  17
ENDBRANCH   6  11
ENDBRANCH   3   5
ENDBRANCH   2   3
ENDBRANCH   1   2
BRANCH   1  34
ATOM     34  C   UNL A   1      43.239  18.593  26.355  1.00  0.00     0.202 C 
BRANCH  34  35
ATOM     35  O   UNL A   1      44.159  18.064  25.400  1.00  0.00    -0.374 OA
BRANCH  35  36
ATOM     36  C   UNL A   1      44.735  18.908  24.408  1.00  0.00     0.202 C 
BRANCH  36  37
ATOM     37  C   UNL A   1      45.775  19.929  24.847  1.00  0.00     0.261 C 
BRANCH  37  38
ATOM     38  O   UNL A   1      45.181  21.063  25.457  1.00  0.00    -0.460 OA
BRANCH  38  39
ATOM     39  C   UNL A   1      44.829  22.032  24.589  1.00  0.00     0.338 C 
ATOM     40  O   UNL A   1      44.321  21.891  23.480  1.00  0.00    -0.246 OA
BRANCH  39  41
ATOM     41  C   UNL A   1      45.261  23.326  25.120  1.00  0.00     0.060 A 
ATOM     42  C   UNL A   1      46.014  23.282  26.297  1.00  0.00     0.016 A 
ATOM     43  C   UNL A   1      44.649  24.502  24.665  1.00  0.00     0.016 A 
ATOM     44  C   UNL A   1      45.918  24.340  27.167  1.00  0.00     0.010 A 
ATOM     45  C   UNL A   1      44.534  25.549  25.543  1.00  0.00     0.010 A 
ATOM     46  C   UNL A   1      45.082  25.400  26.818  1.00  0.00    -0.014 A 
BRANCH  46  47
ATOM     47  C   UNL A   1      44.706  26.331  27.857  1.00  0.00     0.031 A 
ATOM     48  C   UNL A   1      45.692  27.399  28.122  1.00  0.00     0.074 A 
ATOM     49  C   UNL A   1      43.471  26.263  28.392  1.00  0.00     0.049 A 
ATOM     50  N   UNL A   1      46.218  27.755  29.247  1.00  0.00    -0.248 NA
ATOM     51  C   UNL A   1      46.232  28.111  26.950  1.00  0.00     0.031 C 
ATOM     52  C   UNL A   1      42.348  25.424  27.952  1.00  0.00     0.029 A 
ATOM     53  N   UNL A   1      42.916  27.031  29.364  1.00  0.00    -0.354 N 
ATOM     54  C   UNL A   1      47.031  28.844  28.946  1.00  0.00     0.074 A 
ATOM     55  C   UNL A   1      47.123  28.919  27.515  1.00  0.00     0.031 C 
ATOM     56  C   UNL A   1      41.204  25.894  28.496  1.00  0.00     0.029 A 
ATOM     57  C   UNL A   1      41.531  26.989  29.393  1.00  0.00     0.049 A 
ATOM     58  H   UNL A   1      43.449  27.570  29.991  1.00  0.00     0.167 HD
ATOM     59  C   UNL A   1      47.372  29.760  29.889  1.00  0.00     0.037 A 
ATOM     60  C   UNL A   1      40.722  27.874  30.022  1.00  0.00     0.037 A 
ATOM     61  C   UNL A   1      47.280  29.219  31.216  1.00  0.00     0.049 A 
ATOM     62  C   UNL A   1      41.554  28.626  31.000  1.00  0.00     0.074 A 
ATOM     63  C   UNL A   1      47.902  28.177  31.877  1.00  0.00     0.029 A 
ATOM     64  N   UNL A   1      46.197  29.553  31.989  1.00  0.00    -0.354 N 
ATOM     65  N   UNL A   1      42.082  28.103  32.072  1.00  0.00    -0.248 NA
ATOM     66  C   UNL A   1      42.159  29.873  30.554  1.00  0.00     0.031 C 
ATOM     67  C   UNL A   1      46.911  27.642  32.750  1.00  0.00     0.029 A 
ATOM     68  C   UNL A   1      45.753  28.401  32.585  1.00  0.00     0.049 A 
ATOM     69  H   UNL A   1      45.809  30.452  32.096  1.00  0.00     0.167 HD
ATOM     70  C   UNL A   1      43.315  28.727  32.205  1.00  0.00     0.074 A 
ATOM     71  C   UNL A   1      43.264  29.872  31.303  1.00  0.00     0.031 C 
ATOM     72  C   UNL A   1      44.360  28.099  32.818  1.00  0.00     0.037 A 
BRANCH  59  73
ATOM     73  C   UNL A   1      47.448  31.237  29.602  1.00  0.00     0.064 A 
ATOM     74  C   UNL A   1      48.609  31.948  29.956  1.00  0.00     0.173 A 
ATOM     75  C   UNL A   1      46.330  32.030  29.258  1.00  0.00     0.173 A 
ATOM     76  F   UNL A   1      49.721  31.295  30.328  1.00  0.00    -0.203 F 
ATOM     77  C   UNL A   1      48.626  33.342  30.023  1.00  0.00     0.198 A 
ATOM     78  C   UNL A   1      46.368  33.422  29.266  1.00  0.00     0.198 A 
ATOM     79  F   UNL A   1      45.126  31.499  29.008  1.00  0.00    -0.203 F 
ATOM     80  F   UNL A   1      49.715  33.971  30.485  1.00  0.00    -0.200 F 
ATOM     81  C   UNL A   1      47.506  34.078  29.680  1.00  0.00     0.200 A 
ATOM     82  F   UNL A   1      45.265  34.113  28.947  1.00  0.00    -0.200 F 
ATOM     83  F   UNL A   1      47.503  35.412  29.799  1.00  0.00    -0.200 F 
ENDBRANCH  59  73
BRANCH  60  84
ATOM     84  C   UNL A   1      39.382  28.335  29.582  1.00  0.00     0.064 A 
ATOM     85  C   UNL A   1      38.327  28.478  30.496  1.00  0.00     0.173 A 
ATOM     86  C   UNL A   1      39.171  28.872  28.295  1.00  0.00     0.173 A 
ATOM     87  F   UNL A   1      38.467  28.046  31.758  1.00  0.00    -0.203 F 
ATOM     88  C   UNL A   1      37.136  29.123  30.144  1.00  0.00     0.198 A 
ATOM     89  C   UNL A   1      37.978  29.500  27.941  1.00  0.00     0.198 A 
ATOM     90  F   UNL A   1      40.152  28.882  27.381  1.00  0.00    -0.203 F 
ATOM     91  F   UNL A   1      36.172  29.291  31.060  1.00  0.00    -0.200 F 
ATOM     92  C   UNL A   1      36.963  29.636  28.869  1.00  0.00     0.200 A 
ATOM     93  F   UNL A   1      37.843  30.024  26.714  1.00  0.00    -0.200 F 
ATOM     94  F   UNL A   1      35.843  30.295  28.546  1.00  0.00    -0.200 F 
ENDBRANCH  60  84
BRANCH  72  95
ATOM     95  C   UNL A   1      44.066  26.827  33.561  1.00  0.00     0.064 A 
ATOM     96  C   UNL A   1      44.130  25.556  32.965  1.00  0.00     0.173 A 
ATOM     97  C   UNL A   1      43.880  26.882  34.948  1.00  0.00     0.173 A 
ATOM     98  F   UNL A   1      44.414  25.421  31.664  1.00  0.00    -0.203 F 
ATOM     99  C   UNL A   1      43.971  24.395  33.718  1.00  0.00     0.198 A 
ATOM    100  C   UNL A   1      43.758  25.718  35.704  1.00  0.00     0.198 A 
ATOM    101  F   UNL A   1      43.877  28.066  35.580  1.00  0.00    -0.203 F 
ATOM    102  F   UNL A   1      44.031  23.195  33.122  1.00  0.00    -0.200 F 
ATOM    103  C   UNL A   1      43.794  24.477  35.088  1.00  0.00     0.200 A 
ATOM    104  F   UNL A   1      43.641  25.799  37.037  1.00  0.00    -0.200 F 
ATOM    105  F   UNL A   1      43.690  23.359  35.820  1.00  0.00    -0.200 F 
ENDBRANCH  72  95
ENDBRANCH  46  47
ENDBRANCH  39  41
ENDBRANCH  38  39
ENDBRANCH  37  38
ENDBRANCH  36  37
ENDBRANCH  35  36
ENDBRANCH  34  35
ENDBRANCH   1  34
TORSDOF 19
ENDMDL
MODEL 2
REMARK VINA RESULT:     -11.7      1.517      2.345
REMARK SMILES C/C(=N\Nc1nc(-c2ccc(Cl)cc2)cs1)c1nnn(-c2ccc(C(=O)OCCOCCOC(=O)c3ccc(-c4c5nc(c(-c6c(F)c(F)c(F)c(F)c6F)c6ccc([nH]6)c(-c6c(F)c(F)c(F)c(F)c6F)c6nc(c(-c7c(F)c(F)c(F)c(F)c7F)c7ccc4[nH]7)C=C6)C=C5)cc3)cc2)c1C
REMARK SMILES IDX 28 1 27 2 25 3 26 4 24 5 21 6 22 7 100 8 23 9 99 10 20 11
REMARK SMILES IDX 17 12 18 13 101 14 19 15 102 16 2 17 1 18 3 19 4 20 5 22
REMARK SMILES IDX 6 23 16 24 7 25 15 26 8 27 9 28 14 29 10 30 13 31 11 32
REMARK SMILES IDX 12 33 29 34 30 35 31 36 32 37 33 38 34 39 35 40 36 41 37 42
REMARK SMILES IDX 98 43 38 44 97 45 39 46 40 47 41 48 91 49 42 50 96 51 90 52
REMARK SMILES IDX 92 53 43 54 95 55 89 56 88 57 44 59 76 60 56 61 75 62 57 63
REMARK SMILES IDX 60 64 74 65 93 66 58 67 59 68 73 70 94 71 61 72 45 73 46 74
REMARK SMILES IDX 54 75 47 76 48 77 52 78 55 79 49 80 50 81 53 82 51 83 77 84
REMARK SMILES IDX 78 85 86 86 79 87 80 88 84 89 87 90 81 91 82 92 85 93 83 94
REMARK SMILES IDX 62 95 63 96 71 97 64 98 65 99 69 100 72 101 66 102 67 103
REMARK SMILES IDX 70 104 68 105
REMARK H PARENT 4 21 92 58 60 69
REMARK Flexibility Score: inf
ROOT
ATOM      1  C   UNL A   1      42.515  18.310  26.311  1.00  0.00     0.261 C 
ENDROOT
BRANCH   1   2
ATOM      2  O   UNL A   1      41.871  19.285  27.146  1.00  0.00    -0.460 OA
BRANCH   2   3
ATOM      3  C   UNL A   1      41.742  20.508  26.583  1.00  0.00     0.338 C 
ATOM      4  O   UNL A   1      42.642  21.263  26.242  1.00  0.00    -0.246 OA
BRANCH   3   5
ATOM      5  C   UNL A   1      40.324  20.795  26.295  1.00  0.00     0.060 A 
ATOM      6  C   UNL A   1      37.840  21.397  25.249  1.00  0.00     0.067 A 
ATOM      7  C   UNL A   1      38.304  20.083  25.156  1.00  0.00     0.029 A 
ATOM      8  C   UNL A   1      38.527  22.360  26.003  1.00  0.00     0.029 A 
ATOM      9  C   UNL A   1      39.568  19.794  25.663  1.00  0.00     0.018 A 
ATOM     10  C   UNL A   1      39.776  22.057  26.535  1.00  0.00     0.018 A 
BRANCH   6  11
ATOM     11  N   UNL A   1      36.851  21.821  24.337  1.00  0.00    -0.217 N 
ATOM     12  C   UNL A   1      34.929  22.440  23.520  1.00  0.00     0.132 A 
ATOM     13  N   UNL A   1      35.925  23.053  22.810  1.00  0.00    -0.128 NA
ATOM     14  C   UNL A   1      35.488  21.642  24.504  1.00  0.00     0.071 A 
ATOM     15  N   UNL A   1      37.086  22.742  23.378  1.00  0.00    -0.061 NA
ATOM     16  C   UNL A   1      34.857  20.915  25.638  1.00  0.00     0.069 C 
BRANCH  12  17
ATOM     17  C   UNL A   1      33.508  22.717  23.365  1.00  0.00     0.087 C 
ATOM     18  C   UNL A   1      32.597  21.551  23.654  1.00  0.00     0.071 C 
ATOM     19  N   UNL A   1      33.218  23.903  22.911  1.00  0.00    -0.176 NA
BRANCH  19  20
ATOM     20  N   UNL A   1      31.972  24.318  22.503  1.00  0.00    -0.252 N 
ATOM     21  H   UNL A   1      31.677  23.936  21.645  1.00  0.00     0.193 HD
BRANCH  20  22
ATOM     22  C   UNL A   1      31.078  25.161  23.080  1.00  0.00     0.203 A 
ATOM     23  N   UNL A   1      30.453  26.150  22.488  1.00  0.00    -0.219 NA
ATOM     24  S   UNL A   1      30.704  25.016  24.763  1.00  0.00    -0.103 S 
ATOM     25  C   UNL A   1      29.900  27.004  23.416  1.00  0.00     0.084 A 
ATOM     26  C   UNL A   1      29.938  26.554  24.718  1.00  0.00     0.097 A 
BRANCH  25  27
ATOM     27  C   UNL A   1      29.417  28.303  22.993  1.00  0.00     0.001 A 
ATOM     28  C   UNL A   1      28.059  28.617  23.136  1.00  0.00     0.012 A 
ATOM     29  C   UNL A   1      30.265  29.200  22.326  1.00  0.00     0.012 A 
ATOM     30  C   UNL A   1      27.557  29.823  22.640  1.00  0.00     0.021 A 
ATOM     31  C   UNL A   1      29.758  30.401  21.819  1.00  0.00     0.021 A 
ATOM     32  C   UNL A   1      28.409  30.708  21.982  1.00  0.00     0.041 A 
ATOM     33  Cl  UNL A   1      27.787  32.182  21.349  1.00  0.00    -0.084 Cl
ENDBRANCH  25  27
ENDBRANCH  20  22
ENDBRANCH  19  20
ENDBRANCH  12  17
ENDBRANCH   6  11
ENDBRANCH   3   5
ENDBRANCH   2   3
ENDBRANCH   1   2
BRANCH   1  34
ATOM     34  C   UNL A   1      43.825  18.842  25.734  1.00  0.00     0.202 C 
BRANCH  34  35
ATOM     35  O   UNL A   1      43.921  19.004  24.319  1.00  0.00    -0.374 OA
BRANCH  35  36
ATOM     36  C   UNL A   1      45.021  19.701  23.744  1.00  0.00     0.202 C 
BRANCH  36  37
ATOM     37  C   UNL A   1      45.531  20.951  24.448  1.00  0.00     0.261 C 
BRANCH  37  38
ATOM     38  O   UNL A   1      45.332  22.118  23.666  1.00  0.00    -0.460 OA
BRANCH  38  39
ATOM     39  C   UNL A   1      45.853  23.237  24.209  1.00  0.00     0.338 C 
ATOM     40  O   UNL A   1      46.903  23.794  23.903  1.00  0.00    -0.246 OA
BRANCH  39  41
ATOM     41  C   UNL A   1      45.020  23.647  25.340  1.00  0.00     0.060 A 
ATOM     42  C   UNL A   1      43.861  24.359  25.019  1.00  0.00     0.016 A 
ATOM     43  C   UNL A   1      45.554  23.629  26.636  1.00  0.00     0.016 A 
ATOM     44  C   UNL A   1      43.396  25.282  25.924  1.00  0.00     0.010 A 
ATOM     45  C   UNL A   1      45.104  24.566  27.530  1.00  0.00     0.010 A 
ATOM     46  C   UNL A   1      44.104  25.445  27.114  1.00  0.00    -0.014 A 
BRANCH  46  47
ATOM     47  C   UNL A   1      43.839  26.630  27.897  1.00  0.00     0.031 A 
ATOM     48  C   UNL A   1      44.809  27.729  27.711  1.00  0.00     0.074 A 
ATOM     49  C   UNL A   1      42.692  26.715  28.600  1.00  0.00     0.049 A 
ATOM     50  N   UNL A   1      45.471  28.385  28.606  1.00  0.00    -0.248 NA
ATOM     51  C   UNL A   1      45.154  28.083  26.323  1.00  0.00     0.031 C 
ATOM     52  C   UNL A   1      41.553  25.788  28.576  1.00  0.00     0.029 A 
ATOM     53  N   UNL A   1      42.247  27.725  29.389  1.00  0.00    -0.354 N 
ATOM     54  C   UNL A   1      46.191  29.345  27.902  1.00  0.00     0.074 A 
ATOM     55  C   UNL A   1      46.083  29.016  26.508  1.00  0.00     0.031 C 
ATOM     56  C   UNL A   1      40.478  26.393  29.126  1.00  0.00     0.029 A 
ATOM     57  C   UNL A   1      40.882  27.695  29.627  1.00  0.00     0.049 A 
ATOM     58  H   UNL A   1      42.840  28.419  29.760  1.00  0.00     0.167 HD
ATOM     59  C   UNL A   1      46.622  30.489  28.494  1.00  0.00     0.037 A 
ATOM     60  C   UNL A   1      40.132  28.722  30.094  1.00  0.00     0.037 A 
ATOM     61  C   UNL A   1      46.735  30.342  29.918  1.00  0.00     0.049 A 
ATOM     62  C   UNL A   1      41.061  29.717  30.696  1.00  0.00     0.074 A 
ATOM     63  C   UNL A   1      47.482  29.526  30.746  1.00  0.00     0.029 A 
ATOM     64  N   UNL A   1      45.756  30.880  30.715  1.00  0.00    -0.354 N 
ATOM     65  N   UNL A   1      41.751  29.515  31.784  1.00  0.00    -0.248 NA
ATOM     66  C   UNL A   1      41.549  30.789  29.839  1.00  0.00     0.031 C 
ATOM     67  C   UNL A   1      46.642  29.258  31.866  1.00  0.00     0.029 A 
ATOM     68  C   UNL A   1      45.444  29.942  31.664  1.00  0.00     0.049 A 
ATOM     69  H   UNL A   1      45.352  31.773  30.622  1.00  0.00     0.167 HD
ATOM     70  C   UNL A   1      42.965  30.150  31.561  1.00  0.00     0.074 A 
ATOM     71  C   UNL A   1      42.746  30.997  30.393  1.00  0.00     0.031 C 
ATOM     72  C   UNL A   1      44.108  29.718  32.169  1.00  0.00     0.037 A 
BRANCH  59  73
ATOM     73  C   UNL A   1      46.601  31.826  27.801  1.00  0.00     0.064 A 
ATOM     74  C   UNL A   1      45.368  32.375  27.403  1.00  0.00     0.173 A 
ATOM     75  C   UNL A   1      47.749  32.450  27.261  1.00  0.00     0.173 A 
ATOM     76  F   UNL A   1      44.214  31.842  27.832  1.00  0.00    -0.203 F 
ATOM     77  C   UNL A   1      45.293  33.425  26.485  1.00  0.00     0.198 A 
ATOM     78  C   UNL A   1      47.672  33.536  26.393  1.00  0.00     0.198 A 
ATOM     79  F   UNL A   1      48.983  31.970  27.458  1.00  0.00    -0.203 F 
ATOM     80  F   UNL A   1      44.098  33.832  26.039  1.00  0.00    -0.200 F 
ATOM     81  C   UNL A   1      46.444  34.003  25.979  1.00  0.00     0.200 A 
ATOM     82  F   UNL A   1      48.800  34.068  25.902  1.00  0.00    -0.200 F 
ATOM     83  F   UNL A   1      46.373  34.970  25.056  1.00  0.00    -0.200 F 
ENDBRANCH  59  73
BRANCH  60  84
ATOM     84  C   UNL A   1      38.728  29.042  29.740  1.00  0.00     0.064 A 
ATOM     85  C   UNL A   1      37.795  29.401  30.724  1.00  0.00     0.173 A 
ATOM     86  C   UNL A   1      38.329  29.232  28.401  1.00  0.00     0.173 A 
ATOM     87  F   UNL A   1      38.115  29.305  32.023  1.00  0.00    -0.203 F 
ATOM     88  C   UNL A   1      36.540  29.924  30.388  1.00  0.00     0.198 A 
ATOM     89  C   UNL A   1      37.074  29.738  28.067  1.00  0.00     0.198 A 
ATOM     90  F   UNL A   1      39.182  29.021  27.388  1.00  0.00    -0.203 F 
ATOM     91  F   UNL A   1      35.696  30.309  31.355  1.00  0.00    -0.200 F 
ATOM     92  C   UNL A   1      36.182  30.094  29.060  1.00  0.00     0.200 A 
ATOM     93  F   UNL A   1      36.757  29.932  26.778  1.00  0.00    -0.200 F 
ATOM     94  F   UNL A   1      35.001  30.639  28.739  1.00  0.00    -0.200 F 
ENDBRANCH  60  84
BRANCH  72  95
ATOM     95  C   UNL A   1      43.970  28.706  33.269  1.00  0.00     0.064 A 
ATOM     96  C   UNL A   1      43.744  29.055  34.611  1.00  0.00     0.173 A 
ATOM     97  C   UNL A   1      43.895  27.348  32.934  1.00  0.00     0.173 A 
ATOM     98  F   UNL A   1      43.690  30.338  34.987  1.00  0.00    -0.203 F 
ATOM     99  C   UNL A   1      43.499  28.084  35.580  1.00  0.00     0.198 A 
ATOM    100  C   UNL A   1      43.614  26.383  33.897  1.00  0.00     0.198 A 
ATOM    101  F   UNL A   1      44.037  26.962  31.656  1.00  0.00    -0.203 F 
ATOM    102  F   UNL A   1      43.292  28.446  36.855  1.00  0.00    -0.200 F 
ATOM    103  C   UNL A   1      43.426  26.750  35.221  1.00  0.00     0.200 A 
ATOM    104  F   UNL A   1      43.490  25.098  33.537  1.00  0.00    -0.200 F 
ATOM    105  F   UNL A   1      43.141  25.820  36.143  1.00  0.00    -0.200 F 
ENDBRANCH  72  95
ENDBRANCH  46  47
ENDBRANCH  39  41
ENDBRANCH  38  39
ENDBRANCH  37  38
ENDBRANCH  36  37
ENDBRANCH  35  36
ENDBRANCH  34  35
ENDBRANCH   1  34
TORSDOF 19
ENDMDL
MODEL 3
REMARK VINA RESULT:     -11.5      7.147     13.510
REMARK SMILES C/C(=N\Nc1nc(-c2ccc(Cl)cc2)cs1)c1nnn(-c2ccc(C(=O)OCCOCCOC(=O)c3ccc(-c4c5nc(c(-c6c(F)c(F)c(F)c(F)c6F)c6ccc([nH]6)c(-c6c(F)c(F)c(F)c(F)c6F)c6nc(c(-c7c(F)c(F)c(F)c(F)c7F)c7ccc4[nH]7)C=C6)C=C5)cc3)cc2)c1C
REMARK SMILES IDX 28 1 27 2 25 3 26 4 24 5 21 6 22 7 100 8 23 9 99 10 20 11
REMARK SMILES IDX 17 12 18 13 101 14 19 15 102 16 2 17 1 18 3 19 4 20 5 22
REMARK SMILES IDX 6 23 16 24 7 25 15 26 8 27 9 28 14 29 10 30 13 31 11 32
REMARK SMILES IDX 12 33 29 34 30 35 31 36 32 37 33 38 34 39 35 40 36 41 37 42
REMARK SMILES IDX 98 43 38 44 97 45 39 46 40 47 41 48 91 49 42 50 96 51 90 52
REMARK SMILES IDX 92 53 43 54 95 55 89 56 88 57 44 59 76 60 56 61 75 62 57 63
REMARK SMILES IDX 60 64 74 65 93 66 58 67 59 68 73 70 94 71 61 72 45 73 46 74
REMARK SMILES IDX 54 75 47 76 48 77 52 78 55 79 49 80 50 81 53 82 51 83 77 84
REMARK SMILES IDX 78 85 86 86 79 87 80 88 84 89 87 90 81 91 82 92 85 93 83 94
REMARK SMILES IDX 62 95 63 96 71 97 64 98 65 99 69 100 72 101 66 102 67 103
REMARK SMILES IDX 70 104 68 105
REMARK H PARENT 4 21 92 58 60 69
REMARK Flexibility Score: inf
ROOT
ATOM      1  C   UNL A   1      38.921  30.305  35.305  1.00  0.00     0.261 C 
ENDROOT
BRANCH   1   2
ATOM      2  O   UNL A   1      39.944  29.867  36.214  1.00  0.00    -0.460 OA
BRANCH   2   3
ATOM      3  C   UNL A   1      41.152  29.663  35.644  1.00  0.00     0.338 C 
ATOM      4  O   UNL A   1      42.007  30.504  35.404  1.00  0.00    -0.246 OA
BRANCH   3   5
ATOM      5  C   UNL A   1      41.391  28.221  35.446  1.00  0.00     0.060 A 
ATOM      6  C   UNL A   1      42.348  25.642  35.196  1.00  0.00     0.067 A 
ATOM      7  C   UNL A   1      42.019  26.112  36.469  1.00  0.00     0.029 A 
ATOM      8  C   UNL A   1      42.044  26.384  34.044  1.00  0.00     0.029 A 
ATOM      9  C   UNL A   1      41.561  27.422  36.589  1.00  0.00     0.018 A 
ATOM     10  C   UNL A   1      41.557  27.681  34.168  1.00  0.00     0.018 A 
BRANCH   6  11
ATOM     11  N   UNL A   1      43.256  24.567  35.096  1.00  0.00    -0.217 N 
ATOM     12  C   UNL A   1      44.805  23.123  35.607  1.00  0.00     0.132 A 
ATOM     13  N   UNL A   1      43.934  22.539  34.727  1.00  0.00    -0.128 NA
ATOM     14  C   UNL A   1      44.401  24.422  35.862  1.00  0.00     0.071 A 
ATOM     15  N   UNL A   1      42.945  23.397  34.498  1.00  0.00    -0.061 NA
ATOM     16  C   UNL A   1      44.888  25.411  36.861  1.00  0.00     0.069 C 
BRANCH  12  17
ATOM     17  C   UNL A   1      45.888  22.427  36.287  1.00  0.00     0.087 C 
ATOM     18  C   UNL A   1      47.076  23.286  36.636  1.00  0.00     0.071 C 
ATOM     19  N   UNL A   1      45.726  21.141  36.422  1.00  0.00    -0.176 NA
BRANCH  19  20
ATOM     20  N   UNL A   1      46.688  20.257  36.850  1.00  0.00    -0.252 N 
ATOM     21  H   UNL A   1      47.543  20.320  36.365  1.00  0.00     0.193 HD
BRANCH  20  22
ATOM     22  C   UNL A   1      46.664  19.315  37.827  1.00  0.00     0.203 A 
ATOM     23  N   UNL A   1      45.733  18.410  38.005  1.00  0.00    -0.219 NA
ATOM     24  S   UNL A   1      47.918  19.261  39.017  1.00  0.00    -0.103 S 
ATOM     25  C   UNL A   1      45.829  17.851  39.261  1.00  0.00     0.084 A 
ATOM     26  C   UNL A   1      46.960  18.195  39.967  1.00  0.00     0.097 A 
BRANCH  25  27
ATOM     27  C   UNL A   1      44.736  17.046  39.770  1.00  0.00     0.001 A 
ATOM     28  C   UNL A   1      44.581  16.885  41.153  1.00  0.00     0.012 A 
ATOM     29  C   UNL A   1      43.911  16.323  38.895  1.00  0.00     0.012 A 
ATOM     30  C   UNL A   1      43.597  16.031  41.659  1.00  0.00     0.021 A 
ATOM     31  C   UNL A   1      42.936  15.458  39.403  1.00  0.00     0.021 A 
ATOM     32  C   UNL A   1      42.782  15.321  40.781  1.00  0.00     0.041 A 
ATOM     33  Cl  UNL A   1      41.587  14.249  41.402  1.00  0.00    -0.084 Cl
ENDBRANCH  25  27
ENDBRANCH  20  22
ENDBRANCH  19  20
ENDBRANCH  12  17
ENDBRANCH   6  11
ENDBRANCH   3   5
ENDBRANCH   2   3
ENDBRANCH   1   2
BRANCH   1  34
ATOM     34  C   UNL A   1      38.177  31.525  35.843  1.00  0.00     0.202 C 
BRANCH  34  35
ATOM     35  O   UNL A   1      37.249  32.182  34.980  1.00  0.00    -0.374 OA
BRANCH  35  36
ATOM     36  C   UNL A   1      37.706  32.883  33.828  1.00  0.00     0.202 C 
BRANCH  36  37
ATOM     37  C   UNL A   1      37.185  32.449  32.465  1.00  0.00     0.261 C 
BRANCH  37  38
ATOM     38  O   UNL A   1      37.074  31.039  32.364  1.00  0.00    -0.460 OA
BRANCH  38  39
ATOM     39  C   UNL A   1      36.563  30.612  31.191  1.00  0.00     0.338 C 
ATOM     40  O   UNL A   1      35.541  31.004  30.637  1.00  0.00    -0.246 OA
BRANCH  39  41
ATOM     41  C   UNL A   1      37.363  29.485  30.708  1.00  0.00     0.060 A 
ATOM     42  C   UNL A   1      38.115  28.811  31.674  1.00  0.00     0.016 A 
ATOM     43  C   UNL A   1      37.613  29.351  29.335  1.00  0.00     0.016 A 
ATOM     44  C   UNL A   1      39.296  28.228  31.285  1.00  0.00     0.010 A 
ATOM     45  C   UNL A   1      38.803  28.790  28.950  1.00  0.00     0.010 A 
ATOM     46  C   UNL A   1      39.669  28.336  29.945  1.00  0.00    -0.014 A 
BRANCH  46  47
ATOM     47  C   UNL A   1      41.042  28.043  29.604  1.00  0.00     0.031 A 
ATOM     48  C   UNL A   1      41.274  26.684  29.073  1.00  0.00     0.074 A 
ATOM     49  C   UNL A   1      41.959  29.030  29.645  1.00  0.00     0.049 A 
ATOM     50  N   UNL A   1      42.131  25.798  29.461  1.00  0.00    -0.248 NA
ATOM     51  C   UNL A   1      40.359  26.218  28.016  1.00  0.00     0.031 C 
ATOM     52  C   UNL A   1      41.725  30.463  29.865  1.00  0.00     0.029 A 
ATOM     53  N   UNL A   1      43.285  28.976  29.363  1.00  0.00    -0.354 N 
ATOM     54  C   UNL A   1      41.973  24.725  28.589  1.00  0.00     0.074 A 
ATOM     55  C   UNL A   1      40.779  24.970  27.830  1.00  0.00     0.031 C 
ATOM     56  C   UNL A   1      42.821  31.155  29.482  1.00  0.00     0.029 A 
ATOM     57  C   UNL A   1      43.855  30.211  29.094  1.00  0.00     0.049 A 
ATOM     58  H   UNL A   1      43.798  28.136  29.351  1.00  0.00     0.167 HD
ATOM     59  C   UNL A   1      42.970  23.828  28.376  1.00  0.00     0.037 A 
ATOM     60  C   UNL A   1      45.046  30.421  28.484  1.00  0.00     0.037 A 
ATOM     61  C   UNL A   1      43.898  23.791  29.471  1.00  0.00     0.049 A 
ATOM     62  C   UNL A   1      45.809  29.146  28.539  1.00  0.00     0.074 A 
ATOM     63  C   UNL A   1      43.791  23.487  30.815  1.00  0.00     0.029 A 
ATOM     64  N   UNL A   1      45.107  24.426  29.331  1.00  0.00    -0.354 N 
ATOM     65  N   UNL A   1      46.282  28.617  29.635  1.00  0.00    -0.248 NA
ATOM     66  C   UNL A   1      45.676  28.230  27.414  1.00  0.00     0.031 C 
ATOM     67  C   UNL A   1      44.709  24.357  31.471  1.00  0.00     0.029 A 
ATOM     68  C   UNL A   1      45.335  25.124  30.488  1.00  0.00     0.049 A 
ATOM     69  H   UNL A   1      45.699  24.388  28.545  1.00  0.00     0.167 HD
ATOM     70  C   UNL A   1      46.134  27.248  29.464  1.00  0.00     0.074 A 
ATOM     71  C   UNL A   1      45.849  27.066  28.045  1.00  0.00     0.031 C 
ATOM     72  C   UNL A   1      45.976  26.418  30.537  1.00  0.00     0.037 A 
BRANCH  59  73
ATOM     73  C   UNL A   1      43.271  23.250  27.018  1.00  0.00     0.064 A 
ATOM     74  C   UNL A   1      43.043  21.881  26.786  1.00  0.00     0.173 A 
ATOM     75  C   UNL A   1      44.035  23.916  26.032  1.00  0.00     0.173 A 
ATOM     76  F   UNL A   1      42.356  21.145  27.672  1.00  0.00    -0.203 F 
ATOM     77  C   UNL A   1      43.594  21.220  25.686  1.00  0.00     0.198 A 
ATOM     78  C   UNL A   1      44.531  23.267  24.905  1.00  0.00     0.198 A 
ATOM     79  F   UNL A   1      44.427  25.189  26.169  1.00  0.00    -0.203 F 
ATOM     80  F   UNL A   1      43.456  19.892  25.573  1.00  0.00    -0.200 F 
ATOM     81  C   UNL A   1      44.338  21.912  24.748  1.00  0.00     0.200 A 
ATOM     82  F   UNL A   1      45.264  23.954  24.017  1.00  0.00    -0.200 F 
ATOM     83  F   UNL A   1      44.914  21.269  23.724  1.00  0.00    -0.200 F 
ENDBRANCH  59  73
BRANCH  60  84
ATOM     84  C   UNL A   1      45.402  31.535  27.571  1.00  0.00     0.064 A 
ATOM     85  C   UNL A   1      44.553  31.911  26.519  1.00  0.00     0.173 A 
ATOM     86  C   UNL A   1      46.470  32.410  27.855  1.00  0.00     0.173 A 
ATOM     87  F   UNL A   1      43.480  31.164  26.220  1.00  0.00    -0.203 F 
ATOM     88  C   UNL A   1      44.760  33.093  25.798  1.00  0.00     0.198 A 
ATOM     89  C   UNL A   1      46.684  33.579  27.127  1.00  0.00     0.198 A 
ATOM     90  F   UNL A   1      47.276  32.199  28.907  1.00  0.00    -0.203 F 
ATOM     91  F   UNL A   1      43.896  33.449  24.837  1.00  0.00    -0.200 F 
ATOM     92  C   UNL A   1      45.823  33.927  26.104  1.00  0.00     0.200 A 
ATOM     93  F   UNL A   1      47.696  34.394  27.461  1.00  0.00    -0.200 F 
ATOM     94  F   UNL A   1      45.993  35.082  25.447  1.00  0.00    -0.200 F 
ENDBRANCH  60  84
BRANCH  72  95
ATOM     95  C   UNL A   1      46.219  26.994  31.902  1.00  0.00     0.064 A 
ATOM     96  C   UNL A   1      45.244  27.704  32.622  1.00  0.00     0.173 A 
ATOM     97  C   UNL A   1      47.410  26.676  32.567  1.00  0.00     0.173 A 
ATOM     98  F   UNL A   1      44.040  27.947  32.091  1.00  0.00    -0.203 F 
ATOM     99  C   UNL A   1      45.469  28.114  33.935  1.00  0.00     0.198 A 
ATOM    100  C   UNL A   1      47.618  27.056  33.891  1.00  0.00     0.198 A 
ATOM    101  F   UNL A   1      48.350  25.943  31.950  1.00  0.00    -0.203 F 
ATOM    102  F   UNL A   1      44.521  28.795  34.596  1.00  0.00    -0.200 F 
ATOM    103  C   UNL A   1      46.652  27.783  34.570  1.00  0.00     0.200 A 
ATOM    104  F   UNL A   1      48.742  26.687  34.521  1.00  0.00    -0.200 F 
ATOM    105  F   UNL A   1      46.849  28.134  35.849  1.00  0.00    -0.200 F 
ENDBRANCH  72  95
ENDBRANCH  46  47
ENDBRANCH  39  41
ENDBRANCH  38  39
ENDBRANCH  37  38
ENDBRANCH  36  37
ENDBRANCH  35  36
ENDBRANCH  34  35
ENDBRANCH   1  34
TORSDOF 19
ENDMDL
