MODEL 1
REMARK VINA RESULT:     -11.6      0.000      0.000
REMARK SMILES CC1=C(C)C[C@@H](C(=O)OCCOCCOC(=O)c2ccc(-c3c4nc(c(-c5c(F)c(F)c(F)c(F)c5F)c5ccc([nH]5)c(-c5c(F)c(F)c(F)c(F)c5F)c5nc(c(-c6c(F)c(F)c(F)c(F)c6F)c6ccc3[nH]6)C=C5)C=C4)cc2)[C@@H](C(=O)NCC[NH+]2CCOCC2)C1
REMARK SMILES IDX 11 1 10 2 9 3 7 4 8 5 6 6 1 7 2 8 3 9 93 10 4 11 5 12 81 13
REMARK SMILES IDX 82 14 83 15 84 16 85 18 86 19 87 20 88 21 92 22 89 24 91 25
REMARK SMILES IDX 90 26 12 27 13 28 14 29 15 30 16 31 17 32 18 33 19 34 80 35
REMARK SMILES IDX 20 36 79 37 21 38 22 39 23 40 73 41 24 42 78 43 72 44 74 45
REMARK SMILES IDX 25 46 77 47 71 48 70 49 26 51 58 52 38 53 57 54 39 55 42 56
REMARK SMILES IDX 56 57 75 58 40 59 41 60 55 62 76 63 43 64 27 65 28 66 36 67
REMARK SMILES IDX 29 68 30 69 34 70 37 71 31 72 32 73 35 74 33 75 59 76 60 77
REMARK SMILES IDX 68 78 61 79 62 80 66 81 69 82 63 83 64 84 67 85 65 86 44 87
REMARK SMILES IDX 45 88 53 89 46 90 47 91 51 92 54 93 48 94 49 95 52 96 50 97
REMARK H PARENT 84 17 87 23 74 50 42 61
REMARK Flexibility Score: inf
ROOT
ATOM      1  C   UNL A   1      38.154  21.954  25.751  1.00  0.00     0.202 C 
ENDROOT
BRANCH   1   2
ATOM      2  C   UNL A   1      37.401  23.280  25.600  1.00  0.00     0.261 C 
BRANCH   2   3
ATOM      3  O   UNL A   1      36.183  23.182  24.834  1.00  0.00    -0.463 OA
BRANCH   3   4
ATOM      4  C   UNL A   1      35.035  23.320  25.522  1.00  0.00     0.310 C 
ATOM      5  O   UNL A   1      34.904  22.972  26.695  1.00  0.00    -0.252 OA
BRANCH   4   6
ATOM      6  C   UNL A   1      33.845  23.890  24.764  1.00  0.00     0.116 C 
ATOM      7  C   UNL A   1      31.038  26.783  26.515  1.00  0.00     0.039 C 
ATOM      8  C   UNL A   1      32.004  25.974  25.697  1.00  0.00    -0.074 C 
ATOM      9  C   UNL A   1      33.302  26.277  25.498  1.00  0.00    -0.073 C 
ATOM     10  C   UNL A   1      31.418  24.759  25.011  1.00  0.00     0.045 C 
ATOM     11  C   UNL A   1      34.026  27.484  26.024  1.00  0.00     0.039 C 
ATOM     12  C   UNL A   1      34.125  25.395  24.598  1.00  0.00     0.046 C 
ATOM     13  C   UNL A   1      32.352  23.526  24.998  1.00  0.00     0.097 C 
BRANCH  13  14
ATOM     14  C   UNL A   1      31.937  22.644  26.174  1.00  0.00     0.224 C 
ATOM     15  O   UNL A   1      31.306  23.056  27.143  1.00  0.00    -0.275 OA
ATOM     16  N   UNL A   1      32.161  21.290  26.112  1.00  0.00    -0.350 N 
ATOM     17  H   UNL A   1      32.055  20.822  26.971  1.00  0.00     0.163 HD
BRANCH  16  18
ATOM     18  C   UNL A   1      32.527  20.421  24.994  1.00  0.00     0.177 C 
BRANCH  18  19
ATOM     19  C   UNL A   1      32.981  19.013  25.440  1.00  0.00     0.283 C 
BRANCH  19  20
ATOM     20  N   UNL A   1      32.271  17.854  24.857  1.00  0.00    -0.330 N 
ATOM     21  C   UNL A   1      32.494  16.551  25.517  1.00  0.00     0.291 C 
ATOM     22  C   UNL A   1      32.626  17.693  23.423  1.00  0.00     0.291 C 
ATOM     23  H   UNL A   1      31.289  18.088  25.000  1.00  0.00     0.348 HD
ATOM     24  C   UNL A   1      33.865  15.928  25.239  1.00  0.00     0.221 C 
ATOM     25  C   UNL A   1      34.028  17.099  23.196  1.00  0.00     0.221 C 
ATOM     26  O   UNL A   1      34.150  15.828  23.843  1.00  0.00    -0.370 OA
ENDBRANCH  19  20
ENDBRANCH  18  19
ENDBRANCH  16  18
ENDBRANCH  13  14
ENDBRANCH   4   6
ENDBRANCH   3   4
ENDBRANCH   2   3
ENDBRANCH   1   2
BRANCH   1  27
ATOM     27  O   UNL A   1      37.731  20.876  24.922  1.00  0.00    -0.374 OA
BRANCH  27  28
ATOM     28  C   UNL A   1      38.463  19.659  25.001  1.00  0.00     0.202 C 
BRANCH  28  29
ATOM     29  C   UNL A   1      39.623  19.631  25.990  1.00  0.00     0.261 C 
BRANCH  29  30
ATOM     30  O   UNL A   1      40.851  19.156  25.397  1.00  0.00    -0.460 OA
BRANCH  30  31
ATOM     31  C   UNL A   1      41.971  19.403  26.114  1.00  0.00     0.338 C 
ATOM     32  O   UNL A   1      42.898  18.629  26.314  1.00  0.00    -0.246 OA
BRANCH  31  33
ATOM     33  C   UNL A   1      42.035  20.801  26.581  1.00  0.00     0.060 A 
ATOM     34  C   UNL A   1      42.033  21.798  25.602  1.00  0.00     0.016 A 
ATOM     35  C   UNL A   1      42.249  21.137  27.920  1.00  0.00     0.016 A 
ATOM     36  C   UNL A   1      42.286  23.124  25.953  1.00  0.00     0.010 A 
ATOM     37  C   UNL A   1      42.484  22.474  28.275  1.00  0.00     0.010 A 
ATOM     38  C   UNL A   1      42.541  23.471  27.289  1.00  0.00    -0.014 A 
BRANCH  38  39
ATOM     39  C   UNL A   1      42.941  24.867  27.606  1.00  0.00     0.031 A 
ATOM     40  C   UNL A   1      44.322  25.357  27.262  1.00  0.00     0.074 A 
ATOM     41  C   UNL A   1      42.044  25.723  28.129  1.00  0.00     0.049 A 
ATOM     42  N   UNL A   1      44.817  26.568  27.347  1.00  0.00    -0.248 NA
ATOM     43  C   UNL A   1      45.272  24.356  26.758  1.00  0.00     0.031 C 
ATOM     44  C   UNL A   1      40.675  25.377  28.509  1.00  0.00     0.029 A 
ATOM     45  N   UNL A   1      42.144  27.063  28.413  1.00  0.00    -0.354 N 
ATOM     46  C   UNL A   1      46.127  26.475  26.897  1.00  0.00     0.074 A 
ATOM     47  C   UNL A   1      46.367  25.083  26.583  1.00  0.00     0.031 C 
ATOM     48  C   UNL A   1      40.056  26.481  28.957  1.00  0.00     0.029 A 
ATOM     49  C   UNL A   1      40.987  27.606  28.913  1.00  0.00     0.049 A 
ATOM     50  H   UNL A   1      42.967  27.584  28.271  1.00  0.00     0.167 HD
ATOM     51  C   UNL A   1      47.042  27.464  26.740  1.00  0.00     0.037 A 
ATOM     52  C   UNL A   1      40.708  28.869  29.291  1.00  0.00     0.037 A 
ATOM     53  C   UNL A   1      46.808  28.852  27.044  1.00  0.00     0.049 A 
ATOM     54  C   UNL A   1      41.755  29.941  29.144  1.00  0.00     0.074 A 
ATOM     55  C   UNL A   1      47.663  29.928  26.876  1.00  0.00     0.029 A 
ATOM     56  N   UNL A   1      45.635  29.356  27.587  1.00  0.00    -0.354 N 
ATOM     57  N   UNL A   1      42.968  29.853  28.656  1.00  0.00    -0.248 NA
ATOM     58  C   UNL A   1      41.388  31.292  29.593  1.00  0.00     0.031 C 
ATOM     59  C   UNL A   1      47.027  31.075  27.365  1.00  0.00     0.029 A 
ATOM     60  C   UNL A   1      45.758  30.723  27.789  1.00  0.00     0.049 A 
ATOM     61  H   UNL A   1      44.836  28.823  27.798  1.00  0.00     0.167 HD
ATOM     62  C   UNL A   1      43.499  31.136  28.717  1.00  0.00     0.074 A 
ATOM     63  C   UNL A   1      42.470  31.988  29.275  1.00  0.00     0.031 C 
ATOM     64  C   UNL A   1      44.730  31.565  28.344  1.00  0.00     0.037 A 
BRANCH  51  65
ATOM     65  C   UNL A   1      48.396  27.081  26.218  1.00  0.00     0.064 A 
ATOM     66  C   UNL A   1      49.409  26.622  27.073  1.00  0.00     0.173 A 
ATOM     67  C   UNL A   1      48.664  27.119  24.841  1.00  0.00     0.173 A 
ATOM     68  F   UNL A   1      49.205  26.574  28.398  1.00  0.00    -0.203 F 
ATOM     69  C   UNL A   1      50.650  26.237  26.570  1.00  0.00     0.198 A 
ATOM     70  C   UNL A   1      49.897  26.709  24.340  1.00  0.00     0.198 A 
ATOM     71  F   UNL A   1      47.726  27.541  23.981  1.00  0.00    -0.203 F 
ATOM     72  F   UNL A   1      51.616  25.837  27.408  1.00  0.00    -0.200 F 
ATOM     73  C   UNL A   1      50.890  26.273  25.204  1.00  0.00     0.200 A 
ATOM     74  F   UNL A   1      50.122  26.732  23.018  1.00  0.00    -0.200 F 
ATOM     75  F   UNL A   1      52.080  25.893  24.721  1.00  0.00    -0.200 F 
ENDBRANCH  51  65
BRANCH  52  76
ATOM     76  C   UNL A   1      39.365  29.194  29.837  1.00  0.00     0.064 A 
ATOM     77  C   UNL A   1      38.326  29.623  29.000  1.00  0.00     0.173 A 
ATOM     78  C   UNL A   1      39.100  29.093  31.210  1.00  0.00     0.173 A 
ATOM     79  F   UNL A   1      38.540  29.760  27.683  1.00  0.00    -0.203 F 
ATOM     80  C   UNL A   1      37.076  29.954  29.520  1.00  0.00     0.198 A 
ATOM     81  C   UNL A   1      37.843  29.399  31.725  1.00  0.00     0.198 A 
ATOM     82  F   UNL A   1      40.063  28.691  32.052  1.00  0.00    -0.203 F 
ATOM     83  F   UNL A   1      36.113  30.405  28.705  1.00  0.00    -0.200 F 
ATOM     84  C   UNL A   1      36.834  29.836  30.880  1.00  0.00     0.200 A 
ATOM     85  F   UNL A   1      37.610  29.273  33.038  1.00  0.00    -0.200 F 
ATOM     86  F   UNL A   1      35.631  30.152  31.378  1.00  0.00    -0.200 F 
ENDBRANCH  52  76
BRANCH  64  87
ATOM     87  C   UNL A   1      45.029  33.028  28.503  1.00  0.00     0.064 A 
ATOM     88  C   UNL A   1      45.682  33.526  29.640  1.00  0.00     0.173 A 
ATOM     89  C   UNL A   1      44.693  33.938  27.488  1.00  0.00     0.173 A 
ATOM     90  F   UNL A   1      46.011  32.699  30.644  1.00  0.00    -0.203 F 
ATOM     91  C   UNL A   1      45.967  34.884  29.766  1.00  0.00     0.198 A 
ATOM     92  C   UNL A   1      45.004  35.290  27.605  1.00  0.00     0.198 A 
ATOM     93  F   UNL A   1      44.073  33.514  26.377  1.00  0.00    -0.203 F 
ATOM     94  F   UNL A   1      46.552  35.342  30.881  1.00  0.00    -0.200 F 
ATOM     95  C   UNL A   1      45.634  35.763  28.746  1.00  0.00     0.200 A 
ATOM     96  F   UNL A   1      44.694  36.137  26.613  1.00  0.00    -0.200 F 
ATOM     97  F   UNL A   1      45.915  37.068  28.867  1.00  0.00    -0.200 F 
ENDBRANCH  64  87
ENDBRANCH  38  39
ENDBRANCH  31  33
ENDBRANCH  30  31
ENDBRANCH  29  30
ENDBRANCH  28  29
ENDBRANCH  27  28
ENDBRANCH   1  27
TORSDOF 18
ENDMDL
MODEL 2
REMARK VINA RESULT:     -11.5      0.663      7.330
REMARK SMILES CC1=C(C)C[C@@H](C(=O)OCCOCCOC(=O)c2ccc(-c3c4nc(c(-c5c(F)c(F)c(F)c(F)c5F)c5ccc([nH]5)c(-c5c(F)c(F)c(F)c(F)c5F)c5nc(c(-c6c(F)c(F)c(F)c(F)c6F)c6ccc3[nH]6)C=C5)C=C4)cc2)[C@@H](C(=O)NCC[NH+]2CCOCC2)C1
REMARK SMILES IDX 11 1 10 2 9 3 7 4 8 5 6 6 1 7 2 8 3 9 93 10 4 11 5 12 81 13
REMARK SMILES IDX 82 14 83 15 84 16 85 18 86 19 87 20 88 21 92 22 89 24 91 25
REMARK SMILES IDX 90 26 12 27 13 28 14 29 15 30 16 31 17 32 18 33 19 34 80 35
REMARK SMILES IDX 20 36 79 37 21 38 22 39 23 40 73 41 24 42 78 43 72 44 74 45
REMARK SMILES IDX 25 46 77 47 71 48 70 49 26 51 58 52 38 53 57 54 39 55 42 56
REMARK SMILES IDX 56 57 75 58 40 59 41 60 55 62 76 63 43 64 27 65 28 66 36 67
REMARK SMILES IDX 29 68 30 69 34 70 37 71 31 72 32 73 35 74 33 75 59 76 60 77
REMARK SMILES IDX 68 78 61 79 62 80 66 81 69 82 63 83 64 84 67 85 65 86 44 87
REMARK SMILES IDX 45 88 53 89 46 90 47 91 51 92 54 93 48 94 49 95 52 96 50 97
REMARK H PARENT 84 17 87 23 74 50 42 61
REMARK Flexibility Score: inf
ROOT
ATOM      1  C   UNL A   1      38.153  21.918  25.601  1.00  0.00     0.202 C 
ENDROOT
BRANCH   1   2
ATOM      2  C   UNL A   1      37.136  23.050  25.773  1.00  0.00     0.261 C 
BRANCH   2   3
ATOM      3  O   UNL A   1      36.001  22.964  24.888  1.00  0.00    -0.463 OA
BRANCH   3   4
ATOM      4  C   UNL A   1      34.790  23.084  25.462  1.00  0.00     0.310 C 
ATOM      5  O   UNL A   1      34.530  22.662  26.588  1.00  0.00    -0.252 OA
BRANCH   4   6
ATOM      6  C   UNL A   1      33.696  23.733  24.626  1.00  0.00     0.116 C 
ATOM      7  C   UNL A   1      30.901  26.723  26.226  1.00  0.00     0.039 C 
ATOM      8  C   UNL A   1      31.889  25.886  25.465  1.00  0.00    -0.074 C 
ATOM      9  C   UNL A   1      33.213  26.126  25.382  1.00  0.00    -0.073 C 
ATOM     10  C   UNL A   1      31.303  24.720  24.700  1.00  0.00     0.045 C 
ATOM     11  C   UNL A   1      33.950  27.281  26.000  1.00  0.00     0.039 C 
ATOM     12  C   UNL A   1      34.063  25.225  24.527  1.00  0.00     0.046 C 
ATOM     13  C   UNL A   1      32.172  23.442  24.727  1.00  0.00     0.097 C 
BRANCH  13  14
ATOM     14  C   UNL A   1      31.619  22.553  25.839  1.00  0.00     0.224 C 
ATOM     15  O   UNL A   1      30.885  22.963  26.734  1.00  0.00    -0.275 OA
ATOM     16  N   UNL A   1      31.836  21.197  25.790  1.00  0.00    -0.350 N 
ATOM     17  H   UNL A   1      31.629  20.723  26.627  1.00  0.00     0.163 HD
BRANCH  16  18
ATOM     18  C   UNL A   1      32.320  20.335  24.712  1.00  0.00     0.177 C 
BRANCH  18  19
ATOM     19  C   UNL A   1      32.911  19.000  25.219  1.00  0.00     0.283 C 
BRANCH  19  20
ATOM     20  N   UNL A   1      32.294  17.751  24.724  1.00  0.00    -0.330 N 
ATOM     21  C   UNL A   1      32.601  16.523  25.484  1.00  0.00     0.291 C 
ATOM     22  C   UNL A   1      32.677  17.506  23.308  1.00  0.00     0.291 C 
ATOM     23  H   UNL A   1      31.296  17.924  24.841  1.00  0.00     0.348 HD
ATOM     24  C   UNL A   1      34.017  15.981  25.266  1.00  0.00     0.221 C 
ATOM     25  C   UNL A   1      34.121  16.999  23.139  1.00  0.00     0.221 C 
ATOM     26  O   UNL A   1      34.325  15.794  23.883  1.00  0.00    -0.370 OA
ENDBRANCH  19  20
ENDBRANCH  18  19
ENDBRANCH  16  18
ENDBRANCH  13  14
ENDBRANCH   4   6
ENDBRANCH   3   4
ENDBRANCH   2   3
ENDBRANCH   1   2
BRANCH   1  27
ATOM     27  O   UNL A   1      37.728  20.780  24.856  1.00  0.00    -0.374 OA
BRANCH  27  28
ATOM     28  C   UNL A   1      38.485  19.584  24.994  1.00  0.00     0.202 C 
BRANCH  28  29
ATOM     29  C   UNL A   1      39.599  19.605  26.035  1.00  0.00     0.261 C 
BRANCH  29  30
ATOM     30  O   UNL A   1      40.770  18.872  25.614  1.00  0.00    -0.460 OA
BRANCH  30  31
ATOM     31  C   UNL A   1      41.896  19.134  26.315  1.00  0.00     0.338 C 
ATOM     32  O   UNL A   1      42.780  18.338  26.606  1.00  0.00    -0.246 OA
BRANCH  31  33
ATOM     33  C   UNL A   1      42.031  20.568  26.636  1.00  0.00     0.060 A 
ATOM     34  C   UNL A   1      42.024  21.462  25.562  1.00  0.00     0.016 A 
ATOM     35  C   UNL A   1      42.314  21.027  27.925  1.00  0.00     0.016 A 
ATOM     36  C   UNL A   1      42.338  22.805  25.766  1.00  0.00     0.010 A 
ATOM     37  C   UNL A   1      42.611  22.382  28.134  1.00  0.00     0.010 A 
ATOM     38  C   UNL A   1      42.662  23.272  27.050  1.00  0.00    -0.014 A 
BRANCH  38  39
ATOM     39  C   UNL A   1      43.125  24.676  27.209  1.00  0.00     0.031 A 
ATOM     40  C   UNL A   1      42.202  25.720  27.778  1.00  0.00     0.074 A 
ATOM     41  C   UNL A   1      44.399  25.003  26.920  1.00  0.00     0.049 A 
ATOM     42  N   UNL A   1      42.457  26.963  28.106  1.00  0.00    -0.248 NA
ATOM     43  C   UNL A   1      40.808  25.314  28.007  1.00  0.00     0.031 C 
ATOM     44  C   UNL A   1      45.395  24.090  26.363  1.00  0.00     0.029 A 
ATOM     45  N   UNL A   1      45.076  26.188  27.074  1.00  0.00    -0.354 N 
ATOM     46  C   UNL A   1      41.263  27.481  28.590  1.00  0.00     0.074 A 
ATOM     47  C   UNL A   1      40.271  26.434  28.470  1.00  0.00     0.031 C 
ATOM     48  C   UNL A   1      46.563  24.741  26.241  1.00  0.00     0.029 A 
ATOM     49  C   UNL A   1      46.393  26.121  26.693  1.00  0.00     0.049 A 
ATOM     50  H   UNL A   1      44.657  27.007  27.424  1.00  0.00     0.167 HD
ATOM     51  C   UNL A   1      41.020  28.711  29.106  1.00  0.00     0.037 A 
ATOM     52  C   UNL A   1      47.356  27.064  26.709  1.00  0.00     0.037 A 
ATOM     53  C   UNL A   1      42.004  29.755  29.234  1.00  0.00     0.049 A 
ATOM     54  C   UNL A   1      47.048  28.435  27.250  1.00  0.00     0.074 A 
ATOM     55  C   UNL A   1      41.856  31.017  29.783  1.00  0.00     0.029 A 
ATOM     56  N   UNL A   1      43.317  29.661  28.799  1.00  0.00    -0.354 N 
ATOM     57  N   UNL A   1      45.933  28.892  27.765  1.00  0.00    -0.248 NA
ATOM     58  C   UNL A   1      48.141  29.419  27.220  1.00  0.00     0.031 C 
ATOM     59  C   UNL A   1      43.065  31.706  29.634  1.00  0.00     0.029 A 
ATOM     60  C   UNL A   1      43.981  30.855  29.039  1.00  0.00     0.049 A 
ATOM     61  H   UNL A   1      43.719  28.866  28.380  1.00  0.00     0.167 HD
ATOM     62  C   UNL A   1      46.195  30.204  28.140  1.00  0.00     0.074 A 
ATOM     63  C   UNL A   1      47.579  30.465  27.809  1.00  0.00     0.031 C 
ATOM     64  C   UNL A   1      45.360  31.108  28.708  1.00  0.00     0.037 A 
BRANCH  51  65
ATOM     65  C   UNL A   1      39.623  29.006  29.570  1.00  0.00     0.064 A 
ATOM     66  C   UNL A   1      38.639  29.473  28.687  1.00  0.00     0.173 A 
ATOM     67  C   UNL A   1      39.251  28.763  30.901  1.00  0.00     0.173 A 
ATOM     68  F   UNL A   1      38.947  29.729  27.406  1.00  0.00    -0.203 F 
ATOM     69  C   UNL A   1      37.338  29.710  29.124  1.00  0.00     0.198 A 
ATOM     70  C   UNL A   1      37.942  28.975  31.329  1.00  0.00     0.198 A 
ATOM     71  F   UNL A   1      40.151  28.306  31.783  1.00  0.00    -0.203 F 
ATOM     72  F   UNL A   1      36.423  30.192  28.273  1.00  0.00    -0.200 F 
ATOM     73  C   UNL A   1      36.989  29.453  30.442  1.00  0.00     0.200 A 
ATOM     74  F   UNL A   1      37.604  28.714  32.599  1.00  0.00    -0.200 F 
ATOM     75  F   UNL A   1      35.735  29.671  30.860  1.00  0.00    -0.200 F 
ENDBRANCH  51  65
BRANCH  52  76
ATOM     76  C   UNL A   1      48.714  26.737  26.204  1.00  0.00     0.064 A 
ATOM     77  C   UNL A   1      49.658  26.102  27.022  1.00  0.00     0.173 A 
ATOM     78  C   UNL A   1      49.097  27.066  24.896  1.00  0.00     0.173 A 
ATOM     79  F   UNL A   1      49.347  25.793  28.289  1.00  0.00    -0.203 F 
ATOM     80  C   UNL A   1      50.941  25.823  26.554  1.00  0.00     0.198 A 
ATOM     81  C   UNL A   1      50.370  26.762  24.421  1.00  0.00     0.198 A 
ATOM     82  F   UNL A   1      48.230  27.678  24.076  1.00  0.00    -0.203 F 
ATOM     83  F   UNL A   1      51.840  25.257  27.370  1.00  0.00    -0.200 F 
ATOM     84  C   UNL A   1      51.294  26.147  25.253  1.00  0.00     0.200 A 
ATOM     85  F   UNL A   1      50.703  27.068  23.160  1.00  0.00    -0.200 F 
ATOM     86  F   UNL A   1      52.526  25.877  24.803  1.00  0.00    -0.200 F 
ENDBRANCH  52  76
BRANCH  64  87
ATOM     87  C   UNL A   1      45.924  32.462  29.032  1.00  0.00     0.064 A 
ATOM     88  C   UNL A   1      45.838  33.530  28.125  1.00  0.00     0.173 A 
ATOM     89  C   UNL A   1      46.521  32.705  30.278  1.00  0.00     0.173 A 
ATOM     90  F   UNL A   1      45.289  33.345  26.915  1.00  0.00    -0.203 F 
ATOM     91  C   UNL A   1      46.353  34.784  28.446  1.00  0.00     0.198 A 
ATOM     92  C   UNL A   1      47.009  33.968  30.606  1.00  0.00     0.198 A 
ATOM     93  F   UNL A   1      46.622  31.721  31.184  1.00  0.00    -0.203 F 
ATOM     94  F   UNL A   1      46.299  35.777  27.548  1.00  0.00    -0.200 F 
ATOM     95  C   UNL A   1      46.930  35.004  29.688  1.00  0.00     0.200 A 
ATOM     96  F   UNL A   1      47.555  34.182  31.811  1.00  0.00    -0.200 F 
ATOM     97  F   UNL A   1      47.418  36.213  29.997  1.00  0.00    -0.200 F 
ENDBRANCH  64  87
ENDBRANCH  38  39
ENDBRANCH  31  33
ENDBRANCH  30  31
ENDBRANCH  29  30
ENDBRANCH  28  29
ENDBRANCH  27  28
ENDBRANCH   1  27
TORSDOF 18
ENDMDL
MODEL 3
REMARK VINA RESULT:     -11.4      5.922     11.501
REMARK SMILES CC1=C(C)C[C@@H](C(=O)OCCOCCOC(=O)c2ccc(-c3c4nc(c(-c5c(F)c(F)c(F)c(F)c5F)c5ccc([nH]5)c(-c5c(F)c(F)c(F)c(F)c5F)c5nc(c(-c6c(F)c(F)c(F)c(F)c6F)c6ccc3[nH]6)C=C5)C=C4)cc2)[C@@H](C(=O)NCC[NH+]2CCOCC2)C1
REMARK SMILES IDX 11 1 10 2 9 3 7 4 8 5 6 6 1 7 2 8 3 9 93 10 4 11 5 12 81 13
REMARK SMILES IDX 82 14 83 15 84 16 85 18 86 19 87 20 88 21 92 22 89 24 91 25
REMARK SMILES IDX 90 26 12 27 13 28 14 29 15 30 16 31 17 32 18 33 19 34 80 35
REMARK SMILES IDX 20 36 79 37 21 38 22 39 23 40 73 41 24 42 78 43 72 44 74 45
REMARK SMILES IDX 25 46 77 47 71 48 70 49 26 51 58 52 38 53 57 54 39 55 42 56
REMARK SMILES IDX 56 57 75 58 40 59 41 60 55 62 76 63 43 64 27 65 28 66 36 67
REMARK SMILES IDX 29 68 30 69 34 70 37 71 31 72 32 73 35 74 33 75 59 76 60 77
REMARK SMILES IDX 68 78 61 79 62 80 66 81 69 82 63 83 64 84 67 85 65 86 44 87
REMARK SMILES IDX 45 88 53 89 46 90 47 91 51 92 54 93 48 94 49 95 52 96 50 97
REMARK H PARENT 84 17 87 23 74 50 42 61
REMARK Flexibility Score: inf
ROOT
ATOM      1  C   UNL A   1      34.509  29.945  27.300  1.00  0.00     0.202 C 
ENDROOT
BRANCH   1   2
ATOM      2  C   UNL A   1      33.433  29.153  26.552  1.00  0.00     0.261 C 
BRANCH   2   3
ATOM      3  O   UNL A   1      33.461  29.326  25.121  1.00  0.00    -0.463 OA
BRANCH   3   4
ATOM      4  C   UNL A   1      33.624  28.208  24.390  1.00  0.00     0.310 C 
ATOM      5  O   UNL A   1      34.399  28.129  23.438  1.00  0.00    -0.252 OA
BRANCH   4   6
ATOM      6  C   UNL A   1      32.749  27.016  24.754  1.00  0.00     0.116 C 
ATOM      7  C   UNL A   1      33.393  22.979  23.144  1.00  0.00     0.039 C 
ATOM      8  C   UNL A   1      33.158  24.227  23.946  1.00  0.00    -0.074 C 
ATOM      9  C   UNL A   1      34.068  24.827  24.738  1.00  0.00    -0.073 C 
ATOM     10  C   UNL A   1      31.757  24.793  23.874  1.00  0.00     0.045 C 
ATOM     11  C   UNL A   1      35.471  24.358  24.998  1.00  0.00     0.039 C 
ATOM     12  C   UNL A   1      33.657  26.041  25.527  1.00  0.00     0.046 C 
ATOM     13  C   UNL A   1      31.698  26.337  23.832  1.00  0.00     0.097 C 
BRANCH  13  14
ATOM     14  C   UNL A   1      31.571  26.737  22.364  1.00  0.00     0.224 C 
ATOM     15  O   UNL A   1      31.824  25.981  21.430  1.00  0.00    -0.275 OA
ATOM     16  N   UNL A   1      31.030  27.958  22.042  1.00  0.00    -0.350 N 
ATOM     17  H   UNL A   1      31.164  28.226  21.104  1.00  0.00     0.163 HD
BRANCH  16  18
ATOM     18  C   UNL A   1      30.290  28.930  22.846  1.00  0.00     0.177 C 
BRANCH  18  19
ATOM     19  C   UNL A   1      29.749  30.119  22.021  1.00  0.00     0.283 C 
BRANCH  19  20
ATOM     20  N   UNL A   1      28.352  30.536  22.265  1.00  0.00    -0.330 N 
ATOM     21  C   UNL A   1      27.653  31.176  21.132  1.00  0.00     0.291 C 
ATOM     22  C   UNL A   1      28.282  31.472  23.418  1.00  0.00     0.291 C 
ATOM     23  H   UNL A   1      27.873  29.653  22.440  1.00  0.00     0.348 HD
ATOM     24  C   UNL A   1      28.097  32.614  20.847  1.00  0.00     0.221 C 
ATOM     25  C   UNL A   1      28.774  32.893  23.090  1.00  0.00     0.221 C 
ATOM     26  O   UNL A   1      28.028  33.450  22.004  1.00  0.00    -0.370 OA
ENDBRANCH  19  20
ENDBRANCH  18  19
ENDBRANCH  16  18
ENDBRANCH  13  14
ENDBRANCH   4   6
ENDBRANCH   3   4
ENDBRANCH   2   3
ENDBRANCH   1   2
BRANCH   1  27
ATOM     27  O   UNL A   1      34.262  31.334  27.500  1.00  0.00    -0.374 OA
BRANCH  27  28
ATOM     28  C   UNL A   1      32.906  31.760  27.553  1.00  0.00     0.202 C 
BRANCH  28  29
ATOM     29  C   UNL A   1      32.651  33.240  27.283  1.00  0.00     0.261 C 
BRANCH  29  30
ATOM     30  O   UNL A   1      32.154  33.941  28.443  1.00  0.00    -0.460 OA
BRANCH  30  31
ATOM     31  C   UNL A   1      32.903  34.992  28.846  1.00  0.00     0.338 C 
ATOM     32  O   UNL A   1      32.645  36.179  28.688  1.00  0.00    -0.246 OA
BRANCH  31  33
ATOM     33  C   UNL A   1      34.080  34.569  29.628  1.00  0.00     0.060 A 
ATOM     34  C   UNL A   1      35.330  34.715  29.021  1.00  0.00     0.016 A 
ATOM     35  C   UNL A   1      33.971  33.906  30.852  1.00  0.00     0.016 A 
ATOM     36  C   UNL A   1      36.465  34.163  29.614  1.00  0.00     0.010 A 
ATOM     37  C   UNL A   1      35.116  33.367  31.459  1.00  0.00     0.010 A 
ATOM     38  C   UNL A   1      36.365  33.460  30.825  1.00  0.00    -0.014 A 
BRANCH  38  39
ATOM     39  C   UNL A   1      37.568  32.768  31.357  1.00  0.00     0.031 A 
ATOM     40  C   UNL A   1      38.102  33.116  32.721  1.00  0.00     0.074 A 
ATOM     41  C   UNL A   1      38.138  31.771  30.657  1.00  0.00     0.049 A 
ATOM     42  N   UNL A   1      39.061  32.544  33.407  1.00  0.00    -0.248 NA
ATOM     43  C   UNL A   1      37.476  34.258  33.403  1.00  0.00     0.031 C 
ATOM     44  C   UNL A   1      37.722  31.335  29.325  1.00  0.00     0.029 A 
ATOM     45  N   UNL A   1      39.178  30.933  30.976  1.00  0.00    -0.354 N 
ATOM     46  C   UNL A   1      39.145  33.247  34.602  1.00  0.00     0.074 A 
ATOM     47  C   UNL A   1      38.172  34.316  34.531  1.00  0.00     0.031 C 
ATOM     48  C   UNL A   1      38.484  30.295  28.949  1.00  0.00     0.029 A 
ATOM     49  C   UNL A   1      39.454  30.004  30.003  1.00  0.00     0.049 A 
ATOM     50  H   UNL A   1      39.678  30.992  31.822  1.00  0.00     0.167 HD
ATOM     51  C   UNL A   1      39.945  33.010  35.671  1.00  0.00     0.037 A 
ATOM     52  C   UNL A   1      40.381  29.027  29.966  1.00  0.00     0.037 A 
ATOM     53  C   UNL A   1      40.910  31.944  35.751  1.00  0.00     0.049 A 
ATOM     54  C   UNL A   1      41.286  28.812  31.150  1.00  0.00     0.074 A 
ATOM     55  C   UNL A   1      41.734  31.604  36.811  1.00  0.00     0.029 A 
ATOM     56  N   UNL A   1      41.188  31.049  34.728  1.00  0.00    -0.354 N 
ATOM     57  N   UNL A   1      41.311  29.440  32.300  1.00  0.00    -0.248 NA
ATOM     58  C   UNL A   1      42.286  27.740  31.033  1.00  0.00     0.031 C 
ATOM     59  C   UNL A   1      42.546  30.536  36.412  1.00  0.00     0.029 A 
ATOM     60  C   UNL A   1      42.192  30.178  35.122  1.00  0.00     0.049 A 
ATOM     61  H   UNL A   1      40.738  31.036  33.852  1.00  0.00     0.167 HD
ATOM     62  C   UNL A   1      42.308  28.829  33.048  1.00  0.00     0.074 A 
ATOM     63  C   UNL A   1      42.854  27.767  32.230  1.00  0.00     0.031 C 
ATOM     64  C   UNL A   1      42.731  29.123  34.303  1.00  0.00     0.037 A 
BRANCH  51  65
ATOM     65  C   UNL A   1      39.820  33.931  36.850  1.00  0.00     0.064 A 
ATOM     66  C   UNL A   1      38.979  33.628  37.931  1.00  0.00     0.173 A 
ATOM     67  C   UNL A   1      40.592  35.100  36.924  1.00  0.00     0.173 A 
ATOM     68  F   UNL A   1      38.215  32.526  37.905  1.00  0.00    -0.203 F 
ATOM     69  C   UNL A   1      38.899  34.475  39.034  1.00  0.00     0.198 A 
ATOM     70  C   UNL A   1      40.528  35.931  38.040  1.00  0.00     0.198 A 
ATOM     71  F   UNL A   1      41.418  35.430  35.920  1.00  0.00    -0.203 F 
ATOM     72  F   UNL A   1      38.062  34.186  40.040  1.00  0.00    -0.200 F 
ATOM     73  C   UNL A   1      39.678  35.621  39.091  1.00  0.00     0.200 A 
ATOM     74  F   UNL A   1      41.293  37.030  38.099  1.00  0.00    -0.200 F 
ATOM     75  F   UNL A   1      39.608  36.429  40.157  1.00  0.00    -0.200 F 
ENDBRANCH  51  65
BRANCH  52  76
ATOM     76  C   UNL A   1      40.493  28.165  28.762  1.00  0.00     0.064 A 
ATOM     77  C   UNL A   1      41.297  28.536  27.676  1.00  0.00     0.173 A 
ATOM     78  C   UNL A   1      39.787  26.956  28.670  1.00  0.00     0.173 A 
ATOM     79  F   UNL A   1      41.970  29.696  27.706  1.00  0.00    -0.203 F 
ATOM     80  C   UNL A   1      41.378  27.738  26.536  1.00  0.00     0.198 A 
ATOM     81  C   UNL A   1      39.890  26.147  27.542  1.00  0.00     0.198 A 
ATOM     82  F   UNL A   1      39.002  26.560  29.682  1.00  0.00    -0.203 F 
ATOM     83  F   UNL A   1      42.118  28.137  25.493  1.00  0.00    -0.200 F 
ATOM     84  C   UNL A   1      40.679  26.541  26.473  1.00  0.00     0.200 A 
ATOM     85  F   UNL A   1      39.221  24.987  27.489  1.00  0.00    -0.200 F 
ATOM     86  F   UNL A   1      40.759  25.773  25.378  1.00  0.00    -0.200 F 
ENDBRANCH  52  76
BRANCH  64  87
ATOM     87  C   UNL A   1      43.824  28.272  34.881  1.00  0.00     0.064 A 
ATOM     88  C   UNL A   1      45.176  28.626  34.756  1.00  0.00     0.173 A 
ATOM     89  C   UNL A   1      43.515  27.109  35.604  1.00  0.00     0.173 A 
ATOM     90  F   UNL A   1      45.525  29.721  34.063  1.00  0.00    -0.203 F 
ATOM     91  C   UNL A   1      46.178  27.834  35.311  1.00  0.00     0.198 A 
ATOM     92  C   UNL A   1      44.518  26.335  36.181  1.00  0.00     0.198 A 
ATOM     93  F   UNL A   1      42.238  26.729  35.759  1.00  0.00    -0.203 F 
ATOM     94  F   UNL A   1      47.465  28.169  35.141  1.00  0.00    -0.200 F 
ATOM     95  C   UNL A   1      45.848  26.694  36.029  1.00  0.00     0.200 A 
ATOM     96  F   UNL A   1      44.197  25.241  36.886  1.00  0.00    -0.200 F 
ATOM     97  F   UNL A   1      46.814  25.938  36.569  1.00  0.00    -0.200 F 
ENDBRANCH  64  87
ENDBRANCH  38  39
ENDBRANCH  31  33
ENDBRANCH  30  31
ENDBRANCH  29  30
ENDBRANCH  28  29
ENDBRANCH  27  28
ENDBRANCH   1  27
TORSDOF 18
ENDMDL
