MODEL 1
REMARK VINA RESULT:     -12.0      0.000      0.000
REMARK SMILES COC(=O)CNC(=O)N1[C@@H](C(=O)OCCOCCOC(=O)c2ccc(-c3c4nc(c(-c5c(F)c(F)c(F)c(F)c5F)c5ccc([nH]5)c(-c5c(F)c(F)c(F)c(F)c5F)c5nc(c(-c6c(F)c(F)c(F)c(F)c6F)c6ccc3[nH]6)C=C5)C=C4)cc2)CC[C@@H]2CCCC[C@H]21
REMARK SMILES IDX 15 1 14 2 13 3 11 4 12 5 10 6 9 7 92 8 85 9 87 10 91 11
REMARK SMILES IDX 86 12 88 13 90 14 89 15 7 16 6 17 8 19 5 20 3 21 4 22 2 23
REMARK SMILES IDX 1 24 16 25 17 26 18 27 19 28 20 29 21 30 22 31 23 32 84 33
REMARK SMILES IDX 24 34 83 35 25 36 26 37 27 38 77 39 28 40 82 41 76 42 78 43
REMARK SMILES IDX 29 44 81 45 75 46 74 47 30 49 62 50 42 51 61 52 43 53 46 54
REMARK SMILES IDX 60 55 79 56 44 57 45 58 59 60 80 61 47 62 31 63 32 64 40 65
REMARK SMILES IDX 33 66 34 67 38 68 41 69 35 70 36 71 39 72 37 73 63 74 64 75
REMARK SMILES IDX 72 76 65 77 66 78 70 79 73 80 67 81 68 82 71 83 69 84 48 85
REMARK SMILES IDX 49 86 57 87 50 88 51 89 55 90 58 91 52 92 53 93 56 94 54 95
REMARK H PARENT 6 18 78 48 46 59
REMARK Flexibility Score: inf
ROOT
ATOM      1  C   UNL A   1      31.001  26.868  25.931  1.00  0.00     0.202 C 
ENDROOT
BRANCH   1   2
ATOM      2  C   UNL A   1      29.902  25.826  25.741  1.00  0.00     0.261 C 
BRANCH   2   3
ATOM      3  O   UNL A   1      30.415  24.554  25.309  1.00  0.00    -0.462 OA
BRANCH   3   4
ATOM      4  C   UNL A   1      30.921  23.762  26.293  1.00  0.00     0.329 C 
ATOM      5  O   UNL A   1      30.276  23.322  27.239  1.00  0.00    -0.250 OA
BRANCH   4   6
ATOM      6  C   UNL A   1      32.424  23.521  26.122  1.00  0.00     0.197 C 
ATOM      7  N   UNL A   1      32.974  23.335  24.760  1.00  0.00    -0.308 N 
ATOM      8  C   UNL A   1      34.454  23.234  24.726  1.00  0.00     0.091 C 
ATOM      9  C   UNL A   1      32.924  22.458  27.106  1.00  0.00     0.038 C 
ATOM     10  C   UNL A   1      35.027  22.243  25.773  1.00  0.00     0.012 C 
ATOM     11  C   UNL A   1      35.072  22.926  23.347  1.00  0.00     0.025 C 
ATOM     12  C   UNL A   1      34.445  22.493  27.166  1.00  0.00     0.008 C 
ATOM     13  C   UNL A   1      36.559  22.349  25.828  1.00  0.00     0.006 C 
ATOM     14  C   UNL A   1      36.599  22.991  23.386  1.00  0.00     0.002 C 
ATOM     15  C   UNL A   1      37.184  22.083  24.464  1.00  0.00     0.000 C 
BRANCH   7  16
ATOM     16  C   UNL A   1      32.230  22.664  23.814  1.00  0.00     0.318 C 
ATOM     17  N   UNL A   1      31.779  23.387  22.748  1.00  0.00    -0.327 N 
ATOM     18  H   UNL A   1      31.386  22.851  22.020  1.00  0.00     0.166 HD
ATOM     19  O   UNL A   1      32.043  21.450  23.826  1.00  0.00    -0.249 OA
BRANCH  17  20
ATOM     20  C   UNL A   1      31.786  24.825  22.518  1.00  0.00     0.240 C 
BRANCH  20  21
ATOM     21  C   UNL A   1      32.903  25.488  21.734  1.00  0.00     0.325 C 
ATOM     22  O   UNL A   1      32.905  25.569  20.510  1.00  0.00    -0.250 OA
BRANCH  21  23
ATOM     23  O   UNL A   1      33.739  26.176  22.557  1.00  0.00    -0.468 OA
ATOM     24  C   UNL A   1      33.670  27.586  22.346  1.00  0.00     0.282 C 
ENDBRANCH  21  23
ENDBRANCH  20  21
ENDBRANCH  17  20
ENDBRANCH   7  16
ENDBRANCH   4   6
ENDBRANCH   3   4
ENDBRANCH   2   3
ENDBRANCH   1   2
BRANCH   1  25
ATOM     25  O   UNL A   1      31.053  27.507  27.204  1.00  0.00    -0.374 OA
BRANCH  25  26
ATOM     26  C   UNL A   1      32.109  28.441  27.426  1.00  0.00     0.202 C 
BRANCH  26  27
ATOM     27  C   UNL A   1      31.842  29.875  26.966  1.00  0.00     0.261 C 
BRANCH  27  28
ATOM     28  O   UNL A   1      33.041  30.486  26.453  1.00  0.00    -0.460 OA
BRANCH  28  29
ATOM     29  C   UNL A   1      33.536  31.486  27.216  1.00  0.00     0.338 C 
ATOM     30  O   UNL A   1      32.937  32.476  27.618  1.00  0.00    -0.246 OA
BRANCH  29  31
ATOM     31  C   UNL A   1      34.891  31.147  27.686  1.00  0.00     0.060 A 
ATOM     32  C   UNL A   1      35.179  29.788  27.878  1.00  0.00     0.016 A 
ATOM     33  C   UNL A   1      35.836  32.126  28.005  1.00  0.00     0.016 A 
ATOM     34  C   UNL A   1      36.381  29.406  28.466  1.00  0.00     0.010 A 
ATOM     35  C   UNL A   1      37.038  31.740  28.607  1.00  0.00     0.010 A 
ATOM     36  C   UNL A   1      37.290  30.384  28.884  1.00  0.00    -0.014 A 
BRANCH  36  37
ATOM     37  C   UNL A   1      38.390  29.998  29.800  1.00  0.00     0.031 A 
ATOM     38  C   UNL A   1      39.429  29.031  29.297  1.00  0.00     0.074 A 
ATOM     39  C   UNL A   1      38.500  30.539  31.025  1.00  0.00     0.049 A 
ATOM     40  N   UNL A   1      40.463  28.523  29.916  1.00  0.00    -0.248 NA
ATOM     41  C   UNL A   1      39.284  28.582  27.903  1.00  0.00     0.031 C 
ATOM     42  C   UNL A   1      37.594  31.533  31.594  1.00  0.00     0.029 A 
ATOM     43  N   UNL A   1      39.430  30.325  32.011  1.00  0.00    -0.354 N 
ATOM     44  C   UNL A   1      41.091  27.701  28.989  1.00  0.00     0.074 A 
ATOM     45  C   UNL A   1      40.304  27.748  27.776  1.00  0.00     0.031 C 
ATOM     46  C   UNL A   1      38.008  31.838  32.836  1.00  0.00     0.029 A 
ATOM     47  C   UNL A   1      39.186  31.036  33.158  1.00  0.00     0.049 A 
ATOM     48  H   UNL A   1      40.198  29.718  31.905  1.00  0.00     0.167 HD
ATOM     49  C   UNL A   1      42.227  26.981  29.132  1.00  0.00     0.037 A 
ATOM     50  C   UNL A   1      39.833  31.019  34.340  1.00  0.00     0.037 A 
ATOM     51  C   UNL A   1      43.004  26.930  30.342  1.00  0.00     0.049 A 
ATOM     52  C   UNL A   1      41.037  30.126  34.507  1.00  0.00     0.074 A 
ATOM     53  C   UNL A   1      44.161  26.216  30.598  1.00  0.00     0.029 A 
ATOM     54  N   UNL A   1      42.696  27.626  31.502  1.00  0.00    -0.354 N 
ATOM     55  N   UNL A   1      41.623  29.350  33.627  1.00  0.00    -0.248 NA
ATOM     56  C   UNL A   1      41.668  30.107  35.834  1.00  0.00     0.031 C 
ATOM     57  C   UNL A   1      44.532  26.447  31.927  1.00  0.00     0.029 A 
ATOM     58  C   UNL A   1      43.632  27.343  32.483  1.00  0.00     0.049 A 
ATOM     59  H   UNL A   1      41.928  28.230  31.611  1.00  0.00     0.167 HD
ATOM     60  C   UNL A   1      42.707  28.778  34.282  1.00  0.00     0.074 A 
ATOM     61  C   UNL A   1      42.704  29.305  35.631  1.00  0.00     0.031 C 
ATOM     62  C   UNL A   1      43.622  27.895  33.813  1.00  0.00     0.037 A 
BRANCH  49  63
ATOM     63  C   UNL A   1      42.691  26.175  27.955  1.00  0.00     0.064 A 
ATOM     64  C   UNL A   1      42.232  24.869  27.734  1.00  0.00     0.173 A 
ATOM     65  C   UNL A   1      43.575  26.729  27.017  1.00  0.00     0.173 A 
ATOM     66  F   UNL A   1      41.398  24.289  28.612  1.00  0.00    -0.203 F 
ATOM     67  C   UNL A   1      42.655  24.139  26.626  1.00  0.00     0.198 A 
ATOM     68  C   UNL A   1      43.977  26.006  25.897  1.00  0.00     0.198 A 
ATOM     69  F   UNL A   1      44.043  27.975  27.182  1.00  0.00    -0.203 F 
ATOM     70  F   UNL A   1      42.234  22.877  26.456  1.00  0.00    -0.200 F 
ATOM     71  C   UNL A   1      43.521  24.710  25.705  1.00  0.00     0.200 A 
ATOM     72  F   UNL A   1      44.805  26.562  25.003  1.00  0.00    -0.200 F 
ATOM     73  F   UNL A   1      43.920  24.009  24.635  1.00  0.00    -0.200 F 
ENDBRANCH  49  63
BRANCH  50  74
ATOM     74  C   UNL A   1      39.352  31.855  35.471  1.00  0.00     0.064 A 
ATOM     75  C   UNL A   1      39.803  33.171  35.641  1.00  0.00     0.173 A 
ATOM     76  C   UNL A   1      38.467  31.341  36.430  1.00  0.00     0.173 A 
ATOM     77  F   UNL A   1      40.673  33.698  34.767  1.00  0.00    -0.203 F 
ATOM     78  C   UNL A   1      39.406  33.933  36.739  1.00  0.00     0.198 A 
ATOM     79  C   UNL A   1      38.047  32.112  37.512  1.00  0.00     0.198 A 
ATOM     80  F   UNL A   1      38.012  30.084  36.319  1.00  0.00    -0.203 F 
ATOM     81  F   UNL A   1      39.896  35.169  36.907  1.00  0.00    -0.200 F 
ATOM     82  C   UNL A   1      38.525  33.404  37.670  1.00  0.00     0.200 A 
ATOM     83  F   UNL A   1      37.191  31.601  38.406  1.00  0.00    -0.200 F 
ATOM     84  F   UNL A   1      38.147  34.135  38.729  1.00  0.00    -0.200 F 
ENDBRANCH  50  74
BRANCH  62  85
ATOM     85  C   UNL A   1      44.722  27.481  34.744  1.00  0.00     0.064 A 
ATOM     86  C   UNL A   1      45.939  28.177  34.802  1.00  0.00     0.173 A 
ATOM     87  C   UNL A   1      44.538  26.403  35.624  1.00  0.00     0.173 A 
ATOM     88  F   UNL A   1      46.168  29.205  33.973  1.00  0.00    -0.203 F 
ATOM     89  C   UNL A   1      46.940  27.793  35.691  1.00  0.00     0.198 A 
ATOM     90  C   UNL A   1      45.529  26.040  36.530  1.00  0.00     0.198 A 
ATOM     91  F   UNL A   1      43.388  25.711  35.614  1.00  0.00    -0.203 F 
ATOM     92  F   UNL A   1      48.111  28.443  35.699  1.00  0.00    -0.200 F 
ATOM     93  C   UNL A   1      46.732  26.731  36.558  1.00  0.00     0.200 A 
ATOM     94  F   UNL A   1      45.322  25.023  37.378  1.00  0.00    -0.200 F 
ATOM     95  F   UNL A   1      47.693  26.368  37.418  1.00  0.00    -0.200 F 
ENDBRANCH  62  85
ENDBRANCH  36  37
ENDBRANCH  29  31
ENDBRANCH  28  29
ENDBRANCH  27  28
ENDBRANCH  26  27
ENDBRANCH  25  26
ENDBRANCH   1  25
TORSDOF 18
ENDMDL
MODEL 2
REMARK VINA RESULT:     -11.7      0.671      7.221
REMARK SMILES COC(=O)CNC(=O)N1[C@@H](C(=O)OCCOCCOC(=O)c2ccc(-c3c4nc(c(-c5c(F)c(F)c(F)c(F)c5F)c5ccc([nH]5)c(-c5c(F)c(F)c(F)c(F)c5F)c5nc(c(-c6c(F)c(F)c(F)c(F)c6F)c6ccc3[nH]6)C=C5)C=C4)cc2)CC[C@@H]2CCCC[C@H]21
REMARK SMILES IDX 15 1 14 2 13 3 11 4 12 5 10 6 9 7 92 8 85 9 87 10 91 11
REMARK SMILES IDX 86 12 88 13 90 14 89 15 7 16 6 17 8 19 5 20 3 21 4 22 2 23
REMARK SMILES IDX 1 24 16 25 17 26 18 27 19 28 20 29 21 30 22 31 23 32 84 33
REMARK SMILES IDX 24 34 83 35 25 36 26 37 27 38 77 39 28 40 82 41 76 42 78 43
REMARK SMILES IDX 29 44 81 45 75 46 74 47 30 49 62 50 42 51 61 52 43 53 46 54
REMARK SMILES IDX 60 55 79 56 44 57 45 58 59 60 80 61 47 62 31 63 32 64 40 65
REMARK SMILES IDX 33 66 34 67 38 68 41 69 35 70 36 71 39 72 37 73 63 74 64 75
REMARK SMILES IDX 72 76 65 77 66 78 70 79 73 80 67 81 68 82 71 83 69 84 48 85
REMARK SMILES IDX 49 86 57 87 50 88 51 89 55 90 58 91 52 92 53 93 56 94 54 95
REMARK H PARENT 6 18 78 48 46 59
REMARK Flexibility Score: inf
ROOT
ATOM      1  C   UNL A   1      31.353  27.779  26.393  1.00  0.00     0.202 C 
ENDROOT
BRANCH   1   2
ATOM      2  C   UNL A   1      31.932  26.390  26.131  1.00  0.00     0.261 C 
BRANCH   2   3
ATOM      3  O   UNL A   1      30.913  25.393  25.945  1.00  0.00    -0.462 OA
BRANCH   3   4
ATOM      4  C   UNL A   1      31.172  24.179  26.502  1.00  0.00     0.329 C 
ATOM      5  O   UNL A   1      30.371  23.527  27.162  1.00  0.00    -0.250 OA
BRANCH   4   6
ATOM      6  C   UNL A   1      32.616  23.732  26.261  1.00  0.00     0.197 C 
ATOM      7  N   UNL A   1      33.097  23.566  24.869  1.00  0.00    -0.308 N 
ATOM      8  C   UNL A   1      34.544  23.251  24.775  1.00  0.00     0.091 C 
ATOM      9  C   UNL A   1      32.977  22.538  27.150  1.00  0.00     0.038 C 
ATOM     10  C   UNL A   1      34.989  22.112  25.731  1.00  0.00     0.012 C 
ATOM     11  C   UNL A   1      35.073  22.956  23.356  1.00  0.00     0.025 C 
ATOM     12  C   UNL A   1      34.486  22.343  27.157  1.00  0.00     0.008 C 
ATOM     13  C   UNL A   1      36.520  21.986  25.736  1.00  0.00     0.006 C 
ATOM     14  C   UNL A   1      36.593  22.792  23.344  1.00  0.00     0.002 C 
ATOM     15  C   UNL A   1      37.063  21.730  24.336  1.00  0.00     0.000 C 
BRANCH   7  16
ATOM     16  C   UNL A   1      32.237  23.084  23.908  1.00  0.00     0.318 C 
ATOM     17  N   UNL A   1      31.968  23.898  22.846  1.00  0.00    -0.327 N 
ATOM     18  H   UNL A   1      31.477  23.468  22.107  1.00  0.00     0.166 HD
ATOM     19  O   UNL A   1      31.789  21.940  23.903  1.00  0.00    -0.249 OA
BRANCH  17  20
ATOM     20  C   UNL A   1      32.293  25.302  22.633  1.00  0.00     0.240 C 
BRANCH  20  21
ATOM     21  C   UNL A   1      33.052  25.753  21.400  1.00  0.00     0.325 C 
ATOM     22  O   UNL A   1      32.903  25.238  20.296  1.00  0.00    -0.250 OA
BRANCH  21  23
ATOM     23  O   UNL A   1      33.703  26.925  21.626  1.00  0.00    -0.468 OA
ATOM     24  C   UNL A   1      33.101  27.688  22.672  1.00  0.00     0.282 C 
ENDBRANCH  21  23
ENDBRANCH  20  21
ENDBRANCH  17  20
ENDBRANCH   7  16
ENDBRANCH   4   6
ENDBRANCH   3   4
ENDBRANCH   2   3
ENDBRANCH   1   2
BRANCH   1  25
ATOM     25  O   UNL A   1      31.263  28.648  25.268  1.00  0.00    -0.374 OA
BRANCH  25  26
ATOM     26  C   UNL A   1      31.470  30.042  25.499  1.00  0.00     0.202 C 
BRANCH  26  27
ATOM     27  C   UNL A   1      32.868  30.441  25.975  1.00  0.00     0.261 C 
BRANCH  27  28
ATOM     28  O   UNL A   1      32.844  30.871  27.349  1.00  0.00    -0.460 OA
BRANCH  28  29
ATOM     29  C   UNL A   1      33.682  31.892  27.636  1.00  0.00     0.338 C 
ATOM     30  O   UNL A   1      33.387  33.070  27.793  1.00  0.00    -0.246 OA
BRANCH  29  31
ATOM     31  C   UNL A   1      35.031  31.378  27.932  1.00  0.00     0.060 A 
ATOM     32  C   UNL A   1      35.149  30.004  28.187  1.00  0.00     0.016 A 
ATOM     33  C   UNL A   1      36.143  32.217  28.034  1.00  0.00     0.016 A 
ATOM     34  C   UNL A   1      36.359  29.476  28.625  1.00  0.00     0.010 A 
ATOM     35  C   UNL A   1      37.356  31.687  28.487  1.00  0.00     0.010 A 
ATOM     36  C   UNL A   1      37.452  30.327  28.831  1.00  0.00    -0.014 A 
BRANCH  36  37
ATOM     37  C   UNL A   1      38.612  29.829  29.607  1.00  0.00     0.031 A 
ATOM     38  C   UNL A   1      38.826  30.370  30.996  1.00  0.00     0.074 A 
ATOM     39  C   UNL A   1      39.420  28.873  29.118  1.00  0.00     0.049 A 
ATOM     40  N   UNL A   1      39.779  30.112  31.854  1.00  0.00    -0.248 NA
ATOM     41  C   UNL A   1      37.822  31.329  31.486  1.00  0.00     0.031 C 
ATOM     42  C   UNL A   1      39.273  28.228  27.816  1.00  0.00     0.029 A 
ATOM     43  N   UNL A   1      40.529  28.280  29.667  1.00  0.00    -0.354 N 
ATOM     44  C   UNL A   1      39.488  30.871  32.980  1.00  0.00     0.074 A 
ATOM     45  C   UNL A   1      38.291  31.626  32.688  1.00  0.00     0.031 C 
ATOM     46  C   UNL A   1      40.262  27.330  27.661  1.00  0.00     0.029 A 
ATOM     47  C   UNL A   1      41.128  27.365  28.838  1.00  0.00     0.049 A 
ATOM     48  H   UNL A   1      40.862  28.490  30.569  1.00  0.00     0.167 HD
ATOM     49  C   UNL A   1      40.154  30.923  34.157  1.00  0.00     0.037 A 
ATOM     50  C   UNL A   1      42.261  26.656  29.009  1.00  0.00     0.037 A 
ATOM     51  C   UNL A   1      41.349  30.176  34.444  1.00  0.00     0.049 A 
ATOM     52  C   UNL A   1      43.042  26.812  30.290  1.00  0.00     0.074 A 
ATOM     53  C   UNL A   1      42.111  30.172  35.598  1.00  0.00     0.029 A 
ATOM     54  N   UNL A   1      41.955  29.296  33.558  1.00  0.00    -0.354 N 
ATOM     55  N   UNL A   1      42.762  27.533  31.349  1.00  0.00    -0.248 NA
ATOM     56  C   UNL A   1      44.297  26.056  30.396  1.00  0.00     0.031 C 
ATOM     57  C   UNL A   1      43.203  29.321  35.397  1.00  0.00     0.029 A 
ATOM     58  C   UNL A   1      43.094  28.758  34.135  1.00  0.00     0.049 A 
ATOM     59  H   UNL A   1      41.625  29.086  32.656  1.00  0.00     0.167 HD
ATOM     60  C   UNL A   1      43.786  27.293  32.257  1.00  0.00     0.074 A 
ATOM     61  C   UNL A   1      44.687  26.350  31.629  1.00  0.00     0.031 C 
ATOM     62  C   UNL A   1      43.966  27.805  33.499  1.00  0.00     0.037 A 
BRANCH  49  63
ATOM     63  C   UNL A   1      39.612  31.833  35.220  1.00  0.00     0.064 A 
ATOM     64  C   UNL A   1      39.988  33.182  35.291  1.00  0.00     0.173 A 
ATOM     65  C   UNL A   1      38.679  31.360  36.154  1.00  0.00     0.173 A 
ATOM     66  F   UNL A   1      40.890  33.678  34.430  1.00  0.00    -0.203 F 
ATOM     67  C   UNL A   1      39.462  34.021  36.271  1.00  0.00     0.198 A 
ATOM     68  C   UNL A   1      38.136  32.207  37.117  1.00  0.00     0.198 A 
ATOM     69  F   UNL A   1      38.286  30.077  36.129  1.00  0.00    -0.203 F 
ATOM     70  F   UNL A   1      39.865  35.297  36.345  1.00  0.00    -0.200 F 
ATOM     71  C   UNL A   1      38.532  33.535  37.177  1.00  0.00     0.200 A 
ATOM     72  F   UNL A   1      37.230  31.739  37.986  1.00  0.00    -0.200 F 
ATOM     73  F   UNL A   1      38.021  34.346  38.114  1.00  0.00    -0.200 F 
ENDBRANCH  49  63
BRANCH  50  74
ATOM     74  C   UNL A   1      42.745  25.746  27.937  1.00  0.00     0.064 A 
ATOM     75  C   UNL A   1      43.644  26.192  26.960  1.00  0.00     0.173 A 
ATOM     76  C   UNL A   1      42.284  24.425  27.843  1.00  0.00     0.173 A 
ATOM     77  F   UNL A   1      44.092  27.456  26.990  1.00  0.00    -0.203 F 
ATOM     78  C   UNL A   1      44.045  25.361  25.915  1.00  0.00     0.198 A 
ATOM     79  C   UNL A   1      42.706  23.584  26.816  1.00  0.00     0.198 A 
ATOM     80  F   UNL A   1      41.415  23.949  28.748  1.00  0.00    -0.203 F 
ATOM     81  F   UNL A   1      44.862  25.831  24.963  1.00  0.00    -0.200 F 
ATOM     82  C   UNL A   1      43.579  24.057  25.847  1.00  0.00     0.200 A 
ATOM     83  F   UNL A   1      42.260  22.323  26.756  1.00  0.00    -0.200 F 
ATOM     84  F   UNL A   1      43.961  23.258  24.840  1.00  0.00    -0.200 F 
ENDBRANCH  50  74
BRANCH  62  85
ATOM     85  C   UNL A   1      45.153  27.323  34.279  1.00  0.00     0.064 A 
ATOM     86  C   UNL A   1      46.379  28.005  34.250  1.00  0.00     0.173 A 
ATOM     87  C   UNL A   1      45.048  26.192  35.103  1.00  0.00     0.173 A 
ATOM     88  F   UNL A   1      46.533  29.083  33.468  1.00  0.00    -0.203 F 
ATOM     89  C   UNL A   1      47.463  27.556  34.999  1.00  0.00     0.198 A 
ATOM     90  C   UNL A   1      46.125  25.763  35.872  1.00  0.00     0.198 A 
ATOM     91  F   UNL A   1      43.894  25.511  35.171  1.00  0.00    -0.203 F 
ATOM     92  F   UNL A   1      48.638  28.196  34.923  1.00  0.00    -0.200 F 
ATOM     93  C   UNL A   1      47.333  26.442  35.815  1.00  0.00     0.200 A 
ATOM     94  F   UNL A   1      45.994  24.695  36.670  1.00  0.00    -0.200 F 
ATOM     95  F   UNL A   1      48.376  26.017  36.541  1.00  0.00    -0.200 F 
ENDBRANCH  62  85
ENDBRANCH  36  37
ENDBRANCH  29  31
ENDBRANCH  28  29
ENDBRANCH  27  28
ENDBRANCH  26  27
ENDBRANCH  25  26
ENDBRANCH   1  25
TORSDOF 18
ENDMDL
MODEL 3
REMARK VINA RESULT:     -11.4      4.420      7.542
REMARK SMILES COC(=O)CNC(=O)N1[C@@H](C(=O)OCCOCCOC(=O)c2ccc(-c3c4nc(c(-c5c(F)c(F)c(F)c(F)c5F)c5ccc([nH]5)c(-c5c(F)c(F)c(F)c(F)c5F)c5nc(c(-c6c(F)c(F)c(F)c(F)c6F)c6ccc3[nH]6)C=C5)C=C4)cc2)CC[C@@H]2CCCC[C@H]21
REMARK SMILES IDX 15 1 14 2 13 3 11 4 12 5 10 6 9 7 92 8 85 9 87 10 91 11
REMARK SMILES IDX 86 12 88 13 90 14 89 15 7 16 6 17 8 19 5 20 3 21 4 22 2 23
REMARK SMILES IDX 1 24 16 25 17 26 18 27 19 28 20 29 21 30 22 31 23 32 84 33
REMARK SMILES IDX 24 34 83 35 25 36 26 37 27 38 77 39 28 40 82 41 76 42 78 43
REMARK SMILES IDX 29 44 81 45 75 46 74 47 30 49 62 50 42 51 61 52 43 53 46 54
REMARK SMILES IDX 60 55 79 56 44 57 45 58 59 60 80 61 47 62 31 63 32 64 40 65
REMARK SMILES IDX 33 66 34 67 38 68 41 69 35 70 36 71 39 72 37 73 63 74 64 75
REMARK SMILES IDX 72 76 65 77 66 78 70 79 73 80 67 81 68 82 71 83 69 84 48 85
REMARK SMILES IDX 49 86 57 87 50 88 51 89 55 90 58 91 52 92 53 93 56 94 54 95
REMARK H PARENT 6 18 78 48 46 59
REMARK Flexibility Score: inf
ROOT
ATOM      1  C   UNL A   1      37.037  21.843  24.376  1.00  0.00     0.202 C 
ENDROOT
BRANCH   1   2
ATOM      2  C   UNL A   1      36.891  23.336  24.661  1.00  0.00     0.261 C 
BRANCH   2   3
ATOM      3  O   UNL A   1      36.291  23.598  25.941  1.00  0.00    -0.462 OA
BRANCH   3   4
ATOM      4  C   UNL A   1      35.077  23.021  26.148  1.00  0.00     0.329 C 
ATOM      5  O   UNL A   1      34.906  21.855  26.489  1.00  0.00    -0.250 OA
BRANCH   4   6
ATOM      6  C   UNL A   1      33.923  23.982  25.850  1.00  0.00     0.197 C 
ATOM      7  N   UNL A   1      33.001  23.677  24.732  1.00  0.00    -0.308 N 
ATOM      8  C   UNL A   1      31.860  24.620  24.630  1.00  0.00     0.091 C 
ATOM      9  C   UNL A   1      34.411  25.434  25.827  1.00  0.00     0.038 C 
ATOM     10  C   UNL A   1      32.284  26.110  24.702  1.00  0.00     0.012 C 
ATOM     11  C   UNL A   1      30.931  24.416  23.415  1.00  0.00     0.025 C 
ATOM     12  C   UNL A   1      33.216  26.375  25.886  1.00  0.00     0.008 C 
ATOM     13  C   UNL A   1      31.047  27.015  24.806  1.00  0.00     0.006 C 
ATOM     14  C   UNL A   1      29.709  25.333  23.480  1.00  0.00     0.002 C 
ATOM     15  C   UNL A   1      30.101  26.800  23.631  1.00  0.00     0.000 C 
BRANCH   7  16
ATOM     16  C   UNL A   1      33.494  23.087  23.588  1.00  0.00     0.318 C 
ATOM     17  N   UNL A   1      33.132  21.794  23.348  1.00  0.00    -0.327 N 
ATOM     18  H   UNL A   1      33.372  21.455  22.455  1.00  0.00     0.166 HD
ATOM     19  O   UNL A   1      34.145  23.686  22.737  1.00  0.00    -0.249 OA
BRANCH  17  20
ATOM     20  C   UNL A   1      32.447  20.836  24.205  1.00  0.00     0.240 C 
BRANCH  20  21
ATOM     21  C   UNL A   1      33.146  19.583  24.698  1.00  0.00     0.325 C 
ATOM     22  O   UNL A   1      34.340  19.366  24.512  1.00  0.00    -0.250 OA
BRANCH  21  23
ATOM     23  O   UNL A   1      32.357  18.887  25.559  1.00  0.00    -0.468 OA
ATOM     24  C   UNL A   1      32.510  17.474  25.414  1.00  0.00     0.282 C 
ENDBRANCH  21  23
ENDBRANCH  20  21
ENDBRANCH  17  20
ENDBRANCH   7  16
ENDBRANCH   4   6
ENDBRANCH   3   4
ENDBRANCH   2   3
ENDBRANCH   1   2
BRANCH   1  25
ATOM     25  O   UNL A   1      37.872  21.109  25.266  1.00  0.00    -0.374 OA
BRANCH  25  26
ATOM     26  C   UNL A   1      38.210  19.772  24.895  1.00  0.00     0.202 C 
BRANCH  26  27
ATOM     27  C   UNL A   1      39.421  19.166  25.608  1.00  0.00     0.261 C 
BRANCH  27  28
ATOM     28  O   UNL A   1      39.831  19.985  26.718  1.00  0.00    -0.460 OA
BRANCH  28  29
ATOM     29  C   UNL A   1      41.107  20.428  26.651  1.00  0.00     0.338 C 
ATOM     30  O   UNL A   1      42.050  19.886  26.089  1.00  0.00    -0.246 OA
BRANCH  29  31
ATOM     31  C   UNL A   1      41.204  21.792  27.202  1.00  0.00     0.060 A 
ATOM     32  C   UNL A   1      40.520  22.807  26.517  1.00  0.00     0.016 A 
ATOM     33  C   UNL A   1      41.999  22.094  28.310  1.00  0.00     0.016 A 
ATOM     34  C   UNL A   1      40.694  24.137  26.886  1.00  0.00     0.010 A 
ATOM     35  C   UNL A   1      42.182  23.433  28.672  1.00  0.00     0.010 A 
ATOM     36  C   UNL A   1      41.570  24.459  27.929  1.00  0.00    -0.014 A 
BRANCH  36  37
ATOM     37  C   UNL A   1      42.006  25.866  28.092  1.00  0.00     0.031 A 
ATOM     38  C   UNL A   1      43.336  26.271  27.516  1.00  0.00     0.074 A 
ATOM     39  C   UNL A   1      41.212  26.778  28.680  1.00  0.00     0.049 A 
ATOM     40  N   UNL A   1      43.944  27.429  27.556  1.00  0.00    -0.248 NA
ATOM     41  C   UNL A   1      44.080  25.227  26.792  1.00  0.00     0.031 C 
ATOM     42  C   UNL A   1      39.878  26.518  29.214  1.00  0.00     0.029 A 
ATOM     43  N   UNL A   1      41.421  28.112  28.923  1.00  0.00    -0.354 N 
ATOM     44  C   UNL A   1      45.134  27.253  26.861  1.00  0.00     0.074 A 
ATOM     45  C   UNL A   1      45.183  25.871  26.441  1.00  0.00     0.031 C 
ATOM     46  C   UNL A   1      39.388  27.657  29.732  1.00  0.00     0.029 A 
ATOM     47  C   UNL A   1      40.388  28.715  29.595  1.00  0.00     0.049 A 
ATOM     48  H   UNL A   1      42.234  28.590  28.643  1.00  0.00     0.167 HD
ATOM     49  C   UNL A   1      46.095  28.167  26.589  1.00  0.00     0.037 A 
ATOM     50  C   UNL A   1      40.278  29.974  30.063  1.00  0.00     0.037 A 
ATOM     51  C   UNL A   1      46.047  29.540  27.014  1.00  0.00     0.049 A 
ATOM     52  C   UNL A   1      41.410  30.944  29.836  1.00  0.00     0.074 A 
ATOM     53  C   UNL A   1      46.977  30.543  26.807  1.00  0.00     0.029 A 
ATOM     54  N   UNL A   1      45.005  30.102  27.738  1.00  0.00    -0.354 N 
ATOM     55  N   UNL A   1      42.533  30.771  29.181  1.00  0.00    -0.248 NA
ATOM     56  C   UNL A   1      41.259  32.286  30.417  1.00  0.00     0.031 C 
ATOM     57  C   UNL A   1      46.518  31.702  27.441  1.00  0.00     0.029 A 
ATOM     58  C   UNL A   1      45.279  31.434  28.001  1.00  0.00     0.049 A 
ATOM     59  H   UNL A   1      44.193  29.625  28.021  1.00  0.00     0.167 HD
ATOM     60  C   UNL A   1      43.204  31.986  29.243  1.00  0.00     0.074 A 
ATOM     61  C   UNL A   1      42.357  32.892  29.990  1.00  0.00     0.031 C 
ATOM     62  C   UNL A   1      44.413  32.324  28.730  1.00  0.00     0.037 A 
BRANCH  49  63
ATOM     63  C   UNL A   1      47.288  27.705  25.806  1.00  0.00     0.064 A 
ATOM     64  C   UNL A   1      47.286  27.696  24.404  1.00  0.00     0.173 A 
ATOM     65  C   UNL A   1      48.459  27.303  26.464  1.00  0.00     0.173 A 
ATOM     66  F   UNL A   1      46.184  28.056  23.728  1.00  0.00    -0.203 F 
ATOM     67  C   UNL A   1      48.408  27.284  23.689  1.00  0.00     0.198 A 
ATOM     68  C   UNL A   1      49.587  26.915  25.747  1.00  0.00     0.198 A 
ATOM     69  F   UNL A   1      48.513  27.294  27.805  1.00  0.00    -0.203 F 
ATOM     70  F   UNL A   1      48.370  27.245  22.349  1.00  0.00    -0.200 F 
ATOM     71  C   UNL A   1      49.559  26.901  24.361  1.00  0.00     0.200 A 
ATOM     72  F   UNL A   1      50.703  26.555  26.397  1.00  0.00    -0.200 F 
ATOM     73  F   UNL A   1      50.641  26.513  23.671  1.00  0.00    -0.200 F 
ENDBRANCH  49  63
BRANCH  50  74
ATOM     74  C   UNL A   1      39.064  30.393  30.811  1.00  0.00     0.064 A 
ATOM     75  C   UNL A   1      37.975  30.980  30.152  1.00  0.00     0.173 A 
ATOM     76  C   UNL A   1      38.986  30.257  32.204  1.00  0.00     0.173 A 
ATOM     77  F   UNL A   1      38.014  31.158  28.823  1.00  0.00    -0.203 F 
ATOM     78  C   UNL A   1      36.865  31.436  30.860  1.00  0.00     0.198 A 
ATOM     79  C   UNL A   1      37.864  30.687  32.910  1.00  0.00     0.198 A 
ATOM     80  F   UNL A   1      40.004  29.710  32.885  1.00  0.00    -0.203 F 
ATOM     81  F   UNL A   1      35.862  32.044  30.212  1.00  0.00    -0.200 F 
ATOM     82  C   UNL A   1      36.808  31.285  32.238  1.00  0.00     0.200 A 
ATOM     83  F   UNL A   1      37.810  30.533  34.239  1.00  0.00    -0.200 F 
ATOM     84  F   UNL A   1      35.743  31.728  32.920  1.00  0.00    -0.200 F 
ENDBRANCH  50  74
BRANCH  62  85
ATOM     85  C   UNL A   1      44.869  33.740  28.914  1.00  0.00     0.064 A 
ATOM     86  C   UNL A   1      45.666  34.121  30.004  1.00  0.00     0.173 A 
ATOM     87  C   UNL A   1      44.544  34.719  27.962  1.00  0.00     0.173 A 
ATOM     88  F   UNL A   1      45.992  33.225  30.947  1.00  0.00    -0.203 F 
ATOM     89  C   UNL A   1      46.101  35.436  30.146  1.00  0.00     0.198 A 
ATOM     90  C   UNL A   1      45.004  36.026  28.092  1.00  0.00     0.198 A 
ATOM     91  F   UNL A   1      43.791  34.403  26.897  1.00  0.00    -0.203 F 
ATOM     92  F   UNL A   1      46.825  35.788  31.217  1.00  0.00    -0.200 F 
ATOM     93  C   UNL A   1      45.776  36.384  29.187  1.00  0.00     0.200 A 
ATOM     94  F   UNL A   1      44.702  36.938  27.159  1.00  0.00    -0.200 F 
ATOM     95  F   UNL A   1      46.203  37.647  29.322  1.00  0.00    -0.200 F 
ENDBRANCH  62  85
ENDBRANCH  36  37
ENDBRANCH  29  31
ENDBRANCH  28  29
ENDBRANCH  27  28
ENDBRANCH  26  27
ENDBRANCH  25  26
ENDBRANCH   1  25
TORSDOF 18
ENDMDL
