MODEL 1
REMARK VINA RESULT:     -10.7      0.000      0.000
REMARK SMILES CCCc1sc(C(=O)NCCC(=O)OCCOCCOC(=O)c2ccc(-c3c4nc(c(-c5c(F)c(F)c(F)c(F)c5F)c5ccc([nH]5)c(-c5c(F)c(F)c(F)c(F)c5F)c5nc(c(-c6c(F)c(F)c(F)c(F)c6F)c6ccc3[nH]6)C=C5)C=C4)cc2)cc1CC
REMARK SMILES IDX 15 1 14 2 12 3 13 4 11 5 10 6 9 7 7 8 8 9 6 11 4 12 5 13
REMARK SMILES IDX 87 14 86 15 3 16 2 17 1 18 88 19 89 20 16 21 17 22 18 23
REMARK SMILES IDX 19 24 20 25 21 26 22 27 23 28 24 29 85 30 25 31 84 32 26 33
REMARK SMILES IDX 27 34 28 35 78 36 29 37 83 38 77 39 79 40 30 41 82 42 76 43
REMARK SMILES IDX 75 44 31 46 63 47 43 48 62 49 44 50 47 51 61 52 80 53 45 54
REMARK SMILES IDX 46 55 60 57 81 58 48 59 32 60 33 61 41 62 34 63 35 64 39 65
REMARK SMILES IDX 42 66 36 67 37 68 40 69 38 70 64 71 65 72 73 73 66 74 67 75
REMARK SMILES IDX 71 76 74 77 68 78 69 79 72 80 70 81 49 82 50 83 58 84 51 85
REMARK SMILES IDX 52 86 56 87 59 88 53 89 54 90 57 91 55 92
REMARK H PARENT 9 10 79 45 47 56
REMARK Flexibility Score: inf
ROOT
ATOM      1  C   UNL A   1      32.760  28.562  23.211  1.00  0.00     0.261 C 
ENDROOT
BRANCH   1   2
ATOM      2  O   UNL A   1      31.997  27.363  22.967  1.00  0.00    -0.463 OA
BRANCH   2   3
ATOM      3  C   UNL A   1      30.662  27.545  22.778  1.00  0.00     0.307 C 
ATOM      4  O   UNL A   1      30.162  28.359  22.012  1.00  0.00    -0.252 OA
BRANCH   3   5
ATOM      5  C   UNL A   1      29.831  26.667  23.674  1.00  0.00     0.144 C 
BRANCH   5   6
ATOM      6  C   UNL A   1      30.458  25.328  24.021  1.00  0.00     0.128 C 
BRANCH   6   7
ATOM      7  N   UNL A   1      30.236  24.921  25.399  1.00  0.00    -0.351 N 
ATOM      8  C   UNL A   1      30.791  23.897  26.137  1.00  0.00     0.261 C 
ATOM      9  O   UNL A   1      30.300  23.699  27.251  1.00  0.00    -0.268 OA
ATOM     10  H   UNL A   1      29.580  25.470  25.887  1.00  0.00     0.163 HD
BRANCH   8  11
ATOM     11  C   UNL A   1      31.879  23.111  25.582  1.00  0.00     0.092 A 
ATOM     12  C   UNL A   1      34.110  22.409  24.737  1.00  0.00     0.009 A 
ATOM     13  S   UNL A   1      33.378  23.869  25.273  1.00  0.00    -0.135 S 
ATOM     14  C   UNL A   1      33.253  21.331  24.904  1.00  0.00    -0.034 A 
ATOM     15  C   UNL A   1      31.927  21.784  25.208  1.00  0.00     0.029 A 
BRANCH  12  16
ATOM     16  C   UNL A   1      35.535  22.432  24.244  1.00  0.00     0.047 C 
BRANCH  16  17
ATOM     17  C   UNL A   1      36.400  23.498  24.933  1.00  0.00     0.002 C 
ATOM     18  C   UNL A   1      37.602  22.929  25.676  1.00  0.00     0.004 C 
ENDBRANCH  16  17
ENDBRANCH  12  16
BRANCH  14  19
ATOM     19  C   UNL A   1      33.597  19.870  24.808  1.00  0.00     0.033 C 
ATOM     20  C   UNL A   1      32.615  19.145  23.887  1.00  0.00     0.009 C 
ENDBRANCH  14  19
ENDBRANCH   8  11
ENDBRANCH   6   7
ENDBRANCH   5   6
ENDBRANCH   3   5
ENDBRANCH   2   3
ENDBRANCH   1   2
BRANCH   1  21
ATOM     21  C   UNL A   1      33.197  28.672  24.674  1.00  0.00     0.202 C 
BRANCH  21  22
ATOM     22  O   UNL A   1      32.181  29.027  25.611  1.00  0.00    -0.374 OA
BRANCH  22  23
ATOM     23  C   UNL A   1      31.403  30.185  25.321  1.00  0.00     0.202 C 
BRANCH  23  24
ATOM     24  C   UNL A   1      31.609  31.388  26.253  1.00  0.00     0.261 C 
BRANCH  24  25
ATOM     25  O   UNL A   1      32.573  31.116  27.287  1.00  0.00    -0.460 OA
BRANCH  25  26
ATOM     26  C   UNL A   1      33.400  32.150  27.572  1.00  0.00     0.338 C 
ATOM     27  O   UNL A   1      33.099  33.334  27.676  1.00  0.00    -0.246 OA
BRANCH  26  28
ATOM     28  C   UNL A   1      34.739  31.656  27.932  1.00  0.00     0.060 A 
ATOM     29  C   UNL A   1      34.893  30.273  28.091  1.00  0.00     0.016 A 
ATOM     30  C   UNL A   1      35.797  32.525  28.206  1.00  0.00     0.016 A 
ATOM     31  C   UNL A   1      36.090  29.754  28.580  1.00  0.00     0.010 A 
ATOM     32  C   UNL A   1      36.995  32.004  28.709  1.00  0.00     0.010 A 
ATOM     33  C   UNL A   1      37.131  30.621  28.936  1.00  0.00    -0.014 A 
BRANCH  33  34
ATOM     34  C   UNL A   1      38.287  30.088  29.700  1.00  0.00     0.031 A 
ATOM     35  C   UNL A   1      38.499  30.555  31.114  1.00  0.00     0.074 A 
ATOM     36  C   UNL A   1      39.109  29.172  29.161  1.00  0.00     0.049 A 
ATOM     37  N   UNL A   1      39.447  30.240  31.961  1.00  0.00    -0.248 NA
ATOM     38  C   UNL A   1      37.505  31.499  31.647  1.00  0.00     0.031 C 
ATOM     39  C   UNL A   1      38.981  28.609  27.820  1.00  0.00     0.029 A 
ATOM     40  N   UNL A   1      40.221  28.558  29.683  1.00  0.00    -0.354 N 
ATOM     41  C   UNL A   1      39.167  30.951  33.120  1.00  0.00     0.074 A 
ATOM     42  C   UNL A   1      37.976  31.732  32.863  1.00  0.00     0.031 C 
ATOM     43  C   UNL A   1      39.985  27.737  27.618  1.00  0.00     0.029 A 
ATOM     44  C   UNL A   1      40.840  27.706  28.803  1.00  0.00     0.049 A 
ATOM     45  H   UNL A   1      40.542  28.714  30.600  1.00  0.00     0.167 HD
ATOM     46  C   UNL A   1      39.837  30.948  34.297  1.00  0.00     0.037 A 
ATOM     47  C   UNL A   1      41.980  27.000  28.936  1.00  0.00     0.037 A 
ATOM     48  C   UNL A   1      41.022  30.171  34.554  1.00  0.00     0.049 A 
ATOM     49  C   UNL A   1      42.749  27.070  30.230  1.00  0.00     0.074 A 
ATOM     50  C   UNL A   1      41.766  30.091  35.718  1.00  0.00     0.029 A 
ATOM     51  N   UNL A   1      41.639  29.346  33.626  1.00  0.00    -0.354 N 
ATOM     52  N   UNL A   1      42.467  27.726  31.328  1.00  0.00    -0.248 NA
ATOM     53  C   UNL A   1      43.998  26.296  30.301  1.00  0.00     0.031 C 
ATOM     54  C   UNL A   1      42.859  29.252  35.480  1.00  0.00     0.029 A 
ATOM     55  C   UNL A   1      42.769  28.771  34.184  1.00  0.00     0.049 A 
ATOM     56  H   UNL A   1      41.322  29.193  32.707  1.00  0.00     0.167 HD
ATOM     57  C   UNL A   1      43.482  27.424  32.228  1.00  0.00     0.074 A 
ATOM     58  C   UNL A   1      44.383  26.515  31.551  1.00  0.00     0.031 C 
ATOM     59  C   UNL A   1      43.650  27.858  33.501  1.00  0.00     0.037 A 
BRANCH  46  60
ATOM     60  C   UNL A   1      39.319  31.834  35.391  1.00  0.00     0.064 A 
ATOM     61  C   UNL A   1      38.445  31.353  36.376  1.00  0.00     0.173 A 
ATOM     62  C   UNL A   1      39.730  33.173  35.473  1.00  0.00     0.173 A 
ATOM     63  F   UNL A   1      38.013  30.083  36.334  1.00  0.00    -0.203 F 
ATOM     64  C   UNL A   1      37.981  32.186  37.391  1.00  0.00     0.198 A 
ATOM     65  C   UNL A   1      39.286  33.996  36.504  1.00  0.00     0.198 A 
ATOM     66  F   UNL A   1      40.570  33.680  34.558  1.00  0.00    -0.203 F 
ATOM     67  F   UNL A   1      37.113  31.717  38.298  1.00  0.00    -0.200 F 
ATOM     68  C   UNL A   1      38.407  33.505  37.457  1.00  0.00     0.200 A 
ATOM     69  F   UNL A   1      39.707  35.266  36.574  1.00  0.00    -0.200 F 
ATOM     70  F   UNL A   1      37.966  34.304  38.438  1.00  0.00    -0.200 F 
ENDBRANCH  46  60
BRANCH  47  71
ATOM     71  C   UNL A   1      42.476  26.174  27.805  1.00  0.00     0.064 A 
ATOM     72  C   UNL A   1      43.461  26.655  26.933  1.00  0.00     0.173 A 
ATOM     73  C   UNL A   1      41.959  24.892  27.562  1.00  0.00     0.173 A 
ATOM     74  F   UNL A   1      43.966  27.886  27.108  1.00  0.00    -0.203 F 
ATOM     75  C   UNL A   1      43.900  25.894  25.851  1.00  0.00     0.198 A 
ATOM     76  C   UNL A   1      42.417  24.121  26.497  1.00  0.00     0.198 A 
ATOM     77  F   UNL A   1      41.010  24.388  28.365  1.00  0.00    -0.203 F 
ATOM     78  F   UNL A   1      44.810  26.396  25.006  1.00  0.00    -0.200 F 
ATOM     79  C   UNL A   1      43.382  24.625  25.638  1.00  0.00     0.200 A 
ATOM     80  F   UNL A   1      41.921  22.893  26.299  1.00  0.00    -0.200 F 
ATOM     81  F   UNL A   1      43.806  23.893  24.599  1.00  0.00    -0.200 F 
ENDBRANCH  47  71
BRANCH  59  82
ATOM     82  C   UNL A   1      44.828  27.326  34.263  1.00  0.00     0.064 A 
ATOM     83  C   UNL A   1      46.055  28.004  34.291  1.00  0.00     0.173 A 
ATOM     84  C   UNL A   1      44.711  26.147  35.017  1.00  0.00     0.173 A 
ATOM     85  F   UNL A   1      46.223  29.127  33.577  1.00  0.00    -0.203 F 
ATOM     86  C   UNL A   1      47.129  27.509  35.026  1.00  0.00     0.198 A 
ATOM     87  C   UNL A   1      45.778  25.670  35.772  1.00  0.00     0.198 A 
ATOM     88  F   UNL A   1      43.556  25.465  35.029  1.00  0.00    -0.203 F 
ATOM     89  F   UNL A   1      48.307  28.150  35.005  1.00  0.00    -0.200 F 
ATOM     90  C   UNL A   1      46.988  26.347  35.772  1.00  0.00     0.200 A 
ATOM     91  F   UNL A   1      45.634  24.556  36.503  1.00  0.00    -0.200 F 
ATOM     92  F   UNL A   1      48.020  25.878  36.485  1.00  0.00    -0.200 F 
ENDBRANCH  59  82
ENDBRANCH  33  34
ENDBRANCH  26  28
ENDBRANCH  25  26
ENDBRANCH  24  25
ENDBRANCH  23  24
ENDBRANCH  22  23
ENDBRANCH  21  22
ENDBRANCH   1  21
TORSDOF 20
ENDMDL
MODEL 2
REMARK VINA RESULT:     -10.5      0.462      2.007
REMARK SMILES CCCc1sc(C(=O)NCCC(=O)OCCOCCOC(=O)c2ccc(-c3c4nc(c(-c5c(F)c(F)c(F)c(F)c5F)c5ccc([nH]5)c(-c5c(F)c(F)c(F)c(F)c5F)c5nc(c(-c6c(F)c(F)c(F)c(F)c6F)c6ccc3[nH]6)C=C5)C=C4)cc2)cc1CC
REMARK SMILES IDX 15 1 14 2 12 3 13 4 11 5 10 6 9 7 7 8 8 9 6 11 4 12 5 13
REMARK SMILES IDX 87 14 86 15 3 16 2 17 1 18 88 19 89 20 16 21 17 22 18 23
REMARK SMILES IDX 19 24 20 25 21 26 22 27 23 28 24 29 85 30 25 31 84 32 26 33
REMARK SMILES IDX 27 34 28 35 78 36 29 37 83 38 77 39 79 40 30 41 82 42 76 43
REMARK SMILES IDX 75 44 31 46 63 47 43 48 62 49 44 50 47 51 61 52 80 53 45 54
REMARK SMILES IDX 46 55 60 57 81 58 48 59 32 60 33 61 41 62 34 63 35 64 39 65
REMARK SMILES IDX 42 66 36 67 37 68 40 69 38 70 64 71 65 72 73 73 66 74 67 75
REMARK SMILES IDX 71 76 74 77 68 78 69 79 72 80 70 81 49 82 50 83 58 84 51 85
REMARK SMILES IDX 52 86 56 87 59 88 53 89 54 90 57 91 55 92
REMARK H PARENT 9 10 79 45 47 56
REMARK Flexibility Score: inf
ROOT
ATOM      1  C   UNL A   1      33.083  28.624  23.239  1.00  0.00     0.261 C 
ENDROOT
BRANCH   1   2
ATOM      2  O   UNL A   1      32.540  27.290  23.191  1.00  0.00    -0.463 OA
BRANCH   2   3
ATOM      3  C   UNL A   1      31.184  27.209  23.125  1.00  0.00     0.307 C 
ATOM      4  O   UNL A   1      30.501  27.569  22.174  1.00  0.00    -0.252 OA
BRANCH   3   5
ATOM      5  C   UNL A   1      30.578  26.677  24.395  1.00  0.00     0.144 C 
BRANCH   5   6
ATOM      6  C   UNL A   1      30.435  25.166  24.453  1.00  0.00     0.128 C 
BRANCH   6   7
ATOM      7  N   UNL A   1      30.037  24.669  25.760  1.00  0.00    -0.351 N 
ATOM      8  C   UNL A   1      30.471  23.574  26.480  1.00  0.00     0.261 C 
ATOM      9  O   UNL A   1      29.844  23.315  27.509  1.00  0.00    -0.268 OA
ATOM     10  H   UNL A   1      29.341  25.204  26.207  1.00  0.00     0.163 HD
BRANCH   8  11
ATOM     11  C   UNL A   1      31.597  22.793  26.000  1.00  0.00     0.092 A 
ATOM     12  C   UNL A   1      33.905  22.022  25.484  1.00  0.00     0.009 A 
ATOM     13  S   UNL A   1      33.175  23.426  26.156  1.00  0.00    -0.135 S 
ATOM     14  C   UNL A   1      32.961  21.032  25.252  1.00  0.00    -0.034 A 
ATOM     15  C   UNL A   1      31.635  21.563  25.376  1.00  0.00     0.029 A 
BRANCH  12  16
ATOM     16  C   UNL A   1      35.400  21.981  25.297  1.00  0.00     0.047 C 
BRANCH  16  17
ATOM     17  C   UNL A   1      35.998  23.329  24.866  1.00  0.00     0.002 C 
ATOM     18  C   UNL A   1      36.667  23.294  23.497  1.00  0.00     0.004 C 
ENDBRANCH  16  17
ENDBRANCH  12  16
BRANCH  14  19
ATOM     19  C   UNL A   1      33.218  19.587  24.925  1.00  0.00     0.033 C 
ATOM     20  C   UNL A   1      32.524  19.199  23.619  1.00  0.00     0.009 C 
ENDBRANCH  14  19
ENDBRANCH   8  11
ENDBRANCH   6   7
ENDBRANCH   5   6
ENDBRANCH   3   5
ENDBRANCH   2   3
ENDBRANCH   1   2
BRANCH   1  21
ATOM     21  C   UNL A   1      33.597  28.982  24.636  1.00  0.00     0.202 C 
BRANCH  21  22
ATOM     22  O   UNL A   1      32.614  29.069  25.666  1.00  0.00    -0.374 OA
BRANCH  22  23
ATOM     23  C   UNL A   1      31.627  30.089  25.540  1.00  0.00     0.202 C 
BRANCH  23  24
ATOM     24  C   UNL A   1      31.785  31.302  26.467  1.00  0.00     0.261 C 
BRANCH  24  25
ATOM     25  O   UNL A   1      32.787  31.086  27.479  1.00  0.00    -0.460 OA
BRANCH  25  26
ATOM     26  C   UNL A   1      33.663  32.106  27.633  1.00  0.00     0.338 C 
ATOM     27  O   UNL A   1      33.411  33.307  27.635  1.00  0.00    -0.246 OA
BRANCH  26  28
ATOM     28  C   UNL A   1      34.996  31.594  27.986  1.00  0.00     0.060 A 
ATOM     29  C   UNL A   1      35.124  30.213  28.181  1.00  0.00     0.016 A 
ATOM     30  C   UNL A   1      36.077  32.446  28.218  1.00  0.00     0.016 A 
ATOM     31  C   UNL A   1      36.317  29.681  28.666  1.00  0.00     0.010 A 
ATOM     32  C   UNL A   1      37.272  31.913  28.717  1.00  0.00     0.010 A 
ATOM     33  C   UNL A   1      37.382  30.535  28.981  1.00  0.00    -0.014 A 
BRANCH  33  34
ATOM     34  C   UNL A   1      38.539  29.999  29.741  1.00  0.00     0.031 A 
ATOM     35  C   UNL A   1      38.765  30.476  31.150  1.00  0.00     0.074 A 
ATOM     36  C   UNL A   1      39.349  29.071  29.205  1.00  0.00     0.049 A 
ATOM     37  N   UNL A   1      39.715  30.160  31.993  1.00  0.00    -0.248 NA
ATOM     38  C   UNL A   1      37.783  31.433  31.681  1.00  0.00     0.031 C 
ATOM     39  C   UNL A   1      39.207  28.497  27.870  1.00  0.00     0.029 A 
ATOM     40  N   UNL A   1      40.459  28.451  29.725  1.00  0.00    -0.354 N 
ATOM     41  C   UNL A   1      39.449  30.883  33.148  1.00  0.00     0.074 A 
ATOM     42  C   UNL A   1      38.264  31.672  32.892  1.00  0.00     0.031 C 
ATOM     43  C   UNL A   1      40.201  27.615  27.668  1.00  0.00     0.029 A 
ATOM     44  C   UNL A   1      41.064  27.587  28.848  1.00  0.00     0.049 A 
ATOM     45  H   UNL A   1      40.788  28.612  30.638  1.00  0.00     0.167 HD
ATOM     46  C   UNL A   1      40.128  30.884  34.321  1.00  0.00     0.037 A 
ATOM     47  C   UNL A   1      42.199  26.871  28.979  1.00  0.00     0.037 A 
ATOM     48  C   UNL A   1      41.307  30.099  34.576  1.00  0.00     0.049 A 
ATOM     49  C   UNL A   1      42.978  26.945  30.267  1.00  0.00     0.074 A 
ATOM     50  C   UNL A   1      42.059  30.022  35.736  1.00  0.00     0.029 A 
ATOM     51  N   UNL A   1      41.911  29.261  33.651  1.00  0.00    -0.354 N 
ATOM     52  N   UNL A   1      42.709  27.614  31.362  1.00  0.00    -0.248 NA
ATOM     53  C   UNL A   1      44.220  26.161  30.337  1.00  0.00     0.031 C 
ATOM     54  C   UNL A   1      43.143  29.172  35.497  1.00  0.00     0.029 A 
ATOM     55  C   UNL A   1      43.040  28.680  34.206  1.00  0.00     0.049 A 
ATOM     56  H   UNL A   1      41.586  29.102  32.735  1.00  0.00     0.167 HD
ATOM     57  C   UNL A   1      43.727  27.310  32.257  1.00  0.00     0.074 A 
ATOM     58  C   UNL A   1      44.615  26.387  31.582  1.00  0.00     0.031 C 
ATOM     59  C   UNL A   1      43.908  27.754  33.525  1.00  0.00     0.037 A 
BRANCH  46  60
ATOM     60  C   UNL A   1      39.625  31.784  35.410  1.00  0.00     0.064 A 
ATOM     61  C   UNL A   1      40.092  33.099  35.552  1.00  0.00     0.173 A 
ATOM     62  C   UNL A   1      38.640  31.335  36.302  1.00  0.00     0.173 A 
ATOM     63  F   UNL A   1      41.043  33.570  34.732  1.00  0.00    -0.203 F 
ATOM     64  C   UNL A   1      39.607  33.925  36.563  1.00  0.00     0.198 A 
ATOM     65  C   UNL A   1      38.138  32.173  37.295  1.00  0.00     0.198 A 
ATOM     66  F   UNL A   1      38.157  30.087  36.206  1.00  0.00    -0.203 F 
ATOM     67  F   UNL A   1      40.096  35.164  36.706  1.00  0.00    -0.200 F 
ATOM     68  C   UNL A   1      38.626  33.463  37.429  1.00  0.00     0.200 A 
ATOM     69  F   UNL A   1      37.183  31.730  38.123  1.00  0.00    -0.200 F 
ATOM     70  F   UNL A   1      38.155  34.262  38.396  1.00  0.00    -0.200 F 
ENDBRANCH  46  60
BRANCH  47  71
ATOM     71  C   UNL A   1      42.679  26.031  27.852  1.00  0.00     0.064 A 
ATOM     72  C   UNL A   1      42.273  24.696  27.720  1.00  0.00     0.173 A 
ATOM     73  C   UNL A   1      43.571  26.540  26.895  1.00  0.00     0.173 A 
ATOM     74  F   UNL A   1      41.444  24.156  28.625  1.00  0.00    -0.203 F 
ATOM     75  C   UNL A   1      42.752  23.898  26.683  1.00  0.00     0.198 A 
ATOM     76  C   UNL A   1      44.028  25.749  25.845  1.00  0.00     0.198 A 
ATOM     77  F   UNL A   1      43.994  27.810  26.981  1.00  0.00    -0.203 F 
ATOM     78  F   UNL A   1      42.384  22.612  26.605  1.00  0.00    -0.200 F 
ATOM     79  C   UNL A   1      43.623  24.427  25.743  1.00  0.00     0.200 A 
ATOM     80  F   UNL A   1      44.863  26.266  24.934  1.00  0.00    -0.200 F 
ATOM     81  F   UNL A   1      44.082  23.658  24.745  1.00  0.00    -0.200 F 
ENDBRANCH  47  71
BRANCH  59  82
ATOM     82  C   UNL A   1      45.086  27.218  34.284  1.00  0.00     0.064 A 
ATOM     83  C   UNL A   1      45.005  26.036  35.034  1.00  0.00     0.173 A 
ATOM     84  C   UNL A   1      46.328  27.870  34.218  1.00  0.00     0.173 A 
ATOM     85  F   UNL A   1      43.838  25.383  35.140  1.00  0.00    -0.203 F 
ATOM     86  C   UNL A   1      46.117  25.539  35.710  1.00  0.00     0.198 A 
ATOM     87  C   UNL A   1      47.444  27.356  34.871  1.00  0.00     0.198 A 
ATOM     88  F   UNL A   1      46.461  29.000  33.507  1.00  0.00    -0.203 F 
ATOM     89  F   UNL A   1      46.006  24.431  36.456  1.00  0.00    -0.200 F 
ATOM     90  C   UNL A   1      47.337  26.195  35.622  1.00  0.00     0.200 A 
ATOM     91  F   UNL A   1      48.624  27.983  34.774  1.00  0.00    -0.200 F 
ATOM     92  F   UNL A   1      48.406  25.710  36.266  1.00  0.00    -0.200 F 
ENDBRANCH  59  82
ENDBRANCH  33  34
ENDBRANCH  26  28
ENDBRANCH  25  26
ENDBRANCH  24  25
ENDBRANCH  23  24
ENDBRANCH  22  23
ENDBRANCH  21  22
ENDBRANCH   1  21
TORSDOF 20
ENDMDL
MODEL 3
REMARK VINA RESULT:     -10.3      4.864      8.478
REMARK SMILES CCCc1sc(C(=O)NCCC(=O)OCCOCCOC(=O)c2ccc(-c3c4nc(c(-c5c(F)c(F)c(F)c(F)c5F)c5ccc([nH]5)c(-c5c(F)c(F)c(F)c(F)c5F)c5nc(c(-c6c(F)c(F)c(F)c(F)c6F)c6ccc3[nH]6)C=C5)C=C4)cc2)cc1CC
REMARK SMILES IDX 15 1 14 2 12 3 13 4 11 5 10 6 9 7 7 8 8 9 6 11 4 12 5 13
REMARK SMILES IDX 87 14 86 15 3 16 2 17 1 18 88 19 89 20 16 21 17 22 18 23
REMARK SMILES IDX 19 24 20 25 21 26 22 27 23 28 24 29 85 30 25 31 84 32 26 33
REMARK SMILES IDX 27 34 28 35 78 36 29 37 83 38 77 39 79 40 30 41 82 42 76 43
REMARK SMILES IDX 75 44 31 46 63 47 43 48 62 49 44 50 47 51 61 52 80 53 45 54
REMARK SMILES IDX 46 55 60 57 81 58 48 59 32 60 33 61 41 62 34 63 35 64 39 65
REMARK SMILES IDX 42 66 36 67 37 68 40 69 38 70 64 71 65 72 73 73 66 74 67 75
REMARK SMILES IDX 71 76 74 77 68 78 69 79 72 80 70 81 49 82 50 83 58 84 51 85
REMARK SMILES IDX 52 86 56 87 59 88 53 89 54 90 57 91 55 92
REMARK H PARENT 9 10 79 45 47 56
REMARK Flexibility Score: inf
ROOT
ATOM      1  C   UNL A   1      35.628  22.100  24.666  1.00  0.00     0.261 C 
ENDROOT
BRANCH   1   2
ATOM      2  O   UNL A   1      34.476  22.339  25.498  1.00  0.00    -0.463 OA
BRANCH   2   3
ATOM      3  C   UNL A   1      33.336  21.699  25.121  1.00  0.00     0.307 C 
ATOM      4  O   UNL A   1      32.798  20.792  25.742  1.00  0.00    -0.252 OA
BRANCH   3   5
ATOM      5  C   UNL A   1      32.818  22.184  23.794  1.00  0.00     0.144 C 
BRANCH   5   6
ATOM      6  C   UNL A   1      31.518  22.968  23.861  1.00  0.00     0.128 C 
BRANCH   6   7
ATOM      7  N   UNL A   1      30.884  22.932  25.169  1.00  0.00    -0.351 N 
ATOM      8  C   UNL A   1      30.760  23.905  26.138  1.00  0.00     0.261 C 
ATOM      9  O   UNL A   1      30.292  23.542  27.219  1.00  0.00    -0.268 OA
ATOM     10  H   UNL A   1      30.474  22.067  25.401  1.00  0.00     0.163 HD
BRANCH   8  11
ATOM     11  C   UNL A   1      31.188  25.265  25.858  1.00  0.00     0.092 A 
ATOM     12  C   UNL A   1      32.587  27.297  25.550  1.00  0.00     0.009 A 
ATOM     13  S   UNL A   1      32.820  25.693  26.119  1.00  0.00    -0.135 S 
ATOM     14  C   UNL A   1      31.303  27.469  25.055  1.00  0.00    -0.034 A 
ATOM     15  C   UNL A   1      30.472  26.358  25.415  1.00  0.00     0.029 A 
BRANCH  12  16
ATOM     16  C   UNL A   1      33.741  28.268  25.574  1.00  0.00     0.047 C 
BRANCH  16  17
ATOM     17  C   UNL A   1      33.948  28.935  26.942  1.00  0.00     0.002 C 
ATOM     18  C   UNL A   1      33.198  30.251  27.103  1.00  0.00     0.004 C 
ENDBRANCH  16  17
ENDBRANCH  12  16
BRANCH  14  19
ATOM     19  C   UNL A   1      30.787  28.623  24.239  1.00  0.00     0.033 C 
ATOM     20  C   UNL A   1      31.043  28.387  22.750  1.00  0.00     0.009 C 
ENDBRANCH  14  19
ENDBRANCH   8  11
ENDBRANCH   6   7
ENDBRANCH   5   6
ENDBRANCH   3   5
ENDBRANCH   2   3
ENDBRANCH   1   2
BRANCH   1  21
ATOM     21  C   UNL A   1      36.213  20.703  24.887  1.00  0.00     0.202 C 
BRANCH  21  22
ATOM     22  O   UNL A   1      37.632  20.626  25.014  1.00  0.00    -0.374 OA
BRANCH  22  23
ATOM     23  C   UNL A   1      38.279  21.670  25.737  1.00  0.00     0.202 C 
BRANCH  23  24
ATOM     24  C   UNL A   1      39.735  21.408  26.145  1.00  0.00     0.261 C 
BRANCH  24  25
ATOM     25  O   UNL A   1      40.022  20.002  26.265  1.00  0.00    -0.460 OA
BRANCH  25  26
ATOM     26  C   UNL A   1      41.337  19.687  26.191  1.00  0.00     0.338 C 
ATOM     27  O   UNL A   1      41.827  18.640  25.779  1.00  0.00    -0.246 OA
BRANCH  26  28
ATOM     28  C   UNL A   1      42.168  20.857  26.514  1.00  0.00     0.060 A 
ATOM     29  C   UNL A   1      42.222  21.258  27.855  1.00  0.00     0.016 A 
ATOM     30  C   UNL A   1      42.801  21.609  25.523  1.00  0.00     0.016 A 
ATOM     31  C   UNL A   1      42.862  22.443  28.207  1.00  0.00     0.010 A 
ATOM     32  C   UNL A   1      43.434  22.808  25.875  1.00  0.00     0.010 A 
ATOM     33  C   UNL A   1      43.431  23.249  27.212  1.00  0.00    -0.014 A 
BRANCH  33  34
ATOM     34  C   UNL A   1      43.868  24.625  27.557  1.00  0.00     0.031 A 
ATOM     35  C   UNL A   1      42.826  25.649  27.913  1.00  0.00     0.074 A 
ATOM     36  C   UNL A   1      45.172  24.948  27.595  1.00  0.00     0.049 A 
ATOM     37  N   UNL A   1      42.973  26.911  28.230  1.00  0.00    -0.248 NA
ATOM     38  C   UNL A   1      41.430  25.186  27.920  1.00  0.00     0.031 C 
ATOM     39  C   UNL A   1      46.276  24.033  27.316  1.00  0.00     0.029 A 
ATOM     40  N   UNL A   1      45.785  26.142  27.885  1.00  0.00    -0.354 N 
ATOM     41  C   UNL A   1      41.692  27.392  28.466  1.00  0.00     0.074 A 
ATOM     42  C   UNL A   1      40.777  26.295  28.234  1.00  0.00     0.031 C 
ATOM     43  C   UNL A   1      47.436  24.703  27.435  1.00  0.00     0.029 A 
ATOM     44  C   UNL A   1      47.152  26.098  27.769  1.00  0.00     0.049 A 
ATOM     45  H   UNL A   1      45.292  26.951  28.149  1.00  0.00     0.167 HD
ATOM     46  C   UNL A   1      41.313  28.634  28.850  1.00  0.00     0.037 A 
ATOM     47  C   UNL A   1      48.065  27.080  27.898  1.00  0.00     0.037 A 
ATOM     48  C   UNL A   1      42.222  29.725  29.081  1.00  0.00     0.049 A 
ATOM     49  C   UNL A   1      47.612  28.473  28.253  1.00  0.00     0.074 A 
ATOM     50  C   UNL A   1      41.935  31.018  29.484  1.00  0.00     0.029 A 
ATOM     51  N   UNL A   1      43.598  29.651  28.920  1.00  0.00    -0.354 N 
ATOM     52  N   UNL A   1      46.402  28.915  28.496  1.00  0.00    -0.248 NA
ATOM     53  C   UNL A   1      48.655  29.504  28.354  1.00  0.00     0.031 C 
ATOM     54  C   UNL A   1      43.133  31.739  29.523  1.00  0.00     0.029 A 
ATOM     55  C   UNL A   1      44.172  30.883  29.193  1.00  0.00     0.049 A 
ATOM     56  H   UNL A   1      44.093  28.845  28.651  1.00  0.00     0.167 HD
ATOM     57  C   UNL A   1      46.540  30.262  28.806  1.00  0.00     0.074 A 
ATOM     58  C   UNL A   1      47.954  30.565  28.731  1.00  0.00     0.031 C 
ATOM     59  C   UNL A   1      45.582  31.166  29.126  1.00  0.00     0.037 A 
BRANCH  46  60
ATOM     60  C   UNL A   1      39.844  28.887  29.018  1.00  0.00     0.064 A 
ATOM     61  C   UNL A   1      39.044  29.316  27.948  1.00  0.00     0.173 A 
ATOM     62  C   UNL A   1      39.223  28.666  30.256  1.00  0.00     0.173 A 
ATOM     63  F   UNL A   1      39.593  29.554  26.747  1.00  0.00    -0.203 F 
ATOM     64  C   UNL A   1      37.680  29.537  28.118  1.00  0.00     0.198 A 
ATOM     65  C   UNL A   1      37.854  28.862  30.416  1.00  0.00     0.198 A 
ATOM     66  F   UNL A   1      39.943  28.252  31.310  1.00  0.00    -0.203 F 
ATOM     67  F   UNL A   1      36.942  29.986  27.094  1.00  0.00    -0.200 F 
ATOM     68  C   UNL A   1      37.085  29.303  29.350  1.00  0.00     0.200 A 
ATOM     69  F   UNL A   1      37.279  28.626  31.603  1.00  0.00    -0.200 F 
ATOM     70  F   UNL A   1      35.770  29.509  29.511  1.00  0.00    -0.200 F 
ENDBRANCH  46  60
BRANCH  47  71
ATOM     71  C   UNL A   1      49.505  26.788  27.675  1.00  0.00     0.064 A 
ATOM     72  C   UNL A   1      50.048  26.766  26.384  1.00  0.00     0.173 A 
ATOM     73  C   UNL A   1      50.362  26.504  28.750  1.00  0.00     0.173 A 
ATOM     74  F   UNL A   1      49.262  27.003  25.323  1.00  0.00    -0.203 F 
ATOM     75  C   UNL A   1      51.390  26.456  26.173  1.00  0.00     0.198 A 
ATOM     76  C   UNL A   1      51.709  26.221  28.539  1.00  0.00     0.198 A 
ATOM     77  F   UNL A   1      49.889  26.507  30.004  1.00  0.00    -0.203 F 
ATOM     78  F   UNL A   1      51.874  26.397  24.925  1.00  0.00    -0.200 F 
ATOM     79  C   UNL A   1      52.221  26.190  27.251  1.00  0.00     0.200 A 
ATOM     80  F   UNL A   1      52.510  25.973  29.584  1.00  0.00    -0.200 F 
ATOM     81  F   UNL A   1      53.512  25.893  27.047  1.00  0.00    -0.200 F 
ENDBRANCH  47  71
BRANCH  59  82
ATOM     82  C   UNL A   1      46.030  32.559  29.461  1.00  0.00     0.064 A 
ATOM     83  C   UNL A   1      46.337  32.938  30.775  1.00  0.00     0.173 A 
ATOM     84  C   UNL A   1      46.201  33.512  28.445  1.00  0.00     0.173 A 
ATOM     85  F   UNL A   1      46.178  32.068  31.784  1.00  0.00    -0.203 F 
ATOM     86  C   UNL A   1      46.778  34.227  31.064  1.00  0.00     0.198 A 
ATOM     87  C   UNL A   1      46.667  34.791  28.732  1.00  0.00     0.198 A 
ATOM     88  F   UNL A   1      45.927  33.197  27.170  1.00  0.00    -0.203 F 
ATOM     89  F   UNL A   1      47.025  34.582  32.332  1.00  0.00    -0.200 F 
ATOM     90  C   UNL A   1      46.949  35.150  30.042  1.00  0.00     0.200 A 
ATOM     91  F   UNL A   1      46.845  35.676  27.742  1.00  0.00    -0.200 F 
ATOM     92  F   UNL A   1      47.381  36.387  30.321  1.00  0.00    -0.200 F 
ENDBRANCH  59  82
ENDBRANCH  33  34
ENDBRANCH  26  28
ENDBRANCH  25  26
ENDBRANCH  24  25
ENDBRANCH  23  24
ENDBRANCH  22  23
ENDBRANCH  21  22
ENDBRANCH   1  21
TORSDOF 20
ENDMDL
