MODEL 1
REMARK VINA RESULT:      -9.9      0.000      0.000
REMARK SMILES CN(C)C(=O)CC(C)(C)CC(=O)OCCOCCOC(=O)c1ccc(-c2c3nc(c(-c4c(F)c(F)c(F)c(F)c4F)c4ccc([nH]4)c(-c4c(F)c(F)c(F)c(F)c4F)c4nc(c(-c5c(F)c(F)c(F)c(F)c5F)c5ccc2[nH]5)C=C4)C=C3)cc1
REMARK SMILES IDX 15 1 14 2 13 3 11 4 12 5 10 6 7 7 8 8 9 9 6 10 4 11 1 12
REMARK SMILES IDX 2 13 3 14 5 15 16 16 17 17 18 18 19 19 20 20 21 21 22 22
REMARK SMILES IDX 23 23 84 24 24 25 83 26 25 27 26 28 27 29 77 30 28 31 82 32
REMARK SMILES IDX 76 33 78 34 29 35 81 36 75 37 74 38 30 40 62 41 42 42 61 43
REMARK SMILES IDX 43 44 46 45 60 46 79 47 44 48 45 49 59 51 80 52 47 53 31 54
REMARK SMILES IDX 32 55 40 56 33 57 34 58 38 59 41 60 35 61 36 62 39 63 37 64
REMARK SMILES IDX 63 65 64 66 72 67 65 68 66 69 70 70 73 71 67 72 68 73 71 74
REMARK SMILES IDX 69 75 48 76 49 77 57 78 50 79 51 80 55 81 58 82 52 83 53 84
REMARK SMILES IDX 56 85 54 86
REMARK H PARENT 78 39 46 50
REMARK Flexibility Score: inf
ROOT
ATOM      1  C   UNL A   1      32.756  29.124  26.879  1.00  0.00     0.202 C 
ENDROOT
BRANCH   1   2
ATOM      2  C   UNL A   1      32.733  28.564  25.456  1.00  0.00     0.261 C 
BRANCH   2   3
ATOM      3  O   UNL A   1      31.846  27.433  25.326  1.00  0.00    -0.463 OA
BRANCH   3   4
ATOM      4  C   UNL A   1      32.206  26.318  26.010  1.00  0.00     0.306 C 
ATOM      5  O   UNL A   1      31.558  25.831  26.929  1.00  0.00    -0.252 OA
BRANCH   4   6
ATOM      6  C   UNL A   1      33.588  25.803  25.656  1.00  0.00     0.129 C 
BRANCH   6   7
ATOM      7  C   UNL A   1      33.895  24.329  25.268  1.00  0.00    -0.016 C 
ATOM      8  C   UNL A   1      34.724  24.403  23.963  1.00  0.00     0.012 C 
ATOM      9  C   UNL A   1      32.612  23.540  24.935  1.00  0.00     0.012 C 
BRANCH   7  10
ATOM     10  C   UNL A   1      34.691  23.512  26.321  1.00  0.00     0.107 C 
BRANCH  10  11
ATOM     11  C   UNL A   1      35.660  22.470  25.778  1.00  0.00     0.222 C 
ATOM     12  C   UNL A   1      37.908  21.629  25.375  1.00  0.00     0.146 C 
ATOM     13  N   UNL A   1      37.024  22.701  25.809  1.00  0.00    -0.349 N 
ATOM     14  C   UNL A   1      37.681  23.945  26.180  1.00  0.00     0.146 C 
ATOM     15  O   UNL A   1      35.190  21.422  25.327  1.00  0.00    -0.275 OA
ENDBRANCH  10  11
ENDBRANCH   7  10
ENDBRANCH   6   7
ENDBRANCH   4   6
ENDBRANCH   3   4
ENDBRANCH   2   3
ENDBRANCH   1   2
BRANCH   1  16
ATOM     16  O   UNL A   1      31.740  30.073  27.194  1.00  0.00    -0.374 OA
BRANCH  16  17
ATOM     17  C   UNL A   1      31.604  31.181  26.302  1.00  0.00     0.202 C 
BRANCH  17  18
ATOM     18  C   UNL A   1      31.620  32.554  26.979  1.00  0.00     0.261 C 
BRANCH  18  19
ATOM     19  O   UNL A   1      32.918  33.178  26.852  1.00  0.00    -0.460 OA
BRANCH  19  20
ATOM     20  C   UNL A   1      33.452  33.615  28.014  1.00  0.00     0.338 C 
ATOM     21  O   UNL A   1      32.936  34.358  28.838  1.00  0.00    -0.246 OA
BRANCH  20  22
ATOM     22  C   UNL A   1      34.730  32.930  28.282  1.00  0.00     0.060 A 
ATOM     23  C   UNL A   1      34.664  31.585  28.666  1.00  0.00     0.016 A 
ATOM     24  C   UNL A   1      35.956  33.602  28.263  1.00  0.00     0.016 A 
ATOM     25  C   UNL A   1      35.811  30.925  29.099  1.00  0.00     0.010 A 
ATOM     26  C   UNL A   1      37.107  32.936  28.705  1.00  0.00     0.010 A 
ATOM     27  C   UNL A   1      37.032  31.609  29.167  1.00  0.00    -0.014 A 
BRANCH  27  28
ATOM     28  C   UNL A   1      38.168  30.976  29.886  1.00  0.00     0.031 A 
ATOM     29  C   UNL A   1      38.400  31.322  31.333  1.00  0.00     0.074 A 
ATOM     30  C   UNL A   1      38.937  30.047  29.290  1.00  0.00     0.049 A 
ATOM     31  N   UNL A   1      39.304  30.865  32.164  1.00  0.00    -0.248 NA
ATOM     32  C   UNL A   1      37.485  32.311  31.925  1.00  0.00     0.031 C 
ATOM     33  C   UNL A   1      38.788  29.587  27.912  1.00  0.00     0.029 A 
ATOM     34  N   UNL A   1      39.992  29.317  29.778  1.00  0.00    -0.354 N 
ATOM     35  C   UNL A   1      39.064  31.507  33.373  1.00  0.00     0.074 A 
ATOM     36  C   UNL A   1      37.954  32.411  33.161  1.00  0.00     0.031 C 
ATOM     37  C   UNL A   1      39.720  28.651  27.662  1.00  0.00     0.029 A 
ATOM     38  C   UNL A   1      40.546  28.464  28.855  1.00  0.00     0.049 A 
ATOM     39  H   UNL A   1      40.322  29.398  30.702  1.00  0.00     0.167 HD
ATOM     40  C   UNL A   1      39.700  31.348  34.558  1.00  0.00     0.037 A 
ATOM     41  C   UNL A   1      41.604  27.637  28.959  1.00  0.00     0.037 A 
ATOM     42  C   UNL A   1      40.800  30.446  34.779  1.00  0.00     0.049 A 
ATOM     43  C   UNL A   1      42.345  27.535  30.268  1.00  0.00     0.074 A 
ATOM     44  C   UNL A   1      41.499  30.207  35.949  1.00  0.00     0.029 A 
ATOM     45  N   UNL A   1      41.364  29.638  33.804  1.00  0.00    -0.354 N 
ATOM     46  N   UNL A   1      42.095  28.128  31.410  1.00  0.00    -0.248 NA
ATOM     47  C   UNL A   1      43.514  26.642  30.302  1.00  0.00     0.031 C 
ATOM     48  C   UNL A   1      42.517  29.288  35.671  1.00  0.00     0.029 A 
ATOM     49  C   UNL A   1      42.420  28.918  34.340  1.00  0.00     0.049 A 
ATOM     50  H   UNL A   1      41.060  29.582  32.869  1.00  0.00     0.167 HD
ATOM     51  C   UNL A   1      43.055  27.662  32.301  1.00  0.00     0.074 A 
ATOM     52  C   UNL A   1      43.883  26.726  31.572  1.00  0.00     0.031 C 
ATOM     53  C   UNL A   1      43.233  27.982  33.607  1.00  0.00     0.037 A 
BRANCH  40  54
ATOM     54  C   UNL A   1      39.233  32.182  35.712  1.00  0.00     0.064 A 
ATOM     55  C   UNL A   1      38.313  31.691  36.651  1.00  0.00     0.173 A 
ATOM     56  C   UNL A   1      39.746  33.473  35.908  1.00  0.00     0.173 A 
ATOM     57  F   UNL A   1      37.784  30.467  36.500  1.00  0.00    -0.203 F 
ATOM     58  C   UNL A   1      37.909  32.470  37.732  1.00  0.00     0.198 A 
ATOM     59  C   UNL A   1      39.359  34.239  37.004  1.00  0.00     0.198 A 
ATOM     60  F   UNL A   1      40.631  33.988  35.042  1.00  0.00    -0.203 F 
ATOM     61  F   UNL A   1      37.001  31.995  38.595  1.00  0.00    -0.200 F 
ATOM     62  C   UNL A   1      38.437  33.740  37.912  1.00  0.00     0.200 A 
ATOM     63  F   UNL A   1      39.880  35.462  37.183  1.00  0.00    -0.200 F 
ATOM     64  F   UNL A   1      38.054  34.484  38.958  1.00  0.00    -0.200 F 
ENDBRANCH  40  54
BRANCH  41  65
ATOM     65  C   UNL A   1      42.044  26.841  27.783  1.00  0.00     0.064 A 
ATOM     66  C   UNL A   1      42.974  27.352  26.867  1.00  0.00     0.173 A 
ATOM     67  C   UNL A   1      41.518  25.564  27.535  1.00  0.00     0.173 A 
ATOM     68  F   UNL A   1      43.483  28.581  27.045  1.00  0.00    -0.203 F 
ATOM     69  C   UNL A   1      43.345  26.627  25.737  1.00  0.00     0.198 A 
ATOM     70  C   UNL A   1      41.911  24.828  26.420  1.00  0.00     0.198 A 
ATOM     71  F   UNL A   1      40.622  25.032  28.378  1.00  0.00    -0.203 F 
ATOM     72  F   UNL A   1      44.196  27.159  24.850  1.00  0.00    -0.200 F 
ATOM     73  C   UNL A   1      42.817  25.362  25.517  1.00  0.00     0.200 A 
ATOM     74  F   UNL A   1      41.404  23.604  26.217  1.00  0.00    -0.200 F 
ATOM     75  F   UNL A   1      43.173  24.665  24.430  1.00  0.00    -0.200 F 
ENDBRANCH  41  65
BRANCH  53  76
ATOM     76  C   UNL A   1      44.345  27.294  34.343  1.00  0.00     0.064 A 
ATOM     77  C   UNL A   1      45.622  27.865  34.447  1.00  0.00     0.173 A 
ATOM     78  C   UNL A   1      44.119  26.070  34.989  1.00  0.00     0.173 A 
ATOM     79  F   UNL A   1      45.893  29.028  33.835  1.00  0.00    -0.203 F 
ATOM     80  C   UNL A   1      46.639  27.223  35.150  1.00  0.00     0.198 A 
ATOM     81  C   UNL A   1      45.129  25.444  35.715  1.00  0.00     0.198 A 
ATOM     82  F   UNL A   1      42.913  25.485  34.927  1.00  0.00    -0.203 F 
ATOM     83  F   UNL A   1      47.862  27.766  35.199  1.00  0.00    -0.200 F 
ATOM     84  C   UNL A   1      46.389  26.017  35.789  1.00  0.00     0.200 A 
ATOM     85  F   UNL A   1      44.883  24.286  36.342  1.00  0.00    -0.200 F 
ATOM     86  F   UNL A   1      47.366  25.405  36.471  1.00  0.00    -0.200 F 
ENDBRANCH  53  76
ENDBRANCH  27  28
ENDBRANCH  20  22
ENDBRANCH  19  20
ENDBRANCH  18  19
ENDBRANCH  17  18
ENDBRANCH  16  17
ENDBRANCH   1  16
TORSDOF 17
ENDMDL
MODEL 2
REMARK VINA RESULT:      -9.7      0.859      1.998
REMARK SMILES CN(C)C(=O)CC(C)(C)CC(=O)OCCOCCOC(=O)c1ccc(-c2c3nc(c(-c4c(F)c(F)c(F)c(F)c4F)c4ccc([nH]4)c(-c4c(F)c(F)c(F)c(F)c4F)c4nc(c(-c5c(F)c(F)c(F)c(F)c5F)c5ccc2[nH]5)C=C4)C=C3)cc1
REMARK SMILES IDX 15 1 14 2 13 3 11 4 12 5 10 6 7 7 8 8 9 9 6 10 4 11 1 12
REMARK SMILES IDX 2 13 3 14 5 15 16 16 17 17 18 18 19 19 20 20 21 21 22 22
REMARK SMILES IDX 23 23 84 24 24 25 83 26 25 27 26 28 27 29 77 30 28 31 82 32
REMARK SMILES IDX 76 33 78 34 29 35 81 36 75 37 74 38 30 40 62 41 42 42 61 43
REMARK SMILES IDX 43 44 46 45 60 46 79 47 44 48 45 49 59 51 80 52 47 53 31 54
REMARK SMILES IDX 32 55 40 56 33 57 34 58 38 59 41 60 35 61 36 62 39 63 37 64
REMARK SMILES IDX 63 65 64 66 72 67 65 68 66 69 70 70 73 71 67 72 68 73 71 74
REMARK SMILES IDX 69 75 48 76 49 77 57 78 50 79 51 80 55 81 58 82 52 83 53 84
REMARK SMILES IDX 56 85 54 86
REMARK H PARENT 78 39 46 50
REMARK Flexibility Score: inf
ROOT
ATOM      1  C   UNL A   1      33.074  29.330  26.058  1.00  0.00     0.202 C 
ENDROOT
BRANCH   1   2
ATOM      2  C   UNL A   1      32.722  29.082  24.590  1.00  0.00     0.261 C 
BRANCH   2   3
ATOM      3  O   UNL A   1      31.951  27.876  24.408  1.00  0.00    -0.463 OA
BRANCH   3   4
ATOM      4  C   UNL A   1      32.276  27.123  23.327  1.00  0.00     0.306 C 
ATOM      5  O   UNL A   1      31.534  26.931  22.370  1.00  0.00    -0.252 OA
BRANCH   4   6
ATOM      6  C   UNL A   1      33.590  26.380  23.472  1.00  0.00     0.129 C 
BRANCH   6   7
ATOM      7  C   UNL A   1      33.732  24.988  24.149  1.00  0.00    -0.016 C 
ATOM      8  C   UNL A   1      32.346  24.678  24.764  1.00  0.00     0.012 C 
ATOM      9  C   UNL A   1      34.740  25.014  25.317  1.00  0.00     0.012 C 
BRANCH   7  10
ATOM     10  C   UNL A   1      34.134  23.822  23.206  1.00  0.00     0.107 C 
BRANCH  10  11
ATOM     11  C   UNL A   1      35.357  23.012  23.614  1.00  0.00     0.222 C 
ATOM     12  C   UNL A   1      36.407  21.094  24.683  1.00  0.00     0.146 C 
ATOM     13  N   UNL A   1      35.218  21.889  24.412  1.00  0.00    -0.349 N 
ATOM     14  C   UNL A   1      34.001  21.444  25.070  1.00  0.00     0.146 C 
ATOM     15  O   UNL A   1      36.460  23.382  23.202  1.00  0.00    -0.275 OA
ENDBRANCH  10  11
ENDBRANCH   7  10
ENDBRANCH   6   7
ENDBRANCH   4   6
ENDBRANCH   3   4
ENDBRANCH   2   3
ENDBRANCH   1   2
BRANCH   1  16
ATOM     16  O   UNL A   1      32.100  30.034  26.824  1.00  0.00    -0.374 OA
BRANCH  16  17
ATOM     17  C   UNL A   1      31.495  31.168  26.199  1.00  0.00     0.202 C 
BRANCH  17  18
ATOM     18  C   UNL A   1      31.616  32.475  26.988  1.00  0.00     0.261 C 
BRANCH  18  19
ATOM     19  O   UNL A   1      32.930  33.055  26.831  1.00  0.00    -0.460 OA
BRANCH  19  20
ATOM     20  C   UNL A   1      33.484  33.523  27.971  1.00  0.00     0.338 C 
ATOM     21  O   UNL A   1      32.980  34.286  28.784  1.00  0.00    -0.246 OA
BRANCH  20  22
ATOM     22  C   UNL A   1      34.767  32.846  28.234  1.00  0.00     0.060 A 
ATOM     23  C   UNL A   1      34.712  31.496  28.602  1.00  0.00     0.016 A 
ATOM     24  C   UNL A   1      35.986  33.530  28.228  1.00  0.00     0.016 A 
ATOM     25  C   UNL A   1      35.864  30.841  29.031  1.00  0.00     0.010 A 
ATOM     26  C   UNL A   1      37.143  32.869  28.665  1.00  0.00     0.010 A 
ATOM     27  C   UNL A   1      37.078  31.535  29.111  1.00  0.00    -0.014 A 
BRANCH  27  28
ATOM     28  C   UNL A   1      38.218  30.905  29.826  1.00  0.00     0.031 A 
ATOM     29  C   UNL A   1      38.450  31.245  31.274  1.00  0.00     0.074 A 
ATOM     30  C   UNL A   1      38.990  29.981  29.225  1.00  0.00     0.049 A 
ATOM     31  N   UNL A   1      39.357  30.789  32.102  1.00  0.00    -0.248 NA
ATOM     32  C   UNL A   1      37.532  32.228  31.871  1.00  0.00     0.031 C 
ATOM     33  C   UNL A   1      38.842  29.527  27.844  1.00  0.00     0.029 A 
ATOM     34  N   UNL A   1      40.049  29.253  29.708  1.00  0.00    -0.354 N 
ATOM     35  C   UNL A   1      39.116  31.424  33.314  1.00  0.00     0.074 A 
ATOM     36  C   UNL A   1      38.002  32.324  33.107  1.00  0.00     0.031 C 
ATOM     37  C   UNL A   1      39.777  28.595  27.590  1.00  0.00     0.029 A 
ATOM     38  C   UNL A   1      40.605  28.407  28.781  1.00  0.00     0.049 A 
ATOM     39  H   UNL A   1      40.380  29.332  30.632  1.00  0.00     0.167 HD
ATOM     40  C   UNL A   1      39.754  31.262  34.497  1.00  0.00     0.037 A 
ATOM     41  C   UNL A   1      41.667  27.584  28.880  1.00  0.00     0.037 A 
ATOM     42  C   UNL A   1      40.859  30.365  34.713  1.00  0.00     0.049 A 
ATOM     43  C   UNL A   1      42.409  27.479  30.187  1.00  0.00     0.074 A 
ATOM     44  C   UNL A   1      41.560  30.124  35.881  1.00  0.00     0.029 A 
ATOM     45  N   UNL A   1      41.425  29.563  33.734  1.00  0.00    -0.354 N 
ATOM     46  N   UNL A   1      42.159  28.067  31.333  1.00  0.00    -0.248 NA
ATOM     47  C   UNL A   1      43.582  26.591  30.216  1.00  0.00     0.031 C 
ATOM     48  C   UNL A   1      42.581  29.210  35.598  1.00  0.00     0.029 A 
ATOM     49  C   UNL A   1      42.485  28.845  34.266  1.00  0.00     0.049 A 
ATOM     50  H   UNL A   1      41.120  29.510  32.799  1.00  0.00     0.167 HD
ATOM     51  C   UNL A   1      43.122  27.601  32.220  1.00  0.00     0.074 A 
ATOM     52  C   UNL A   1      43.953  26.671  31.486  1.00  0.00     0.031 C 
ATOM     53  C   UNL A   1      43.300  27.916  33.527  1.00  0.00     0.037 A 
BRANCH  40  54
ATOM     54  C   UNL A   1      39.285  32.090  35.656  1.00  0.00     0.064 A 
ATOM     55  C   UNL A   1      38.346  31.601  36.577  1.00  0.00     0.173 A 
ATOM     56  C   UNL A   1      39.814  33.371  35.873  1.00  0.00     0.173 A 
ATOM     57  F   UNL A   1      37.802  30.387  36.405  1.00  0.00    -0.203 F 
ATOM     58  C   UNL A   1      37.941  32.373  37.663  1.00  0.00     0.198 A 
ATOM     59  C   UNL A   1      39.425  34.129  36.974  1.00  0.00     0.198 A 
ATOM     60  F   UNL A   1      40.718  33.883  35.024  1.00  0.00    -0.203 F 
ATOM     61  F   UNL A   1      37.015  31.901  38.509  1.00  0.00    -0.200 F 
ATOM     62  C   UNL A   1      38.485  33.633  37.865  1.00  0.00     0.200 A 
ATOM     63  F   UNL A   1      39.961  35.342  37.174  1.00  0.00    -0.200 F 
ATOM     64  F   UNL A   1      38.100  34.370  38.915  1.00  0.00    -0.200 F 
ENDBRANCH  40  54
BRANCH  41  65
ATOM     65  C   UNL A   1      42.109  26.795  27.700  1.00  0.00     0.064 A 
ATOM     66  C   UNL A   1      41.602  25.511  27.454  1.00  0.00     0.173 A 
ATOM     67  C   UNL A   1      43.073  27.297  26.814  1.00  0.00     0.173 A 
ATOM     68  F   UNL A   1      40.701  24.975  28.290  1.00  0.00    -0.203 F 
ATOM     69  C   UNL A   1      42.058  24.751  26.377  1.00  0.00     0.198 A 
ATOM     70  C   UNL A   1      43.507  26.548  25.722  1.00  0.00     0.198 A 
ATOM     71  F   UNL A   1      43.593  28.517  27.009  1.00  0.00    -0.203 F 
ATOM     72  F   UNL A   1      41.596  23.508  26.194  1.00  0.00    -0.200 F 
ATOM     73  C   UNL A   1      43.006  25.274  25.509  1.00  0.00     0.200 A 
ATOM     74  F   UNL A   1      44.417  27.060  24.882  1.00  0.00    -0.200 F 
ATOM     75  F   UNL A   1      43.445  24.543  24.476  1.00  0.00    -0.200 F 
ENDBRANCH  41  65
BRANCH  53  76
ATOM     76  C   UNL A   1      44.416  27.229  34.258  1.00  0.00     0.064 A 
ATOM     77  C   UNL A   1      44.234  25.982  34.874  1.00  0.00     0.173 A 
ATOM     78  C   UNL A   1      45.694  27.804  34.307  1.00  0.00     0.173 A 
ATOM     79  F   UNL A   1      43.027  25.397  34.869  1.00  0.00    -0.203 F 
ATOM     80  C   UNL A   1      45.285  25.348  35.533  1.00  0.00     0.198 A 
ATOM     81  C   UNL A   1      46.750  27.155  34.941  1.00  0.00     0.198 A 
ATOM     82  F   UNL A   1      45.924  28.992  33.726  1.00  0.00    -0.203 F 
ATOM     83  F   UNL A   1      45.077  24.178  36.151  1.00  0.00    -0.200 F 
ATOM     84  C   UNL A   1      46.543  25.932  35.559  1.00  0.00     0.200 A 
ATOM     85  F   UNL A   1      47.968  27.714  34.954  1.00  0.00    -0.200 F 
ATOM     86  F   UNL A   1      47.554  25.316  36.187  1.00  0.00    -0.200 F 
ENDBRANCH  53  76
ENDBRANCH  27  28
ENDBRANCH  20  22
ENDBRANCH  19  20
ENDBRANCH  18  19
ENDBRANCH  17  18
ENDBRANCH  16  17
ENDBRANCH   1  16
TORSDOF 17
ENDMDL
MODEL 3
REMARK VINA RESULT:      -9.5      1.657      2.651
REMARK SMILES CN(C)C(=O)CC(C)(C)CC(=O)OCCOCCOC(=O)c1ccc(-c2c3nc(c(-c4c(F)c(F)c(F)c(F)c4F)c4ccc([nH]4)c(-c4c(F)c(F)c(F)c(F)c4F)c4nc(c(-c5c(F)c(F)c(F)c(F)c5F)c5ccc2[nH]5)C=C4)C=C3)cc1
REMARK SMILES IDX 15 1 14 2 13 3 11 4 12 5 10 6 7 7 8 8 9 9 6 10 4 11 1 12
REMARK SMILES IDX 2 13 3 14 5 15 16 16 17 17 18 18 19 19 20 20 21 21 22 22
REMARK SMILES IDX 23 23 84 24 24 25 83 26 25 27 26 28 27 29 77 30 28 31 82 32
REMARK SMILES IDX 76 33 78 34 29 35 81 36 75 37 74 38 30 40 62 41 42 42 61 43
REMARK SMILES IDX 43 44 46 45 60 46 79 47 44 48 45 49 59 51 80 52 47 53 31 54
REMARK SMILES IDX 32 55 40 56 33 57 34 58 38 59 41 60 35 61 36 62 39 63 37 64
REMARK SMILES IDX 63 65 64 66 72 67 65 68 66 69 70 70 73 71 67 72 68 73 71 74
REMARK SMILES IDX 69 75 48 76 49 77 57 78 50 79 51 80 55 81 58 82 52 83 53 84
REMARK SMILES IDX 56 85 54 86
REMARK H PARENT 78 39 46 50
REMARK Flexibility Score: inf
ROOT
ATOM      1  C   UNL A   1      33.065  29.276  27.061  1.00  0.00     0.202 C 
ENDROOT
BRANCH   1   2
ATOM      2  C   UNL A   1      31.694  28.616  27.221  1.00  0.00     0.261 C 
BRANCH   2   3
ATOM      3  O   UNL A   1      31.793  27.193  27.434  1.00  0.00    -0.463 OA
BRANCH   3   4
ATOM      4  C   UNL A   1      31.263  26.410  26.460  1.00  0.00     0.306 C 
ATOM      5  O   UNL A   1      30.137  25.927  26.497  1.00  0.00    -0.252 OA
BRANCH   4   6
ATOM      6  C   UNL A   1      32.254  26.030  25.376  1.00  0.00     0.129 C 
BRANCH   6   7
ATOM      7  C   UNL A   1      32.256  26.641  23.946  1.00  0.00    -0.016 C 
ATOM      8  C   UNL A   1      33.652  27.286  23.769  1.00  0.00     0.012 C 
ATOM      9  C   UNL A   1      31.221  27.777  23.802  1.00  0.00     0.012 C 
BRANCH   7  10
ATOM     10  C   UNL A   1      32.018  25.636  22.788  1.00  0.00     0.107 C 
BRANCH  10  11
ATOM     11  C   UNL A   1      31.717  24.199  23.189  1.00  0.00     0.222 C 
ATOM     12  C   UNL A   1      32.408  21.966  23.868  1.00  0.00     0.146 C 
ATOM     13  N   UNL A   1      32.747  23.295  23.383  1.00  0.00    -0.349 N 
ATOM     14  C   UNL A   1      34.155  23.517  23.090  1.00  0.00     0.146 C 
ATOM     15  O   UNL A   1      30.535  23.877  23.345  1.00  0.00    -0.275 OA
ENDBRANCH  10  11
ENDBRANCH   7  10
ENDBRANCH   6   7
ENDBRANCH   4   6
ENDBRANCH   3   4
ENDBRANCH   2   3
ENDBRANCH   1   2
BRANCH   1  16
ATOM     16  O   UNL A   1      33.061  30.689  26.874  1.00  0.00    -0.374 OA
BRANCH  16  17
ATOM     17  C   UNL A   1      31.782  31.309  26.731  1.00  0.00     0.202 C 
BRANCH  17  18
ATOM     18  C   UNL A   1      31.781  32.829  26.924  1.00  0.00     0.261 C 
BRANCH  18  19
ATOM     19  O   UNL A   1      33.124  33.325  27.124  1.00  0.00    -0.460 OA
BRANCH  19  20
ATOM     20  C   UNL A   1      33.254  34.219  28.130  1.00  0.00     0.338 C 
ATOM     21  O   UNL A   1      32.528  35.172  28.377  1.00  0.00    -0.246 OA
BRANCH  20  22
ATOM     22  C   UNL A   1      34.326  33.802  29.051  1.00  0.00     0.060 A 
ATOM     23  C   UNL A   1      35.625  34.235  28.755  1.00  0.00     0.016 A 
ATOM     24  C   UNL A   1      34.097  32.927  30.117  1.00  0.00     0.016 A 
ATOM     25  C   UNL A   1      36.708  33.743  29.479  1.00  0.00     0.010 A 
ATOM     26  C   UNL A   1      35.190  32.429  30.840  1.00  0.00     0.010 A 
ATOM     27  C   UNL A   1      36.504  32.800  30.495  1.00  0.00    -0.014 A 
BRANCH  27  28
ATOM     28  C   UNL A   1      37.680  32.088  31.059  1.00  0.00     0.031 A 
ATOM     29  C   UNL A   1      38.124  32.408  32.461  1.00  0.00     0.074 A 
ATOM     30  C   UNL A   1      38.298  31.112  30.369  1.00  0.00     0.049 A 
ATOM     31  N   UNL A   1      39.097  31.886  33.166  1.00  0.00    -0.248 NA
ATOM     32  C   UNL A   1      37.365  33.453  33.167  1.00  0.00     0.031 C 
ATOM     33  C   UNL A   1      37.937  30.672  29.023  1.00  0.00     0.029 A 
ATOM     34  N   UNL A   1      39.356  30.310  30.714  1.00  0.00    -0.354 N 
ATOM     35  C   UNL A   1      39.063  32.535  34.395  1.00  0.00     0.074 A 
ATOM     36  C   UNL A   1      37.999  33.513  34.329  1.00  0.00     0.031 C 
ATOM     37  C   UNL A   1      38.761  29.677  28.655  1.00  0.00     0.029 A 
ATOM     38  C   UNL A   1      39.724  29.427  29.729  1.00  0.00     0.049 A 
ATOM     39  H   UNL A   1      39.811  30.362  31.586  1.00  0.00     0.167 HD
ATOM     40  C   UNL A   1      39.839  32.326  35.485  1.00  0.00     0.037 A 
ATOM     41  C   UNL A   1      40.728  28.530  29.694  1.00  0.00     0.037 A 
ATOM     42  C   UNL A   1      40.895  31.351  35.560  1.00  0.00     0.049 A 
ATOM     43  C   UNL A   1      41.627  28.370  30.893  1.00  0.00     0.074 A 
ATOM     44  C   UNL A   1      41.725  31.058  36.628  1.00  0.00     0.029 A 
ATOM     45  N   UNL A   1      41.268  30.512  34.522  1.00  0.00    -0.354 N 
ATOM     46  N   UNL A   1      41.572  28.972  32.057  1.00  0.00    -0.248 NA
ATOM     47  C   UNL A   1      42.727  27.400  30.774  1.00  0.00     0.031 C 
ATOM     48  C   UNL A   1      42.632  30.074  36.221  1.00  0.00     0.029 A 
ATOM     49  C   UNL A   1      42.335  29.719  34.916  1.00  0.00     0.049 A 
ATOM     50  H   UNL A   1      40.840  30.483  33.636  1.00  0.00     0.167 HD
ATOM     51  C   UNL A   1      42.607  28.436  32.814  1.00  0.00     0.074 A 
ATOM     52  C   UNL A   1      43.266  27.451  31.983  1.00  0.00     0.031 C 
ATOM     53  C   UNL A   1      42.978  28.735  34.083  1.00  0.00     0.037 A 
BRANCH  40  54
ATOM     54  C   UNL A   1      39.586  33.183  36.689  1.00  0.00     0.064 A 
ATOM     55  C   UNL A   1      40.245  34.408  36.872  1.00  0.00     0.173 A 
ATOM     56  C   UNL A   1      38.638  32.796  37.649  1.00  0.00     0.173 A 
ATOM     57  F   UNL A   1      41.169  34.815  35.988  1.00  0.00    -0.203 F 
ATOM     58  C   UNL A   1      39.979  35.204  37.983  1.00  0.00     0.198 A 
ATOM     59  C   UNL A   1      38.357  33.607  38.744  1.00  0.00     0.198 A 
ATOM     60  F   UNL A   1      37.977  31.636  37.518  1.00  0.00    -0.203 F 
ATOM     61  F   UNL A   1      40.648  36.352  38.157  1.00  0.00    -0.200 F 
ATOM     62  C   UNL A   1      39.031  34.807  38.914  1.00  0.00     0.200 A 
ATOM     63  F   UNL A   1      37.431  33.228  39.637  1.00  0.00    -0.200 F 
ATOM     64  F   UNL A   1      38.769  35.579  39.977  1.00  0.00    -0.200 F 
ENDBRANCH  40  54
BRANCH  41  65
ATOM     65  C   UNL A   1      40.954  27.713  28.472  1.00  0.00     0.064 A 
ATOM     66  C   UNL A   1      41.832  28.140  27.466  1.00  0.00     0.173 A 
ATOM     67  C   UNL A   1      40.270  26.505  28.272  1.00  0.00     0.173 A 
ATOM     68  F   UNL A   1      42.486  29.303  27.597  1.00  0.00    -0.203 F 
ATOM     69  C   UNL A   1      42.001  27.400  26.297  1.00  0.00     0.198 A 
ATOM     70  C   UNL A   1      40.462  25.751  27.116  1.00  0.00     0.198 A 
ATOM     71  F   UNL A   1      39.415  26.056  29.202  1.00  0.00    -0.203 F 
ATOM     72  F   UNL A   1      42.806  27.855  25.328  1.00  0.00    -0.200 F 
ATOM     73  C   UNL A   1      41.320  26.203  26.126  1.00  0.00     0.200 A 
ATOM     74  F   UNL A   1      39.807  24.593  26.959  1.00  0.00    -0.200 F 
ATOM     75  F   UNL A   1      41.482  25.492  25.002  1.00  0.00    -0.200 F 
ENDBRANCH  41  65
BRANCH  53  76
ATOM     76  C   UNL A   1      44.128  27.969  34.667  1.00  0.00     0.064 A 
ATOM     77  C   UNL A   1      43.942  26.731  35.301  1.00  0.00     0.173 A 
ATOM     78  C   UNL A   1      45.439  28.456  34.552  1.00  0.00     0.173 A 
ATOM     79  F   UNL A   1      42.707  26.229  35.449  1.00  0.00    -0.203 F 
ATOM     80  C   UNL A   1      45.022  26.022  35.820  1.00  0.00     0.198 A 
ATOM     81  C   UNL A   1      46.520  27.732  35.047  1.00  0.00     0.198 A 
ATOM     82  F   UNL A   1      45.673  29.630  33.947  1.00  0.00    -0.203 F 
ATOM     83  F   UNL A   1      44.815  24.864  36.461  1.00  0.00    -0.200 F 
ATOM     84  C   UNL A   1      46.310  26.520  35.687  1.00  0.00     0.200 A 
ATOM     85  F   UNL A   1      47.765  28.207  34.906  1.00  0.00    -0.200 F 
ATOM     86  F   UNL A   1      47.349  25.832  36.181  1.00  0.00    -0.200 F 
ENDBRANCH  53  76
ENDBRANCH  27  28
ENDBRANCH  20  22
ENDBRANCH  19  20
ENDBRANCH  18  19
ENDBRANCH  17  18
ENDBRANCH  16  17
ENDBRANCH   1  16
TORSDOF 17
ENDMDL
