MODEL 1
REMARK VINA RESULT:     -12.8      0.000      0.000
REMARK SMILES Cc1ncccc1OC1(C(=O)OCCOCCOC(=O)c2ccc(-c3c4nc(c(-c5c(F)c(F)c(F)c(F)c5F)c5ccc([nH]5)c(-c5c(F)c(F)c(F)c(F)c5F)c5nc(c(-c6c(F)c(F)c(F)c(F)c6F)c6ccc3[nH]6)C=C5)C=C4)cc2)CCN(C(=O)c2ccc(O)nn2)CC1
REMARK SMILES IDX 15 1 14 2 13 3 12 4 10 5 11 6 9 7 84 8 97 9 85 10 96 11
REMARK SMILES IDX 86 12 87 13 88 14 8 15 7 16 1 17 2 18 3 19 4 20 6 21 5 22
REMARK SMILES IDX 89 23 90 24 95 25 91 26 94 27 92 28 93 29 16 31 17 32 18 33
REMARK SMILES IDX 19 34 20 35 21 36 22 37 83 38 23 39 82 40 24 41 25 42 26 43
REMARK SMILES IDX 76 44 27 45 81 46 75 47 77 48 28 49 80 50 74 51 73 52 29 54
REMARK SMILES IDX 61 55 41 56 60 57 42 58 45 59 59 60 78 61 43 62 44 63 58 65
REMARK SMILES IDX 79 66 46 67 30 68 31 69 39 70 32 71 33 72 37 73 40 74 34 75
REMARK SMILES IDX 35 76 38 77 36 78 62 79 63 80 71 81 64 82 65 83 69 84 72 85
REMARK SMILES IDX 66 86 67 87 70 88 68 89 47 90 48 91 56 92 49 93 50 94 54 95
REMARK SMILES IDX 57 96 51 97 52 98 55 99 53 100
REMARK H PARENT 93 30 77 53 45 64
REMARK Flexibility Score: inf
ROOT
ATOM      1  O   UNL A   1      41.631  21.543  27.227  1.00  0.00    -0.374 OA
ENDROOT
BRANCH   1   2
ATOM      2  C   UNL A   1      40.220  21.754  27.169  1.00  0.00     0.202 C 
BRANCH   2   3
ATOM      3  C   UNL A   1      39.594  21.561  25.787  1.00  0.00     0.261 C 
BRANCH   3   4
ATOM      4  O   UNL A   1      38.156  21.637  25.860  1.00  0.00    -0.460 OA
BRANCH   4   5
ATOM      5  C   UNL A   1      37.441  20.741  25.110  1.00  0.00     0.350 C 
ATOM      6  O   UNL A   1      37.953  19.784  24.542  1.00  0.00    -0.247 OA
BRANCH   5   7
ATOM      7  C   UNL A   1      35.916  21.115  25.068  1.00  0.00     0.209 C 
ATOM      8  C   UNL A   1      35.508  21.594  26.464  1.00  0.00     0.082 C 
ATOM      9  C   UNL A   1      35.858  22.186  23.986  1.00  0.00     0.082 C 
ATOM     10  C   UNL A   1      34.426  22.660  26.542  1.00  0.00     0.124 C 
ATOM     11  C   UNL A   1      34.630  23.049  24.029  1.00  0.00     0.124 C 
ATOM     12  N   UNL A   1      34.187  23.478  25.357  1.00  0.00    -0.337 N 
ATOM     13  C   UNL A   1      33.194  24.474  25.495  1.00  0.00     0.274 C 
ATOM     14  O   UNL A   1      32.728  24.820  26.578  1.00  0.00    -0.267 OA
BRANCH   7  15
ATOM     15  O   UNL A   1      35.373  19.878  24.582  1.00  0.00    -0.474 OA
BRANCH  15  16
ATOM     16  C   UNL A   1      34.360  19.027  24.829  1.00  0.00     0.142 A 
ATOM     17  C   UNL A   1      32.238  20.473  24.948  1.00  0.00     0.071 C 
ATOM     18  C   UNL A   1      32.982  19.192  24.956  1.00  0.00     0.079 A 
ATOM     19  N   UNL A   1      32.108  18.138  24.990  1.00  0.00    -0.258 NA
ATOM     20  C   UNL A   1      32.587  16.889  24.878  1.00  0.00     0.111 A 
ATOM     21  C   UNL A   1      34.806  17.695  24.745  1.00  0.00     0.050 A 
ATOM     22  C   UNL A   1      33.927  16.615  24.765  1.00  0.00     0.024 A 
ENDBRANCH  15  16
ENDBRANCH   7  15
BRANCH  13  23
ATOM     23  C   UNL A   1      32.731  25.160  24.267  1.00  0.00     0.151 A 
ATOM     24  C   UNL A   1      33.546  26.111  23.679  1.00  0.00     0.042 A 
ATOM     25  N   UNL A   1      31.612  24.668  23.675  1.00  0.00    -0.142 NA
ATOM     26  C   UNL A   1      33.207  26.540  22.403  1.00  0.00     0.072 A 
ATOM     27  N   UNL A   1      31.280  25.098  22.429  1.00  0.00    -0.112 NA
ATOM     28  C   UNL A   1      32.079  25.999  21.825  1.00  0.00     0.230 A 
BRANCH  28  29
ATOM     29  O   UNL A   1      31.732  26.331  20.555  1.00  0.00    -0.492 OA
ATOM     30  H   UNL A   1      31.016  26.916  20.403  1.00  0.00     0.295 HD
ENDBRANCH  28  29
ENDBRANCH  13  23
ENDBRANCH   5   7
ENDBRANCH   4   5
ENDBRANCH   3   4
ENDBRANCH   2   3
ENDBRANCH   1   2
BRANCH   1  31
ATOM     31  C   UNL A   1      42.242  20.958  26.080  1.00  0.00     0.202 C 
BRANCH  31  32
ATOM     32  C   UNL A   1      43.376  21.777  25.455  1.00  0.00     0.261 C 
BRANCH  32  33
ATOM     33  O   UNL A   1      42.881  22.934  24.756  1.00  0.00    -0.460 OA
BRANCH  33  34
ATOM     34  C   UNL A   1      43.642  24.045  24.908  1.00  0.00     0.338 C 
ATOM     35  O   UNL A   1      44.687  24.309  24.338  1.00  0.00    -0.246 OA
BRANCH  34  36
ATOM     36  C   UNL A   1      42.964  25.022  25.783  1.00  0.00     0.060 A 
ATOM     37  C   UNL A   1      43.694  26.157  26.157  1.00  0.00     0.016 A 
ATOM     38  C   UNL A   1      41.691  24.794  26.311  1.00  0.00     0.016 A 
ATOM     39  C   UNL A   1      43.180  27.036  27.108  1.00  0.00     0.010 A 
ATOM     40  C   UNL A   1      41.177  25.677  27.268  1.00  0.00     0.010 A 
ATOM     41  C   UNL A   1      41.938  26.779  27.702  1.00  0.00    -0.014 A 
BRANCH  41  42
ATOM     42  C   UNL A   1      41.513  27.582  28.876  1.00  0.00     0.031 A 
ATOM     43  C   UNL A   1      42.297  27.479  30.156  1.00  0.00     0.074 A 
ATOM     44  C   UNL A   1      40.474  28.431  28.791  1.00  0.00     0.049 A 
ATOM     45  N   UNL A   1      42.104  28.084  31.301  1.00  0.00    -0.248 NA
ATOM     46  C   UNL A   1      43.456  26.573  30.143  1.00  0.00     0.031 C 
ATOM     47  C   UNL A   1      39.663  28.653  27.596  1.00  0.00     0.029 A 
ATOM     48  N   UNL A   1      39.924  29.265  29.733  1.00  0.00    -0.354 N 
ATOM     49  C   UNL A   1      43.110  27.629  32.143  1.00  0.00     0.074 A 
ATOM     50  C   UNL A   1      43.894  26.674  31.390  1.00  0.00     0.031 C 
ATOM     51  C   UNL A   1      38.713  29.561  27.877  1.00  0.00     0.029 A 
ATOM     52  C   UNL A   1      38.832  29.961  29.279  1.00  0.00     0.049 A 
ATOM     53  H   UNL A   1      40.280  29.355  30.646  1.00  0.00     0.167 HD
ATOM     54  C   UNL A   1      43.364  27.983  33.426  1.00  0.00     0.037 A 
ATOM     55  C   UNL A   1      38.010  30.810  29.928  1.00  0.00     0.037 A 
ATOM     56  C   UNL A   1      42.589  28.938  34.174  1.00  0.00     0.049 A 
ATOM     57  C   UNL A   1      38.274  31.134  31.376  1.00  0.00     0.074 A 
ATOM     58  C   UNL A   1      42.784  29.381  35.471  1.00  0.00     0.029 A 
ATOM     59  N   UNL A   1      41.466  29.592  33.694  1.00  0.00    -0.354 N 
ATOM     60  N   UNL A   1      39.244  30.721  32.155  1.00  0.00    -0.248 NA
ATOM     61  C   UNL A   1      37.326  32.046  32.034  1.00  0.00     0.031 C 
ATOM     62  C   UNL A   1      41.747  30.264  35.793  1.00  0.00     0.029 A 
ATOM     63  C   UNL A   1      40.938  30.413  34.677  1.00  0.00     0.049 A 
ATOM     64  H   UNL A   1      41.096  29.489  32.786  1.00  0.00     0.167 HD
ATOM     65  C   UNL A   1      39.042  31.343  33.381  1.00  0.00     0.074 A 
ATOM     66  C   UNL A   1      37.863  32.172  33.239  1.00  0.00     0.031 C 
ATOM     67  C   UNL A   1      39.769  31.239  34.521  1.00  0.00     0.037 A 
BRANCH  54  68
ATOM     68  C   UNL A   1      44.519  27.315  34.114  1.00  0.00     0.064 A 
ATOM     69  C   UNL A   1      44.371  26.092  34.786  1.00  0.00     0.173 A 
ATOM     70  C   UNL A   1      45.799  27.888  34.070  1.00  0.00     0.173 A 
ATOM     71  F   UNL A   1      43.165  25.509  34.868  1.00  0.00    -0.203 F 
ATOM     72  C   UNL A   1      45.457  25.480  35.407  1.00  0.00     0.198 A 
ATOM     73  C   UNL A   1      46.888  27.260  34.667  1.00  0.00     0.198 A 
ATOM     74  F   UNL A   1      45.995  29.054  33.436  1.00  0.00    -0.203 F 
ATOM     75  F   UNL A   1      45.284  24.333  36.079  1.00  0.00    -0.200 F 
ATOM     76  C   UNL A   1      46.715  26.061  35.340  1.00  0.00     0.200 A 
ATOM     77  F   UNL A   1      48.105  27.816  34.591  1.00  0.00    -0.200 F 
ATOM     78  F   UNL A   1      47.761  25.466  35.932  1.00  0.00    -0.200 F 
ENDBRANCH  54  68
BRANCH  55  79
ATOM     79  C   UNL A   1      36.851  31.409  29.217  1.00  0.00     0.064 A 
ATOM     80  C   UNL A   1      36.833  32.770  28.879  1.00  0.00     0.173 A 
ATOM     81  C   UNL A   1      35.730  30.638  28.877  1.00  0.00     0.173 A 
ATOM     82  F   UNL A   1      37.870  33.555  29.206  1.00  0.00    -0.203 F 
ATOM     83  C   UNL A   1      35.729  33.339  28.245  1.00  0.00     0.198 A 
ATOM     84  C   UNL A   1      34.641  31.200  28.218  1.00  0.00     0.198 A 
ATOM     85  F   UNL A   1      35.697  29.331  29.179  1.00  0.00    -0.203 F 
ATOM     86  F   UNL A   1      35.719  34.651  27.975  1.00  0.00    -0.200 F 
ATOM     87  C   UNL A   1      34.638  32.552  27.909  1.00  0.00     0.200 A 
ATOM     88  F   UNL A   1      33.593  30.434  27.883  1.00  0.00    -0.200 F 
ATOM     89  F   UNL A   1      33.579  33.099  27.295  1.00  0.00    -0.200 F 
ENDBRANCH  55  79
BRANCH  67  90
ATOM     90  C   UNL A   1      39.335  32.068  35.696  1.00  0.00     0.064 A 
ATOM     91  C   UNL A   1      39.781  33.385  35.874  1.00  0.00     0.173 A 
ATOM     92  C   UNL A   1      38.428  31.549  36.634  1.00  0.00     0.173 A 
ATOM     93  F   UNL A   1      40.659  33.922  35.014  1.00  0.00    -0.203 F 
ATOM     94  C   UNL A   1      39.353  34.145  36.960  1.00  0.00     0.198 A 
ATOM     95  C   UNL A   1      37.980  32.321  37.702  1.00  0.00     0.198 A 
ATOM     96  F   UNL A   1      37.966  30.296  36.506  1.00  0.00    -0.203 F 
ATOM     97  F   UNL A   1      39.829  35.386  37.136  1.00  0.00    -0.200 F 
ATOM     98  C   UNL A   1      38.448  33.615  37.869  1.00  0.00     0.200 A 
ATOM     99  F   UNL A   1      37.096  31.812  38.571  1.00  0.00    -0.200 F 
ATOM    100  F   UNL A   1      38.033  34.351  38.909  1.00  0.00    -0.200 F 
ENDBRANCH  67  90
ENDBRANCH  41  42
ENDBRANCH  34  36
ENDBRANCH  33  34
ENDBRANCH  32  33
ENDBRANCH  31  32
ENDBRANCH   1  31
TORSDOF 18
ENDMDL
MODEL 2
REMARK VINA RESULT:     -12.7      2.817      8.698
REMARK SMILES Cc1ncccc1OC1(C(=O)OCCOCCOC(=O)c2ccc(-c3c4nc(c(-c5c(F)c(F)c(F)c(F)c5F)c5ccc([nH]5)c(-c5c(F)c(F)c(F)c(F)c5F)c5nc(c(-c6c(F)c(F)c(F)c(F)c6F)c6ccc3[nH]6)C=C5)C=C4)cc2)CCN(C(=O)c2ccc(O)nn2)CC1
REMARK SMILES IDX 15 1 14 2 13 3 12 4 10 5 11 6 9 7 84 8 97 9 85 10 96 11
REMARK SMILES IDX 86 12 87 13 88 14 8 15 7 16 1 17 2 18 3 19 4 20 6 21 5 22
REMARK SMILES IDX 89 23 90 24 95 25 91 26 94 27 92 28 93 29 16 31 17 32 18 33
REMARK SMILES IDX 19 34 20 35 21 36 22 37 83 38 23 39 82 40 24 41 25 42 26 43
REMARK SMILES IDX 76 44 27 45 81 46 75 47 77 48 28 49 80 50 74 51 73 52 29 54
REMARK SMILES IDX 61 55 41 56 60 57 42 58 45 59 59 60 78 61 43 62 44 63 58 65
REMARK SMILES IDX 79 66 46 67 30 68 31 69 39 70 32 71 33 72 37 73 40 74 34 75
REMARK SMILES IDX 35 76 38 77 36 78 62 79 63 80 71 81 64 82 65 83 69 84 72 85
REMARK SMILES IDX 66 86 67 87 70 88 68 89 47 90 48 91 56 92 49 93 50 94 54 95
REMARK SMILES IDX 57 96 51 97 52 98 55 99 53 100
REMARK H PARENT 93 30 77 53 45 64
REMARK Flexibility Score: inf
ROOT
ATOM      1  O   UNL A   1      32.818  29.679  25.712  1.00  0.00    -0.374 OA
ENDROOT
BRANCH   1   2
ATOM      2  C   UNL A   1      32.810  28.429  26.401  1.00  0.00     0.202 C 
BRANCH   2   3
ATOM      3  C   UNL A   1      31.423  27.905  26.776  1.00  0.00     0.261 C 
BRANCH   3   4
ATOM      4  O   UNL A   1      31.469  26.494  27.067  1.00  0.00    -0.460 OA
BRANCH   4   5
ATOM      5  C   UNL A   1      30.743  25.662  26.256  1.00  0.00     0.350 C 
ATOM      6  O   UNL A   1      29.519  25.670  26.210  1.00  0.00    -0.247 OA
BRANCH   5   7
ATOM      7  C   UNL A   1      31.678  24.708  25.429  1.00  0.00     0.209 C 
ATOM      8  C   UNL A   1      33.072  24.745  26.064  1.00  0.00     0.082 C 
ATOM      9  C   UNL A   1      30.969  23.363  25.530  1.00  0.00     0.082 C 
ATOM     10  C   UNL A   1      33.898  23.470  25.995  1.00  0.00     0.124 C 
ATOM     11  C   UNL A   1      31.837  22.177  25.227  1.00  0.00     0.124 C 
ATOM     12  N   UNL A   1      33.193  22.210  25.779  1.00  0.00    -0.337 N 
ATOM     13  C   UNL A   1      34.006  21.055  25.756  1.00  0.00     0.274 C 
ATOM     14  O   UNL A   1      35.175  21.040  26.133  1.00  0.00    -0.267 OA
BRANCH   7  15
ATOM     15  O   UNL A   1      31.507  25.271  24.119  1.00  0.00    -0.474 OA
BRANCH  15  16
ATOM     16  C   UNL A   1      31.754  26.409  23.444  1.00  0.00     0.142 A 
ATOM     17  C   UNL A   1      29.527  27.691  23.384  1.00  0.00     0.071 C 
ATOM     18  C   UNL A   1      30.974  27.519  23.123  1.00  0.00     0.079 A 
ATOM     19  N   UNL A   1      31.503  28.675  22.612  1.00  0.00    -0.258 NA
ATOM     20  C   UNL A   1      32.830  28.759  22.424  1.00  0.00     0.111 A 
ATOM     21  C   UNL A   1      33.133  26.546  23.200  1.00  0.00     0.050 A 
ATOM     22  C   UNL A   1      33.684  27.719  22.693  1.00  0.00     0.024 A 
ENDBRANCH  15  16
ENDBRANCH   7  15
BRANCH  13  23
ATOM     23  C   UNL A   1      33.391  19.789  25.293  1.00  0.00     0.151 A 
ATOM     24  C   UNL A   1      33.657  19.340  24.012  1.00  0.00     0.042 A 
ATOM     25  N   UNL A   1      32.759  19.035  26.231  1.00  0.00    -0.142 NA
ATOM     26  C   UNL A   1      33.286  18.039  23.702  1.00  0.00     0.072 A 
ATOM     27  N   UNL A   1      32.391  17.765  25.918  1.00  0.00    -0.112 NA
ATOM     28  C   UNL A   1      32.670  17.298  24.686  1.00  0.00     0.230 A 
BRANCH  28  29
ATOM     29  O   UNL A   1      32.341  15.999  24.464  1.00  0.00    -0.492 OA
ATOM     30  H   UNL A   1      33.000  15.388  24.200  1.00  0.00     0.295 HD
ENDBRANCH  28  29
ENDBRANCH  13  23
ENDBRANCH   5   7
ENDBRANCH   4   5
ENDBRANCH   3   4
ENDBRANCH   2   3
ENDBRANCH   1   2
BRANCH   1  31
ATOM     31  C   UNL A   1      31.621  30.451  25.766  1.00  0.00     0.202 C 
BRANCH  31  32
ATOM     32  C   UNL A   1      31.738  31.786  26.507  1.00  0.00     0.261 C 
BRANCH  32  33
ATOM     33  O   UNL A   1      32.636  31.702  27.629  1.00  0.00    -0.460 OA
BRANCH  33  34
ATOM     34  C   UNL A   1      33.566  32.687  27.674  1.00  0.00     0.338 C 
ATOM     35  O   UNL A   1      33.378  33.886  27.565  1.00  0.00    -0.246 OA
BRANCH  34  36
ATOM     36  C   UNL A   1      34.889  32.134  28.028  1.00  0.00     0.060 A 
ATOM     37  C   UNL A   1      34.956  30.761  28.290  1.00  0.00     0.016 A 
ATOM     38  C   UNL A   1      36.014  32.944  28.202  1.00  0.00     0.016 A 
ATOM     39  C   UNL A   1      36.131  30.201  28.787  1.00  0.00     0.010 A 
ATOM     40  C   UNL A   1      37.194  32.380  28.703  1.00  0.00     0.010 A 
ATOM     41  C   UNL A   1      37.244  31.014  29.038  1.00  0.00    -0.014 A 
BRANCH  41  42
ATOM     42  C   UNL A   1      38.399  30.455  29.786  1.00  0.00     0.031 A 
ATOM     43  C   UNL A   1      38.608  30.862  31.219  1.00  0.00     0.074 A 
ATOM     44  C   UNL A   1      39.221  29.559  29.214  1.00  0.00     0.049 A 
ATOM     45  N   UNL A   1      39.548  30.502  32.057  1.00  0.00    -0.248 NA
ATOM     46  C   UNL A   1      37.626  31.800  31.784  1.00  0.00     0.031 C 
ATOM     47  C   UNL A   1      39.098  29.053  27.849  1.00  0.00     0.029 A 
ATOM     48  N   UNL A   1      40.325  28.915  29.715  1.00  0.00    -0.354 N 
ATOM     49  C   UNL A   1      39.274  31.171  33.242  1.00  0.00     0.074 A 
ATOM     50  C   UNL A   1      38.099  31.983  33.009  1.00  0.00     0.031 C 
ATOM     51  C   UNL A   1      40.093  28.179  27.618  1.00  0.00     0.029 A 
ATOM     52  C   UNL A   1      40.938  28.088  28.807  1.00  0.00     0.049 A 
ATOM     53  H   UNL A   1      40.647  29.036  30.638  1.00  0.00     0.167 HD
ATOM     54  C   UNL A   1      39.935  31.107  34.423  1.00  0.00     0.037 A 
ATOM     55  C   UNL A   1      42.064  27.356  28.919  1.00  0.00     0.037 A 
ATOM     56  C   UNL A   1      41.099  30.294  34.659  1.00  0.00     0.049 A 
ATOM     57  C   UNL A   1      42.821  27.355  30.222  1.00  0.00     0.074 A 
ATOM     58  C   UNL A   1      41.824  30.143  35.828  1.00  0.00     0.029 A 
ATOM     59  N   UNL A   1      41.714  29.500  33.703  1.00  0.00    -0.354 N 
ATOM     60  N   UNL A   1      42.538  27.968  31.346  1.00  0.00    -0.248 NA
ATOM     61  C   UNL A   1      44.055  26.557  30.272  1.00  0.00     0.031 C 
ATOM     62  C   UNL A   1      42.908  29.298  35.565  1.00  0.00     0.029 A 
ATOM     63  C   UNL A   1      42.827  28.879  34.247  1.00  0.00     0.049 A 
ATOM     64  H   UNL A   1      41.406  29.393  32.773  1.00  0.00     0.167 HD
ATOM     65  C   UNL A   1      43.537  27.608  32.241  1.00  0.00     0.074 A 
ATOM     66  C   UNL A   1      44.428  26.713  31.534  1.00  0.00     0.031 C 
ATOM     67  C   UNL A   1      43.702  27.984  33.534  1.00  0.00     0.037 A 
BRANCH  54  68
ATOM     68  C   UNL A   1      39.428  31.959  35.550  1.00  0.00     0.064 A 
ATOM     69  C   UNL A   1      38.500  31.473  36.484  1.00  0.00     0.173 A 
ATOM     70  C   UNL A   1      39.906  33.267  35.720  1.00  0.00     0.173 A 
ATOM     71  F   UNL A   1      38.003  30.233  36.358  1.00  0.00    -0.203 F 
ATOM     72  C   UNL A   1      38.052  32.274  37.532  1.00  0.00     0.198 A 
ATOM     73  C   UNL A   1      39.478  34.055  36.785  1.00  0.00     0.198 A 
ATOM     74  F   UNL A   1      40.798  33.777  34.858  1.00  0.00    -0.203 F 
ATOM     75  F   UNL A   1      37.134  31.804  38.387  1.00  0.00    -0.200 F 
ATOM     76  C   UNL A   1      38.547  33.560  37.685  1.00  0.00     0.200 A 
ATOM     77  F   UNL A   1      39.966  35.294  36.939  1.00  0.00    -0.200 F 
ATOM     78  F   UNL A   1      38.121  34.327  38.699  1.00  0.00    -0.200 F 
ENDBRANCH  54  68
BRANCH  55  79
ATOM     79  C   UNL A   1      42.553  26.566  27.760  1.00  0.00     0.064 A 
ATOM     80  C   UNL A   1      43.500  27.094  26.870  1.00  0.00     0.173 A 
ATOM     81  C   UNL A   1      42.070  25.274  27.506  1.00  0.00     0.173 A 
ATOM     82  F   UNL A   1      43.973  28.335  27.056  1.00  0.00    -0.203 F 
ATOM     83  C   UNL A   1      43.930  26.366  25.762  1.00  0.00     0.198 A 
ATOM     84  C   UNL A   1      42.522  24.537  26.415  1.00  0.00     0.198 A 
ATOM     85  F   UNL A   1      41.163  24.723  28.326  1.00  0.00    -0.203 F 
ATOM     86  F   UNL A   1      44.801  26.912  24.903  1.00  0.00    -0.200 F 
ATOM     87  C   UNL A   1      43.446  25.087  25.539  1.00  0.00     0.200 A 
ATOM     88  F   UNL A   1      42.061  23.295  26.211  1.00  0.00    -0.200 F 
ATOM     89  F   UNL A   1      43.864  24.385  24.476  1.00  0.00    -0.200 F 
ENDBRANCH  55  79
BRANCH  67  90
ATOM     90  C   UNL A   1      44.866  27.400  34.282  1.00  0.00     0.064 A 
ATOM     91  C   UNL A   1      46.101  28.061  34.354  1.00  0.00     0.173 A 
ATOM     92  C   UNL A   1      44.730  26.185  34.970  1.00  0.00     0.173 A 
ATOM     93  F   UNL A   1      46.287  29.218  33.702  1.00  0.00    -0.203 F 
ATOM     94  C   UNL A   1      47.164  27.513  35.068  1.00  0.00     0.198 A 
ATOM     95  C   UNL A   1      45.785  25.655  35.707  1.00  0.00     0.198 A 
ATOM     96  F   UNL A   1      43.567  25.516  34.939  1.00  0.00    -0.203 F 
ATOM     97  F   UNL A   1      48.350  28.139  35.085  1.00  0.00    -0.200 F 
ATOM     98  C   UNL A   1      47.004  26.315  35.750  1.00  0.00     0.200 A 
ATOM     99  F   UNL A   1      45.624  24.505  36.376  1.00  0.00    -0.200 F 
ATOM    100  F   UNL A   1      48.026  25.795  36.442  1.00  0.00    -0.200 F 
ENDBRANCH  67  90
ENDBRANCH  41  42
ENDBRANCH  34  36
ENDBRANCH  33  34
ENDBRANCH  32  33
ENDBRANCH  31  32
ENDBRANCH   1  31
TORSDOF 18
ENDMDL
MODEL 3
REMARK VINA RESULT:     -12.6      2.751      8.361
REMARK SMILES Cc1ncccc1OC1(C(=O)OCCOCCOC(=O)c2ccc(-c3c4nc(c(-c5c(F)c(F)c(F)c(F)c5F)c5ccc([nH]5)c(-c5c(F)c(F)c(F)c(F)c5F)c5nc(c(-c6c(F)c(F)c(F)c(F)c6F)c6ccc3[nH]6)C=C5)C=C4)cc2)CCN(C(=O)c2ccc(O)nn2)CC1
REMARK SMILES IDX 15 1 14 2 13 3 12 4 10 5 11 6 9 7 84 8 97 9 85 10 96 11
REMARK SMILES IDX 86 12 87 13 88 14 8 15 7 16 1 17 2 18 3 19 4 20 6 21 5 22
REMARK SMILES IDX 89 23 90 24 95 25 91 26 94 27 92 28 93 29 16 31 17 32 18 33
REMARK SMILES IDX 19 34 20 35 21 36 22 37 83 38 23 39 82 40 24 41 25 42 26 43
REMARK SMILES IDX 76 44 27 45 81 46 75 47 77 48 28 49 80 50 74 51 73 52 29 54
REMARK SMILES IDX 61 55 41 56 60 57 42 58 45 59 59 60 78 61 43 62 44 63 58 65
REMARK SMILES IDX 79 66 46 67 30 68 31 69 39 70 32 71 33 72 37 73 40 74 34 75
REMARK SMILES IDX 35 76 38 77 36 78 62 79 63 80 71 81 64 82 65 83 69 84 72 85
REMARK SMILES IDX 66 86 67 87 70 88 68 89 47 90 48 91 56 92 49 93 50 94 54 95
REMARK SMILES IDX 57 96 51 97 52 98 55 99 53 100
REMARK H PARENT 93 30 77 53 45 64
REMARK Flexibility Score: inf
ROOT
ATOM      1  O   UNL A   1      32.704  28.745  25.108  1.00  0.00    -0.374 OA
ENDROOT
BRANCH   1   2
ATOM      2  C   UNL A   1      32.905  27.496  25.769  1.00  0.00     0.202 C 
BRANCH   2   3
ATOM      3  C   UNL A   1      31.674  26.938  26.485  1.00  0.00     0.261 C 
BRANCH   3   4
ATOM      4  O   UNL A   1      31.896  25.576  26.900  1.00  0.00    -0.460 OA
BRANCH   4   5
ATOM      5  C   UNL A   1      31.015  24.630  26.447  1.00  0.00     0.350 C 
ATOM      6  O   UNL A   1      29.859  24.544  26.845  1.00  0.00    -0.247 OA
BRANCH   5   7
ATOM      7  C   UNL A   1      31.684  23.684  25.386  1.00  0.00     0.209 C 
ATOM      8  C   UNL A   1      33.203  23.834  25.510  1.00  0.00     0.082 C 
ATOM      9  C   UNL A   1      31.147  22.310  25.768  1.00  0.00     0.082 C 
ATOM     10  C   UNL A   1      34.047  22.605  25.210  1.00  0.00     0.124 C 
ATOM     11  C   UNL A   1      31.946  21.158  25.231  1.00  0.00     0.124 C 
ATOM     12  N   UNL A   1      33.402  21.298  25.289  1.00  0.00    -0.337 N 
ATOM     13  C   UNL A   1      34.241  20.190  25.034  1.00  0.00     0.274 C 
ATOM     14  O   UNL A   1      35.467  20.262  24.992  1.00  0.00    -0.267 OA
BRANCH   7  15
ATOM     15  O   UNL A   1      31.043  24.161  24.193  1.00  0.00    -0.474 OA
BRANCH  15  16
ATOM     16  C   UNL A   1      30.983  25.264  23.423  1.00  0.00     0.142 A 
ATOM     17  C   UNL A   1      28.779  26.434  24.038  1.00  0.00     0.071 C 
ATOM     18  C   UNL A   1      30.072  26.313  23.325  1.00  0.00     0.079 A 
ATOM     19  N   UNL A   1      30.330  27.457  22.617  1.00  0.00    -0.258 NA
ATOM     20  C   UNL A   1      31.516  27.590  22.002  1.00  0.00     0.111 A 
ATOM     21  C   UNL A   1      32.197  25.448  22.734  1.00  0.00     0.050 A 
ATOM     22  C   UNL A   1      32.476  26.611  22.022  1.00  0.00     0.024 A 
ENDBRANCH  15  16
ENDBRANCH   7  15
BRANCH  13  23
ATOM     23  C   UNL A   1      33.599  18.867  24.850  1.00  0.00     0.151 A 
ATOM     24  C   UNL A   1      34.117  17.991  23.914  1.00  0.00     0.042 A 
ATOM     25  N   UNL A   1      32.654  18.513  25.761  1.00  0.00    -0.142 NA
ATOM     26  C   UNL A   1      33.665  16.679  23.950  1.00  0.00     0.072 A 
ATOM     27  N   UNL A   1      32.209  17.229  25.785  1.00  0.00    -0.112 NA
ATOM     28  C   UNL A   1      32.726  16.352  24.903  1.00  0.00     0.230 A 
BRANCH  28  29
ATOM     29  O   UNL A   1      32.292  15.071  25.029  1.00  0.00    -0.492 OA
ATOM     30  H   UNL A   1      31.401  14.857  24.838  1.00  0.00     0.295 HD
ENDBRANCH  28  29
ENDBRANCH  13  23
ENDBRANCH   5   7
ENDBRANCH   4   5
ENDBRANCH   3   4
ENDBRANCH   2   3
ENDBRANCH   1   2
BRANCH   1  31
ATOM     31  C   UNL A   1      31.471  29.415  25.357  1.00  0.00     0.202 C 
BRANCH  31  32
ATOM     32  C   UNL A   1      31.594  30.774  26.053  1.00  0.00     0.261 C 
BRANCH  32  33
ATOM     33  O   UNL A   1      32.472  30.716  27.193  1.00  0.00    -0.460 OA
BRANCH  33  34
ATOM     34  C   UNL A   1      33.253  31.813  27.351  1.00  0.00     0.338 C 
ATOM     35  O   UNL A   1      32.918  32.980  27.251  1.00  0.00    -0.246 OA
BRANCH  34  36
ATOM     36  C   UNL A   1      34.599  31.427  27.820  1.00  0.00     0.060 A 
ATOM     37  C   UNL A   1      34.801  30.077  28.135  1.00  0.00     0.016 A 
ATOM     38  C   UNL A   1      35.609  32.365  28.046  1.00  0.00     0.016 A 
ATOM     39  C   UNL A   1      35.991  29.671  28.735  1.00  0.00     0.010 A 
ATOM     40  C   UNL A   1      36.803  31.955  28.650  1.00  0.00     0.010 A 
ATOM     41  C   UNL A   1      36.982  30.613  29.037  1.00  0.00    -0.014 A 
BRANCH  41  42
ATOM     42  C   UNL A   1      38.132  30.212  29.886  1.00  0.00     0.031 A 
ATOM     43  C   UNL A   1      39.147  29.247  29.337  1.00  0.00     0.074 A 
ATOM     44  C   UNL A   1      38.299  30.738  31.112  1.00  0.00     0.049 A 
ATOM     45  N   UNL A   1      40.223  28.760  29.902  1.00  0.00    -0.248 NA
ATOM     46  C   UNL A   1      38.920  28.768  27.965  1.00  0.00     0.031 C 
ATOM     47  C   UNL A   1      37.411  31.714  31.739  1.00  0.00     0.029 A 
ATOM     48  N   UNL A   1      39.279  30.522  32.049  1.00  0.00    -0.354 N 
ATOM     49  C   UNL A   1      40.795  27.915  28.960  1.00  0.00     0.074 A 
ATOM     50  C   UNL A   1      39.933  27.931  27.797  1.00  0.00     0.031 C 
ATOM     51  C   UNL A   1      37.883  32.010  32.962  1.00  0.00     0.029 A 
ATOM     52  C   UNL A   1      39.089  31.222  33.214  1.00  0.00     0.049 A 
ATOM     53  H   UNL A   1      40.045  29.922  31.899  1.00  0.00     0.167 HD
ATOM     54  C   UNL A   1      41.942  27.199  29.051  1.00  0.00     0.037 A 
ATOM     55  C   UNL A   1      39.798  31.213  34.361  1.00  0.00     0.037 A 
ATOM     56  C   UNL A   1      42.804  27.188  30.204  1.00  0.00     0.049 A 
ATOM     57  C   UNL A   1      41.032  30.354  34.461  1.00  0.00     0.074 A 
ATOM     58  C   UNL A   1      43.999  26.514  30.382  1.00  0.00     0.029 A 
ATOM     59  N   UNL A   1      42.556  27.879  31.380  1.00  0.00    -0.354 N 
ATOM     60  N   UNL A   1      41.581  29.581  33.555  1.00  0.00    -0.248 NA
ATOM     61  C   UNL A   1      41.747  30.368  35.746  1.00  0.00     0.031 C 
ATOM     62  C   UNL A   1      44.449  26.756  31.684  1.00  0.00     0.029 A 
ATOM     63  C   UNL A   1      43.562  27.624  32.299  1.00  0.00     0.049 A 
ATOM     64  H   UNL A   1      41.780  28.464  31.540  1.00  0.00     0.167 HD
ATOM     65  C   UNL A   1      42.717  29.043  34.147  1.00  0.00     0.074 A 
ATOM     66  C   UNL A   1      42.786  29.587  35.487  1.00  0.00     0.031 C 
ATOM     67  C   UNL A   1      43.623  28.178  33.628  1.00  0.00     0.037 A 
BRANCH  54  68
ATOM     68  C   UNL A   1      42.322  26.346  27.877  1.00  0.00     0.064 A 
ATOM     69  C   UNL A   1      41.776  25.067  27.685  1.00  0.00     0.173 A 
ATOM     70  C   UNL A   1      43.216  26.829  26.909  1.00  0.00     0.173 A 
ATOM     71  F   UNL A   1      40.926  24.555  28.588  1.00  0.00    -0.203 F 
ATOM     72  C   UNL A   1      42.130  24.295  26.581  1.00  0.00     0.198 A 
ATOM     73  C   UNL A   1      43.546  26.065  25.792  1.00  0.00     0.198 A 
ATOM     74  F   UNL A   1      43.762  28.047  27.042  1.00  0.00    -0.203 F 
ATOM     75  F   UNL A   1      41.629  23.060  26.441  1.00  0.00    -0.200 F 
ATOM     76  C   UNL A   1      43.008  24.798  25.633  1.00  0.00     0.200 A 
ATOM     77  F   UNL A   1      44.385  26.558  24.870  1.00  0.00    -0.200 F 
ATOM     78  F   UNL A   1      43.342  24.056  24.567  1.00  0.00    -0.200 F 
ENDBRANCH  54  68
BRANCH  55  79
ATOM     79  C   UNL A   1      39.355  32.039  35.513  1.00  0.00     0.064 A 
ATOM     80  C   UNL A   1      39.778  33.367  35.658  1.00  0.00     0.173 A 
ATOM     81  C   UNL A   1      38.514  31.510  36.504  1.00  0.00     0.173 A 
ATOM     82  F   UNL A   1      40.604  33.910  34.751  1.00  0.00    -0.203 F 
ATOM     83  C   UNL A   1      39.391  34.129  36.760  1.00  0.00     0.198 A 
ATOM     84  C   UNL A   1      38.104  32.282  37.588  1.00  0.00     0.198 A 
ATOM     85  F   UNL A   1      38.081  30.244  36.412  1.00  0.00    -0.203 F 
ATOM     86  F   UNL A   1      39.847  35.382  36.898  1.00  0.00    -0.200 F 
ATOM     87  C   UNL A   1      38.550  33.588  37.719  1.00  0.00     0.200 A 
ATOM     88  F   UNL A   1      37.280  31.759  38.507  1.00  0.00    -0.200 F 
ATOM     89  F   UNL A   1      38.174  34.323  38.776  1.00  0.00    -0.200 F 
ENDBRANCH  55  79
BRANCH  67  90
ATOM     90  C   UNL A   1      44.787  27.792  34.494  1.00  0.00     0.064 A 
ATOM     91  C   UNL A   1      44.781  26.614  35.254  1.00  0.00     0.173 A 
ATOM     92  C   UNL A   1      45.941  28.591  34.529  1.00  0.00     0.173 A 
ATOM     93  F   UNL A   1      43.698  25.824  35.266  1.00  0.00    -0.203 F 
ATOM     94  C   UNL A   1      45.879  26.263  36.037  1.00  0.00     0.198 A 
ATOM     95  C   UNL A   1      47.047  28.222  35.289  1.00  0.00     0.198 A 
ATOM     96  F   UNL A   1      46.000  29.725  33.814  1.00  0.00    -0.203 F 
ATOM     97  F   UNL A   1      45.833  25.156  36.793  1.00  0.00    -0.200 F 
ATOM     98  C   UNL A   1      47.013  27.062  36.049  1.00  0.00     0.200 A 
ATOM     99  F   UNL A   1      48.146  28.989  35.288  1.00  0.00    -0.200 F 
ATOM    100  F   UNL A   1      48.069  26.718  36.797  1.00  0.00    -0.200 F 
ENDBRANCH  67  90
ENDBRANCH  41  42
ENDBRANCH  34  36
ENDBRANCH  33  34
ENDBRANCH  32  33
ENDBRANCH  31  32
ENDBRANCH   1  31
TORSDOF 18
ENDMDL
