MODEL 1
REMARK VINA RESULT:     -12.8      0.000      0.000
REMARK SMILES CS(=O)(=O)c1ccc(C2=NN(c3ccc(C(=O)OCCOCCOC(=O)c4ccc(-c5c6nc(c(-c7c(F)c(F)c(F)c(F)c7F)c7ccc([nH]7)c(-c7c(F)c(F)c(F)c(F)c7F)c7nc(c(-c8c(F)c(F)c(F)c(F)c8F)c8ccc5[nH]8)C=C7)C=C6)cc4)cc3)[C@H](c3ccc(Cl)cc3)C2)cc1
REMARK SMILES IDX 20 1 19 2 18 3 16 4 17 5 15 6 12 7 13 8 91 9 14 10 90 11
REMARK SMILES IDX 11 12 9 13 10 14 100 15 92 16 8 17 5 18 6 19 102 20 7 21
REMARK SMILES IDX 101 22 2 23 1 24 3 25 4 26 93 27 94 28 99 29 95 30 98 31
REMARK SMILES IDX 96 32 97 33 21 34 22 35 23 36 24 37 25 38 26 39 27 40 28 41
REMARK SMILES IDX 89 42 29 43 88 44 30 45 31 46 32 47 82 48 33 49 87 50 81 51
REMARK SMILES IDX 83 52 34 53 86 54 80 55 79 56 35 58 67 59 47 60 66 61 48 62
REMARK SMILES IDX 51 63 65 64 84 65 49 66 50 67 64 69 85 70 52 71 36 72 37 73
REMARK SMILES IDX 45 74 38 75 39 76 43 77 46 78 40 79 41 80 44 81 42 82 68 83
REMARK SMILES IDX 69 84 77 85 70 86 71 87 75 88 78 89 72 90 73 91 76 92 74 93
REMARK SMILES IDX 53 94 54 95 62 96 55 97 56 98 60 99 63 100 57 101 58 102
REMARK SMILES IDX 61 103 59 104
REMARK H PARENT 83 57 51 68
REMARK Flexibility Score: inf
ROOT
ATOM      1  C   UNL A   1      29.939  32.234  24.701  1.00  0.00     0.202 C 
ENDROOT
BRANCH   1   2
ATOM      2  C   UNL A   1      28.785  31.712  23.841  1.00  0.00     0.261 C 
BRANCH   2   3
ATOM      3  O   UNL A   1      29.235  31.425  22.508  1.00  0.00    -0.460 OA
BRANCH   3   4
ATOM      4  C   UNL A   1      28.652  30.353  21.919  1.00  0.00     0.338 C 
ATOM      5  O   UNL A   1      27.731  30.375  21.117  1.00  0.00    -0.246 OA
BRANCH   4   6
ATOM      6  C   UNL A   1      29.348  29.100  22.308  1.00  0.00     0.060 A 
ATOM      7  C   UNL A   1      30.603  26.796  23.305  1.00  0.00     0.060 A 
ATOM      8  C   UNL A   1      29.232  26.989  23.495  1.00  0.00     0.029 A 
ATOM      9  C   UNL A   1      31.311  27.708  22.507  1.00  0.00     0.029 A 
ATOM     10  C   UNL A   1      28.609  28.139  23.008  1.00  0.00     0.018 A 
ATOM     11  C   UNL A   1      30.694  28.861  22.015  1.00  0.00     0.018 A 
BRANCH   7  12
ATOM     12  N   UNL A   1      31.306  25.825  24.029  1.00  0.00    -0.257 N 
ATOM     13  C   UNL A   1      31.544  23.752  24.474  1.00  0.00     0.071 C 
ATOM     14  N   UNL A   1      31.507  24.594  23.489  1.00  0.00    -0.176 NA
ATOM     15  C   UNL A   1      31.222  24.314  25.830  1.00  0.00     0.091 C 
ATOM     16  C   UNL A   1      31.116  25.806  25.490  1.00  0.00     0.144 C 
BRANCH  13  17
ATOM     17  C   UNL A   1      31.884  22.328  24.294  1.00  0.00    -0.002 A 
ATOM     18  C   UNL A   1      32.537  19.629  24.048  1.00  0.00     0.067 A 
ATOM     19  C   UNL A   1      32.433  20.204  25.317  1.00  0.00     0.021 A 
ATOM     20  C   UNL A   1      32.320  20.398  22.898  1.00  0.00     0.021 A 
ATOM     21  C   UNL A   1      32.120  21.557  25.438  1.00  0.00     0.011 A 
ATOM     22  C   UNL A   1      31.978  21.749  23.023  1.00  0.00     0.011 A 
BRANCH  18  23
ATOM     23  S   UNL A   1      32.979  17.910  23.917  1.00  0.00     0.175 S 
ATOM     24  C   UNL A   1      34.714  17.831  24.266  1.00  0.00     0.163 C 
ATOM     25  O   UNL A   1      32.812  17.531  22.526  1.00  0.00    -0.224 OA
ATOM     26  O   UNL A   1      32.270  17.220  24.975  1.00  0.00    -0.224 OA
ENDBRANCH  18  23
ENDBRANCH  13  17
BRANCH  16  27
ATOM     27  C   UNL A   1      32.098  26.767  26.146  1.00  0.00    -0.023 A 
ATOM     28  C   UNL A   1      33.447  26.872  25.775  1.00  0.00     0.007 A 
ATOM     29  C   UNL A   1      31.604  27.678  27.104  1.00  0.00     0.007 A 
ATOM     30  C   UNL A   1      34.267  27.857  26.338  1.00  0.00     0.021 A 
ATOM     31  C   UNL A   1      32.411  28.683  27.638  1.00  0.00     0.021 A 
ATOM     32  C   UNL A   1      33.743  28.767  27.252  1.00  0.00     0.041 A 
ATOM     33  Cl  UNL A   1      34.738  30.016  27.889  1.00  0.00    -0.084 Cl
ENDBRANCH  16  27
ENDBRANCH   7  12
ENDBRANCH   4   6
ENDBRANCH   3   4
ENDBRANCH   2   3
ENDBRANCH   1   2
BRANCH   1  34
ATOM     34  O   UNL A   1      30.748  31.241  25.330  1.00  0.00    -0.374 OA
BRANCH  34  35
ATOM     35  C   UNL A   1      31.385  31.600  26.558  1.00  0.00     0.202 C 
BRANCH  35  36
ATOM     36  C   UNL A   1      31.709  33.087  26.742  1.00  0.00     0.261 C 
BRANCH  36  37
ATOM     37  O   UNL A   1      33.056  33.293  27.208  1.00  0.00    -0.460 OA
BRANCH  37  38
ATOM     38  C   UNL A   1      33.178  34.172  28.228  1.00  0.00     0.338 C 
ATOM     39  O   UNL A   1      32.429  35.100  28.505  1.00  0.00    -0.246 OA
BRANCH  38  40
ATOM     40  C   UNL A   1      34.283  33.765  29.114  1.00  0.00     0.060 A 
ATOM     41  C   UNL A   1      35.571  34.208  28.786  1.00  0.00     0.016 A 
ATOM     42  C   UNL A   1      34.081  32.916  30.203  1.00  0.00     0.016 A 
ATOM     43  C   UNL A   1      36.669  33.770  29.523  1.00  0.00     0.010 A 
ATOM     44  C   UNL A   1      35.185  32.469  30.937  1.00  0.00     0.010 A 
ATOM     45  C   UNL A   1      36.486  32.870  30.582  1.00  0.00    -0.014 A 
BRANCH  45  46
ATOM     46  C   UNL A   1      37.667  32.258  31.237  1.00  0.00     0.031 A 
ATOM     47  C   UNL A   1      38.444  31.198  30.508  1.00  0.00     0.074 A 
ATOM     48  C   UNL A   1      38.055  32.659  32.460  1.00  0.00     0.049 A 
ATOM     49  N   UNL A   1      39.481  30.505  30.907  1.00  0.00    -0.248 NA
ATOM     50  C   UNL A   1      37.990  30.874  29.147  1.00  0.00     0.031 C 
ATOM     51  C   UNL A   1      37.407  33.704  33.250  1.00  0.00     0.029 A 
ATOM     52  N   UNL A   1      39.088  32.226  33.254  1.00  0.00    -0.354 N 
ATOM     53  C   UNL A   1      39.802  29.664  29.849  1.00  0.00     0.074 A 
ATOM     54  C   UNL A   1      38.832  29.910  28.804  1.00  0.00     0.031 C 
ATOM     55  C   UNL A   1      38.051  33.825  34.424  1.00  0.00     0.029 A 
ATOM     56  C   UNL A   1      39.134  32.844  34.479  1.00  0.00     0.049 A 
ATOM     57  H   UNL A   1      39.732  31.537  32.973  1.00  0.00     0.167 HD
ATOM     58  C   UNL A   1      40.818  28.775  29.757  1.00  0.00     0.037 A 
ATOM     59  C   UNL A   1      39.946  32.626  35.532  1.00  0.00     0.037 A 
ATOM     60  C   UNL A   1      41.781  28.531  30.799  1.00  0.00     0.049 A 
ATOM     61  C   UNL A   1      41.020  31.574  35.432  1.00  0.00     0.074 A 
ATOM     62  C   UNL A   1      42.861  27.665  30.791  1.00  0.00     0.029 A 
ATOM     63  N   UNL A   1      41.774  29.149  32.040  1.00  0.00    -0.354 N 
ATOM     64  N   UNL A   1      41.335  30.804  34.420  1.00  0.00    -0.248 NA
ATOM     65  C   UNL A   1      41.854  31.364  36.624  1.00  0.00     0.031 C 
ATOM     66  C   UNL A   1      43.478  27.723  32.046  1.00  0.00     0.029 A 
ATOM     67  C   UNL A   1      42.813  28.662  32.817  1.00  0.00     0.049 A 
ATOM     68  H   UNL A   1      41.126  29.833  32.327  1.00  0.00     0.167 HD
ATOM     69  C   UNL A   1      42.414  30.038  34.841  1.00  0.00     0.074 A 
ATOM     70  C   UNL A   1      42.711  30.447  36.198  1.00  0.00     0.031 C 
ATOM     71  C   UNL A   1      43.099  29.083  34.166  1.00  0.00     0.037 A 
BRANCH  58  72
ATOM     72  C   UNL A   1      40.930  27.979  28.489  1.00  0.00     0.064 A 
ATOM     73  C   UNL A   1      41.712  28.419  27.411  1.00  0.00     0.173 A 
ATOM     74  C   UNL A   1      40.277  26.743  28.366  1.00  0.00     0.173 A 
ATOM     75  F   UNL A   1      42.346  29.599  27.472  1.00  0.00    -0.203 F 
ATOM     76  C   UNL A   1      41.818  27.660  26.247  1.00  0.00     0.198 A 
ATOM     77  C   UNL A   1      40.407  25.975  27.213  1.00  0.00     0.198 A 
ATOM     78  F   UNL A   1      39.521  26.276  29.371  1.00  0.00    -0.203 F 
ATOM     79  F   UNL A   1      42.536  28.119  25.213  1.00  0.00    -0.200 F 
ATOM     80  C   UNL A   1      41.171  26.437  26.152  1.00  0.00     0.200 A 
ATOM     81  F   UNL A   1      39.791  24.788  27.127  1.00  0.00    -0.200 F 
ATOM     82  F   UNL A   1      41.280  25.705  25.035  1.00  0.00    -0.200 F 
ENDBRANCH  58  72
BRANCH  59  83
ATOM     83  C   UNL A   1      39.767  33.410  36.781  1.00  0.00     0.064 A 
ATOM     84  C   UNL A   1      40.495  34.585  37.007  1.00  0.00     0.173 A 
ATOM     85  C   UNL A   1      38.878  32.990  37.781  1.00  0.00     0.173 A 
ATOM     86  F   UNL A   1      41.378  35.013  36.093  1.00  0.00    -0.203 F 
ATOM     87  C   UNL A   1      40.353  35.303  38.194  1.00  0.00     0.198 A 
ATOM     88  C   UNL A   1      38.716  33.723  38.955  1.00  0.00     0.198 A 
ATOM     89  F   UNL A   1      38.160  31.869  37.615  1.00  0.00    -0.203 F 
ATOM     90  F   UNL A   1      41.095  36.399  38.405  1.00  0.00    -0.200 F 
ATOM     91  C   UNL A   1      39.459  34.874  39.164  1.00  0.00     0.200 A 
ATOM     92  F   UNL A   1      37.843  33.311  39.885  1.00  0.00    -0.200 F 
ATOM     93  F   UNL A   1      39.321  35.565  40.304  1.00  0.00    -0.200 F 
ENDBRANCH  59  83
BRANCH  71  94
ATOM     94  C   UNL A   1      44.256  28.435  34.869  1.00  0.00     0.064 A 
ATOM     95  C   UNL A   1      45.544  28.991  34.832  1.00  0.00     0.173 A 
ATOM     96  C   UNL A   1      44.066  27.267  35.623  1.00  0.00     0.173 A 
ATOM     97  F   UNL A   1      45.781  30.097  34.114  1.00  0.00    -0.203 F 
ATOM     98  C   UNL A   1      46.602  28.386  35.507  1.00  0.00     0.198 A 
ATOM     99  C   UNL A   1      45.120  26.682  36.319  1.00  0.00     0.198 A 
ATOM    100  F   UNL A   1      42.853  26.699  35.695  1.00  0.00    -0.203 F 
ATOM    101  F   UNL A   1      47.833  28.910  35.421  1.00  0.00    -0.200 F 
ATOM    102  C   UNL A   1      46.389  27.238  36.255  1.00  0.00     0.200 A 
ATOM    103  F   UNL A   1      44.908  25.581  37.053  1.00  0.00    -0.200 F 
ATOM    104  F   UNL A   1      47.407  26.663  36.909  1.00  0.00    -0.200 F 
ENDBRANCH  71  94
ENDBRANCH  45  46
ENDBRANCH  38  40
ENDBRANCH  37  38
ENDBRANCH  36  37
ENDBRANCH  35  36
ENDBRANCH  34  35
ENDBRANCH   1  34
TORSDOF 18
ENDMDL
MODEL 2
REMARK VINA RESULT:     -12.5      0.348      6.850
REMARK SMILES CS(=O)(=O)c1ccc(C2=NN(c3ccc(C(=O)OCCOCCOC(=O)c4ccc(-c5c6nc(c(-c7c(F)c(F)c(F)c(F)c7F)c7ccc([nH]7)c(-c7c(F)c(F)c(F)c(F)c7F)c7nc(c(-c8c(F)c(F)c(F)c(F)c8F)c8ccc5[nH]8)C=C7)C=C6)cc4)cc3)[C@H](c3ccc(Cl)cc3)C2)cc1
REMARK SMILES IDX 20 1 19 2 18 3 16 4 17 5 15 6 12 7 13 8 91 9 14 10 90 11
REMARK SMILES IDX 11 12 9 13 10 14 100 15 92 16 8 17 5 18 6 19 102 20 7 21
REMARK SMILES IDX 101 22 2 23 1 24 3 25 4 26 93 27 94 28 99 29 95 30 98 31
REMARK SMILES IDX 96 32 97 33 21 34 22 35 23 36 24 37 25 38 26 39 27 40 28 41
REMARK SMILES IDX 89 42 29 43 88 44 30 45 31 46 32 47 82 48 33 49 87 50 81 51
REMARK SMILES IDX 83 52 34 53 86 54 80 55 79 56 35 58 67 59 47 60 66 61 48 62
REMARK SMILES IDX 51 63 65 64 84 65 49 66 50 67 64 69 85 70 52 71 36 72 37 73
REMARK SMILES IDX 45 74 38 75 39 76 43 77 46 78 40 79 41 80 44 81 42 82 68 83
REMARK SMILES IDX 69 84 77 85 70 86 71 87 75 88 78 89 72 90 73 91 76 92 74 93
REMARK SMILES IDX 53 94 54 95 62 96 55 97 56 98 60 99 63 100 57 101 58 102
REMARK SMILES IDX 61 103 59 104
REMARK H PARENT 83 57 51 68
REMARK Flexibility Score: inf
ROOT
ATOM      1  C   UNL A   1      30.042  32.232  24.613  1.00  0.00     0.202 C 
ENDROOT
BRANCH   1   2
ATOM      2  C   UNL A   1      28.834  31.667  23.862  1.00  0.00     0.261 C 
BRANCH   2   3
ATOM      3  O   UNL A   1      29.150  31.460  22.476  1.00  0.00    -0.460 OA
BRANCH   3   4
ATOM      4  C   UNL A   1      28.590  30.362  21.914  1.00  0.00     0.338 C 
ATOM      5  O   UNL A   1      27.664  30.345  21.117  1.00  0.00    -0.246 OA
BRANCH   4   6
ATOM      6  C   UNL A   1      29.317  29.135  22.325  1.00  0.00     0.060 A 
ATOM      7  C   UNL A   1      30.619  26.874  23.362  1.00  0.00     0.060 A 
ATOM      8  C   UNL A   1      29.234  27.011  23.494  1.00  0.00     0.029 A 
ATOM      9  C   UNL A   1      31.324  27.820  22.602  1.00  0.00     0.029 A 
ATOM     10  C   UNL A   1      28.588  28.139  22.986  1.00  0.00     0.018 A 
ATOM     11  C   UNL A   1      30.683  28.951  22.090  1.00  0.00     0.018 A 
BRANCH   7  12
ATOM     12  N   UNL A   1      31.327  25.926  24.110  1.00  0.00    -0.257 N 
ATOM     13  C   UNL A   1      31.570  23.868  24.618  1.00  0.00     0.071 C 
ATOM     14  N   UNL A   1      31.525  24.679  23.607  1.00  0.00    -0.176 NA
ATOM     15  C   UNL A   1      31.259  24.472  25.958  1.00  0.00     0.091 C 
ATOM     16  C   UNL A   1      31.150  25.952  25.573  1.00  0.00     0.144 C 
BRANCH  13  17
ATOM     17  C   UNL A   1      31.909  22.439  24.479  1.00  0.00    -0.002 A 
ATOM     18  C   UNL A   1      32.525  19.744  24.124  1.00  0.00     0.067 A 
ATOM     19  C   UNL A   1      32.145  20.518  23.024  1.00  0.00     0.021 A 
ATOM     20  C   UNL A   1      32.597  20.309  25.403  1.00  0.00     0.021 A 
ATOM     21  C   UNL A   1      31.823  21.863  23.207  1.00  0.00     0.011 A 
ATOM     22  C   UNL A   1      32.301  21.666  25.578  1.00  0.00     0.011 A 
BRANCH  18  23
ATOM     23  S   UNL A   1      32.891  18.020  23.875  1.00  0.00     0.175 S 
ATOM     24  C   UNL A   1      34.599  17.825  24.303  1.00  0.00     0.163 C 
ATOM     25  O   UNL A   1      32.782  17.761  22.451  1.00  0.00    -0.224 OA
ATOM     26  O   UNL A   1      32.094  17.286  24.837  1.00  0.00    -0.224 OA
ENDBRANCH  18  23
ENDBRANCH  13  17
BRANCH  16  27
ATOM     27  C   UNL A   1      32.137  26.934  26.191  1.00  0.00    -0.023 A 
ATOM     28  C   UNL A   1      33.468  27.065  25.770  1.00  0.00     0.007 A 
ATOM     29  C   UNL A   1      31.661  27.836  27.166  1.00  0.00     0.007 A 
ATOM     30  C   UNL A   1      34.290  28.066  26.301  1.00  0.00     0.021 A 
ATOM     31  C   UNL A   1      32.468  28.858  27.668  1.00  0.00     0.021 A 
ATOM     32  C   UNL A   1      33.782  28.967  27.232  1.00  0.00     0.041 A 
ATOM     33  Cl  UNL A   1      34.776  30.236  27.831  1.00  0.00    -0.084 Cl
ENDBRANCH  16  27
ENDBRANCH   7  12
ENDBRANCH   4   6
ENDBRANCH   3   4
ENDBRANCH   2   3
ENDBRANCH   1   2
BRANCH   1  34
ATOM     34  O   UNL A   1      30.482  31.481  25.744  1.00  0.00    -0.374 OA
BRANCH  34  35
ATOM     35  C   UNL A   1      31.739  31.842  26.320  1.00  0.00     0.202 C 
BRANCH  35  36
ATOM     36  C   UNL A   1      31.759  33.136  27.143  1.00  0.00     0.261 C 
BRANCH  36  37
ATOM     37  O   UNL A   1      33.092  33.659  27.293  1.00  0.00    -0.460 OA
BRANCH  37  38
ATOM     38  C   UNL A   1      33.280  34.431  28.388  1.00  0.00     0.338 C 
ATOM     39  O   UNL A   1      32.597  35.376  28.760  1.00  0.00    -0.246 OA
BRANCH  38  40
ATOM     40  C   UNL A   1      34.363  33.872  29.217  1.00  0.00     0.060 A 
ATOM     41  C   UNL A   1      35.670  34.288  28.938  1.00  0.00     0.016 A 
ATOM     42  C   UNL A   1      34.118  32.914  30.203  1.00  0.00     0.016 A 
ATOM     43  C   UNL A   1      36.745  33.716  29.616  1.00  0.00     0.010 A 
ATOM     44  C   UNL A   1      35.198  32.333  30.875  1.00  0.00     0.010 A 
ATOM     45  C   UNL A   1      36.517  32.710  30.564  1.00  0.00    -0.014 A 
BRANCH  45  46
ATOM     46  C   UNL A   1      37.666  31.970  31.140  1.00  0.00     0.031 A 
ATOM     47  C   UNL A   1      38.120  32.290  32.537  1.00  0.00     0.074 A 
ATOM     48  C   UNL A   1      38.284  31.007  30.434  1.00  0.00     0.049 A 
ATOM     49  N   UNL A   1      39.121  31.796  33.220  1.00  0.00    -0.248 NA
ATOM     50  C   UNL A   1      37.340  33.306  33.261  1.00  0.00     0.031 C 
ATOM     51  C   UNL A   1      37.912  30.580  29.087  1.00  0.00     0.029 A 
ATOM     52  N   UNL A   1      39.362  30.220  30.754  1.00  0.00    -0.354 N 
ATOM     53  C   UNL A   1      39.093  32.439  34.450  1.00  0.00     0.074 A 
ATOM     54  C   UNL A   1      37.996  33.383  34.410  1.00  0.00     0.031 C 
ATOM     55  C   UNL A   1      38.757  29.613  28.689  1.00  0.00     0.029 A 
ATOM     56  C   UNL A   1      39.745  29.378  29.740  1.00  0.00     0.049 A 
ATOM     57  H   UNL A   1      39.817  30.256  31.626  1.00  0.00     0.167 HD
ATOM     58  C   UNL A   1      39.903  32.254  35.519  1.00  0.00     0.037 A 
ATOM     59  C   UNL A   1      40.791  28.531  29.662  1.00  0.00     0.037 A 
ATOM     60  C   UNL A   1      40.996  31.316  35.557  1.00  0.00     0.049 A 
ATOM     61  C   UNL A   1      41.725  28.400  30.837  1.00  0.00     0.074 A 
ATOM     62  C   UNL A   1      41.860  31.039  36.601  1.00  0.00     0.029 A 
ATOM     63  N   UNL A   1      41.377  30.506  34.497  1.00  0.00    -0.354 N 
ATOM     64  N   UNL A   1      41.676  28.991  32.005  1.00  0.00    -0.248 NA
ATOM     65  C   UNL A   1      42.862  27.481  30.680  1.00  0.00     0.031 C 
ATOM     66  C   UNL A   1      42.797  30.099  36.157  1.00  0.00     0.029 A 
ATOM     67  C   UNL A   1      42.484  29.752  34.853  1.00  0.00     0.049 A 
ATOM     68  H   UNL A   1      40.928  30.474  33.621  1.00  0.00     0.167 HD
ATOM     69  C   UNL A   1      42.754  28.500  32.730  1.00  0.00     0.074 A 
ATOM     70  C   UNL A   1      43.434  27.550  31.874  1.00  0.00     0.031 C 
ATOM     71  C   UNL A   1      43.146  28.806  33.991  1.00  0.00     0.037 A 
BRANCH  58  72
ATOM     72  C   UNL A   1      39.655  33.100  36.733  1.00  0.00     0.064 A 
ATOM     73  C   UNL A   1      38.719  32.728  37.710  1.00  0.00     0.173 A 
ATOM     74  C   UNL A   1      40.388  34.278  36.940  1.00  0.00     0.173 A 
ATOM     75  F   UNL A   1      37.983  31.618  37.554  1.00  0.00    -0.203 F 
ATOM     76  C   UNL A   1      38.512  33.517  38.840  1.00  0.00     0.198 A 
ATOM     77  C   UNL A   1      40.198  35.049  38.083  1.00  0.00     0.198 A 
ATOM     78  F   UNL A   1      41.298  34.674  36.038  1.00  0.00    -0.203 F 
ATOM     79  F   UNL A   1      37.584  33.165  39.739  1.00  0.00    -0.200 F 
ATOM     80  C   UNL A   1      39.256  34.672  39.028  1.00  0.00     0.200 A 
ATOM     81  F   UNL A   1      40.926  36.159  38.270  1.00  0.00    -0.200 F 
ATOM     82  F   UNL A   1      39.061  35.426  40.119  1.00  0.00    -0.200 F 
ENDBRANCH  58  72
BRANCH  59  83
ATOM     83  C   UNL A   1      41.020  27.747  28.421  1.00  0.00     0.064 A 
ATOM     84  C   UNL A   1      41.879  28.215  27.419  1.00  0.00     0.173 A 
ATOM     85  C   UNL A   1      40.370  26.523  28.206  1.00  0.00     0.173 A 
ATOM     86  F   UNL A   1      42.502  29.393  27.567  1.00  0.00    -0.203 F 
ATOM     87  C   UNL A   1      42.068  27.496  26.239  1.00  0.00     0.198 A 
ATOM     88  C   UNL A   1      40.580  25.792  27.038  1.00  0.00     0.198 A 
ATOM     89  F   UNL A   1      39.534  26.033  29.133  1.00  0.00    -0.203 F 
ATOM     90  F   UNL A   1      42.859  27.988  25.276  1.00  0.00    -0.200 F 
ATOM     91  C   UNL A   1      41.422  26.283  26.052  1.00  0.00     0.200 A 
ATOM     92  F   UNL A   1      39.963  24.614  26.867  1.00  0.00    -0.200 F 
ATOM     93  F   UNL A   1      41.605  25.591  24.920  1.00  0.00    -0.200 F 
ENDBRANCH  59  83
BRANCH  71  94
ATOM     94  C   UNL A   1      44.346  28.087  34.535  1.00  0.00     0.064 A 
ATOM     95  C   UNL A   1      45.637  28.628  34.432  1.00  0.00     0.173 A 
ATOM     96  C   UNL A   1      44.198  26.864  35.206  1.00  0.00     0.173 A 
ATOM     97  F   UNL A   1      45.834  29.787  33.788  1.00  0.00    -0.203 F 
ATOM     98  C   UNL A   1      46.737  27.957  34.961  1.00  0.00     0.198 A 
ATOM     99  C   UNL A   1      45.297  26.210  35.757  1.00  0.00     0.198 A 
ATOM    100  F   UNL A   1      42.985  26.307  35.337  1.00  0.00    -0.203 F 
ATOM    101  F   UNL A   1      47.966  28.470  34.811  1.00  0.00    -0.200 F 
ATOM    102  C   UNL A   1      46.566  26.754  35.628  1.00  0.00     0.200 A 
ATOM    103  F   UNL A   1      45.127  25.055  36.415  1.00  0.00    -0.200 F 
ATOM    104  F   UNL A   1      47.625  26.114  36.143  1.00  0.00    -0.200 F 
ENDBRANCH  71  94
ENDBRANCH  45  46
ENDBRANCH  38  40
ENDBRANCH  37  38
ENDBRANCH  36  37
ENDBRANCH  35  36
ENDBRANCH  34  35
ENDBRANCH   1  34
TORSDOF 18
ENDMDL
MODEL 3
REMARK VINA RESULT:     -12.3      0.535      1.953
REMARK SMILES CS(=O)(=O)c1ccc(C2=NN(c3ccc(C(=O)OCCOCCOC(=O)c4ccc(-c5c6nc(c(-c7c(F)c(F)c(F)c(F)c7F)c7ccc([nH]7)c(-c7c(F)c(F)c(F)c(F)c7F)c7nc(c(-c8c(F)c(F)c(F)c(F)c8F)c8ccc5[nH]8)C=C7)C=C6)cc4)cc3)[C@H](c3ccc(Cl)cc3)C2)cc1
REMARK SMILES IDX 20 1 19 2 18 3 16 4 17 5 15 6 12 7 13 8 91 9 14 10 90 11
REMARK SMILES IDX 11 12 9 13 10 14 100 15 92 16 8 17 5 18 6 19 102 20 7 21
REMARK SMILES IDX 101 22 2 23 1 24 3 25 4 26 93 27 94 28 99 29 95 30 98 31
REMARK SMILES IDX 96 32 97 33 21 34 22 35 23 36 24 37 25 38 26 39 27 40 28 41
REMARK SMILES IDX 89 42 29 43 88 44 30 45 31 46 32 47 82 48 33 49 87 50 81 51
REMARK SMILES IDX 83 52 34 53 86 54 80 55 79 56 35 58 67 59 47 60 66 61 48 62
REMARK SMILES IDX 51 63 65 64 84 65 49 66 50 67 64 69 85 70 52 71 36 72 37 73
REMARK SMILES IDX 45 74 38 75 39 76 43 77 46 78 40 79 41 80 44 81 42 82 68 83
REMARK SMILES IDX 69 84 77 85 70 86 71 87 75 88 78 89 72 90 73 91 76 92 74 93
REMARK SMILES IDX 53 94 54 95 62 96 55 97 56 98 60 99 63 100 57 101 58 102
REMARK SMILES IDX 61 103 59 104
REMARK H PARENT 83 57 51 68
REMARK Flexibility Score: inf
ROOT
ATOM      1  C   UNL A   1      30.185  32.172  24.699  1.00  0.00     0.202 C 
ENDROOT
BRANCH   1   2
ATOM      2  C   UNL A   1      29.273  31.131  24.045  1.00  0.00     0.261 C 
BRANCH   2   3
ATOM      3  O   UNL A   1      29.170  31.363  22.631  1.00  0.00    -0.460 OA
BRANCH   3   4
ATOM      4  C   UNL A   1      28.734  30.307  21.902  1.00  0.00     0.338 C 
ATOM      5  O   UNL A   1      27.943  30.343  20.971  1.00  0.00    -0.246 OA
BRANCH   4   6
ATOM      6  C   UNL A   1      29.422  29.061  22.323  1.00  0.00     0.060 A 
ATOM      7  C   UNL A   1      30.671  26.780  23.379  1.00  0.00     0.060 A 
ATOM      8  C   UNL A   1      29.307  26.999  23.595  1.00  0.00     0.029 A 
ATOM      9  C   UNL A   1      31.371  27.650  22.530  1.00  0.00     0.029 A 
ATOM     10  C   UNL A   1      28.688  28.138  23.078  1.00  0.00     0.018 A 
ATOM     11  C   UNL A   1      30.758  28.792  22.008  1.00  0.00     0.018 A 
BRANCH   7  12
ATOM     12  N   UNL A   1      31.378  25.828  24.123  1.00  0.00    -0.257 N 
ATOM     13  C   UNL A   1      31.623  23.767  24.617  1.00  0.00     0.071 C 
ATOM     14  N   UNL A   1      31.581  24.585  23.612  1.00  0.00    -0.176 NA
ATOM     15  C   UNL A   1      31.304  24.360  25.960  1.00  0.00     0.091 C 
ATOM     16  C   UNL A   1      31.194  25.843  25.585  1.00  0.00     0.144 C 
BRANCH  13  17
ATOM     17  C   UNL A   1      31.966  22.340  24.469  1.00  0.00    -0.002 A 
ATOM     18  C   UNL A   1      32.592  19.649  24.097  1.00  0.00     0.067 A 
ATOM     19  C   UNL A   1      32.225  20.433  23.000  1.00  0.00     0.021 A 
ATOM     20  C   UNL A   1      32.645  20.202  25.382  1.00  0.00     0.021 A 
ATOM     21  C   UNL A   1      31.899  21.776  23.190  1.00  0.00     0.011 A 
ATOM     22  C   UNL A   1      32.345  21.557  25.566  1.00  0.00     0.011 A 
BRANCH  18  23
ATOM     23  S   UNL A   1      32.964  17.928  23.836  1.00  0.00     0.175 S 
ATOM     24  C   UNL A   1      34.670  17.734  24.273  1.00  0.00     0.163 C 
ATOM     25  O   UNL A   1      32.864  17.681  22.410  1.00  0.00    -0.224 OA
ATOM     26  O   UNL A   1      32.163  17.185  24.788  1.00  0.00    -0.224 OA
ENDBRANCH  18  23
ENDBRANCH  13  17
BRANCH  16  27
ATOM     27  C   UNL A   1      32.175  26.822  26.215  1.00  0.00    -0.023 A 
ATOM     28  C   UNL A   1      33.543  26.856  25.908  1.00  0.00     0.007 A 
ATOM     29  C   UNL A   1      31.666  27.820  27.074  1.00  0.00     0.007 A 
ATOM     30  C   UNL A   1      34.368  27.856  26.435  1.00  0.00     0.021 A 
ATOM     31  C   UNL A   1      32.480  28.839  27.570  1.00  0.00     0.021 A 
ATOM     32  C   UNL A   1      33.832  28.851  27.248  1.00  0.00     0.041 A 
ATOM     33  Cl  UNL A   1      34.837  30.115  27.838  1.00  0.00    -0.084 Cl
ENDBRANCH  16  27
ENDBRANCH   7  12
ENDBRANCH   4   6
ENDBRANCH   3   4
ENDBRANCH   2   3
ENDBRANCH   1   2
BRANCH   1  34
ATOM     34  O   UNL A   1      31.001  31.703  25.770  1.00  0.00    -0.374 OA
BRANCH  34  35
ATOM     35  C   UNL A   1      31.248  32.608  26.848  1.00  0.00     0.202 C 
BRANCH  35  36
ATOM     36  C   UNL A   1      32.660  32.578  27.446  1.00  0.00     0.261 C 
BRANCH  36  37
ATOM     37  O   UNL A   1      33.309  33.860  27.360  1.00  0.00    -0.460 OA
BRANCH  37  38
ATOM     38  C   UNL A   1      33.287  34.586  28.501  1.00  0.00     0.338 C 
ATOM     39  O   UNL A   1      32.419  35.365  28.872  1.00  0.00    -0.246 OA
BRANCH  38  40
ATOM     40  C   UNL A   1      34.409  34.189  29.372  1.00  0.00     0.060 A 
ATOM     41  C   UNL A   1      35.705  34.348  28.868  1.00  0.00     0.016 A 
ATOM     42  C   UNL A   1      34.200  33.614  30.626  1.00  0.00     0.016 A 
ATOM     43  C   UNL A   1      36.800  33.893  29.600  1.00  0.00     0.010 A 
ATOM     44  C   UNL A   1      35.299  33.149  31.357  1.00  0.00     0.010 A 
ATOM     45  C   UNL A   1      36.600  33.260  30.834  1.00  0.00    -0.014 A 
BRANCH  45  46
ATOM     46  C   UNL A   1      37.743  32.607  31.518  1.00  0.00     0.031 A 
ATOM     47  C   UNL A   1      38.425  31.442  30.858  1.00  0.00     0.074 A 
ATOM     48  C   UNL A   1      38.182  33.063  32.704  1.00  0.00     0.049 A 
ATOM     49  N   UNL A   1      39.414  30.702  31.293  1.00  0.00    -0.248 NA
ATOM     50  C   UNL A   1      37.924  31.057  29.529  1.00  0.00     0.031 C 
ATOM     51  C   UNL A   1      37.628  34.208  33.424  1.00  0.00     0.029 A 
ATOM     52  N   UNL A   1      39.193  32.610  33.515  1.00  0.00    -0.354 N 
ATOM     53  C   UNL A   1      39.652  29.766  30.295  1.00  0.00     0.074 A 
ATOM     54  C   UNL A   1      38.685  30.010  29.246  1.00  0.00     0.031 C 
ATOM     55  C   UNL A   1      38.300  34.363  34.578  1.00  0.00     0.029 A 
ATOM     56  C   UNL A   1      39.307  33.309  34.690  1.00  0.00     0.049 A 
ATOM     57  H   UNL A   1      39.779  31.856  33.276  1.00  0.00     0.167 HD
ATOM     58  C   UNL A   1      40.597  28.797  30.255  1.00  0.00     0.037 A 
ATOM     59  C   UNL A   1      40.119  33.104  35.747  1.00  0.00     0.037 A 
ATOM     60  C   UNL A   1      41.557  28.555  31.300  1.00  0.00     0.049 A 
ATOM     61  C   UNL A   1      41.108  31.970  35.710  1.00  0.00     0.074 A 
ATOM     62  C   UNL A   1      42.569  27.611  31.342  1.00  0.00     0.029 A 
ATOM     63  N   UNL A   1      41.619  29.259  32.493  1.00  0.00    -0.354 N 
ATOM     64  N   UNL A   1      41.346  31.107  34.753  1.00  0.00    -0.248 NA
ATOM     65  C   UNL A   1      41.945  31.782  36.904  1.00  0.00     0.031 C 
ATOM     66  C   UNL A   1      43.209  27.711  32.582  1.00  0.00     0.029 A 
ATOM     67  C   UNL A   1      42.631  28.751  33.291  1.00  0.00     0.049 A 
ATOM     68  H   UNL A   1      41.028  30.009  32.737  1.00  0.00     0.167 HD
ATOM     69  C   UNL A   1      42.372  30.293  35.215  1.00  0.00     0.074 A 
ATOM     70  C   UNL A   1      42.723  30.774  36.535  1.00  0.00     0.031 C 
ATOM     71  C   UNL A   1      42.972  29.243  34.602  1.00  0.00     0.037 A 
BRANCH  58  72
ATOM     72  C   UNL A   1      40.626  27.907  29.047  1.00  0.00     0.064 A 
ATOM     73  C   UNL A   1      39.807  26.773  28.948  1.00  0.00     0.173 A 
ATOM     74  C   UNL A   1      41.458  28.213  27.959  1.00  0.00     0.173 A 
ATOM     75  F   UNL A   1      39.003  26.429  29.966  1.00  0.00    -0.203 F 
ATOM     76  C   UNL A   1      39.835  25.965  27.813  1.00  0.00     0.198 A 
ATOM     77  C   UNL A   1      41.464  27.419  26.816  1.00  0.00     0.198 A 
ATOM     78  F   UNL A   1      42.258  29.289  28.002  1.00  0.00    -0.203 F 
ATOM     79  F   UNL A   1      39.075  24.863  27.758  1.00  0.00    -0.200 F 
ATOM     80  C   UNL A   1      40.658  26.293  26.746  1.00  0.00     0.200 A 
ATOM     81  F   UNL A   1      42.251  27.744  25.780  1.00  0.00    -0.200 F 
ATOM     82  F   UNL A   1      40.679  25.520  25.652  1.00  0.00    -0.200 F 
ENDBRANCH  58  72
BRANCH  59  83
ATOM     83  C   UNL A   1      40.021  33.987  36.938  1.00  0.00     0.064 A 
ATOM     84  C   UNL A   1      39.162  33.676  38.000  1.00  0.00     0.173 A 
ATOM     85  C   UNL A   1      40.773  35.168  37.030  1.00  0.00     0.173 A 
ATOM     86  F   UNL A   1      38.403  32.571  37.946  1.00  0.00    -0.203 F 
ATOM     87  C   UNL A   1      39.044  34.521  39.103  1.00  0.00     0.198 A 
ATOM     88  C   UNL A   1      40.675  35.998  38.145  1.00  0.00     0.198 A 
ATOM     89  F   UNL A   1      41.607  35.512  36.039  1.00  0.00    -0.203 F 
ATOM     90  F   UNL A   1      38.181  34.224  40.083  1.00  0.00    -0.200 F 
ATOM     91  C   UNL A   1      39.806  35.678  39.176  1.00  0.00     0.200 A 
ATOM     92  F   UNL A   1      41.421  37.109  38.217  1.00  0.00    -0.200 F 
ATOM     93  F   UNL A   1      39.695  36.489  40.237  1.00  0.00    -0.200 F 
ENDBRANCH  59  83
BRANCH  71  94
ATOM     94  C   UNL A   1      44.089  28.560  35.336  1.00  0.00     0.064 A 
ATOM     95  C   UNL A   1      43.846  27.503  36.226  1.00  0.00     0.173 A 
ATOM     96  C   UNL A   1      45.422  28.938  35.113  1.00  0.00     0.173 A 
ATOM     97  F   UNL A   1      42.589  27.113  36.484  1.00  0.00    -0.203 F 
ATOM     98  C   UNL A   1      44.896  26.867  36.883  1.00  0.00     0.198 A 
ATOM     99  C   UNL A   1      46.470  28.281  35.751  1.00  0.00     0.198 A 
ATOM    100  F   UNL A   1      45.708  29.939  34.267  1.00  0.00    -0.203 F 
ATOM    101  F   UNL A   1      44.637  25.890  37.764  1.00  0.00    -0.200 F 
ATOM    102  C   UNL A   1      46.206  27.250  36.641  1.00  0.00     0.200 A 
ATOM    103  F   UNL A   1      47.736  28.644  35.504  1.00  0.00    -0.200 F 
ATOM    104  F   UNL A   1      47.216  26.632  37.268  1.00  0.00    -0.200 F 
ENDBRANCH  71  94
ENDBRANCH  45  46
ENDBRANCH  38  40
ENDBRANCH  37  38
ENDBRANCH  36  37
ENDBRANCH  35  36
ENDBRANCH  34  35
ENDBRANCH   1  34
TORSDOF 18
ENDMDL
