MODEL 1
REMARK VINA RESULT:     -10.9      0.000      0.000
REMARK SMILES CC1(C(=O)N[C@H](C(=O)OCCOCCOC(=O)c2ccc(-c3c4nc(c(-c5c(F)c(F)c(F)c(F)c5F)c5ccc([nH]5)c(-c5c(F)c(F)c(F)c(F)c5F)c5nc(c(-c6c(F)c(F)c(F)c(F)c6F)c6ccc3[nH]6)C=C5)C=C4)cc2)C2CC2)CCCC1
REMARK SMILES IDX 12 1 11 2 10 3 9 4 7 5 8 6 6 7 5 8 3 9 4 10 2 12 1 13 84 14
REMARK SMILES IDX 87 15 85 16 86 17 81 18 82 19 83 20 13 21 14 22 15 23 16 24
REMARK SMILES IDX 17 25 18 26 19 27 80 28 20 29 79 30 21 31 22 32 23 33 73 34
REMARK SMILES IDX 24 35 78 36 72 37 74 38 25 39 77 40 71 41 70 42 26 44 58 45
REMARK SMILES IDX 38 46 57 47 39 48 42 49 56 50 75 51 40 52 41 53 55 55 76 56
REMARK SMILES IDX 43 57 27 58 28 59 36 60 29 61 30 62 34 63 37 64 31 65 32 66
REMARK SMILES IDX 35 67 33 68 59 69 60 70 68 71 61 72 62 73 66 74 69 75 63 76
REMARK SMILES IDX 64 77 67 78 65 79 44 80 45 81 53 82 46 83 47 84 51 85 54 86
REMARK SMILES IDX 48 87 49 88 52 89 50 90
REMARK H PARENT 5 11 74 43 42 54
REMARK Flexibility Score: inf
ROOT
ATOM      1  O   UNL A   1      32.200  30.711  27.126  1.00  0.00    -0.374 OA
ENDROOT
BRANCH   1   2
ATOM      2  C   UNL A   1      33.119  30.052  26.272  1.00  0.00     0.202 C 
BRANCH   2   3
ATOM      3  C   UNL A   1      33.560  28.632  26.625  1.00  0.00     0.261 C 
BRANCH   3   4
ATOM      4  O   UNL A   1      32.921  27.607  25.843  1.00  0.00    -0.462 OA
BRANCH   4   5
ATOM      5  C   UNL A   1      31.856  26.989  26.433  1.00  0.00     0.329 C 
ATOM      6  O   UNL A   1      31.242  27.438  27.396  1.00  0.00    -0.250 OA
BRANCH   5   7
ATOM      7  C   UNL A   1      31.619  25.551  25.895  1.00  0.00     0.195 C 
BRANCH   7   8
ATOM      8  N   UNL A   1      31.635  24.510  26.918  1.00  0.00    -0.342 N 
ATOM      9  C   UNL A   1      32.296  23.335  27.044  1.00  0.00     0.226 C 
ATOM     10  O   UNL A   1      31.991  22.676  28.047  1.00  0.00    -0.274 OA
ATOM     11  H   UNL A   1      31.040  24.704  27.677  1.00  0.00     0.164 HD
BRANCH   9  12
ATOM     12  C   UNL A   1      33.316  22.779  26.021  1.00  0.00     0.046 C 
ATOM     13  C   UNL A   1      34.440  23.792  25.781  1.00  0.00     0.022 C 
ATOM     14  C   UNL A   1      32.544  22.497  24.706  1.00  0.00     0.016 C 
ATOM     15  C   UNL A   1      33.928  21.408  26.347  1.00  0.00     0.016 C 
ATOM     16  C   UNL A   1      33.328  21.427  23.970  1.00  0.00     0.001 C 
ATOM     17  C   UNL A   1      33.946  20.575  25.062  1.00  0.00     0.001 C 
ENDBRANCH   9  12
ENDBRANCH   7   8
BRANCH   7  18
ATOM     18  C   UNL A   1      30.263  25.527  25.199  1.00  0.00     0.023 C 
ATOM     19  C   UNL A   1      29.870  26.660  24.282  1.00  0.00     0.007 C 
ATOM     20  C   UNL A   1      30.080  25.289  23.712  1.00  0.00     0.007 C 
ENDBRANCH   7  18
ENDBRANCH   5   7
ENDBRANCH   4   5
ENDBRANCH   3   4
ENDBRANCH   2   3
ENDBRANCH   1   2
BRANCH   1  21
ATOM     21  C   UNL A   1      31.618  31.951  26.754  1.00  0.00     0.202 C 
BRANCH  21  22
ATOM     22  C   UNL A   1      32.212  33.281  27.237  1.00  0.00     0.261 C 
BRANCH  22  23
ATOM     23  O   UNL A   1      33.273  33.176  28.157  1.00  0.00    -0.460 OA
BRANCH  23  24
ATOM     24  C   UNL A   1      34.346  33.958  27.933  1.00  0.00     0.338 C 
ATOM     25  O   UNL A   1      34.419  35.041  27.423  1.00  0.00    -0.246 OA
BRANCH  24  26
ATOM     26  C   UNL A   1      35.421  33.157  28.524  1.00  0.00     0.060 A 
ATOM     27  C   UNL A   1      35.178  31.813  28.809  1.00  0.00     0.016 A 
ATOM     28  C   UNL A   1      36.698  33.720  28.622  1.00  0.00     0.016 A 
ATOM     29  C   UNL A   1      36.230  31.022  29.251  1.00  0.00     0.010 A 
ATOM     30  C   UNL A   1      37.749  32.927  29.049  1.00  0.00     0.010 A 
ATOM     31  C   UNL A   1      37.505  31.589  29.398  1.00  0.00    -0.014 A 
BRANCH  31  32
ATOM     32  C   UNL A   1      38.551  30.844  30.115  1.00  0.00     0.031 A 
ATOM     33  C   UNL A   1      38.753  31.165  31.564  1.00  0.00     0.074 A 
ATOM     34  C   UNL A   1      39.292  29.927  29.473  1.00  0.00     0.049 A 
ATOM     35  N   UNL A   1      39.630  30.692  32.407  1.00  0.00    -0.248 NA
ATOM     36  C   UNL A   1      37.847  32.175  32.140  1.00  0.00     0.031 C 
ATOM     37  C   UNL A   1      39.149  29.562  28.065  1.00  0.00     0.029 A 
ATOM     38  N   UNL A   1      40.320  29.145  29.924  1.00  0.00    -0.354 N 
ATOM     39  C   UNL A   1      39.386  31.351  33.603  1.00  0.00     0.074 A 
ATOM     40  C   UNL A   1      38.311  32.287  33.373  1.00  0.00     0.031 C 
ATOM     41  C   UNL A   1      40.066  28.626  27.764  1.00  0.00     0.029 A 
ATOM     42  C   UNL A   1      40.870  28.351  28.951  1.00  0.00     0.049 A 
ATOM     43  H   UNL A   1      40.635  29.153  30.857  1.00  0.00     0.167 HD
ATOM     44  C   UNL A   1      40.004  31.173  34.792  1.00  0.00     0.037 A 
ATOM     45  C   UNL A   1      41.917  27.508  29.025  1.00  0.00     0.037 A 
ATOM     46  C   UNL A   1      41.076  30.237  34.988  1.00  0.00     0.049 A 
ATOM     47  C   UNL A   1      42.607  27.346  30.355  1.00  0.00     0.074 A 
ATOM     48  C   UNL A   1      41.775  29.949  36.143  1.00  0.00     0.029 A 
ATOM     49  N   UNL A   1      41.604  29.436  33.983  1.00  0.00    -0.354 N 
ATOM     50  N   UNL A   1      42.350  27.941  31.498  1.00  0.00    -0.248 NA
ATOM     51  C   UNL A   1      43.722  26.394  30.411  1.00  0.00     0.031 C 
ATOM     52  C   UNL A   1      42.759  29.005  35.826  1.00  0.00     0.029 A 
ATOM     53  C   UNL A   1      42.635  28.665  34.485  1.00  0.00     0.049 A 
ATOM     54  H   UNL A   1      41.291  29.420  33.050  1.00  0.00     0.167 HD
ATOM     55  C   UNL A   1      43.250  27.417  32.414  1.00  0.00     0.074 A 
ATOM     56  C   UNL A   1      44.054  26.448  31.694  1.00  0.00     0.031 C 
ATOM     57  C   UNL A   1      43.403  27.706  33.732  1.00  0.00     0.037 A 
BRANCH  44  58
ATOM     58  C   UNL A   1      39.550  32.028  35.939  1.00  0.00     0.064 A 
ATOM     59  C   UNL A   1      40.170  33.252  36.241  1.00  0.00     0.173 A 
ATOM     60  C   UNL A   1      38.492  31.611  36.760  1.00  0.00     0.173 A 
ATOM     61  F   UNL A   1      41.203  33.685  35.503  1.00  0.00    -0.203 F 
ATOM     62  C   UNL A   1      39.769  34.007  37.340  1.00  0.00     0.198 A 
ATOM     63  C   UNL A   1      38.073  32.385  37.838  1.00  0.00     0.198 A 
ATOM     64  F   UNL A   1      37.867  30.449  36.520  1.00  0.00    -0.203 F 
ATOM     65  F   UNL A   1      40.416  35.141  37.644  1.00  0.00    -0.200 F 
ATOM     66  C   UNL A   1      38.717  33.577  38.134  1.00  0.00     0.200 A 
ATOM     67  F   UNL A   1      37.051  31.970  38.602  1.00  0.00    -0.200 F 
ATOM     68  F   UNL A   1      38.333  34.304  39.192  1.00  0.00    -0.200 F 
ENDBRANCH  44  58
BRANCH  45  69
ATOM     69  C   UNL A   1      42.352  26.756  27.820  1.00  0.00     0.064 A 
ATOM     70  C   UNL A   1      43.307  27.286  26.942  1.00  0.00     0.173 A 
ATOM     71  C   UNL A   1      41.839  25.482  27.532  1.00  0.00     0.173 A 
ATOM     72  F   UNL A   1      43.817  28.506  27.165  1.00  0.00    -0.203 F 
ATOM     73  C   UNL A   1      43.724  26.576  25.818  1.00  0.00     0.198 A 
ATOM     74  C   UNL A   1      42.276  24.762  26.422  1.00  0.00     0.198 A 
ATOM     75  F   UNL A   1      40.926  24.927  28.343  1.00  0.00    -0.203 F 
ATOM     76  F   UNL A   1      44.616  27.120  24.978  1.00  0.00    -0.200 F 
ATOM     77  C   UNL A   1      43.214  25.312  25.562  1.00  0.00     0.200 A 
ATOM     78  F   UNL A   1      41.791  23.535  26.188  1.00  0.00    -0.200 F 
ATOM     79  F   UNL A   1      43.624  24.625  24.487  1.00  0.00    -0.200 F 
ENDBRANCH  45  69
BRANCH  57  80
ATOM     80  C   UNL A   1      44.450  26.937  34.479  1.00  0.00     0.064 A 
ATOM     81  C   UNL A   1      45.756  27.426  34.627  1.00  0.00     0.173 A 
ATOM     82  C   UNL A   1      44.122  25.724  35.103  1.00  0.00     0.173 A 
ATOM     83  F   UNL A   1      46.118  28.575  34.037  1.00  0.00    -0.203 F 
ATOM     84  C   UNL A   1      46.703  26.715  35.357  1.00  0.00     0.198 A 
ATOM     85  C   UNL A   1      45.064  25.032  35.857  1.00  0.00     0.198 A 
ATOM     86  F   UNL A   1      42.883  25.221  34.996  1.00  0.00    -0.203 F 
ATOM     87  F   UNL A   1      47.957  27.179  35.452  1.00  0.00    -0.200 F 
ATOM     88  C   UNL A   1      46.354  25.525  35.978  1.00  0.00     0.200 A 
ATOM     89  F   UNL A   1      44.722  23.890  36.470  1.00  0.00    -0.200 F 
ATOM     90  F   UNL A   1      47.266  24.848  36.690  1.00  0.00    -0.200 F 
ENDBRANCH  57  80
ENDBRANCH  31  32
ENDBRANCH  24  26
ENDBRANCH  23  24
ENDBRANCH  22  23
ENDBRANCH  21  22
ENDBRANCH   1  21
TORSDOF 17
ENDMDL
MODEL 2
REMARK VINA RESULT:     -10.8      1.629      7.761
REMARK SMILES CC1(C(=O)N[C@H](C(=O)OCCOCCOC(=O)c2ccc(-c3c4nc(c(-c5c(F)c(F)c(F)c(F)c5F)c5ccc([nH]5)c(-c5c(F)c(F)c(F)c(F)c5F)c5nc(c(-c6c(F)c(F)c(F)c(F)c6F)c6ccc3[nH]6)C=C5)C=C4)cc2)C2CC2)CCCC1
REMARK SMILES IDX 12 1 11 2 10 3 9 4 7 5 8 6 6 7 5 8 3 9 4 10 2 12 1 13 84 14
REMARK SMILES IDX 87 15 85 16 86 17 81 18 82 19 83 20 13 21 14 22 15 23 16 24
REMARK SMILES IDX 17 25 18 26 19 27 80 28 20 29 79 30 21 31 22 32 23 33 73 34
REMARK SMILES IDX 24 35 78 36 72 37 74 38 25 39 77 40 71 41 70 42 26 44 58 45
REMARK SMILES IDX 38 46 57 47 39 48 42 49 56 50 75 51 40 52 41 53 55 55 76 56
REMARK SMILES IDX 43 57 27 58 28 59 36 60 29 61 30 62 34 63 37 64 31 65 32 66
REMARK SMILES IDX 35 67 33 68 59 69 60 70 68 71 61 72 62 73 66 74 69 75 63 76
REMARK SMILES IDX 64 77 67 78 65 79 44 80 45 81 53 82 46 83 47 84 51 85 54 86
REMARK SMILES IDX 48 87 49 88 52 89 50 90
REMARK H PARENT 5 11 74 43 42 54
REMARK Flexibility Score: inf
ROOT
ATOM      1  O   UNL A   1      33.297  30.645  27.698  1.00  0.00    -0.374 OA
ENDROOT
BRANCH   1   2
ATOM      2  C   UNL A   1      34.267  29.913  26.969  1.00  0.00     0.202 C 
BRANCH   2   3
ATOM      3  C   UNL A   1      33.797  28.785  26.053  1.00  0.00     0.261 C 
BRANCH   3   4
ATOM      4  O   UNL A   1      33.446  27.573  26.745  1.00  0.00    -0.462 OA
BRANCH   4   5
ATOM      5  C   UNL A   1      32.108  27.333  26.879  1.00  0.00     0.329 C 
ATOM      6  O   UNL A   1      31.400  27.829  27.750  1.00  0.00    -0.250 OA
BRANCH   5   7
ATOM      7  C   UNL A   1      31.601  26.204  25.941  1.00  0.00     0.195 C 
BRANCH   7   8
ATOM      8  N   UNL A   1      31.077  25.030  26.632  1.00  0.00    -0.342 N 
ATOM      9  C   UNL A   1      31.087  23.703  26.360  1.00  0.00     0.226 C 
ATOM     10  O   UNL A   1      30.467  23.005  27.172  1.00  0.00    -0.274 OA
ATOM     11  H   UNL A   1      30.620  25.250  27.476  1.00  0.00     0.164 HD
BRANCH   9  12
ATOM     12  C   UNL A   1      31.753  23.060  25.120  1.00  0.00     0.046 C 
ATOM     13  C   UNL A   1      30.945  23.373  23.856  1.00  0.00     0.022 C 
ATOM     14  C   UNL A   1      31.810  21.530  25.368  1.00  0.00     0.016 C 
ATOM     15  C   UNL A   1      33.229  23.413  24.880  1.00  0.00     0.016 C 
ATOM     16  C   UNL A   1      32.956  21.003  24.526  1.00  0.00     0.001 C 
ATOM     17  C   UNL A   1      33.971  22.129  24.497  1.00  0.00     0.001 C 
ENDBRANCH   9  12
ENDBRANCH   7   8
BRANCH   7  18
ATOM     18  C   UNL A   1      30.498  26.782  25.062  1.00  0.00     0.023 C 
ATOM     19  C   UNL A   1      30.723  28.085  24.335  1.00  0.00     0.007 C 
ATOM     20  C   UNL A   1      30.556  26.821  23.547  1.00  0.00     0.007 C 
ENDBRANCH   7  18
ENDBRANCH   5   7
ENDBRANCH   4   5
ENDBRANCH   3   4
ENDBRANCH   2   3
ENDBRANCH   1   2
BRANCH   1  21
ATOM     21  C   UNL A   1      32.211  31.276  27.036  1.00  0.00     0.202 C 
BRANCH  21  22
ATOM     22  C   UNL A   1      32.060  32.804  27.043  1.00  0.00     0.261 C 
BRANCH  22  23
ATOM     23  O   UNL A   1      33.235  33.532  27.313  1.00  0.00    -0.460 OA
BRANCH  23  24
ATOM     24  C   UNL A   1      33.204  34.357  28.376  1.00  0.00     0.338 C 
ATOM     25  O   UNL A   1      32.433  35.235  28.650  1.00  0.00    -0.246 OA
BRANCH  24  26
ATOM     26  C   UNL A   1      34.345  33.872  29.157  1.00  0.00     0.060 A 
ATOM     27  C   UNL A   1      35.613  34.383  28.881  1.00  0.00     0.016 A 
ATOM     28  C   UNL A   1      34.097  33.048  30.260  1.00  0.00     0.016 A 
ATOM     29  C   UNL A   1      36.672  34.021  29.701  1.00  0.00     0.010 A 
ATOM     30  C   UNL A   1      35.153  32.699  31.086  1.00  0.00     0.010 A 
ATOM     31  C   UNL A   1      36.445  33.156  30.782  1.00  0.00    -0.014 A 
BRANCH  31  32
ATOM     32  C   UNL A   1      37.590  32.555  31.484  1.00  0.00     0.031 A 
ATOM     33  C   UNL A   1      38.308  31.437  30.795  1.00  0.00     0.074 A 
ATOM     34  C   UNL A   1      37.948  32.999  32.699  1.00  0.00     0.049 A 
ATOM     35  N   UNL A   1      39.310  30.711  31.210  1.00  0.00    -0.248 NA
ATOM     36  C   UNL A   1      37.817  31.075  29.453  1.00  0.00     0.031 C 
ATOM     37  C   UNL A   1      37.296  34.085  33.428  1.00  0.00     0.029 A 
ATOM     38  N   UNL A   1      38.947  32.580  33.536  1.00  0.00    -0.354 N 
ATOM     39  C   UNL A   1      39.561  29.807  30.188  1.00  0.00     0.074 A 
ATOM     40  C   UNL A   1      38.584  30.041  29.151  1.00  0.00     0.031 C 
ATOM     41  C   UNL A   1      37.910  34.243  34.613  1.00  0.00     0.029 A 
ATOM     42  C   UNL A   1      38.978  33.254  34.730  1.00  0.00     0.049 A 
ATOM     43  H   UNL A   1      39.581  31.863  33.303  1.00  0.00     0.167 HD
ATOM     44  C   UNL A   1      40.534  28.871  30.124  1.00  0.00     0.037 A 
ATOM     45  C   UNL A   1      39.780  33.069  35.795  1.00  0.00     0.037 A 
ATOM     46  C   UNL A   1      41.488  28.658  31.177  1.00  0.00     0.049 A 
ATOM     47  C   UNL A   1      40.841  32.003  35.710  1.00  0.00     0.074 A 
ATOM     48  C   UNL A   1      42.533  27.757  31.231  1.00  0.00     0.029 A 
ATOM     49  N   UNL A   1      41.501  29.366  32.372  1.00  0.00    -0.354 N 
ATOM     50  N   UNL A   1      41.104  31.174  34.726  1.00  0.00    -0.248 NA
ATOM     51  C   UNL A   1      41.722  31.851  36.874  1.00  0.00     0.031 C 
ATOM     52  C   UNL A   1      43.151  27.888  32.479  1.00  0.00     0.029 A 
ATOM     53  C   UNL A   1      42.525  28.910  33.181  1.00  0.00     0.049 A 
ATOM     54  H   UNL A   1      40.873  30.087  32.609  1.00  0.00     0.167 HD
ATOM     55  C   UNL A   1      42.194  30.421  35.138  1.00  0.00     0.074 A 
ATOM     56  C   UNL A   1      42.549  30.902  36.460  1.00  0.00     0.031 C 
ATOM     57  C   UNL A   1      42.847  29.425  34.489  1.00  0.00     0.037 A 
BRANCH  44  58
ATOM     58  C   UNL A   1      40.581  28.009  28.897  1.00  0.00     0.064 A 
ATOM     59  C   UNL A   1      41.348  28.360  27.774  1.00  0.00     0.173 A 
ATOM     60  C   UNL A   1      39.833  26.824  28.833  1.00  0.00     0.173 A 
ATOM     61  F   UNL A   1      42.062  29.496  27.773  1.00  0.00    -0.203 F 
ATOM     62  C   UNL A   1      41.339  27.575  26.624  1.00  0.00     0.198 A 
ATOM     63  C   UNL A   1      39.852  26.025  27.693  1.00  0.00     0.198 A 
ATOM     64  F   UNL A   1      39.079  26.443  29.874  1.00  0.00    -0.203 F 
ATOM     65  F   UNL A   1      42.031  27.963  25.544  1.00  0.00    -0.200 F 
ATOM     66  C   UNL A   1      40.596  26.405  26.586  1.00  0.00     0.200 A 
ATOM     67  F   UNL A   1      39.137  24.890  27.660  1.00  0.00    -0.200 F 
ATOM     68  F   UNL A   1      40.586  25.651  25.479  1.00  0.00    -0.200 F 
ENDBRANCH  44  58
BRANCH  45  69
ATOM     69  C   UNL A   1      39.616  33.917  37.003  1.00  0.00     0.064 A 
ATOM     70  C   UNL A   1      38.841  33.489  38.089  1.00  0.00     0.173 A 
ATOM     71  C   UNL A   1      40.249  35.166  37.108  1.00  0.00     0.173 A 
ATOM     72  F   UNL A   1      38.203  32.310  38.032  1.00  0.00    -0.203 F 
ATOM     73  C   UNL A   1      38.696  34.279  39.228  1.00  0.00     0.198 A 
ATOM     74  C   UNL A   1      40.124  35.943  38.258  1.00  0.00     0.198 A 
ATOM     75  F   UNL A   1      41.006  35.621  36.100  1.00  0.00    -0.203 F 
ATOM     76  F   UNL A   1      37.923  33.857  40.239  1.00  0.00    -0.200 F 
ATOM     77  C   UNL A   1      39.343  35.502  39.314  1.00  0.00     0.200 A 
ATOM     78  F   UNL A   1      40.765  37.117  38.343  1.00  0.00    -0.200 F 
ATOM     79  F   UNL A   1      39.213  36.256  40.415  1.00  0.00    -0.200 F 
ENDBRANCH  45  69
BRANCH  57  80
ATOM     80  C   UNL A   1      44.030  28.820  35.183  1.00  0.00     0.064 A 
ATOM     81  C   UNL A   1      43.896  27.711  36.030  1.00  0.00     0.173 A 
ATOM     82  C   UNL A   1      45.317  29.325  34.950  1.00  0.00     0.173 A 
ATOM     83  F   UNL A   1      42.683  27.203  36.292  1.00  0.00    -0.203 F 
ATOM     84  C   UNL A   1      45.011  27.141  36.635  1.00  0.00     0.198 A 
ATOM     85  C   UNL A   1      46.432  28.733  35.534  1.00  0.00     0.198 A 
ATOM     86  F   UNL A   1      45.495  30.380  34.141  1.00  0.00    -0.203 F 
ATOM     87  F   UNL A   1      44.858  26.106  37.475  1.00  0.00    -0.200 F 
ATOM     88  C   UNL A   1      46.278  27.645  36.380  1.00  0.00     0.200 A 
ATOM     89  F   UNL A   1      47.657  29.212  35.273  1.00  0.00    -0.200 F 
ATOM     90  F   UNL A   1      47.351  27.087  36.956  1.00  0.00    -0.200 F 
ENDBRANCH  57  80
ENDBRANCH  31  32
ENDBRANCH  24  26
ENDBRANCH  23  24
ENDBRANCH  22  23
ENDBRANCH  21  22
ENDBRANCH   1  21
TORSDOF 17
ENDMDL
MODEL 3
REMARK VINA RESULT:     -10.6      1.322      2.384
REMARK SMILES CC1(C(=O)N[C@H](C(=O)OCCOCCOC(=O)c2ccc(-c3c4nc(c(-c5c(F)c(F)c(F)c(F)c5F)c5ccc([nH]5)c(-c5c(F)c(F)c(F)c(F)c5F)c5nc(c(-c6c(F)c(F)c(F)c(F)c6F)c6ccc3[nH]6)C=C5)C=C4)cc2)C2CC2)CCCC1
REMARK SMILES IDX 12 1 11 2 10 3 9 4 7 5 8 6 6 7 5 8 3 9 4 10 2 12 1 13 84 14
REMARK SMILES IDX 87 15 85 16 86 17 81 18 82 19 83 20 13 21 14 22 15 23 16 24
REMARK SMILES IDX 17 25 18 26 19 27 80 28 20 29 79 30 21 31 22 32 23 33 73 34
REMARK SMILES IDX 24 35 78 36 72 37 74 38 25 39 77 40 71 41 70 42 26 44 58 45
REMARK SMILES IDX 38 46 57 47 39 48 42 49 56 50 75 51 40 52 41 53 55 55 76 56
REMARK SMILES IDX 43 57 27 58 28 59 36 60 29 61 30 62 34 63 37 64 31 65 32 66
REMARK SMILES IDX 35 67 33 68 59 69 60 70 68 71 61 72 62 73 66 74 69 75 63 76
REMARK SMILES IDX 64 77 67 78 65 79 44 80 45 81 53 82 46 83 47 84 51 85 54 86
REMARK SMILES IDX 48 87 49 88 52 89 50 90
REMARK H PARENT 5 11 74 43 42 54
REMARK Flexibility Score: inf
ROOT
ATOM      1  O   UNL A   1      33.169  30.735  27.623  1.00  0.00    -0.374 OA
ENDROOT
BRANCH   1   2
ATOM      2  C   UNL A   1      34.149  29.931  26.989  1.00  0.00     0.202 C 
BRANCH   2   3
ATOM      3  C   UNL A   1      33.692  28.868  25.991  1.00  0.00     0.261 C 
BRANCH   3   4
ATOM      4  O   UNL A   1      33.405  27.588  26.585  1.00  0.00    -0.462 OA
BRANCH   4   5
ATOM      5  C   UNL A   1      32.084  27.312  26.788  1.00  0.00     0.329 C 
ATOM      6  O   UNL A   1      31.394  27.834  27.659  1.00  0.00    -0.250 OA
BRANCH   5   7
ATOM      7  C   UNL A   1      31.581  26.113  25.939  1.00  0.00     0.195 C 
BRANCH   7   8
ATOM      8  N   UNL A   1      31.124  24.966  26.718  1.00  0.00    -0.342 N 
ATOM      9  C   UNL A   1      31.527  23.677  26.808  1.00  0.00     0.226 C 
ATOM     10  O   UNL A   1      30.833  22.968  27.548  1.00  0.00    -0.274 OA
ATOM     11  H   UNL A   1      30.360  25.176  27.303  1.00  0.00     0.164 HD
BRANCH   9  12
ATOM     12  C   UNL A   1      32.716  23.066  26.028  1.00  0.00     0.046 C 
ATOM     13  C   UNL A   1      32.517  21.558  25.844  1.00  0.00     0.022 C 
ATOM     14  C   UNL A   1      34.002  23.353  26.845  1.00  0.00     0.016 C 
ATOM     15  C   UNL A   1      33.038  23.705  24.668  1.00  0.00     0.016 C 
ATOM     16  C   UNL A   1      35.151  23.340  25.856  1.00  0.00     0.001 C 
ATOM     17  C   UNL A   1      34.557  23.861  24.561  1.00  0.00     0.001 C 
ENDBRANCH   9  12
ENDBRANCH   7   8
BRANCH   7  18
ATOM     18  C   UNL A   1      30.427  26.602  25.072  1.00  0.00     0.023 C 
ATOM     19  C   UNL A   1      30.611  27.813  24.190  1.00  0.00     0.007 C 
ATOM     20  C   UNL A   1      30.389  26.470  23.562  1.00  0.00     0.007 C 
ENDBRANCH   7  18
ENDBRANCH   5   7
ENDBRANCH   4   5
ENDBRANCH   3   4
ENDBRANCH   2   3
ENDBRANCH   1   2
BRANCH   1  21
ATOM     21  C   UNL A   1      32.244  31.494  26.859  1.00  0.00     0.202 C 
BRANCH  21  22
ATOM     22  C   UNL A   1      31.983  32.973  27.176  1.00  0.00     0.261 C 
BRANCH  22  23
ATOM     23  O   UNL A   1      33.130  33.779  27.310  1.00  0.00    -0.460 OA
BRANCH  23  24
ATOM     24  C   UNL A   1      33.230  34.503  28.440  1.00  0.00     0.338 C 
ATOM     25  O   UNL A   1      32.550  35.407  28.842  1.00  0.00    -0.246 OA
BRANCH  24  26
ATOM     26  C   UNL A   1      34.375  33.866  29.096  1.00  0.00     0.060 A 
ATOM     27  C   UNL A   1      35.659  34.326  28.803  1.00  0.00     0.016 A 
ATOM     28  C   UNL A   1      34.130  32.940  30.116  1.00  0.00     0.016 A 
ATOM     29  C   UNL A   1      36.732  33.811  29.516  1.00  0.00     0.010 A 
ATOM     30  C   UNL A   1      35.201  32.437  30.835  1.00  0.00     0.010 A 
ATOM     31  C   UNL A   1      36.503  32.846  30.508  1.00  0.00    -0.014 A 
BRANCH  31  32
ATOM     32  C   UNL A   1      37.640  32.102  31.073  1.00  0.00     0.031 A 
ATOM     33  C   UNL A   1      38.089  32.477  32.451  1.00  0.00     0.074 A 
ATOM     34  C   UNL A   1      38.243  31.140  30.357  1.00  0.00     0.049 A 
ATOM     35  N   UNL A   1      39.086  32.014  33.156  1.00  0.00    -0.248 NA
ATOM     36  C   UNL A   1      37.314  33.535  33.125  1.00  0.00     0.031 C 
ATOM     37  C   UNL A   1      37.858  30.721  29.011  1.00  0.00     0.029 A 
ATOM     38  N   UNL A   1      39.316  30.349  30.665  1.00  0.00    -0.354 N 
ATOM     39  C   UNL A   1      39.060  32.728  34.346  1.00  0.00     0.074 A 
ATOM     40  C   UNL A   1      37.982  33.684  34.256  1.00  0.00     0.031 C 
ATOM     41  C   UNL A   1      38.691  29.749  28.603  1.00  0.00     0.029 A 
ATOM     42  C   UNL A   1      39.678  29.500  29.650  1.00  0.00     0.049 A 
ATOM     43  H   UNL A   1      39.784  30.386  31.531  1.00  0.00     0.167 HD
ATOM     44  C   UNL A   1      39.866  32.583  35.421  1.00  0.00     0.037 A 
ATOM     45  C   UNL A   1      40.705  28.633  29.586  1.00  0.00     0.037 A 
ATOM     46  C   UNL A   1      40.936  31.626  35.476  1.00  0.00     0.049 A 
ATOM     47  C   UNL A   1      41.605  28.507  30.787  1.00  0.00     0.074 A 
ATOM     48  C   UNL A   1      41.814  31.365  36.510  1.00  0.00     0.029 A 
ATOM     49  N   UNL A   1      41.271  30.770  34.434  1.00  0.00    -0.354 N 
ATOM     50  N   UNL A   1      41.557  29.154  31.930  1.00  0.00    -0.248 NA
ATOM     51  C   UNL A   1      42.695  27.527  30.699  1.00  0.00     0.031 C 
ATOM     52  C   UNL A   1      42.711  30.383  36.076  1.00  0.00     0.029 A 
ATOM     53  C   UNL A   1      42.356  29.992  34.791  1.00  0.00     0.049 A 
ATOM     54  H   UNL A   1      40.805  30.725  33.568  1.00  0.00     0.167 HD
ATOM     55  C   UNL A   1      42.588  28.644  32.705  1.00  0.00     0.074 A 
ATOM     56  C   UNL A   1      43.239  27.624  31.904  1.00  0.00     0.031 C 
ATOM     57  C   UNL A   1      42.966  28.981  33.964  1.00  0.00     0.037 A 
BRANCH  44  58
ATOM     58  C   UNL A   1      39.629  33.496  36.588  1.00  0.00     0.064 A 
ATOM     59  C   UNL A   1      38.829  33.113  37.677  1.00  0.00     0.173 A 
ATOM     60  C   UNL A   1      40.192  34.780  36.611  1.00  0.00     0.173 A 
ATOM     61  F   UNL A   1      38.245  31.905  37.693  1.00  0.00    -0.203 F 
ATOM     62  C   UNL A   1      38.577  33.992  38.726  1.00  0.00     0.198 A 
ATOM     63  C   UNL A   1      39.963  35.645  37.678  1.00  0.00     0.198 A 
ATOM     64  F   UNL A   1      40.960  35.200  35.595  1.00  0.00    -0.203 F 
ATOM     65  F   UNL A   1      37.761  33.625  39.725  1.00  0.00    -0.200 F 
ATOM     66  C   UNL A   1      39.149  35.255  38.729  1.00  0.00     0.200 A 
ATOM     67  F   UNL A   1      40.522  36.864  37.681  1.00  0.00    -0.200 F 
ATOM     68  F   UNL A   1      38.904  36.101  39.740  1.00  0.00    -0.200 F 
ENDBRANCH  44  58
BRANCH  45  69
ATOM     69  C   UNL A   1      40.915  27.821  28.361  1.00  0.00     0.064 A 
ATOM     70  C   UNL A   1      41.724  28.284  27.314  1.00  0.00     0.173 A 
ATOM     71  C   UNL A   1      40.331  26.553  28.218  1.00  0.00     0.173 A 
ATOM     72  F   UNL A   1      42.293  29.496  27.395  1.00  0.00    -0.203 F 
ATOM     73  C   UNL A   1      41.931  27.518  26.169  1.00  0.00     0.198 A 
ATOM     74  C   UNL A   1      40.560  25.776  27.083  1.00  0.00     0.198 A 
ATOM     75  F   UNL A   1      39.553  26.059  29.191  1.00  0.00    -0.203 F 
ATOM     76  F   UNL A   1      42.684  28.000  25.170  1.00  0.00    -0.200 F 
ATOM     77  C   UNL A   1      41.355  26.261  26.058  1.00  0.00     0.200 A 
ATOM     78  F   UNL A   1      40.014  24.556  26.988  1.00  0.00    -0.200 F 
ATOM     79  F   UNL A   1      41.564  25.520  24.960  1.00  0.00    -0.200 F 
ENDBRANCH  45  69
BRANCH  57  80
ATOM     80  C   UNL A   1      44.108  28.215  34.559  1.00  0.00     0.064 A 
ATOM     81  C   UNL A   1      43.907  27.004  35.236  1.00  0.00     0.173 A 
ATOM     82  C   UNL A   1      45.424  28.672  34.397  1.00  0.00     0.173 A 
ATOM     83  F   UNL A   1      42.665  26.535  35.427  1.00  0.00    -0.203 F 
ATOM     84  C   UNL A   1      44.984  26.289  35.749  1.00  0.00     0.198 A 
ATOM     85  C   UNL A   1      46.500  27.939  34.885  1.00  0.00     0.198 A 
ATOM     86  F   UNL A   1      45.666  29.821  33.748  1.00  0.00    -0.203 F 
ATOM     87  F   UNL A   1      44.767  25.154  36.430  1.00  0.00    -0.200 F 
ATOM     88  C   UNL A   1      46.279  26.751  35.565  1.00  0.00     0.200 A 
ATOM     89  F   UNL A   1      47.751  28.378  34.692  1.00  0.00    -0.200 F 
ATOM     90  F   UNL A   1      47.315  26.053  36.050  1.00  0.00    -0.200 F 
ENDBRANCH  57  80
ENDBRANCH  31  32
ENDBRANCH  24  26
ENDBRANCH  23  24
ENDBRANCH  22  23
ENDBRANCH  21  22
ENDBRANCH   1  21
TORSDOF 17
ENDMDL
