MODEL 1
REMARK VINA RESULT:     -11.3      0.000      0.000
REMARK SMILES C[C@]([NH2+]Cc1nc(-c2ccsc2)no1)(C(=O)OCCOCCOC(=O)c1ccc(-c2c3nc(c(-c4c(F)c(F)c(F)c(F)c4F)c4ccc([nH]4)c(-c4c(F)c(F)c(F)c(F)c4F)c4nc(c(-c5c(F)c(F)c(F)c(F)c5F)c5ccc2[nH]5)C=C4)C=C3)cc1)C(F)(F)F
REMARK SMILES IDX 19 1 18 2 17 3 15 4 16 5 2 6 1 7 89 8 90 9 91 10 92 11 3 12
REMARK SMILES IDX 4 15 5 16 6 17 14 18 7 19 13 20 8 21 9 22 12 23 10 24 11 25
REMARK SMILES IDX 20 26 21 27 22 28 23 29 24 30 25 31 26 32 27 33 88 34 28 35
REMARK SMILES IDX 87 36 29 37 30 38 31 39 81 40 32 41 86 42 80 43 82 44 33 45
REMARK SMILES IDX 85 46 79 47 78 48 34 50 66 51 46 52 65 53 47 54 50 55 64 56
REMARK SMILES IDX 83 57 48 58 49 59 63 61 84 62 51 63 35 64 36 65 44 66 37 67
REMARK SMILES IDX 38 68 42 69 45 70 39 71 40 72 43 73 41 74 67 75 68 76 76 77
REMARK SMILES IDX 69 78 70 79 74 80 77 81 71 82 72 83 75 84 73 85 52 86 53 87
REMARK SMILES IDX 61 88 54 89 55 90 59 91 62 92 56 93 57 94 60 95 58 96
REMARK H PARENT 3 13 3 14 82 49 50 60
REMARK Flexibility Score: inf
ROOT
ATOM      1  C   UNL A   1      31.904  29.356  27.260  1.00  0.00     0.202 C 
ENDROOT
BRANCH   1   2
ATOM      2  C   UNL A   1      32.491  28.248  26.384  1.00  0.00     0.261 C 
BRANCH   2   3
ATOM      3  O   UNL A   1      31.575  27.833  25.352  1.00  0.00    -0.458 OA
BRANCH   3   4
ATOM      4  C   UNL A   1      31.777  28.419  24.132  1.00  0.00     0.377 C 
ATOM      5  O   UNL A   1      32.597  29.308  23.938  1.00  0.00    -0.244 OA
BRANCH   4   6
ATOM      6  C   UNL A   1      30.791  27.922  23.065  1.00  0.00     0.287 C 
ATOM      7  C   UNL A   1      29.983  26.801  23.746  1.00  0.00     0.103 C 
BRANCH   6   8
ATOM      8  C   UNL A   1      29.892  29.158  22.800  1.00  0.00     0.455 C 
ATOM      9  F   UNL A   1      30.341  29.890  21.752  1.00  0.00    -0.164 F 
ATOM     10  F   UNL A   1      28.625  28.774  22.489  1.00  0.00    -0.164 F 
ATOM     11  F   UNL A   1      29.776  29.978  23.866  1.00  0.00    -0.164 F 
ENDBRANCH   6   8
BRANCH   6  12
ATOM     12  N   UNL A   1      31.516  27.418  21.816  1.00  0.00    -0.317 N 
ATOM     13  H   UNL A   1      31.501  28.152  21.109  1.00  0.00     0.347 HD
ATOM     14  H   UNL A   1      31.032  26.579  21.494  1.00  0.00     0.347 HD
BRANCH  12  15
ATOM     15  C   UNL A   1      32.919  27.050  22.089  1.00  0.00     0.363 C 
BRANCH  15  16
ATOM     16  C   UNL A   1      33.228  25.599  22.261  1.00  0.00     0.282 A 
ATOM     17  N   UNL A   1      33.850  25.042  23.277  1.00  0.00    -0.186 NA
ATOM     18  O   UNL A   1      33.045  24.750  21.208  1.00  0.00    -0.333 OA
ATOM     19  C   UNL A   1      34.114  23.784  22.805  1.00  0.00     0.203 A 
ATOM     20  N   UNL A   1      33.644  23.534  21.574  1.00  0.00    -0.057 NA
BRANCH  19  21
ATOM     21  C   UNL A   1      34.978  22.890  23.582  1.00  0.00     0.033 A 
ATOM     22  C   UNL A   1      36.405  22.926  23.495  1.00  0.00     0.024 A 
ATOM     23  C   UNL A   1      34.543  21.892  24.427  1.00  0.00     0.077 A 
ATOM     24  C   UNL A   1      36.999  21.950  24.266  1.00  0.00     0.065 A 
ATOM     25  S   UNL A   1      35.843  20.995  25.092  1.00  0.00    -0.152 S 
ENDBRANCH  19  21
ENDBRANCH  15  16
ENDBRANCH  12  15
ENDBRANCH   6  12
ENDBRANCH   4   6
ENDBRANCH   3   4
ENDBRANCH   2   3
ENDBRANCH   1   2
BRANCH   1  26
ATOM     26  O   UNL A   1      32.515  30.639  27.157  1.00  0.00    -0.374 OA
BRANCH  26  27
ATOM     27  C   UNL A   1      31.673  31.756  26.870  1.00  0.00     0.202 C 
BRANCH  27  28
ATOM     28  C   UNL A   1      32.329  33.142  26.882  1.00  0.00     0.261 C 
BRANCH  28  29
ATOM     29  O   UNL A   1      32.156  33.822  28.139  1.00  0.00    -0.460 OA
BRANCH  29  30
ATOM     30  C   UNL A   1      33.198  34.606  28.501  1.00  0.00     0.338 C 
ATOM     31  O   UNL A   1      33.182  35.811  28.721  1.00  0.00    -0.246 OA
BRANCH  30  32
ATOM     32  C   UNL A   1      34.389  33.785  28.787  1.00  0.00     0.060 A 
ATOM     33  C   UNL A   1      34.209  32.667  29.610  1.00  0.00     0.016 A 
ATOM     34  C   UNL A   1      35.665  34.139  28.340  1.00  0.00     0.016 A 
ATOM     35  C   UNL A   1      35.310  31.930  30.037  1.00  0.00     0.010 A 
ATOM     36  C   UNL A   1      36.773  33.400  28.777  1.00  0.00     0.010 A 
ATOM     37  C   UNL A   1      36.603  32.316  29.657  1.00  0.00    -0.014 A 
BRANCH  37  38
ATOM     38  C   UNL A   1      37.765  31.654  30.301  1.00  0.00     0.031 A 
ATOM     39  C   UNL A   1      38.131  32.020  31.712  1.00  0.00     0.074 A 
ATOM     40  C   UNL A   1      38.437  30.680  29.661  1.00  0.00     0.049 A 
ATOM     41  N   UNL A   1      39.069  31.526  32.482  1.00  0.00    -0.248 NA
ATOM     42  C   UNL A   1      37.331  33.081  32.344  1.00  0.00     0.031 C 
ATOM     43  C   UNL A   1      38.158  30.215  28.304  1.00  0.00     0.029 A 
ATOM     44  N   UNL A   1      39.490  29.903  30.075  1.00  0.00    -0.354 N 
ATOM     45  C   UNL A   1      38.962  32.205  33.690  1.00  0.00     0.074 A 
ATOM     46  C   UNL A   1      37.896  33.172  33.540  1.00  0.00     0.031 C 
ATOM     47  C   UNL A   1      39.024  29.233  27.993  1.00  0.00     0.029 A 
ATOM     48  C   UNL A   1      39.926  29.015  29.123  1.00  0.00     0.049 A 
ATOM     49  H   UNL A   1      39.895  29.977  30.969  1.00  0.00     0.167 HD
ATOM     50  C   UNL A   1      39.677  32.025  34.827  1.00  0.00     0.037 A 
ATOM     51  C   UNL A   1      40.942  28.132  29.158  1.00  0.00     0.037 A 
ATOM     52  C   UNL A   1      40.742  31.069  34.976  1.00  0.00     0.049 A 
ATOM     53  C   UNL A   1      41.759  27.994  30.417  1.00  0.00     0.074 A 
ATOM     54  C   UNL A   1      41.526  30.816  36.089  1.00  0.00     0.029 A 
ATOM     55  N   UNL A   1      41.176  30.210  33.979  1.00  0.00    -0.354 N 
ATOM     56  N   UNL A   1      41.632  28.622  31.561  1.00  0.00    -0.248 NA
ATOM     57  C   UNL A   1      42.856  27.016  30.391  1.00  0.00     0.031 C 
ATOM     58  C   UNL A   1      42.459  29.830  35.753  1.00  0.00     0.029 A 
ATOM     59  C   UNL A   1      42.229  29.438  34.445  1.00  0.00     0.049 A 
ATOM     60  H   UNL A   1      40.793  30.155  33.074  1.00  0.00     0.167 HD
ATOM     61  C   UNL A   1      42.615  28.103  32.394  1.00  0.00     0.074 A 
ATOM     62  C   UNL A   1      43.315  27.090  31.632  1.00  0.00     0.031 C 
ATOM     63  C   UNL A   1      42.915  28.435  33.673  1.00  0.00     0.037 A 
BRANCH  50  64
ATOM     64  C   UNL A   1      39.334  32.889  36.003  1.00  0.00     0.064 A 
ATOM     65  C   UNL A   1      38.420  32.465  36.980  1.00  0.00     0.173 A 
ATOM     66  C   UNL A   1      39.967  34.127  36.188  1.00  0.00     0.173 A 
ATOM     67  F   UNL A   1      37.780  31.294  36.841  1.00  0.00    -0.203 F 
ATOM     68  C   UNL A   1      38.142  33.256  38.091  1.00  0.00     0.198 A 
ATOM     69  C   UNL A   1      39.704  34.905  37.312  1.00  0.00     0.198 A 
ATOM     70  F   UNL A   1      40.851  34.576  35.285  1.00  0.00    -0.203 F 
ATOM     71  F   UNL A   1      37.242  32.846  38.996  1.00  0.00    -0.200 F 
ATOM     72  C   UNL A   1      38.789  34.471  38.260  1.00  0.00     0.200 A 
ATOM     73  F   UNL A   1      40.338  36.074  37.480  1.00  0.00    -0.200 F 
ATOM     74  F   UNL A   1      38.529  35.226  39.336  1.00  0.00    -0.200 F 
ENDBRANCH  50  64
BRANCH  51  75
ATOM     75  C   UNL A   1      41.260  27.312  27.961  1.00  0.00     0.064 A 
ATOM     76  C   UNL A   1      40.741  26.019  27.806  1.00  0.00     0.173 A 
ATOM     77  C   UNL A   1      42.120  27.794  26.964  1.00  0.00     0.173 A 
ATOM     78  F   UNL A   1      39.935  25.504  28.746  1.00  0.00    -0.203 F 
ATOM     79  C   UNL A   1      41.091  25.230  26.711  1.00  0.00     0.198 A 
ATOM     80  C   UNL A   1      42.447  27.016  25.856  1.00  0.00     0.198 A 
ATOM     81  F   UNL A   1      42.644  29.024  27.065  1.00  0.00    -0.203 F 
ATOM     82  F   UNL A   1      40.625  23.978  26.615  1.00  0.00    -0.200 F 
ATOM     83  C   UNL A   1      41.940  25.730  25.735  1.00  0.00     0.200 A 
ATOM     84  F   UNL A   1      43.258  27.507  24.910  1.00  0.00    -0.200 F 
ATOM     85  F   UNL A   1      42.279  24.970  24.686  1.00  0.00    -0.200 F 
ENDBRANCH  51  75
BRANCH  63  86
ATOM     86  C   UNL A   1      44.035  27.683  34.331  1.00  0.00     0.064 A 
ATOM     87  C   UNL A   1      43.820  26.446  34.956  1.00  0.00     0.173 A 
ATOM     88  C   UNL A   1      45.341  28.197  34.322  1.00  0.00     0.173 A 
ATOM     89  F   UNL A   1      42.587  25.920  35.004  1.00  0.00    -0.203 F 
ATOM     90  C   UNL A   1      44.865  25.766  35.576  1.00  0.00     0.198 A 
ATOM     91  C   UNL A   1      46.389  27.501  34.918  1.00  0.00     0.198 A 
ATOM     92  F   UNL A   1      45.601  29.373  33.731  1.00  0.00    -0.203 F 
ATOM     93  F   UNL A   1      44.626  24.612  36.214  1.00  0.00    -0.200 F 
ATOM     94  C   UNL A   1      46.149  26.292  35.553  1.00  0.00     0.200 A 
ATOM     95  F   UNL A   1      47.630  28.005  34.886  1.00  0.00    -0.200 F 
ATOM     96  F   UNL A   1      47.152  25.636  36.152  1.00  0.00    -0.200 F 
ENDBRANCH  63  86
ENDBRANCH  37  38
ENDBRANCH  30  32
ENDBRANCH  29  30
ENDBRANCH  28  29
ENDBRANCH  27  28
ENDBRANCH  26  27
ENDBRANCH   1  26
TORSDOF 19
ENDMDL
MODEL 2
REMARK VINA RESULT:     -11.2      2.437      3.915
REMARK SMILES C[C@]([NH2+]Cc1nc(-c2ccsc2)no1)(C(=O)OCCOCCOC(=O)c1ccc(-c2c3nc(c(-c4c(F)c(F)c(F)c(F)c4F)c4ccc([nH]4)c(-c4c(F)c(F)c(F)c(F)c4F)c4nc(c(-c5c(F)c(F)c(F)c(F)c5F)c5ccc2[nH]5)C=C4)C=C3)cc1)C(F)(F)F
REMARK SMILES IDX 19 1 18 2 17 3 15 4 16 5 2 6 1 7 89 8 90 9 91 10 92 11 3 12
REMARK SMILES IDX 4 15 5 16 6 17 14 18 7 19 13 20 8 21 9 22 12 23 10 24 11 25
REMARK SMILES IDX 20 26 21 27 22 28 23 29 24 30 25 31 26 32 27 33 88 34 28 35
REMARK SMILES IDX 87 36 29 37 30 38 31 39 81 40 32 41 86 42 80 43 82 44 33 45
REMARK SMILES IDX 85 46 79 47 78 48 34 50 66 51 46 52 65 53 47 54 50 55 64 56
REMARK SMILES IDX 83 57 48 58 49 59 63 61 84 62 51 63 35 64 36 65 44 66 37 67
REMARK SMILES IDX 38 68 42 69 45 70 39 71 40 72 43 73 41 74 67 75 68 76 76 77
REMARK SMILES IDX 69 78 70 79 74 80 77 81 71 82 72 83 75 84 73 85 52 86 53 87
REMARK SMILES IDX 61 88 54 89 55 90 59 91 62 92 56 93 57 94 60 95 58 96
REMARK H PARENT 3 13 3 14 82 49 50 60
REMARK Flexibility Score: inf
ROOT
ATOM      1  C   UNL A   1      33.158  29.324  26.540  1.00  0.00     0.202 C 
ENDROOT
BRANCH   1   2
ATOM      2  C   UNL A   1      33.204  29.372  25.012  1.00  0.00     0.261 C 
BRANCH   2   3
ATOM      3  O   UNL A   1      32.273  28.448  24.415  1.00  0.00    -0.458 OA
BRANCH   3   4
ATOM      4  C   UNL A   1      32.806  27.240  24.058  1.00  0.00     0.377 C 
ATOM      5  O   UNL A   1      33.833  27.124  23.402  1.00  0.00    -0.244 OA
BRANCH   4   6
ATOM      6  C   UNL A   1      31.922  26.056  24.473  1.00  0.00     0.287 C 
ATOM      7  C   UNL A   1      31.731  25.220  23.194  1.00  0.00     0.103 C 
BRANCH   6   8
ATOM      8  C   UNL A   1      32.799  25.292  25.499  1.00  0.00     0.455 C 
ATOM      9  F   UNL A   1      33.878  24.721  24.911  1.00  0.00    -0.164 F 
ATOM     10  F   UNL A   1      33.278  26.139  26.448  1.00  0.00    -0.164 F 
ATOM     11  F   UNL A   1      32.128  24.331  26.169  1.00  0.00    -0.164 F 
ENDBRANCH   6   8
BRANCH   6  12
ATOM     12  N   UNL A   1      30.583  26.524  25.047  1.00  0.00    -0.317 N 
ATOM     13  H   UNL A   1      30.620  27.533  25.186  1.00  0.00     0.347 HD
ATOM     14  H   UNL A   1      30.434  26.030  25.927  1.00  0.00     0.347 HD
BRANCH  12  15
ATOM     15  C   UNL A   1      29.448  26.208  24.158  1.00  0.00     0.363 C 
BRANCH  15  16
ATOM     16  C   UNL A   1      28.691  27.356  23.575  1.00  0.00     0.282 A 
ATOM     17  N   UNL A   1      29.192  28.497  23.157  1.00  0.00    -0.186 NA
ATOM     18  O   UNL A   1      27.328  27.354  23.637  1.00  0.00    -0.333 OA
ATOM     19  C   UNL A   1      28.071  29.269  22.997  1.00  0.00     0.203 A 
ATOM     20  N   UNL A   1      26.915  28.640  23.252  1.00  0.00    -0.057 NA
BRANCH  19  21
ATOM     21  C   UNL A   1      28.216  30.700  22.715  1.00  0.00     0.033 A 
ATOM     22  C   UNL A   1      27.900  31.272  21.443  1.00  0.00     0.024 A 
ATOM     23  C   UNL A   1      28.711  31.643  23.590  1.00  0.00     0.077 A 
ATOM     24  C   UNL A   1      28.176  32.622  21.395  1.00  0.00     0.065 A 
ATOM     25  S   UNL A   1      28.813  33.197  22.876  1.00  0.00    -0.152 S 
ENDBRANCH  19  21
ENDBRANCH  15  16
ENDBRANCH  12  15
ENDBRANCH   6  12
ENDBRANCH   4   6
ENDBRANCH   3   4
ENDBRANCH   2   3
ENDBRANCH   1   2
BRANCH   1  26
ATOM     26  O   UNL A   1      32.138  30.094  27.171  1.00  0.00    -0.374 OA
BRANCH  26  27
ATOM     27  C   UNL A   1      31.569  31.176  26.433  1.00  0.00     0.202 C 
BRANCH  27  28
ATOM     28  C   UNL A   1      31.659  32.570  27.065  1.00  0.00     0.261 C 
BRANCH  28  29
ATOM     29  O   UNL A   1      32.965  33.157  26.920  1.00  0.00    -0.460 OA
BRANCH  29  30
ATOM     30  C   UNL A   1      33.483  33.665  28.063  1.00  0.00     0.338 C 
ATOM     31  O   UNL A   1      32.953  34.459  28.830  1.00  0.00    -0.246 OA
BRANCH  30  32
ATOM     32  C   UNL A   1      34.752  32.994  28.399  1.00  0.00     0.060 A 
ATOM     33  C   UNL A   1      34.672  31.682  28.879  1.00  0.00     0.016 A 
ATOM     34  C   UNL A   1      35.983  33.652  28.332  1.00  0.00     0.016 A 
ATOM     35  C   UNL A   1      35.814  31.040  29.349  1.00  0.00     0.010 A 
ATOM     36  C   UNL A   1      37.131  33.007  28.813  1.00  0.00     0.010 A 
ATOM     37  C   UNL A   1      37.044  31.713  29.358  1.00  0.00    -0.014 A 
BRANCH  37  38
ATOM     38  C   UNL A   1      38.193  31.092  30.063  1.00  0.00     0.031 A 
ATOM     39  C   UNL A   1      38.445  31.440  31.505  1.00  0.00     0.074 A 
ATOM     40  C   UNL A   1      38.955  30.170  29.449  1.00  0.00     0.049 A 
ATOM     41  N   UNL A   1      39.353  30.973  32.325  1.00  0.00    -0.248 NA
ATOM     42  C   UNL A   1      37.551  32.442  32.105  1.00  0.00     0.031 C 
ATOM     43  C   UNL A   1      38.792  29.727  28.066  1.00  0.00     0.029 A 
ATOM     44  N   UNL A   1      40.017  29.436  29.916  1.00  0.00    -0.354 N 
ATOM     45  C   UNL A   1      39.131  31.614  33.538  1.00  0.00     0.074 A 
ATOM     46  C   UNL A   1      38.029  32.530  33.338  1.00  0.00     0.031 C 
ATOM     47  C   UNL A   1      39.725  28.798  27.793  1.00  0.00     0.029 A 
ATOM     48  C   UNL A   1      40.560  28.596  28.976  1.00  0.00     0.049 A 
ATOM     49  H   UNL A   1      40.357  29.506  30.837  1.00  0.00     0.167 HD
ATOM     50  C   UNL A   1      39.777  31.440  34.716  1.00  0.00     0.037 A 
ATOM     51  C   UNL A   1      41.616  27.764  29.060  1.00  0.00     0.037 A 
ATOM     52  C   UNL A   1      40.878  30.534  34.916  1.00  0.00     0.049 A 
ATOM     53  C   UNL A   1      42.353  27.634  30.368  1.00  0.00     0.074 A 
ATOM     54  C   UNL A   1      41.598  30.292  36.074  1.00  0.00     0.029 A 
ATOM     55  N   UNL A   1      41.421  29.725  33.931  1.00  0.00    -0.354 N 
ATOM     56  N   UNL A   1      42.118  28.225  31.515  1.00  0.00    -0.248 NA
ATOM     57  C   UNL A   1      43.498  26.712  30.395  1.00  0.00     0.031 C 
ATOM     58  C   UNL A   1      42.601  29.363  35.779  1.00  0.00     0.029 A 
ATOM     59  C   UNL A   1      42.478  28.993  34.450  1.00  0.00     0.049 A 
ATOM     60  H   UNL A   1      41.102  29.675  33.001  1.00  0.00     0.167 HD
ATOM     61  C   UNL A   1      43.068  27.733  32.400  1.00  0.00     0.074 A 
ATOM     62  C   UNL A   1      43.869  26.776  31.665  1.00  0.00     0.031 C 
ATOM     63  C   UNL A   1      43.265  28.047  33.703  1.00  0.00     0.037 A 
BRANCH  50  64
ATOM     64  C   UNL A   1      39.314  32.255  35.886  1.00  0.00     0.064 A 
ATOM     65  C   UNL A   1      38.381  31.750  36.805  1.00  0.00     0.173 A 
ATOM     66  C   UNL A   1      39.848  33.530  36.124  1.00  0.00     0.173 A 
ATOM     67  F   UNL A   1      37.832  30.541  36.612  1.00  0.00    -0.203 F 
ATOM     68  C   UNL A   1      37.989  32.498  37.911  1.00  0.00     0.198 A 
ATOM     69  C   UNL A   1      39.472  34.265  37.245  1.00  0.00     0.198 A 
ATOM     70  F   UNL A   1      40.745  34.056  35.278  1.00  0.00    -0.203 F 
ATOM     71  F   UNL A   1      37.073  32.009  38.759  1.00  0.00    -0.200 F 
ATOM     72  C   UNL A   1      38.540  33.751  38.135  1.00  0.00     0.200 A 
ATOM     73  F   UNL A   1      40.013  35.472  37.465  1.00  0.00    -0.200 F 
ATOM     74  F   UNL A   1      38.171  34.465  39.207  1.00  0.00    -0.200 F 
ENDBRANCH  50  64
BRANCH  51  75
ATOM     75  C   UNL A   1      42.054  26.991  27.869  1.00  0.00     0.064 A 
ATOM     76  C   UNL A   1      42.948  27.536  26.937  1.00  0.00     0.173 A 
ATOM     77  C   UNL A   1      41.556  25.704  27.621  1.00  0.00     0.173 A 
ATOM     78  F   UNL A   1      43.432  28.774  27.118  1.00  0.00    -0.203 F 
ATOM     79  C   UNL A   1      43.308  26.831  25.789  1.00  0.00     0.198 A 
ATOM     80  C   UNL A   1      41.938  24.990  26.488  1.00  0.00     0.198 A 
ATOM     81  F   UNL A   1      40.697  25.139  28.481  1.00  0.00    -0.203 F 
ATOM     82  F   UNL A   1      44.121  27.397  24.887  1.00  0.00    -0.200 F 
ATOM     83  C   UNL A   1      42.806  25.558  25.567  1.00  0.00     0.200 A 
ATOM     84  F   UNL A   1      41.460  23.755  26.284  1.00  0.00    -0.200 F 
ATOM     85  F   UNL A   1      43.150  24.883  24.462  1.00  0.00    -0.200 F 
ENDBRANCH  51  75
BRANCH  63  86
ATOM     86  C   UNL A   1      44.376  27.334  34.419  1.00  0.00     0.064 A 
ATOM     87  C   UNL A   1      44.170  26.096  35.044  1.00  0.00     0.173 A 
ATOM     88  C   UNL A   1      45.665  27.889  34.466  1.00  0.00     0.173 A 
ATOM     89  F   UNL A   1      42.952  25.532  35.040  1.00  0.00    -0.203 F 
ATOM     90  C   UNL A   1      45.206  25.453  35.717  1.00  0.00     0.198 A 
ATOM     91  C   UNL A   1      46.704  27.229  35.116  1.00  0.00     0.198 A 
ATOM     92  F   UNL A   1      45.916  29.068  33.878  1.00  0.00    -0.203 F 
ATOM     93  F   UNL A   1      44.972  24.297  36.354  1.00  0.00    -0.200 F 
ATOM     94  C   UNL A   1      46.473  26.018  35.749  1.00  0.00     0.200 A 
ATOM     95  F   UNL A   1      47.930  27.771  35.136  1.00  0.00    -0.200 F 
ATOM     96  F   UNL A   1      47.466  25.398  36.399  1.00  0.00    -0.200 F 
ENDBRANCH  63  86
ENDBRANCH  37  38
ENDBRANCH  30  32
ENDBRANCH  29  30
ENDBRANCH  28  29
ENDBRANCH  27  28
ENDBRANCH  26  27
ENDBRANCH   1  26
TORSDOF 19
ENDMDL
MODEL 3
REMARK VINA RESULT:     -11.2      2.364      3.817
REMARK SMILES C[C@]([NH2+]Cc1nc(-c2ccsc2)no1)(C(=O)OCCOCCOC(=O)c1ccc(-c2c3nc(c(-c4c(F)c(F)c(F)c(F)c4F)c4ccc([nH]4)c(-c4c(F)c(F)c(F)c(F)c4F)c4nc(c(-c5c(F)c(F)c(F)c(F)c5F)c5ccc2[nH]5)C=C4)C=C3)cc1)C(F)(F)F
REMARK SMILES IDX 19 1 18 2 17 3 15 4 16 5 2 6 1 7 89 8 90 9 91 10 92 11 3 12
REMARK SMILES IDX 4 15 5 16 6 17 14 18 7 19 13 20 8 21 9 22 12 23 10 24 11 25
REMARK SMILES IDX 20 26 21 27 22 28 23 29 24 30 25 31 26 32 27 33 88 34 28 35
REMARK SMILES IDX 87 36 29 37 30 38 31 39 81 40 32 41 86 42 80 43 82 44 33 45
REMARK SMILES IDX 85 46 79 47 78 48 34 50 66 51 46 52 65 53 47 54 50 55 64 56
REMARK SMILES IDX 83 57 48 58 49 59 63 61 84 62 51 63 35 64 36 65 44 66 37 67
REMARK SMILES IDX 38 68 42 69 45 70 39 71 40 72 43 73 41 74 67 75 68 76 76 77
REMARK SMILES IDX 69 78 70 79 74 80 77 81 71 82 72 83 75 84 73 85 52 86 53 87
REMARK SMILES IDX 61 88 54 89 55 90 59 91 62 92 56 93 57 94 60 95 58 96
REMARK H PARENT 3 13 3 14 82 49 50 60
REMARK Flexibility Score: inf
ROOT
ATOM      1  C   UNL A   1      32.797  29.037  26.721  1.00  0.00     0.202 C 
ENDROOT
BRANCH   1   2
ATOM      2  C   UNL A   1      32.946  28.986  25.199  1.00  0.00     0.261 C 
BRANCH   2   3
ATOM      3  O   UNL A   1      33.759  27.877  24.773  1.00  0.00    -0.458 OA
BRANCH   3   4
ATOM      4  C   UNL A   1      33.302  27.217  23.665  1.00  0.00     0.377 C 
ATOM      5  O   UNL A   1      33.421  27.650  22.525  1.00  0.00    -0.244 OA
BRANCH   4   6
ATOM      6  C   UNL A   1      32.531  25.936  24.013  1.00  0.00     0.287 C 
ATOM      7  C   UNL A   1      32.194  25.281  22.662  1.00  0.00     0.103 C 
BRANCH   6   8
ATOM      8  C   UNL A   1      33.574  25.086  24.787  1.00  0.00     0.455 C 
ATOM      9  F   UNL A   1      33.620  25.419  26.099  1.00  0.00    -0.164 F 
ATOM     10  F   UNL A   1      33.254  23.766  24.732  1.00  0.00    -0.164 F 
ATOM     11  F   UNL A   1      34.824  25.182  24.285  1.00  0.00    -0.164 F 
ENDBRANCH   6   8
BRANCH   6  12
ATOM     12  N   UNL A   1      31.270  26.238  24.826  1.00  0.00    -0.317 N 
ATOM     13  H   UNL A   1      31.218  27.244  24.988  1.00  0.00     0.347 HD
ATOM     14  H   UNL A   1      31.336  25.721  25.703  1.00  0.00     0.347 HD
BRANCH  12  15
ATOM     15  C   UNL A   1      30.040  25.803  24.138  1.00  0.00     0.363 C 
BRANCH  15  16
ATOM     16  C   UNL A   1      29.143  26.866  23.595  1.00  0.00     0.282 A 
ATOM     17  N   UNL A   1      29.513  27.984  23.011  1.00  0.00    -0.186 NA
ATOM     18  O   UNL A   1      27.808  26.818  23.875  1.00  0.00    -0.333 OA
ATOM     19  C   UNL A   1      28.343  28.696  22.972  1.00  0.00     0.203 A 
ATOM     20  N   UNL A   1      27.275  28.049  23.459  1.00  0.00    -0.057 NA
BRANCH  19  21
ATOM     21  C   UNL A   1      28.367  30.101  22.556  1.00  0.00     0.033 A 
ATOM     22  C   UNL A   1      28.562  31.177  23.479  1.00  0.00     0.024 A 
ATOM     23  C   UNL A   1      28.158  30.561  21.274  1.00  0.00     0.077 A 
ATOM     24  C   UNL A   1      28.481  32.409  22.867  1.00  0.00     0.065 A 
ATOM     25  S   UNL A   1      28.174  32.272  21.189  1.00  0.00    -0.152 S 
ENDBRANCH  19  21
ENDBRANCH  15  16
ENDBRANCH  12  15
ENDBRANCH   6  12
ENDBRANCH   4   6
ENDBRANCH   3   4
ENDBRANCH   2   3
ENDBRANCH   1   2
BRANCH   1  26
ATOM     26  O   UNL A   1      32.050  30.128  27.252  1.00  0.00    -0.374 OA
BRANCH  26  27
ATOM     27  C   UNL A   1      31.658  31.166  26.353  1.00  0.00     0.202 C 
BRANCH  27  28
ATOM     28  C   UNL A   1      31.623  32.593  26.913  1.00  0.00     0.261 C 
BRANCH  28  29
ATOM     29  O   UNL A   1      32.902  33.248  26.829  1.00  0.00    -0.460 OA
BRANCH  29  30
ATOM     30  C   UNL A   1      33.383  33.694  28.014  1.00  0.00     0.338 C 
ATOM     31  O   UNL A   1      32.822  34.432  28.813  1.00  0.00    -0.246 OA
BRANCH  30  32
ATOM     32  C   UNL A   1      34.654  33.023  28.341  1.00  0.00     0.060 A 
ATOM     33  C   UNL A   1      34.578  31.708  28.814  1.00  0.00     0.016 A 
ATOM     34  C   UNL A   1      35.884  33.683  28.274  1.00  0.00     0.016 A 
ATOM     35  C   UNL A   1      35.722  31.065  29.277  1.00  0.00     0.010 A 
ATOM     36  C   UNL A   1      37.035  33.036  28.747  1.00  0.00     0.010 A 
ATOM     37  C   UNL A   1      36.952  31.739  29.285  1.00  0.00    -0.014 A 
BRANCH  37  38
ATOM     38  C   UNL A   1      38.103  31.117  29.983  1.00  0.00     0.031 A 
ATOM     39  C   UNL A   1      38.363  31.460  31.424  1.00  0.00     0.074 A 
ATOM     40  C   UNL A   1      38.862  30.195  29.362  1.00  0.00     0.049 A 
ATOM     41  N   UNL A   1      39.275  30.991  32.239  1.00  0.00    -0.248 NA
ATOM     42  C   UNL A   1      37.473  32.461  32.031  1.00  0.00     0.031 C 
ATOM     43  C   UNL A   1      38.692  29.757  27.979  1.00  0.00     0.029 A 
ATOM     44  N   UNL A   1      39.926  29.460  29.822  1.00  0.00    -0.354 N 
ATOM     45  C   UNL A   1      39.060  31.628  33.454  1.00  0.00     0.074 A 
ATOM     46  C   UNL A   1      37.957  32.546  33.262  1.00  0.00     0.031 C 
ATOM     47  C   UNL A   1      39.624  28.828  27.699  1.00  0.00     0.029 A 
ATOM     48  C   UNL A   1      40.464  28.622  28.877  1.00  0.00     0.049 A 
ATOM     49  H   UNL A   1      40.271  29.527  30.741  1.00  0.00     0.167 HD
ATOM     50  C   UNL A   1      39.712  31.451  34.629  1.00  0.00     0.037 A 
ATOM     51  C   UNL A   1      41.520  27.789  28.954  1.00  0.00     0.037 A 
ATOM     52  C   UNL A   1      40.813  30.545  34.821  1.00  0.00     0.049 A 
ATOM     53  C   UNL A   1      42.264  27.656  30.257  1.00  0.00     0.074 A 
ATOM     54  C   UNL A   1      41.539  30.299  35.974  1.00  0.00     0.029 A 
ATOM     55  N   UNL A   1      41.351  29.737  33.831  1.00  0.00    -0.354 N 
ATOM     56  N   UNL A   1      42.035  28.244  31.407  1.00  0.00    -0.248 NA
ATOM     57  C   UNL A   1      43.409  26.734  30.276  1.00  0.00     0.031 C 
ATOM     58  C   UNL A   1      42.540  29.370  35.672  1.00  0.00     0.029 A 
ATOM     59  C   UNL A   1      42.410  29.004  34.343  1.00  0.00     0.049 A 
ATOM     60  H   UNL A   1      41.027  29.690  32.902  1.00  0.00     0.167 HD
ATOM     61  C   UNL A   1      42.989  27.749  32.286  1.00  0.00     0.074 A 
ATOM     62  C   UNL A   1      43.786  26.794  31.544  1.00  0.00     0.031 C 
ATOM     63  C   UNL A   1      43.193  28.059  33.589  1.00  0.00     0.037 A 
BRANCH  50  64
ATOM     64  C   UNL A   1      39.254  32.263  35.803  1.00  0.00     0.064 A 
ATOM     65  C   UNL A   1      38.339  31.749  36.735  1.00  0.00     0.173 A 
ATOM     66  C   UNL A   1      39.777  33.545  36.032  1.00  0.00     0.173 A 
ATOM     67  F   UNL A   1      37.802  30.533  36.552  1.00  0.00    -0.203 F 
ATOM     68  C   UNL A   1      37.953  32.495  37.845  1.00  0.00     0.198 A 
ATOM     69  C   UNL A   1      39.407  34.278  37.156  1.00  0.00     0.198 A 
ATOM     70  F   UNL A   1      40.657  34.079  35.173  1.00  0.00    -0.203 F 
ATOM     71  F   UNL A   1      37.054  31.998  38.706  1.00  0.00    -0.200 F 
ATOM     72  C   UNL A   1      38.494  33.755  38.059  1.00  0.00     0.200 A 
ATOM     73  F   UNL A   1      39.937  35.491  37.367  1.00  0.00    -0.200 F 
ATOM     74  F   UNL A   1      38.130  34.467  39.135  1.00  0.00    -0.200 F 
ENDBRANCH  50  64
BRANCH  51  75
ATOM     75  C   UNL A   1      41.952  27.020  27.758  1.00  0.00     0.064 A 
ATOM     76  C   UNL A   1      41.445  25.740  27.494  1.00  0.00     0.173 A 
ATOM     77  C   UNL A   1      42.910  27.539  26.874  1.00  0.00     0.173 A 
ATOM     78  F   UNL A   1      40.546  25.192  28.325  1.00  0.00    -0.203 F 
ATOM     79  C   UNL A   1      41.900  24.998  26.405  1.00  0.00     0.198 A 
ATOM     80  C   UNL A   1      43.342  26.807  25.771  1.00  0.00     0.198 A 
ATOM     81  F   UNL A   1      43.427  28.758  27.083  1.00  0.00    -0.203 F 
ATOM     82  F   UNL A   1      41.439  23.756  26.206  1.00  0.00    -0.200 F 
ATOM     83  C   UNL A   1      42.844  25.533  25.542  1.00  0.00     0.200 A 
ATOM     84  F   UNL A   1      44.246  27.333  24.934  1.00  0.00    -0.200 F 
ATOM     85  F   UNL A   1      43.283  24.817  24.498  1.00  0.00    -0.200 F 
ENDBRANCH  51  75
BRANCH  63  86
ATOM     86  C   UNL A   1      44.307  27.344  34.298  1.00  0.00     0.064 A 
ATOM     87  C   UNL A   1      45.600  27.884  34.363  1.00  0.00     0.173 A 
ATOM     88  C   UNL A   1      44.075  26.114  34.933  1.00  0.00     0.173 A 
ATOM     89  F   UNL A   1      45.875  29.050  33.759  1.00  0.00    -0.203 F 
ATOM     90  C   UNL A   1      46.627  27.203  35.011  1.00  0.00     0.198 A 
ATOM     91  C   UNL A   1      45.098  25.451  35.604  1.00  0.00     0.198 A 
ATOM     92  F   UNL A   1      42.854  25.559  34.906  1.00  0.00    -0.203 F 
ATOM     93  F   UNL A   1      47.867  27.712  35.013  1.00  0.00    -0.200 F 
ATOM     94  C   UNL A   1      46.375  25.990  35.634  1.00  0.00     0.200 A 
ATOM     95  F   UNL A   1      44.850  24.284  36.215  1.00  0.00    -0.200 F 
ATOM     96  F   UNL A   1      47.366  25.337  36.255  1.00  0.00    -0.200 F 
ENDBRANCH  63  86
ENDBRANCH  37  38
ENDBRANCH  30  32
ENDBRANCH  29  30
ENDBRANCH  28  29
ENDBRANCH  27  28
ENDBRANCH  26  27
ENDBRANCH   1  26
TORSDOF 19
ENDMDL
