MODEL 1
REMARK VINA RESULT:     -13.0      0.000      0.000
REMARK SMILES O=C(OCCOCCOC(=O)c1ccc(-c2c3nc(c(-c4c(F)c(F)c(F)c(F)c4F)c4ccc([nH]4)c(-c4c(F)c(F)c(F)c(F)c4F)c4nc(c(-c5c(F)c(F)c(F)c(F)c5F)c5ccc2[nH]5)C=C4)C=C3)cc1)c1ccc(NC(=O)[C@@H]2CC=CC[C@H]2C(=O)Nc2cccc([N+](=O)[O-])c2)cc1
REMARK SMILES IDX 4 1 3 2 2 3 1 4 75 5 76 6 101 7 77 8 100 9 78 10 79 11 80 12
REMARK SMILES IDX 81 14 82 15 83 16 87 17 84 18 86 19 85 20 88 21 89 22 90 23
REMARK SMILES IDX 91 25 92 26 99 27 93 28 95 29 94 30 96 31 97 32 98 33 5 34
REMARK SMILES IDX 6 35 7 36 8 37 9 38 10 39 11 40 12 41 13 42 74 43 14 44
REMARK SMILES IDX 73 45 15 46 16 47 17 48 67 49 18 50 72 51 66 52 68 53 19 54
REMARK SMILES IDX 71 55 65 56 64 57 20 59 52 60 32 61 51 62 33 63 36 64 50 65
REMARK SMILES IDX 69 66 34 67 35 68 49 70 70 71 37 72 21 73 22 74 30 75 23 76
REMARK SMILES IDX 24 77 28 78 31 79 25 80 26 81 29 82 27 83 53 84 54 85 62 86
REMARK SMILES IDX 55 87 56 88 60 89 63 90 57 91 58 92 61 93 59 94 38 95 39 96
REMARK SMILES IDX 47 97 40 98 41 99 45 100 48 101 42 102 43 103 46 104 44 105
REMARK H PARENT 79 13 90 24 68 58 36 69
REMARK Flexibility Score: inf
ROOT
ATOM      1  C   UNL A   1      35.281  31.879  27.986  1.00  0.00     0.261 C 
ENDROOT
BRANCH   1   2
ATOM      2  O   UNL A   1      34.363  30.786  28.183  1.00  0.00    -0.460 OA
BRANCH   2   3
ATOM      3  C   UNL A   1      33.318  30.340  27.447  1.00  0.00     0.338 C 
ATOM      4  O   UNL A   1      32.520  31.184  27.036  1.00  0.00    -0.246 OA
BRANCH   3   5
ATOM      5  C   UNL A   1      33.038  28.902  27.101  1.00  0.00     0.060 A 
ATOM      6  C   UNL A   1      31.920  28.141  27.454  1.00  0.00     0.018 A 
ATOM      7  C   UNL A   1      34.036  28.247  26.359  1.00  0.00     0.018 A 
ATOM      8  C   UNL A   1      31.674  26.881  26.841  1.00  0.00     0.027 A 
ATOM      9  C   UNL A   1      33.823  26.977  25.806  1.00  0.00     0.027 A 
ATOM     10  C   UNL A   1      32.578  26.362  25.916  1.00  0.00     0.041 A 
BRANCH  10  11
ATOM     11  N   UNL A   1      32.368  25.255  25.082  1.00  0.00    -0.326 N 
ATOM     12  C   UNL A   1      32.974  24.053  24.860  1.00  0.00     0.228 C 
ATOM     13  H   UNL A   1      31.578  25.378  24.506  1.00  0.00     0.169 HD
ATOM     14  O   UNL A   1      32.390  23.357  24.015  1.00  0.00    -0.274 OA
BRANCH  12  15
ATOM     15  C   UNL A   1      34.283  23.527  25.492  1.00  0.00     0.095 C 
ATOM     16  C   UNL A   1      35.492  24.163  24.741  1.00  0.00     0.041 C 
ATOM     17  C   UNL A   1      34.485  22.016  25.608  1.00  0.00     0.095 C 
ATOM     18  C   UNL A   1      36.845  23.563  24.986  1.00  0.00    -0.030 C 
ATOM     19  C   UNL A   1      35.904  21.433  25.802  1.00  0.00     0.041 C 
ATOM     20  C   UNL A   1      37.030  22.328  25.451  1.00  0.00    -0.030 C 
BRANCH  17  21
ATOM     21  C   UNL A   1      33.675  21.310  26.652  1.00  0.00     0.228 C 
ATOM     22  O   UNL A   1      33.516  21.935  27.710  1.00  0.00    -0.274 OA
ATOM     23  N   UNL A   1      32.989  20.134  26.493  1.00  0.00    -0.326 N 
ATOM     24  H   UNL A   1      32.382  19.975  27.252  1.00  0.00     0.169 HD
BRANCH  23  25
ATOM     25  C   UNL A   1      32.904  19.084  25.549  1.00  0.00     0.048 A 
ATOM     26  C   UNL A   1      32.786  19.444  24.201  1.00  0.00     0.026 A 
ATOM     27  C   UNL A   1      32.888  17.723  25.819  1.00  0.00     0.111 A 
ATOM     28  C   UNL A   1      32.823  18.485  23.174  1.00  0.00     0.009 A 
ATOM     29  C   UNL A   1      32.997  16.756  24.809  1.00  0.00     0.271 A 
ATOM     30  C   UNL A   1      32.981  17.135  23.472  1.00  0.00     0.086 A 
BRANCH  29  31
ATOM     31  N   UNL A   1      33.140  15.341  25.184  1.00  0.00     0.062 N 
ATOM     32  O   UNL A   1      34.284  14.870  25.222  1.00  0.00    -0.258 OA
ATOM     33  O   UNL A   1      32.107  14.707  25.449  1.00  0.00    -0.258 OA
ENDBRANCH  29  31
ENDBRANCH  23  25
ENDBRANCH  17  21
ENDBRANCH  12  15
ENDBRANCH  10  11
ENDBRANCH   3   5
ENDBRANCH   2   3
ENDBRANCH   1   2
BRANCH   1  34
ATOM     34  C   UNL A   1      35.062  33.022  28.972  1.00  0.00     0.202 C 
BRANCH  34  35
ATOM     35  O   UNL A   1      34.596  34.167  28.276  1.00  0.00    -0.374 OA
BRANCH  35  36
ATOM     36  C   UNL A   1      33.215  34.490  28.508  1.00  0.00     0.202 C 
BRANCH  36  37
ATOM     37  C   UNL A   1      33.077  35.605  29.548  1.00  0.00     0.261 C 
BRANCH  37  38
ATOM     38  O   UNL A   1      32.502  35.066  30.749  1.00  0.00    -0.460 OA
BRANCH  38  39
ATOM     39  C   UNL A   1      32.900  35.679  31.892  1.00  0.00     0.338 C 
ATOM     40  O   UNL A   1      32.343  36.577  32.488  1.00  0.00    -0.246 OA
BRANCH  39  41
ATOM     41  C   UNL A   1      34.065  34.948  32.437  1.00  0.00     0.060 A 
ATOM     42  C   UNL A   1      35.321  35.559  32.335  1.00  0.00     0.016 A 
ATOM     43  C   UNL A   1      33.934  33.706  33.064  1.00  0.00     0.016 A 
ATOM     44  C   UNL A   1      36.454  34.926  32.838  1.00  0.00     0.010 A 
ATOM     45  C   UNL A   1      35.066  33.067  33.565  1.00  0.00     0.010 A 
ATOM     46  C   UNL A   1      36.331  33.660  33.424  1.00  0.00    -0.014 A 
BRANCH  46  47
ATOM     47  C   UNL A   1      37.541  32.858  33.704  1.00  0.00     0.031 A 
ATOM     48  C   UNL A   1      38.276  33.117  34.988  1.00  0.00     0.074 A 
ATOM     49  C   UNL A   1      37.976  31.933  32.834  1.00  0.00     0.049 A 
ATOM     50  N   UNL A   1      39.393  32.602  35.428  1.00  0.00    -0.248 NA
ATOM     51  C   UNL A   1      37.670  34.109  35.891  1.00  0.00     0.031 C 
ATOM     52  C   UNL A   1      37.322  31.582  31.576  1.00  0.00     0.029 A 
ATOM     53  N   UNL A   1      39.085  31.128  32.877  1.00  0.00    -0.354 N 
ATOM     54  C   UNL A   1      39.631  33.218  36.650  1.00  0.00     0.074 A 
ATOM     55  C   UNL A   1      38.566  34.172  36.862  1.00  0.00     0.031 C 
ATOM     56  C   UNL A   1      38.048  30.633  30.960  1.00  0.00     0.029 A 
ATOM     57  C   UNL A   1      39.231  30.337  31.765  1.00  0.00     0.049 A 
ATOM     58  H   UNL A   1      39.715  31.117  33.633  1.00  0.00     0.167 HD
ATOM     59  C   UNL A   1      40.644  32.997  37.520  1.00  0.00     0.037 A 
ATOM     60  C   UNL A   1      40.223  29.489  31.435  1.00  0.00     0.037 A 
ATOM     61  C   UNL A   1      41.701  32.049  37.290  1.00  0.00     0.049 A 
ATOM     62  C   UNL A   1      41.376  29.306  32.390  1.00  0.00     0.074 A 
ATOM     63  C   UNL A   1      42.768  31.727  38.109  1.00  0.00     0.029 A 
ATOM     64  N   UNL A   1      41.829  31.278  36.142  1.00  0.00    -0.354 N 
ATOM     65  N   UNL A   1      41.583  29.863  33.559  1.00  0.00    -0.248 NA
ATOM     66  C   UNL A   1      42.431  28.370  31.979  1.00  0.00     0.031 C 
ATOM     67  C   UNL A   1      43.575  30.808  37.430  1.00  0.00     0.029 A 
ATOM     68  C   UNL A   1      42.973  30.500  36.220  1.00  0.00     0.049 A 
ATOM     69  H   UNL A   1      41.200  31.283  35.385  1.00  0.00     0.167 HD
ATOM     70  C   UNL A   1      42.766  29.319  34.042  1.00  0.00     0.074 A 
ATOM     71  C   UNL A   1      43.227  28.381  33.038  1.00  0.00     0.031 C 
ATOM     72  C   UNL A   1      43.410  29.565  35.211  1.00  0.00     0.037 A 
BRANCH  59  73
ATOM     73  C   UNL A   1      40.670  33.830  38.770  1.00  0.00     0.064 A 
ATOM     74  C   UNL A   1      41.416  35.017  38.857  1.00  0.00     0.173 A 
ATOM     75  C   UNL A   1      39.953  33.426  39.906  1.00  0.00     0.173 A 
ATOM     76  F   UNL A   1      42.137  35.441  37.807  1.00  0.00    -0.203 F 
ATOM     77  C   UNL A   1      41.479  35.740  40.046  1.00  0.00     0.198 A 
ATOM     78  C   UNL A   1      39.987  34.172  41.082  1.00  0.00     0.198 A 
ATOM     79  F   UNL A   1      39.223  32.301  39.881  1.00  0.00    -0.203 F 
ATOM     80  F   UNL A   1      42.257  36.828  40.126  1.00  0.00    -0.200 F 
ATOM     81  C   UNL A   1      40.760  35.321  41.154  1.00  0.00     0.200 A 
ATOM     82  F   UNL A   1      39.282  33.771  42.148  1.00  0.00    -0.200 F 
ATOM     83  F   UNL A   1      40.824  36.015  42.299  1.00  0.00    -0.200 F 
ENDBRANCH  59  73
BRANCH  60  84
ATOM     84  C   UNL A   1      40.160  28.736  30.155  1.00  0.00     0.064 A 
ATOM     85  C   UNL A   1      40.769  29.238  28.996  1.00  0.00     0.173 A 
ATOM     86  C   UNL A   1      39.501  27.502  30.063  1.00  0.00     0.173 A 
ATOM     87  F   UNL A   1      41.395  30.423  29.029  1.00  0.00    -0.203 F 
ATOM     88  C   UNL A   1      40.709  28.540  27.791  1.00  0.00     0.198 A 
ATOM     89  C   UNL A   1      39.465  26.792  28.865  1.00  0.00     0.198 A 
ATOM     90  F   UNL A   1      38.905  26.977  31.143  1.00  0.00    -0.203 F 
ATOM     91  F   UNL A   1      41.267  29.060  26.690  1.00  0.00    -0.200 F 
ATOM     92  C   UNL A   1      40.064  27.314  27.728  1.00  0.00     0.200 A 
ATOM     93  F   UNL A   1      38.856  25.599  28.812  1.00  0.00    -0.200 F 
ATOM     94  F   UNL A   1      40.017  26.638  26.572  1.00  0.00    -0.200 F 
ENDBRANCH  60  84
BRANCH  72  95
ATOM     95  C   UNL A   1      44.651  28.767  35.497  1.00  0.00     0.064 A 
ATOM     96  C   UNL A   1      45.927  29.217  35.128  1.00  0.00     0.173 A 
ATOM     97  C   UNL A   1      44.560  27.550  36.191  1.00  0.00     0.173 A 
ATOM     98  F   UNL A   1      46.068  30.368  34.453  1.00  0.00    -0.203 F 
ATOM     99  C   UNL A   1      47.062  28.461  35.412  1.00  0.00     0.198 A 
ATOM    100  C   UNL A   1      45.700  26.816  36.506  1.00  0.00     0.198 A 
ATOM    101  F   UNL A   1      43.365  27.078  36.576  1.00  0.00    -0.203 F 
ATOM    102  F   UNL A   1      48.266  28.882  34.998  1.00  0.00    -0.200 F 
ATOM    103  C   UNL A   1      46.948  27.266  36.107  1.00  0.00     0.200 A 
ATOM    104  F   UNL A   1      45.588  25.671  37.194  1.00  0.00    -0.200 F 
ATOM    105  F   UNL A   1      48.042  26.545  36.387  1.00  0.00    -0.200 F 
ENDBRANCH  72  95
ENDBRANCH  46  47
ENDBRANCH  39  41
ENDBRANCH  38  39
ENDBRANCH  37  38
ENDBRANCH  36  37
ENDBRANCH  35  36
ENDBRANCH  34  35
ENDBRANCH   1  34
TORSDOF 19
ENDMDL
MODEL 2
REMARK VINA RESULT:     -12.9      2.029      3.903
REMARK SMILES O=C(OCCOCCOC(=O)c1ccc(-c2c3nc(c(-c4c(F)c(F)c(F)c(F)c4F)c4ccc([nH]4)c(-c4c(F)c(F)c(F)c(F)c4F)c4nc(c(-c5c(F)c(F)c(F)c(F)c5F)c5ccc2[nH]5)C=C4)C=C3)cc1)c1ccc(NC(=O)[C@@H]2CC=CC[C@H]2C(=O)Nc2cccc([N+](=O)[O-])c2)cc1
REMARK SMILES IDX 4 1 3 2 2 3 1 4 75 5 76 6 101 7 77 8 100 9 78 10 79 11 80 12
REMARK SMILES IDX 81 14 82 15 83 16 87 17 84 18 86 19 85 20 88 21 89 22 90 23
REMARK SMILES IDX 91 25 92 26 99 27 93 28 95 29 94 30 96 31 97 32 98 33 5 34
REMARK SMILES IDX 6 35 7 36 8 37 9 38 10 39 11 40 12 41 13 42 74 43 14 44
REMARK SMILES IDX 73 45 15 46 16 47 17 48 67 49 18 50 72 51 66 52 68 53 19 54
REMARK SMILES IDX 71 55 65 56 64 57 20 59 52 60 32 61 51 62 33 63 36 64 50 65
REMARK SMILES IDX 69 66 34 67 35 68 49 70 70 71 37 72 21 73 22 74 30 75 23 76
REMARK SMILES IDX 24 77 28 78 31 79 25 80 26 81 29 82 27 83 53 84 54 85 62 86
REMARK SMILES IDX 55 87 56 88 60 89 63 90 57 91 58 92 61 93 59 94 38 95 39 96
REMARK SMILES IDX 47 97 40 98 41 99 45 100 48 101 42 102 43 103 46 104 44 105
REMARK H PARENT 79 13 90 24 68 58 36 69
REMARK Flexibility Score: inf
ROOT
ATOM      1  C   UNL A   1      33.265  31.531  27.641  1.00  0.00     0.261 C 
ENDROOT
BRANCH   1   2
ATOM      2  O   UNL A   1      33.732  30.534  26.712  1.00  0.00    -0.460 OA
BRANCH   2   3
ATOM      3  C   UNL A   1      34.187  29.272  26.895  1.00  0.00     0.338 C 
ATOM      4  O   UNL A   1      35.306  29.146  27.396  1.00  0.00    -0.246 OA
BRANCH   3   5
ATOM      5  C   UNL A   1      33.454  28.012  26.523  1.00  0.00     0.060 A 
ATOM      6  C   UNL A   1      34.004  26.789  26.125  1.00  0.00     0.018 A 
ATOM      7  C   UNL A   1      32.051  28.088  26.556  1.00  0.00     0.018 A 
ATOM      8  C   UNL A   1      33.200  25.618  26.055  1.00  0.00     0.027 A 
ATOM      9  C   UNL A   1      31.251  26.946  26.424  1.00  0.00     0.027 A 
ATOM     10  C   UNL A   1      31.837  25.684  26.331  1.00  0.00     0.041 A 
BRANCH  10  11
ATOM     11  N   UNL A   1      30.972  24.595  26.513  1.00  0.00    -0.326 N 
ATOM     12  C   UNL A   1      31.010  23.252  26.282  1.00  0.00     0.228 C 
ATOM     13  H   UNL A   1      30.114  24.874  26.910  1.00  0.00     0.169 HD
ATOM     14  O   UNL A   1      29.983  22.661  26.649  1.00  0.00    -0.274 OA
BRANCH  12  15
ATOM     15  C   UNL A   1      32.136  22.446  25.593  1.00  0.00     0.095 C 
ATOM     16  C   UNL A   1      33.154  21.981  26.677  1.00  0.00     0.041 C 
ATOM     17  C   UNL A   1      32.884  23.087  24.423  1.00  0.00     0.095 C 
ATOM     18  C   UNL A   1      34.473  21.450  26.197  1.00  0.00    -0.030 C 
ATOM     19  C   UNL A   1      34.269  22.547  23.997  1.00  0.00     0.041 C 
ATOM     20  C   UNL A   1      34.981  21.718  24.994  1.00  0.00    -0.030 C 
BRANCH  17  21
ATOM     21  C   UNL A   1      32.139  23.191  23.128  1.00  0.00     0.228 C 
ATOM     22  O   UNL A   1      31.741  22.115  22.658  1.00  0.00    -0.274 OA
ATOM     23  N   UNL A   1      31.739  24.346  22.509  1.00  0.00    -0.326 N 
ATOM     24  H   UNL A   1      31.104  24.155  21.781  1.00  0.00     0.169 HD
BRANCH  23  25
ATOM     25  C   UNL A   1      31.978  25.736  22.619  1.00  0.00     0.048 A 
ATOM     26  C   UNL A   1      33.306  26.166  22.522  1.00  0.00     0.026 A 
ATOM     27  C   UNL A   1      31.034  26.726  22.852  1.00  0.00     0.111 A 
ATOM     28  C   UNL A   1      33.641  27.532  22.489  1.00  0.00     0.009 A 
ATOM     29  C   UNL A   1      31.337  28.092  22.752  1.00  0.00     0.271 A 
ATOM     30  C   UNL A   1      32.648  28.505  22.553  1.00  0.00     0.086 A 
BRANCH  29  31
ATOM     31  N   UNL A   1      30.249  29.077  22.849  1.00  0.00     0.062 N 
ATOM     32  O   UNL A   1      30.202  29.782  23.865  1.00  0.00    -0.258 OA
ATOM     33  O   UNL A   1      29.450  29.150  21.903  1.00  0.00    -0.258 OA
ENDBRANCH  29  31
ENDBRANCH  23  25
ENDBRANCH  17  21
ENDBRANCH  12  15
ENDBRANCH  10  11
ENDBRANCH   3   5
ENDBRANCH   2   3
ENDBRANCH   1   2
BRANCH   1  34
ATOM     34  C   UNL A   1      34.356  32.514  28.055  1.00  0.00     0.202 C 
BRANCH  34  35
ATOM     35  O   UNL A   1      33.808  33.497  28.918  1.00  0.00    -0.374 OA
BRANCH  35  36
ATOM     36  C   UNL A   1      34.007  34.853  28.486  1.00  0.00     0.202 C 
BRANCH  36  37
ATOM     37  C   UNL A   1      33.082  35.813  29.240  1.00  0.00     0.261 C 
BRANCH  37  38
ATOM     38  O   UNL A   1      32.513  35.133  30.370  1.00  0.00    -0.460 OA
BRANCH  38  39
ATOM     39  C   UNL A   1      32.813  35.684  31.573  1.00  0.00     0.338 C 
ATOM     40  O   UNL A   1      32.189  36.526  32.184  1.00  0.00    -0.246 OA
BRANCH  39  41
ATOM     41  C   UNL A   1      33.965  34.954  32.151  1.00  0.00     0.060 A 
ATOM     42  C   UNL A   1      35.221  35.570  32.088  1.00  0.00     0.016 A 
ATOM     43  C   UNL A   1      33.818  33.710  32.768  1.00  0.00     0.016 A 
ATOM     44  C   UNL A   1      36.340  34.938  32.623  1.00  0.00     0.010 A 
ATOM     45  C   UNL A   1      34.937  33.072  33.301  1.00  0.00     0.010 A 
ATOM     46  C   UNL A   1      36.204  33.670  33.200  1.00  0.00    -0.014 A 
BRANCH  46  47
ATOM     47  C   UNL A   1      37.408  32.870  33.513  1.00  0.00     0.031 A 
ATOM     48  C   UNL A   1      38.114  33.140  34.810  1.00  0.00     0.074 A 
ATOM     49  C   UNL A   1      37.861  31.939  32.660  1.00  0.00     0.049 A 
ATOM     50  N   UNL A   1      39.221  32.629  35.279  1.00  0.00    -0.248 NA
ATOM     51  C   UNL A   1      37.489  34.139  35.692  1.00  0.00     0.031 C 
ATOM     52  C   UNL A   1      37.236  31.578  31.391  1.00  0.00     0.029 A 
ATOM     53  N   UNL A   1      38.969  31.134  32.734  1.00  0.00    -0.354 N 
ATOM     54  C   UNL A   1      39.432  33.255  36.501  1.00  0.00     0.074 A 
ATOM     55  C   UNL A   1      38.363  34.210  36.682  1.00  0.00     0.031 C 
ATOM     56  C   UNL A   1      37.975  30.623  30.798  1.00  0.00     0.029 A 
ATOM     57  C   UNL A   1      39.140  30.335  31.632  1.00  0.00     0.049 A 
ATOM     58  H   UNL A   1      39.582  31.130  33.504  1.00  0.00     0.167 HD
ATOM     59  C   UNL A   1      40.426  33.041  37.395  1.00  0.00     0.037 A 
ATOM     60  C   UNL A   1      40.139  29.484  31.331  1.00  0.00     0.037 A 
ATOM     61  C   UNL A   1      41.488  32.092  37.196  1.00  0.00     0.049 A 
ATOM     62  C   UNL A   1      41.271  29.309  32.313  1.00  0.00     0.074 A 
ATOM     63  C   UNL A   1      42.536  31.777  38.041  1.00  0.00     0.029 A 
ATOM     64  N   UNL A   1      41.641  31.311  36.058  1.00  0.00    -0.354 N 
ATOM     65  N   UNL A   1      41.452  29.876  33.481  1.00  0.00    -0.248 NA
ATOM     66  C   UNL A   1      42.334  28.370  31.933  1.00  0.00     0.031 C 
ATOM     67  C   UNL A   1      43.358  30.853  37.387  1.00  0.00     0.029 A 
ATOM     68  C   UNL A   1      42.784  30.535  36.166  1.00  0.00     0.049 A 
ATOM     69  H   UNL A   1      41.029  31.310  35.287  1.00  0.00     0.167 HD
ATOM     70  C   UNL A   1      42.624  29.336  33.995  1.00  0.00     0.074 A 
ATOM     71  C   UNL A   1      43.108  28.390  33.009  1.00  0.00     0.031 C 
ATOM     72  C   UNL A   1      43.242  29.592  35.175  1.00  0.00     0.037 A 
BRANCH  59  73
ATOM     73  C   UNL A   1      40.424  33.885  38.639  1.00  0.00     0.064 A 
ATOM     74  C   UNL A   1      39.736  33.495  39.799  1.00  0.00     0.173 A 
ATOM     75  C   UNL A   1      41.105  35.111  38.665  1.00  0.00     0.173 A 
ATOM     76  F   UNL A   1      39.051  32.342  39.824  1.00  0.00    -0.203 F 
ATOM     77  C   UNL A   1      39.693  34.322  40.920  1.00  0.00     0.198 A 
ATOM     78  C   UNL A   1      41.092  35.917  39.800  1.00  0.00     0.198 A 
ATOM     79  F   UNL A   1      41.779  35.533  37.585  1.00  0.00    -0.203 F 
ATOM     80  F   UNL A   1      38.967  33.962  41.988  1.00  0.00    -0.200 F 
ATOM     81  C   UNL A   1      40.375  35.528  40.921  1.00  0.00     0.200 A 
ATOM     82  F   UNL A   1      41.762  37.077  39.803  1.00  0.00    -0.200 F 
ATOM     83  F   UNL A   1      40.330  36.324  41.998  1.00  0.00    -0.200 F 
ENDBRANCH  59  73
BRANCH  60  84
ATOM     84  C   UNL A   1      40.105  28.721  30.056  1.00  0.00     0.064 A 
ATOM     85  C   UNL A   1      40.698  29.235  28.894  1.00  0.00     0.173 A 
ATOM     86  C   UNL A   1      39.487  27.465  29.971  1.00  0.00     0.173 A 
ATOM     87  F   UNL A   1      41.284  30.441  28.920  1.00  0.00    -0.203 F 
ATOM     88  C   UNL A   1      40.665  28.527  27.694  1.00  0.00     0.198 A 
ATOM     89  C   UNL A   1      39.479  26.745  28.778  1.00  0.00     0.198 A 
ATOM     90  F   UNL A   1      38.907  26.927  31.054  1.00  0.00    -0.203 F 
ATOM     91  F   UNL A   1      41.208  29.058  26.591  1.00  0.00    -0.200 F 
ATOM     92  C   UNL A   1      40.062  27.280  27.639  1.00  0.00     0.200 A 
ATOM     93  F   UNL A   1      38.910  25.532  28.732  1.00  0.00    -0.200 F 
ATOM     94  F   UNL A   1      40.040  26.594  26.487  1.00  0.00    -0.200 F 
ENDBRANCH  60  84
BRANCH  72  95
ATOM     95  C   UNL A   1      44.477  28.796  35.495  1.00  0.00     0.064 A 
ATOM     96  C   UNL A   1      45.761  29.247  35.157  1.00  0.00     0.173 A 
ATOM     97  C   UNL A   1      44.370  27.580  36.189  1.00  0.00     0.173 A 
ATOM     98  F   UNL A   1      45.918  30.396  34.483  1.00  0.00    -0.203 F 
ATOM     99  C   UNL A   1      46.890  28.494  35.472  1.00  0.00     0.198 A 
ATOM    100  C   UNL A   1      45.502  26.849  36.536  1.00  0.00     0.198 A 
ATOM    101  F   UNL A   1      43.167  27.108  36.545  1.00  0.00    -0.203 F 
ATOM    102  F   UNL A   1      48.103  28.916  35.088  1.00  0.00    -0.200 F 
ATOM    103  C   UNL A   1      46.760  27.301  36.167  1.00  0.00     0.200 A 
ATOM    104  F   UNL A   1      45.375  25.706  37.224  1.00  0.00    -0.200 F 
ATOM    105  F   UNL A   1      47.848  26.582  36.477  1.00  0.00    -0.200 F 
ENDBRANCH  72  95
ENDBRANCH  46  47
ENDBRANCH  39  41
ENDBRANCH  38  39
ENDBRANCH  37  38
ENDBRANCH  36  37
ENDBRANCH  35  36
ENDBRANCH  34  35
ENDBRANCH   1  34
TORSDOF 19
ENDMDL
MODEL 3
REMARK VINA RESULT:     -12.9      5.392      9.943
REMARK SMILES O=C(OCCOCCOC(=O)c1ccc(-c2c3nc(c(-c4c(F)c(F)c(F)c(F)c4F)c4ccc([nH]4)c(-c4c(F)c(F)c(F)c(F)c4F)c4nc(c(-c5c(F)c(F)c(F)c(F)c5F)c5ccc2[nH]5)C=C4)C=C3)cc1)c1ccc(NC(=O)[C@@H]2CC=CC[C@H]2C(=O)Nc2cccc([N+](=O)[O-])c2)cc1
REMARK SMILES IDX 4 1 3 2 2 3 1 4 75 5 76 6 101 7 77 8 100 9 78 10 79 11 80 12
REMARK SMILES IDX 81 14 82 15 83 16 87 17 84 18 86 19 85 20 88 21 89 22 90 23
REMARK SMILES IDX 91 25 92 26 99 27 93 28 95 29 94 30 96 31 97 32 98 33 5 34
REMARK SMILES IDX 6 35 7 36 8 37 9 38 10 39 11 40 12 41 13 42 74 43 14 44
REMARK SMILES IDX 73 45 15 46 16 47 17 48 67 49 18 50 72 51 66 52 68 53 19 54
REMARK SMILES IDX 71 55 65 56 64 57 20 59 52 60 32 61 51 62 33 63 36 64 50 65
REMARK SMILES IDX 69 66 34 67 35 68 49 70 70 71 37 72 21 73 22 74 30 75 23 76
REMARK SMILES IDX 24 77 28 78 31 79 25 80 26 81 29 82 27 83 53 84 54 85 62 86
REMARK SMILES IDX 55 87 56 88 60 89 63 90 57 91 58 92 61 93 59 94 38 95 39 96
REMARK SMILES IDX 47 97 40 98 41 99 45 100 48 101 42 102 43 103 46 104 44 105
REMARK H PARENT 79 13 90 24 68 58 36 69
REMARK Flexibility Score: inf
ROOT
ATOM      1  C   UNL A   1      33.567  31.635  27.702  1.00  0.00     0.261 C 
ENDROOT
BRANCH   1   2
ATOM      2  O   UNL A   1      34.134  30.630  26.839  1.00  0.00    -0.460 OA
BRANCH   2   3
ATOM      3  C   UNL A   1      34.457  29.333  27.052  1.00  0.00     0.338 C 
ATOM      4  O   UNL A   1      35.526  29.107  27.621  1.00  0.00    -0.246 OA
BRANCH   3   5
ATOM      5  C   UNL A   1      33.632  28.144  26.641  1.00  0.00     0.060 A 
ATOM      6  C   UNL A   1      34.086  26.932  26.110  1.00  0.00     0.018 A 
ATOM      7  C   UNL A   1      32.241  28.285  26.783  1.00  0.00     0.018 A 
ATOM      8  C   UNL A   1      33.216  25.810  26.011  1.00  0.00     0.027 A 
ATOM      9  C   UNL A   1      31.373  27.197  26.624  1.00  0.00     0.027 A 
ATOM     10  C   UNL A   1      31.881  25.921  26.392  1.00  0.00     0.041 A 
BRANCH  10  11
ATOM     11  N   UNL A   1      30.974  24.864  26.553  1.00  0.00    -0.326 N 
ATOM     12  C   UNL A   1      30.978  23.515  26.350  1.00  0.00     0.228 C 
ATOM     13  H   UNL A   1      30.108  25.178  26.903  1.00  0.00     0.169 HD
ATOM     14  O   UNL A   1      29.916  22.965  26.679  1.00  0.00    -0.274 OA
BRANCH  12  15
ATOM     15  C   UNL A   1      32.107  22.660  25.730  1.00  0.00     0.095 C 
ATOM     16  C   UNL A   1      33.092  22.236  26.861  1.00  0.00     0.041 C 
ATOM     17  C   UNL A   1      32.893  23.230  24.549  1.00  0.00     0.095 C 
ATOM     18  C   UNL A   1      34.414  21.663  26.442  1.00  0.00    -0.030 C 
ATOM     19  C   UNL A   1      34.280  22.650  24.184  1.00  0.00     0.041 C 
ATOM     20  C   UNL A   1      34.955  21.862  25.240  1.00  0.00    -0.030 C 
BRANCH  17  21
ATOM     21  C   UNL A   1      32.182  23.279  23.231  1.00  0.00     0.228 C 
ATOM     22  O   UNL A   1      31.803  22.183  22.794  1.00  0.00    -0.274 OA
ATOM     23  N   UNL A   1      31.791  24.407  22.559  1.00  0.00    -0.326 N 
ATOM     24  H   UNL A   1      31.176  24.183  21.822  1.00  0.00     0.169 HD
BRANCH  23  25
ATOM     25  C   UNL A   1      32.018  25.802  22.621  1.00  0.00     0.048 A 
ATOM     26  C   UNL A   1      33.337  26.242  22.461  1.00  0.00     0.026 A 
ATOM     27  C   UNL A   1      31.073  26.788  22.862  1.00  0.00     0.111 A 
ATOM     28  C   UNL A   1      33.656  27.609  22.378  1.00  0.00     0.009 A 
ATOM     29  C   UNL A   1      31.357  28.154  22.712  1.00  0.00     0.271 A 
ATOM     30  C   UNL A   1      32.655  28.574  22.453  1.00  0.00     0.086 A 
BRANCH  29  31
ATOM     31  N   UNL A   1      30.263  29.130  22.823  1.00  0.00     0.062 N 
ATOM     32  O   UNL A   1      30.103  29.692  23.914  1.00  0.00    -0.258 OA
ATOM     33  O   UNL A   1      29.572  29.340  21.814  1.00  0.00    -0.258 OA
ENDBRANCH  29  31
ENDBRANCH  23  25
ENDBRANCH  17  21
ENDBRANCH  12  15
ENDBRANCH  10  11
ENDBRANCH   3   5
ENDBRANCH   2   3
ENDBRANCH   1   2
BRANCH   1  34
ATOM     34  C   UNL A   1      34.625  32.488  28.393  1.00  0.00     0.202 C 
BRANCH  34  35
ATOM     35  O   UNL A   1      34.517  32.334  29.799  1.00  0.00    -0.374 OA
BRANCH  35  36
ATOM     36  C   UNL A   1      34.541  33.564  30.542  1.00  0.00     0.202 C 
BRANCH  36  37
ATOM     37  C   UNL A   1      34.987  33.326  31.988  1.00  0.00     0.261 C 
BRANCH  37  38
ATOM     38  O   UNL A   1      35.422  31.965  32.132  1.00  0.00    -0.460 OA
BRANCH  38  39
ATOM     39  C   UNL A   1      36.545  31.805  32.876  1.00  0.00     0.338 C 
ATOM     40  O   UNL A   1      36.670  31.941  34.076  1.00  0.00    -0.246 OA
BRANCH  39  41
ATOM     41  C   UNL A   1      37.605  31.238  32.012  1.00  0.00     0.060 A 
ATOM     42  C   UNL A   1      38.788  30.814  32.630  1.00  0.00     0.016 A 
ATOM     43  C   UNL A   1      37.439  31.094  30.632  1.00  0.00     0.016 A 
ATOM     44  C   UNL A   1      39.818  30.262  31.873  1.00  0.00     0.010 A 
ATOM     45  C   UNL A   1      38.469  30.547  29.871  1.00  0.00     0.010 A 
ATOM     46  C   UNL A   1      39.672  30.161  30.484  1.00  0.00    -0.014 A 
BRANCH  46  47
ATOM     47  C   UNL A   1      40.846  29.847  29.641  1.00  0.00     0.031 A 
ATOM     48  C   UNL A   1      40.942  28.469  29.054  1.00  0.00     0.074 A 
ATOM     49  C   UNL A   1      41.801  30.763  29.416  1.00  0.00     0.049 A 
ATOM     50  N   UNL A   1      41.899  27.929  28.347  1.00  0.00    -0.248 NA
ATOM     51  C   UNL A   1      39.806  27.572  29.318  1.00  0.00     0.031 C 
ATOM     52  C   UNL A   1      41.790  32.136  29.912  1.00  0.00     0.029 A 
ATOM     53  N   UNL A   1      42.976  30.664  28.716  1.00  0.00    -0.354 N 
ATOM     54  C   UNL A   1      41.486  26.627  28.096  1.00  0.00     0.074 A 
ATOM     55  C   UNL A   1      40.215  26.446  28.759  1.00  0.00     0.031 C 
ATOM     56  C   UNL A   1      42.913  32.754  29.505  1.00  0.00     0.029 A 
ATOM     57  C   UNL A   1      43.733  31.808  28.751  1.00  0.00     0.049 A 
ATOM     58  H   UNL A   1      43.250  29.850  28.234  1.00  0.00     0.167 HD
ATOM     59  C   UNL A   1      42.111  25.673  27.367  1.00  0.00     0.037 A 
ATOM     60  C   UNL A   1      44.957  32.047  28.245  1.00  0.00     0.037 A 
ATOM     61  C   UNL A   1      43.381  25.866  26.719  1.00  0.00     0.049 A 
ATOM     62  C   UNL A   1      45.664  30.948  27.492  1.00  0.00     0.074 A 
ATOM     63  C   UNL A   1      44.098  24.978  25.939  1.00  0.00     0.029 A 
ATOM     64  N   UNL A   1      44.130  27.033  26.792  1.00  0.00    -0.354 N 
ATOM     65  N   UNL A   1      45.259  29.730  27.226  1.00  0.00    -0.248 NA
ATOM     66  C   UNL A   1      46.997  31.264  26.962  1.00  0.00     0.031 C 
ATOM     67  C   UNL A   1      45.310  25.585  25.592  1.00  0.00     0.029 A 
ATOM     68  C   UNL A   1      45.316  26.878  26.093  1.00  0.00     0.049 A 
ATOM     69  H   UNL A   1      43.859  27.850  27.269  1.00  0.00     0.167 HD
ATOM     70  C   UNL A   1      46.265  29.145  26.468  1.00  0.00     0.074 A 
ATOM     71  C   UNL A   1      47.298  30.149  26.311  1.00  0.00     0.031 C 
ATOM     72  C   UNL A   1      46.328  27.896  25.942  1.00  0.00     0.037 A 
BRANCH  59  73
ATOM     73  C   UNL A   1      41.443  24.329  27.277  1.00  0.00     0.064 A 
ATOM     74  C   UNL A   1      41.956  23.200  27.937  1.00  0.00     0.173 A 
ATOM     75  C   UNL A   1      40.284  24.163  26.505  1.00  0.00     0.173 A 
ATOM     76  F   UNL A   1      43.073  23.296  28.674  1.00  0.00    -0.203 F 
ATOM     77  C   UNL A   1      41.359  21.950  27.789  1.00  0.00     0.198 A 
ATOM     78  C   UNL A   1      39.668  22.920  26.390  1.00  0.00     0.198 A 
ATOM     79  F   UNL A   1      39.751  25.207  25.853  1.00  0.00    -0.203 F 
ATOM     80  F   UNL A   1      41.909  20.873  28.368  1.00  0.00    -0.200 F 
ATOM     81  C   UNL A   1      40.213  21.812  27.021  1.00  0.00     0.200 A 
ATOM     82  F   UNL A   1      38.554  22.792  25.657  1.00  0.00    -0.200 F 
ATOM     83  F   UNL A   1      39.642  20.609  26.876  1.00  0.00    -0.200 F 
ENDBRANCH  59  73
BRANCH  60  84
ATOM     84  C   UNL A   1      45.582  33.384  28.418  1.00  0.00     0.064 A 
ATOM     85  C   UNL A   1      45.325  34.420  27.508  1.00  0.00     0.173 A 
ATOM     86  C   UNL A   1      46.440  33.659  29.492  1.00  0.00     0.173 A 
ATOM     87  F   UNL A   1      44.527  34.201  26.453  1.00  0.00    -0.203 F 
ATOM     88  C   UNL A   1      45.912  35.675  27.660  1.00  0.00     0.198 A 
ATOM     89  C   UNL A   1      47.004  34.922  29.660  1.00  0.00     0.198 A 
ATOM     90  F   UNL A   1      46.716  32.704  30.392  1.00  0.00    -0.203 F 
ATOM     91  F   UNL A   1      45.678  36.634  26.756  1.00  0.00    -0.200 F 
ATOM     92  C   UNL A   1      46.744  35.927  28.740  1.00  0.00     0.200 A 
ATOM     93  F   UNL A   1      47.795  35.167  30.714  1.00  0.00    -0.200 F 
ATOM     94  F   UNL A   1      47.299  37.138  28.892  1.00  0.00    -0.200 F 
ENDBRANCH  60  84
BRANCH  72  95
ATOM     95  C   UNL A   1      47.526  27.561  25.098  1.00  0.00     0.064 A 
ATOM     96  C   UNL A   1      47.538  27.761  23.710  1.00  0.00     0.173 A 
ATOM     97  C   UNL A   1      48.696  27.071  25.701  1.00  0.00     0.173 A 
ATOM     98  F   UNL A   1      46.443  28.217  23.084  1.00  0.00    -0.203 F 
ATOM     99  C   UNL A   1      48.665  27.450  22.952  1.00  0.00     0.198 A 
ATOM    100  C   UNL A   1      49.833  26.797  24.945  1.00  0.00     0.198 A 
ATOM    101  F   UNL A   1      48.742  26.870  27.025  1.00  0.00    -0.203 F 
ATOM    102  F   UNL A   1      48.634  27.594  21.620  1.00  0.00    -0.200 F 
ATOM    103  C   UNL A   1      49.812  26.976  23.571  1.00  0.00     0.200 A 
ATOM    104  F   UNL A   1      50.946  26.357  25.548  1.00  0.00    -0.200 F 
ATOM    105  F   UNL A   1      50.897  26.685  22.841  1.00  0.00    -0.200 F 
ENDBRANCH  72  95
ENDBRANCH  46  47
ENDBRANCH  39  41
ENDBRANCH  38  39
ENDBRANCH  37  38
ENDBRANCH  36  37
ENDBRANCH  35  36
ENDBRANCH  34  35
ENDBRANCH   1  34
TORSDOF 19
ENDMDL
