MODEL 1
REMARK VINA RESULT:     -11.7      0.000      0.000
REMARK SMILES Cc1nn(Cc2ccc(C(=O)OCCOCCOC(=O)c3ccc(-c4c5nc(c(-c6c(F)c(F)c(F)c(F)c6F)c6ccc([nH]6)c(-c6c(F)c(F)c(F)c(F)c6F)c6nc(c(-c7c(F)c(F)c(F)c(F)c7F)c7ccc4[nH]7)C=C6)C=C5)cc3)o2)c(C)c1C
REMARK SMILES IDX 15 1 14 2 13 3 12 4 10 5 11 6 9 7 6 8 7 9 84 10 8 11 5 12
REMARK SMILES IDX 4 13 1 14 2 15 3 16 87 17 85 18 88 19 86 20 16 21 17 22
REMARK SMILES IDX 18 23 19 24 20 25 21 26 22 27 83 28 23 29 82 30 24 31 25 32
REMARK SMILES IDX 26 33 76 34 27 35 81 36 75 37 77 38 28 39 80 40 74 41 73 42
REMARK SMILES IDX 29 44 61 45 41 46 60 47 42 48 45 49 59 50 78 51 43 52 44 53
REMARK SMILES IDX 58 55 79 56 46 57 30 58 31 59 39 60 32 61 33 62 37 63 40 64
REMARK SMILES IDX 34 65 35 66 38 67 36 68 62 69 63 70 71 71 64 72 65 73 69 74
REMARK SMILES IDX 72 75 66 76 67 77 70 78 68 79 47 80 48 81 56 82 49 83 50 84
REMARK SMILES IDX 54 85 57 86 51 87 52 88 55 89 53 90
REMARK H PARENT 77 43 45 54
REMARK Flexibility Score: inf
ROOT
ATOM      1  O   UNL A   1      40.916  19.804  26.979  1.00  0.00    -0.374 OA
ENDROOT
BRANCH   1   2
ATOM      2  C   UNL A   1      40.656  21.190  27.196  1.00  0.00     0.202 C 
BRANCH   2   3
ATOM      3  C   UNL A   1      39.934  21.994  26.108  1.00  0.00     0.261 C 
BRANCH   3   4
ATOM      4  O   UNL A   1      38.539  22.208  26.385  1.00  0.00    -0.457 OA
BRANCH   4   5
ATOM      5  C   UNL A   1      37.691  21.621  25.485  1.00  0.00     0.374 C 
ATOM      6  O   UNL A   1      37.925  20.581  24.884  1.00  0.00    -0.242 OA
BRANCH   5   7
ATOM      7  C   UNL A   1      36.400  22.271  25.500  1.00  0.00     0.211 A 
ATOM      8  C   UNL A   1      34.206  22.471  25.559  1.00  0.00     0.126 A 
ATOM      9  C   UNL A   1      34.719  23.749  25.644  1.00  0.00     0.048 A 
ATOM     10  O   UNL A   1      35.228  21.564  25.419  1.00  0.00    -0.452 OA
ATOM     11  C   UNL A   1      36.122  23.619  25.633  1.00  0.00     0.058 A 
BRANCH   8  12
ATOM     12  C   UNL A   1      32.828  21.934  25.720  1.00  0.00     0.219 C 
BRANCH  12  13
ATOM     13  N   UNL A   1      32.634  20.625  25.099  1.00  0.00    -0.262 N 
ATOM     14  C   UNL A   1      32.916  17.098  25.385  1.00  0.00     0.069 C 
ATOM     15  C   UNL A   1      32.747  18.505  24.941  1.00  0.00     0.063 A 
ATOM     16  N   UNL A   1      32.859  19.504  25.822  1.00  0.00    -0.177 NA
ATOM     17  C   UNL A   1      32.479  18.983  23.631  1.00  0.00    -0.007 A 
ATOM     18  C   UNL A   1      32.425  20.361  23.764  1.00  0.00     0.039 A 
ATOM     19  C   UNL A   1      32.322  18.190  22.385  1.00  0.00     0.048 C 
ATOM     20  C   UNL A   1      32.219  21.419  22.744  1.00  0.00     0.066 C 
ENDBRANCH  12  13
ENDBRANCH   8  12
ENDBRANCH   5   7
ENDBRANCH   4   5
ENDBRANCH   3   4
ENDBRANCH   2   3
ENDBRANCH   1   2
BRANCH   1  21
ATOM     21  C   UNL A   1      42.226  19.280  27.160  1.00  0.00     0.202 C 
BRANCH  21  22
ATOM     22  C   UNL A   1      43.047  18.899  25.938  1.00  0.00     0.261 C 
BRANCH  22  23
ATOM     23  O   UNL A   1      43.135  19.955  24.998  1.00  0.00    -0.460 OA
BRANCH  23  24
ATOM     24  C   UNL A   1      44.381  20.145  24.506  1.00  0.00     0.338 C 
ATOM     25  O   UNL A   1      45.147  19.304  24.077  1.00  0.00    -0.246 OA
BRANCH  24  26
ATOM     26  C   UNL A   1      44.746  21.546  24.731  1.00  0.00     0.060 A 
ATOM     27  C   UNL A   1      45.687  21.777  25.737  1.00  0.00     0.016 A 
ATOM     28  C   UNL A   1      43.909  22.555  24.236  1.00  0.00     0.016 A 
ATOM     29  C   UNL A   1      45.598  22.953  26.439  1.00  0.00     0.010 A 
ATOM     30  C   UNL A   1      43.800  23.714  24.957  1.00  0.00     0.010 A 
ATOM     31  C   UNL A   1      44.578  23.848  26.103  1.00  0.00    -0.014 A 
BRANCH  31  32
ATOM     32  C   UNL A   1      44.399  25.021  26.923  1.00  0.00     0.031 A 
ATOM     33  C   UNL A   1      45.482  26.000  26.706  1.00  0.00     0.074 A 
ATOM     34  C   UNL A   1      43.299  25.199  27.678  1.00  0.00     0.049 A 
ATOM     35  N   UNL A   1      46.429  26.313  27.523  1.00  0.00    -0.248 NA
ATOM     36  C   UNL A   1      45.673  26.513  25.338  1.00  0.00     0.031 C 
ATOM     37  C   UNL A   1      42.086  24.379  27.722  1.00  0.00     0.029 A 
ATOM     38  N   UNL A   1      42.998  26.234  28.508  1.00  0.00    -0.354 N 
ATOM     39  C   UNL A   1      47.203  27.245  26.841  1.00  0.00     0.074 A 
ATOM     40  C   UNL A   1      46.851  27.125  25.455  1.00  0.00     0.031 C 
ATOM     41  C   UNL A   1      41.104  25.066  28.351  1.00  0.00     0.029 A 
ATOM     42  C   UNL A   1      41.652  26.310  28.858  1.00  0.00     0.049 A 
ATOM     43  H   UNL A   1      43.673  26.873  28.833  1.00  0.00     0.167 HD
ATOM     44  C   UNL A   1      47.796  28.263  27.519  1.00  0.00     0.037 A 
ATOM     45  C   UNL A   1      41.055  27.386  29.436  1.00  0.00     0.037 A 
ATOM     46  C   UNL A   1      47.897  27.941  28.924  1.00  0.00     0.049 A 
ATOM     47  C   UNL A   1      42.137  28.216  30.034  1.00  0.00     0.074 A 
ATOM     48  C   UNL A   1      48.511  26.942  29.654  1.00  0.00     0.029 A 
ATOM     49  N   UNL A   1      46.971  28.504  29.767  1.00  0.00    -0.354 N 
ATOM     50  N   UNL A   1      42.854  27.837  31.055  1.00  0.00    -0.248 NA
ATOM     51  C   UNL A   1      42.742  29.236  29.189  1.00  0.00     0.031 C 
ATOM     52  C   UNL A   1      47.618  26.661  30.731  1.00  0.00     0.029 A 
ATOM     53  C   UNL A   1      46.543  27.545  30.644  1.00  0.00     0.049 A 
ATOM     54  H   UNL A   1      46.666  29.441  29.744  1.00  0.00     0.167 HD
ATOM     55  C   UNL A   1      44.148  28.229  30.741  1.00  0.00     0.074 A 
ATOM     56  C   UNL A   1      44.006  29.146  29.612  1.00  0.00     0.031 C 
ATOM     57  C   UNL A   1      45.222  27.539  31.226  1.00  0.00     0.037 A 
BRANCH  44  58
ATOM     58  C   UNL A   1      47.828  29.694  27.018  1.00  0.00     0.064 A 
ATOM     59  C   UNL A   1      49.038  30.407  27.141  1.00  0.00     0.173 A 
ATOM     60  C   UNL A   1      46.690  30.486  26.743  1.00  0.00     0.173 A 
ATOM     61  F   UNL A   1      50.189  29.762  27.386  1.00  0.00    -0.203 F 
ATOM     62  C   UNL A   1      49.077  31.802  27.131  1.00  0.00     0.198 A 
ATOM     63  C   UNL A   1      46.741  31.877  26.685  1.00  0.00     0.198 A 
ATOM     64  F   UNL A   1      45.458  29.983  26.622  1.00  0.00    -0.203 F 
ATOM     65  F   UNL A   1      50.225  32.435  27.407  1.00  0.00    -0.200 F 
ATOM     66  C   UNL A   1      47.925  32.537  26.921  1.00  0.00     0.200 A 
ATOM     67  F   UNL A   1      45.609  32.567  26.488  1.00  0.00    -0.200 F 
ATOM     68  F   UNL A   1      47.944  33.874  26.989  1.00  0.00    -0.200 F 
ENDBRANCH  44  58
BRANCH  45  69
ATOM     69  C   UNL A   1      39.695  27.927  29.184  1.00  0.00     0.064 A 
ATOM     70  C   UNL A   1      38.762  28.053  30.226  1.00  0.00     0.173 A 
ATOM     71  C   UNL A   1      39.383  28.596  27.984  1.00  0.00     0.173 A 
ATOM     72  F   UNL A   1      39.004  27.492  31.420  1.00  0.00    -0.203 F 
ATOM     73  C   UNL A   1      37.598  28.820  30.085  1.00  0.00     0.198 A 
ATOM     74  C   UNL A   1      38.220  29.355  27.841  1.00  0.00     0.198 A 
ATOM     75  F   UNL A   1      40.245  28.611  26.958  1.00  0.00    -0.203 F 
ATOM     76  F   UNL A   1      36.763  28.968  31.122  1.00  0.00    -0.200 F 
ATOM     77  C   UNL A   1      37.334  29.477  28.895  1.00  0.00     0.200 A 
ATOM     78  F   UNL A   1      37.998  30.021  26.699  1.00  0.00    -0.200 F 
ATOM     79  F   UNL A   1      36.254  30.264  28.778  1.00  0.00    -0.200 F 
ENDBRANCH  45  69
BRANCH  57  80
ATOM     80  C   UNL A   1      44.972  26.537  32.318  1.00  0.00     0.064 A 
ATOM     81  C   UNL A   1      44.643  25.189  32.095  1.00  0.00     0.173 A 
ATOM     82  C   UNL A   1      45.217  26.934  33.639  1.00  0.00     0.173 A 
ATOM     83  F   UNL A   1      44.490  24.713  30.853  1.00  0.00    -0.203 F 
ATOM     84  C   UNL A   1      44.526  24.292  33.156  1.00  0.00     0.198 A 
ATOM     85  C   UNL A   1      45.136  26.027  34.691  1.00  0.00     0.198 A 
ATOM     86  F   UNL A   1      45.585  28.197  33.902  1.00  0.00    -0.203 F 
ATOM     87  F   UNL A   1      44.201  23.011  32.922  1.00  0.00    -0.200 F 
ATOM     88  C   UNL A   1      44.781  24.710  34.452  1.00  0.00     0.200 A 
ATOM     89  F   UNL A   1      45.433  26.427  35.936  1.00  0.00    -0.200 F 
ATOM     90  F   UNL A   1      44.711  23.839  35.468  1.00  0.00    -0.200 F 
ENDBRANCH  57  80
ENDBRANCH  31  32
ENDBRANCH  24  26
ENDBRANCH  23  24
ENDBRANCH  22  23
ENDBRANCH  21  22
ENDBRANCH   1  21
TORSDOF 16
ENDMDL
MODEL 2
REMARK VINA RESULT:     -11.6      1.742      2.637
REMARK SMILES Cc1nn(Cc2ccc(C(=O)OCCOCCOC(=O)c3ccc(-c4c5nc(c(-c6c(F)c(F)c(F)c(F)c6F)c6ccc([nH]6)c(-c6c(F)c(F)c(F)c(F)c6F)c6nc(c(-c7c(F)c(F)c(F)c(F)c7F)c7ccc4[nH]7)C=C6)C=C5)cc3)o2)c(C)c1C
REMARK SMILES IDX 15 1 14 2 13 3 12 4 10 5 11 6 9 7 6 8 7 9 84 10 8 11 5 12
REMARK SMILES IDX 4 13 1 14 2 15 3 16 87 17 85 18 88 19 86 20 16 21 17 22
REMARK SMILES IDX 18 23 19 24 20 25 21 26 22 27 83 28 23 29 82 30 24 31 25 32
REMARK SMILES IDX 26 33 76 34 27 35 81 36 75 37 77 38 28 39 80 40 74 41 73 42
REMARK SMILES IDX 29 44 61 45 41 46 60 47 42 48 45 49 59 50 78 51 43 52 44 53
REMARK SMILES IDX 58 55 79 56 46 57 30 58 31 59 39 60 32 61 33 62 37 63 40 64
REMARK SMILES IDX 34 65 35 66 38 67 36 68 62 69 63 70 71 71 64 72 65 73 69 74
REMARK SMILES IDX 72 75 66 76 67 77 70 78 68 79 47 80 48 81 56 82 49 83 50 84
REMARK SMILES IDX 54 85 57 86 51 87 52 88 55 89 53 90
REMARK H PARENT 77 43 45 54
REMARK Flexibility Score: inf
ROOT
ATOM      1  O   UNL A   1      41.384  19.952  25.679  1.00  0.00    -0.374 OA
ENDROOT
BRANCH   1   2
ATOM      2  C   UNL A   1      41.284  21.300  26.132  1.00  0.00     0.202 C 
BRANCH   2   3
ATOM      3  C   UNL A   1      39.968  21.784  26.753  1.00  0.00     0.261 C 
BRANCH   3   4
ATOM      4  O   UNL A   1      38.914  21.963  25.791  1.00  0.00    -0.457 OA
BRANCH   4   5
ATOM      5  C   UNL A   1      38.123  23.057  26.023  1.00  0.00     0.374 C 
ATOM      6  O   UNL A   1      38.428  23.996  26.744  1.00  0.00    -0.242 OA
BRANCH   5   7
ATOM      7  C   UNL A   1      36.980  23.057  25.138  1.00  0.00     0.211 A 
ATOM      8  C   UNL A   1      34.944  23.499  24.419  1.00  0.00     0.126 A 
ATOM      9  C   UNL A   1      35.602  22.879  23.377  1.00  0.00     0.048 A 
ATOM     10  O   UNL A   1      35.764  23.566  25.518  1.00  0.00    -0.452 OA
ATOM     11  C   UNL A   1      36.911  22.620  23.827  1.00  0.00     0.058 A 
BRANCH   8  12
ATOM     12  C   UNL A   1      33.626  24.184  24.503  1.00  0.00     0.219 C 
BRANCH  12  13
ATOM     13  N   UNL A   1      33.727  25.641  24.569  1.00  0.00    -0.262 N 
ATOM     14  C   UNL A   1      33.825  28.552  26.598  1.00  0.00     0.069 C 
ATOM     15  C   UNL A   1      33.740  27.554  25.500  1.00  0.00     0.063 A 
ATOM     16  N   UNL A   1      33.820  26.249  25.774  1.00  0.00    -0.177 NA
ATOM     17  C   UNL A   1      33.563  27.795  24.112  1.00  0.00    -0.007 A 
ATOM     18  C   UNL A   1      33.546  26.534  23.537  1.00  0.00     0.039 A 
ATOM     19  C   UNL A   1      33.401  29.101  23.426  1.00  0.00     0.048 C 
ATOM     20  C   UNL A   1      33.352  26.123  22.125  1.00  0.00     0.066 C 
ENDBRANCH  12  13
ENDBRANCH   8  12
ENDBRANCH   5   7
ENDBRANCH   4   5
ENDBRANCH   3   4
ENDBRANCH   2   3
ENDBRANCH   1   2
BRANCH   1  21
ATOM     21  C   UNL A   1      42.330  19.064  26.261  1.00  0.00     0.202 C 
BRANCH  21  22
ATOM     22  C   UNL A   1      43.585  18.701  25.482  1.00  0.00     0.261 C 
BRANCH  22  23
ATOM     23  O   UNL A   1      44.539  19.748  25.483  1.00  0.00    -0.460 OA
BRANCH  23  24
ATOM     24  C   UNL A   1      44.620  20.413  24.308  1.00  0.00     0.338 C 
ATOM     25  O   UNL A   1      44.541  19.953  23.185  1.00  0.00    -0.246 OA
BRANCH  24  26
ATOM     26  C   UNL A   1      44.996  21.799  24.599  1.00  0.00     0.060 A 
ATOM     27  C   UNL A   1      45.868  21.981  25.674  1.00  0.00     0.016 A 
ATOM     28  C   UNL A   1      44.217  22.841  24.076  1.00  0.00     0.016 A 
ATOM     29  C   UNL A   1      45.754  23.139  26.403  1.00  0.00     0.010 A 
ATOM     30  C   UNL A   1      44.081  23.981  24.821  1.00  0.00     0.010 A 
ATOM     31  C   UNL A   1      44.779  24.065  26.022  1.00  0.00    -0.014 A 
BRANCH  31  32
ATOM     32  C   UNL A   1      44.566  25.219  26.862  1.00  0.00     0.031 A 
ATOM     33  C   UNL A   1      45.614  26.237  26.654  1.00  0.00     0.074 A 
ATOM     34  C   UNL A   1      43.465  25.348  27.627  1.00  0.00     0.049 A 
ATOM     35  N   UNL A   1      46.555  26.569  27.471  1.00  0.00    -0.248 NA
ATOM     36  C   UNL A   1      45.778  26.777  25.293  1.00  0.00     0.031 C 
ATOM     37  C   UNL A   1      42.280  24.487  27.665  1.00  0.00     0.029 A 
ATOM     38  N   UNL A   1      43.136  26.359  28.475  1.00  0.00    -0.354 N 
ATOM     39  C   UNL A   1      47.293  27.537  26.799  1.00  0.00     0.074 A 
ATOM     40  C   UNL A   1      46.937  27.426  25.413  1.00  0.00     0.031 C 
ATOM     41  C   UNL A   1      41.280  25.130  28.310  1.00  0.00     0.029 A 
ATOM     42  C   UNL A   1      41.790  26.385  28.834  1.00  0.00     0.049 A 
ATOM     43  H   UNL A   1      43.790  27.015  28.805  1.00  0.00     0.167 HD
ATOM     44  C   UNL A   1      47.856  28.563  27.490  1.00  0.00     0.037 A 
ATOM     45  C   UNL A   1      41.161  27.430  29.432  1.00  0.00     0.037 A 
ATOM     46  C   UNL A   1      47.977  28.223  28.888  1.00  0.00     0.049 A 
ATOM     47  C   UNL A   1      42.218  28.287  30.037  1.00  0.00     0.074 A 
ATOM     48  C   UNL A   1      48.629  27.234  29.599  1.00  0.00     0.029 A 
ATOM     49  N   UNL A   1      47.038  28.741  29.745  1.00  0.00    -0.354 N 
ATOM     50  N   UNL A   1      42.955  27.916  31.048  1.00  0.00    -0.248 NA
ATOM     51  C   UNL A   1      42.783  29.340  29.205  1.00  0.00     0.031 C 
ATOM     52  C   UNL A   1      47.753  26.906  30.676  1.00  0.00     0.029 A 
ATOM     53  C   UNL A   1      46.648  27.754  30.609  1.00  0.00     0.049 A 
ATOM     54  H   UNL A   1      46.702  29.667  29.740  1.00  0.00     0.167 HD
ATOM     55  C   UNL A   1      44.233  28.356  30.732  1.00  0.00     0.074 A 
ATOM     56  C   UNL A   1      44.053  29.286  29.619  1.00  0.00     0.031 C 
ATOM     57  C   UNL A   1      45.332  27.695  31.200  1.00  0.00     0.037 A 
BRANCH  44  58
ATOM     58  C   UNL A   1      47.837  30.002  27.011  1.00  0.00     0.064 A 
ATOM     59  C   UNL A   1      49.019  30.757  27.150  1.00  0.00     0.173 A 
ATOM     60  C   UNL A   1      46.671  30.756  26.744  1.00  0.00     0.173 A 
ATOM     61  F   UNL A   1      50.192  30.151  27.388  1.00  0.00    -0.203 F 
ATOM     62  C   UNL A   1      49.007  32.153  27.162  1.00  0.00     0.198 A 
ATOM     63  C   UNL A   1      46.672  32.148  26.708  1.00  0.00     0.198 A 
ATOM     64  F   UNL A   1      45.459  30.210  26.610  1.00  0.00    -0.203 F 
ATOM     65  F   UNL A   1      50.130  32.823  27.452  1.00  0.00    -0.200 F 
ATOM     66  C   UNL A   1      47.829  32.848  26.959  1.00  0.00     0.200 A 
ATOM     67  F   UNL A   1      45.515  32.799  26.517  1.00  0.00    -0.200 F 
ATOM     68  F   UNL A   1      47.799  34.183  27.048  1.00  0.00    -0.200 F 
ENDBRANCH  44  58
BRANCH  45  69
ATOM     69  C   UNL A   1      39.782  27.929  29.197  1.00  0.00     0.064 A 
ATOM     70  C   UNL A   1      38.860  28.033  30.252  1.00  0.00     0.173 A 
ATOM     71  C   UNL A   1      39.433  28.583  27.999  1.00  0.00     0.173 A 
ATOM     72  F   UNL A   1      39.136  27.484  31.445  1.00  0.00    -0.203 F 
ATOM     73  C   UNL A   1      37.672  28.763  30.123  1.00  0.00     0.198 A 
ATOM     74  C   UNL A   1      38.246  29.306  27.869  1.00  0.00     0.198 A 
ATOM     75  F   UNL A   1      40.281  28.619  26.961  1.00  0.00    -0.203 F 
ATOM     76  F   UNL A   1      36.848  28.892  31.172  1.00  0.00    -0.200 F 
ATOM     77  C   UNL A   1      37.371  29.407  28.934  1.00  0.00     0.200 A 
ATOM     78  F   UNL A   1      37.989  29.960  26.727  1.00  0.00    -0.200 F 
ATOM     79  F   UNL A   1      36.267  30.160  28.829  1.00  0.00    -0.200 F 
ENDBRANCH  45  69
BRANCH  57  80
ATOM     80  C   UNL A   1      45.123  26.669  32.277  1.00  0.00     0.064 A 
ATOM     81  C   UNL A   1      44.823  25.317  32.035  1.00  0.00     0.173 A 
ATOM     82  C   UNL A   1      45.378  27.048  33.601  1.00  0.00     0.173 A 
ATOM     83  F   UNL A   1      44.662  24.860  30.787  1.00  0.00    -0.203 F 
ATOM     84  C   UNL A   1      44.744  24.398  33.081  1.00  0.00     0.198 A 
ATOM     85  C   UNL A   1      45.336  26.121  34.638  1.00  0.00     0.198 A 
ATOM     86  F   UNL A   1      45.721  28.315  33.882  1.00  0.00    -0.203 F 
ATOM     87  F   UNL A   1      44.446  23.115  32.829  1.00  0.00    -0.200 F 
ATOM     88  C   UNL A   1      45.008  24.800  34.381  1.00  0.00     0.200 A 
ATOM     89  F   UNL A   1      45.642  26.506  35.885  1.00  0.00    -0.200 F 
ATOM     90  F   UNL A   1      44.975  23.910  35.381  1.00  0.00    -0.200 F 
ENDBRANCH  57  80
ENDBRANCH  31  32
ENDBRANCH  24  26
ENDBRANCH  23  24
ENDBRANCH  22  23
ENDBRANCH  21  22
ENDBRANCH   1  21
TORSDOF 16
ENDMDL
MODEL 3
REMARK VINA RESULT:     -11.5      3.820      7.072
REMARK SMILES Cc1nn(Cc2ccc(C(=O)OCCOCCOC(=O)c3ccc(-c4c5nc(c(-c6c(F)c(F)c(F)c(F)c6F)c6ccc([nH]6)c(-c6c(F)c(F)c(F)c(F)c6F)c6nc(c(-c7c(F)c(F)c(F)c(F)c7F)c7ccc4[nH]7)C=C6)C=C5)cc3)o2)c(C)c1C
REMARK SMILES IDX 15 1 14 2 13 3 12 4 10 5 11 6 9 7 6 8 7 9 84 10 8 11 5 12
REMARK SMILES IDX 4 13 1 14 2 15 3 16 87 17 85 18 88 19 86 20 16 21 17 22
REMARK SMILES IDX 18 23 19 24 20 25 21 26 22 27 83 28 23 29 82 30 24 31 25 32
REMARK SMILES IDX 26 33 76 34 27 35 81 36 75 37 77 38 28 39 80 40 74 41 73 42
REMARK SMILES IDX 29 44 61 45 41 46 60 47 42 48 45 49 59 50 78 51 43 52 44 53
REMARK SMILES IDX 58 55 79 56 46 57 30 58 31 59 39 60 32 61 33 62 37 63 40 64
REMARK SMILES IDX 34 65 35 66 38 67 36 68 62 69 63 70 71 71 64 72 65 73 69 74
REMARK SMILES IDX 72 75 66 76 67 77 70 78 68 79 47 80 48 81 56 82 49 83 50 84
REMARK SMILES IDX 54 85 57 86 51 87 52 88 55 89 53 90
REMARK H PARENT 77 43 45 54
REMARK Flexibility Score: inf
ROOT
ATOM      1  O   UNL A   1      42.075  18.875  25.729  1.00  0.00    -0.374 OA
ENDROOT
BRANCH   1   2
ATOM      2  C   UNL A   1      43.403  18.356  25.758  1.00  0.00     0.202 C 
BRANCH   2   3
ATOM      3  C   UNL A   1      44.413  18.827  24.705  1.00  0.00     0.261 C 
BRANCH   3   4
ATOM      4  O   UNL A   1      44.290  20.223  24.380  1.00  0.00    -0.457 OA
BRANCH   4   5
ATOM      5  C   UNL A   1      45.229  21.022  24.977  1.00  0.00     0.374 C 
ATOM      6  O   UNL A   1      46.405  20.723  25.127  1.00  0.00    -0.242 OA
BRANCH   5   7
ATOM      7  C   UNL A   1      44.697  22.346  25.212  1.00  0.00     0.211 A 
ATOM      8  C   UNL A   1      44.483  24.334  26.138  1.00  0.00     0.126 A 
ATOM      9  C   UNL A   1      43.626  24.311  25.056  1.00  0.00     0.048 A 
ATOM     10  O   UNL A   1      45.105  23.117  26.270  1.00  0.00    -0.452 OA
ATOM     11  C   UNL A   1      43.783  23.050  24.449  1.00  0.00     0.058 A 
BRANCH   8  12
ATOM     12  C   UNL A   1      44.918  25.430  27.045  1.00  0.00     0.219 C 
BRANCH  12  13
ATOM     13  N   UNL A   1      45.901  26.330  26.444  1.00  0.00    -0.262 N 
ATOM     14  C   UNL A   1      47.173  27.846  23.497  1.00  0.00     0.069 C 
ATOM     15  C   UNL A   1      46.925  27.327  24.867  1.00  0.00     0.063 A 
ATOM     16  N   UNL A   1      45.818  26.624  25.127  1.00  0.00    -0.177 NA
ATOM     17  C   UNL A   1      47.748  27.463  26.016  1.00  0.00    -0.007 A 
ATOM     18  C   UNL A   1      47.063  26.796  27.019  1.00  0.00     0.039 A 
ATOM     19  C   UNL A   1      49.064  28.141  26.120  1.00  0.00     0.048 C 
ATOM     20  C   UNL A   1      47.429  26.552  28.436  1.00  0.00     0.066 C 
ENDBRANCH  12  13
ENDBRANCH   8  12
ENDBRANCH   5   7
ENDBRANCH   4   5
ENDBRANCH   3   4
ENDBRANCH   2   3
ENDBRANCH   1   2
BRANCH   1  21
ATOM     21  C   UNL A   1      41.629  19.770  26.740  1.00  0.00     0.202 C 
BRANCH  21  22
ATOM     22  C   UNL A   1      40.384  20.609  26.492  1.00  0.00     0.261 C 
BRANCH  22  23
ATOM     23  O   UNL A   1      40.337  21.758  27.319  1.00  0.00    -0.460 OA
BRANCH  23  24
ATOM     24  C   UNL A   1      39.652  22.792  26.778  1.00  0.00     0.338 C 
ATOM     25  O   UNL A   1      38.620  22.745  26.137  1.00  0.00    -0.246 OA
BRANCH  24  26
ATOM     26  C   UNL A   1      40.457  24.004  26.944  1.00  0.00     0.060 A 
ATOM     27  C   UNL A   1      41.376  23.986  27.995  1.00  0.00     0.016 A 
ATOM     28  C   UNL A   1      40.032  25.193  26.335  1.00  0.00     0.016 A 
ATOM     29  C   UNL A   1      41.659  25.176  28.619  1.00  0.00     0.010 A 
ATOM     30  C   UNL A   1      40.289  26.374  26.977  1.00  0.00     0.010 A 
ATOM     31  C   UNL A   1      41.016  26.330  28.163  1.00  0.00    -0.014 A 
BRANCH  31  32
ATOM     32  C   UNL A   1      41.207  27.556  28.899  1.00  0.00     0.031 A 
ATOM     33  C   UNL A   1      42.436  28.253  28.473  1.00  0.00     0.074 A 
ATOM     34  C   UNL A   1      40.284  28.017  29.764  1.00  0.00     0.049 A 
ATOM     35  N   UNL A   1      43.530  28.390  29.141  1.00  0.00    -0.248 NA
ATOM     36  C   UNL A   1      42.545  28.636  27.054  1.00  0.00     0.031 C 
ATOM     37  C   UNL A   1      38.940  27.494  30.021  1.00  0.00     0.029 A 
ATOM     38  N   UNL A   1      40.329  29.136  30.536  1.00  0.00    -0.354 N 
ATOM     39  C   UNL A   1      44.387  29.086  28.296  1.00  0.00     0.074 A 
ATOM     40  C   UNL A   1      43.833  28.973  26.977  1.00  0.00     0.031 C 
ATOM     41  C   UNL A   1      38.224  28.417  30.705  1.00  0.00     0.029 A 
ATOM     42  C   UNL A   1      39.092  29.532  31.038  1.00  0.00     0.049 A 
ATOM     43  H   UNL A   1      41.163  29.624  30.723  1.00  0.00     0.167 HD
ATOM     44  C   UNL A   1      45.272  29.980  28.811  1.00  0.00     0.037 A 
ATOM     45  C   UNL A   1      38.825  30.744  31.592  1.00  0.00     0.037 A 
ATOM     46  C   UNL A   1      45.491  29.720  30.215  1.00  0.00     0.049 A 
ATOM     47  C   UNL A   1      40.131  31.341  31.985  1.00  0.00     0.074 A 
ATOM     48  C   UNL A   1      45.968  28.649  30.946  1.00  0.00     0.029 A 
ATOM     49  N   UNL A   1      44.831  30.521  31.114  1.00  0.00    -0.354 N 
ATOM     50  N   UNL A   1      40.882  30.866  32.940  1.00  0.00    -0.248 NA
ATOM     51  C   UNL A   1      40.821  32.152  30.992  1.00  0.00     0.031 C 
ATOM     52  C   UNL A   1      45.190  28.634  32.142  1.00  0.00     0.029 A 
ATOM     53  C   UNL A   1      44.330  29.731  32.113  1.00  0.00     0.049 A 
ATOM     54  H   UNL A   1      44.735  31.499  31.051  1.00  0.00     0.167 HD
ATOM     55  C   UNL A   1      42.175  30.940  32.440  1.00  0.00     0.074 A 
ATOM     56  C   UNL A   1      42.082  31.803  31.265  1.00  0.00     0.031 C 
ATOM     57  C   UNL A   1      43.131  30.053  32.849  1.00  0.00     0.037 A 
BRANCH  44  58
ATOM     58  C   UNL A   1      45.543  31.338  28.193  1.00  0.00     0.064 A 
ATOM     59  C   UNL A   1      44.435  32.151  27.882  1.00  0.00     0.173 A 
ATOM     60  C   UNL A   1      46.763  31.733  27.599  1.00  0.00     0.173 A 
ATOM     61  F   UNL A   1      43.225  31.886  28.399  1.00  0.00    -0.203 F 
ATOM     62  C   UNL A   1      44.516  33.184  26.946  1.00  0.00     0.198 A 
ATOM     63  C   UNL A   1      46.850  32.795  26.703  1.00  0.00     0.198 A 
ATOM     64  F   UNL A   1      47.908  31.064  27.762  1.00  0.00    -0.203 F 
ATOM     65  F   UNL A   1      43.403  33.826  26.570  1.00  0.00    -0.200 F 
ATOM     66  C   UNL A   1      45.721  33.493  26.344  1.00  0.00     0.200 A 
ATOM     67  F   UNL A   1      48.029  33.071  26.126  1.00  0.00    -0.200 F 
ATOM     68  F   UNL A   1      45.787  34.429  25.388  1.00  0.00    -0.200 F 
ENDBRANCH  44  58
BRANCH  45  69
ATOM     69  C   UNL A   1      37.592  31.562  31.462  1.00  0.00     0.064 A 
ATOM     70  C   UNL A   1      36.804  31.866  32.584  1.00  0.00     0.173 A 
ATOM     71  C   UNL A   1      37.322  32.299  30.292  1.00  0.00     0.173 A 
ATOM     72  F   UNL A   1      37.029  31.249  33.754  1.00  0.00    -0.203 F 
ATOM     73  C   UNL A   1      35.820  32.862  32.545  1.00  0.00     0.198 A 
ATOM     74  C   UNL A   1      36.336  33.287  30.252  1.00  0.00     0.198 A 
ATOM     75  F   UNL A   1      38.073  32.147  29.193  1.00  0.00    -0.203 F 
ATOM     76  F   UNL A   1      35.131  33.168  33.654  1.00  0.00    -0.200 F 
ATOM     77  C   UNL A   1      35.594  33.578  31.381  1.00  0.00     0.200 A 
ATOM     78  F   UNL A   1      36.158  34.001  29.131  1.00  0.00    -0.200 F 
ATOM     79  F   UNL A   1      34.698  34.575  31.359  1.00  0.00    -0.200 F 
ENDBRANCH  45  69
BRANCH  57  80
ATOM     80  C   UNL A   1      42.821  29.194  34.042  1.00  0.00     0.064 A 
ATOM     81  C   UNL A   1      42.062  28.012  33.990  1.00  0.00     0.173 A 
ATOM     82  C   UNL A   1      43.441  29.513  35.256  1.00  0.00     0.173 A 
ATOM     83  F   UNL A   1      41.520  27.591  32.841  1.00  0.00    -0.203 F 
ATOM     84  C   UNL A   1      41.902  27.210  35.119  1.00  0.00     0.198 A 
ATOM     85  C   UNL A   1      43.310  28.690  36.371  1.00  0.00     0.198 A 
ATOM     86  F   UNL A   1      44.219  30.602  35.347  1.00  0.00    -0.203 F 
ATOM     87  F   UNL A   1      41.165  26.091  35.051  1.00  0.00    -0.200 F 
ATOM     88  C   UNL A   1      42.532  27.545  36.306  1.00  0.00     0.200 A 
ATOM     89  F   UNL A   1      43.963  28.995  37.501  1.00  0.00    -0.200 F 
ATOM     90  F   UNL A   1      42.414  26.753  37.380  1.00  0.00    -0.200 F 
ENDBRANCH  57  80
ENDBRANCH  31  32
ENDBRANCH  24  26
ENDBRANCH  23  24
ENDBRANCH  22  23
ENDBRANCH  21  22
ENDBRANCH   1  21
TORSDOF 16
ENDMDL
