MODEL 1
REMARK VINA RESULT:     -11.5      0.000      0.000
REMARK SMILES Cc1cc(C(=O)OCCOCCOC(=O)c2ccc(-c3c4nc(c(-c5c(F)c(F)c(F)c(F)c5F)c5ccc([nH]5)c(-c5c(F)c(F)c(F)c(F)c5F)c5nc(c(-c6c(F)c(F)c(F)c(F)c6F)c6ccc3[nH]6)C=C5)C=C4)cc2)c(C)n1[C@@H]1C[N@H+]2CC[C@@H]1CC2
REMARK SMILES IDX 11 1 10 2 9 3 8 4 7 5 5 6 6 7 4 8 1 9 2 10 3 11 81 12 79 13
REMARK SMILES IDX 80 14 82 15 83 16 87 17 84 18 88 19 86 20 89 21 85 22 12 24
REMARK SMILES IDX 13 25 14 26 15 27 16 28 17 29 78 30 18 31 77 32 19 33 20 34
REMARK SMILES IDX 21 35 71 36 22 37 76 38 70 39 72 40 23 41 75 42 69 43 68 44
REMARK SMILES IDX 24 46 56 47 36 48 55 49 37 50 40 51 54 52 73 53 38 54 39 55
REMARK SMILES IDX 53 57 74 58 41 59 25 60 26 61 34 62 27 63 28 64 32 65 35 66
REMARK SMILES IDX 29 67 30 68 33 69 31 70 57 71 58 72 66 73 59 74 60 75 64 76
REMARK SMILES IDX 67 77 61 78 62 79 65 80 63 81 42 82 43 83 51 84 44 85 45 86
REMARK SMILES IDX 49 87 52 88 46 89 47 90 50 91 48 92
REMARK H PARENT 84 23 72 45 40 56
REMARK Flexibility Score: inf
ROOT
ATOM      1  C   UNL A   1      34.197  36.057  33.251  1.00  0.00     0.202 C 
ENDROOT
BRANCH   1   2
ATOM      2  O   UNL A   1      33.454  36.657  32.174  1.00  0.00    -0.374 OA
BRANCH   2   3
ATOM      3  C   UNL A   1      32.654  35.777  31.384  1.00  0.00     0.202 C 
BRANCH   3   4
ATOM      4  C   UNL A   1      33.057  35.679  29.901  1.00  0.00     0.261 C 
BRANCH   4   5
ATOM      5  O   UNL A   1      33.322  34.324  29.524  1.00  0.00    -0.460 OA
BRANCH   5   6
ATOM      6  C   UNL A   1      34.106  34.148  28.422  1.00  0.00     0.340 C 
ATOM      7  O   UNL A   1      34.785  35.034  27.893  1.00  0.00    -0.246 OA
BRANCH   6   8
ATOM      8  C   UNL A   1      34.087  32.760  27.970  1.00  0.00     0.081 A 
ATOM      9  C   UNL A   1      35.578  29.394  27.700  1.00  0.00     0.064 C 
ATOM     10  C   UNL A   1      34.740  30.618  27.597  1.00  0.00     0.016 A 
ATOM     11  C   UNL A   1      35.164  31.855  28.034  1.00  0.00     0.038 A 
ATOM     12  N   UNL A   1      33.432  30.749  27.137  1.00  0.00    -0.339 N 
ATOM     13  C   UNL A   1      33.039  32.082  27.350  1.00  0.00     0.030 A 
ATOM     14  C   UNL A   1      31.724  32.694  26.966  1.00  0.00     0.065 C 
BRANCH  12  15
ATOM     15  C   UNL A   1      32.530  29.700  26.645  1.00  0.00     0.145 C 
ATOM     16  C   UNL A   1      32.481  28.403  27.488  1.00  0.00     0.288 C 
ATOM     17  C   UNL A   1      32.568  29.322  25.134  1.00  0.00     0.029 C 
ATOM     18  N   UNL A   1      32.471  27.185  26.635  1.00  0.00    -0.333 N 
ATOM     19  C   UNL A   1      31.287  28.489  24.855  1.00  0.00     0.067 C 
ATOM     20  C   UNL A   1      33.713  28.353  24.808  1.00  0.00     0.067 C 
ATOM     21  C   UNL A   1      31.289  27.229  25.745  1.00  0.00     0.262 C 
ATOM     22  C   UNL A   1      33.689  27.175  25.796  1.00  0.00     0.262 C 
ATOM     23  H   UNL A   1      32.437  26.353  27.225  1.00  0.00     0.348 HD
ENDBRANCH  12  15
ENDBRANCH   6   8
ENDBRANCH   5   6
ENDBRANCH   4   5
ENDBRANCH   3   4
ENDBRANCH   2   3
ENDBRANCH   1   2
BRANCH   1  24
ATOM     24  C   UNL A   1      35.514  35.340  32.848  1.00  0.00     0.261 C 
BRANCH  24  25
ATOM     25  O   UNL A   1      35.705  33.945  33.298  1.00  0.00    -0.460 OA
BRANCH  25  26
ATOM     26  C   UNL A   1      35.187  32.971  32.487  1.00  0.00     0.338 C 
ATOM     27  O   UNL A   1      33.987  32.714  32.439  1.00  0.00    -0.246 OA
BRANCH  26  28
ATOM     28  C   UNL A   1      36.152  32.210  31.566  1.00  0.00     0.060 A 
ATOM     29  C   UNL A   1      36.036  30.832  31.565  1.00  0.00     0.016 A 
ATOM     30  C   UNL A   1      37.281  32.690  30.865  1.00  0.00     0.016 A 
ATOM     31  C   UNL A   1      36.982  30.003  30.885  1.00  0.00     0.010 A 
ATOM     32  C   UNL A   1      38.307  31.807  30.234  1.00  0.00     0.010 A 
ATOM     33  C   UNL A   1      38.216  30.403  30.239  1.00  0.00    -0.014 A 
BRANCH  33  34
ATOM     34  C   UNL A   1      39.319  29.198  29.880  1.00  0.00     0.031 A 
ATOM     35  C   UNL A   1      40.078  29.065  31.155  1.00  0.00     0.074 A 
ATOM     36  C   UNL A   1      39.916  28.399  28.882  1.00  0.00     0.049 A 
ATOM     37  N   UNL A   1      40.713  30.112  31.603  1.00  0.00    -0.248 NA
ATOM     38  C   UNL A   1      39.841  28.018  32.151  1.00  0.00     0.031 C 
ATOM     39  C   UNL A   1      39.686  28.415  27.426  1.00  0.00     0.029 A 
ATOM     40  N   UNL A   1      40.929  27.357  28.930  1.00  0.00    -0.354 N 
ATOM     41  C   UNL A   1      41.167  29.792  32.854  1.00  0.00     0.074 A 
ATOM     42  C   UNL A   1      40.458  28.569  33.206  1.00  0.00     0.031 C 
ATOM     43  C   UNL A   1      40.361  27.414  26.779  1.00  0.00     0.029 A 
ATOM     44  C   UNL A   1      41.187  26.629  27.700  1.00  0.00     0.049 A 
ATOM     45  H   UNL A   1      41.418  27.154  29.760  1.00  0.00     0.167 HD
ATOM     46  C   UNL A   1      42.451  30.167  33.111  1.00  0.00     0.037 A 
ATOM     47  C   UNL A   1      42.041  25.556  27.400  1.00  0.00     0.037 A 
ATOM     48  C   UNL A   1      43.341  29.050  32.974  1.00  0.00     0.049 A 
ATOM     49  C   UNL A   1      43.141  25.614  28.369  1.00  0.00     0.074 A 
ATOM     50  C   UNL A   1      43.254  27.733  33.381  1.00  0.00     0.029 A 
ATOM     51  N   UNL A   1      44.217  29.078  31.915  1.00  0.00    -0.354 N 
ATOM     52  N   UNL A   1      44.122  26.449  28.212  1.00  0.00    -0.248 NA
ATOM     53  C   UNL A   1      43.301  24.655  29.456  1.00  0.00     0.031 C 
ATOM     54  C   UNL A   1      43.611  26.991  32.234  1.00  0.00     0.029 A 
ATOM     55  C   UNL A   1      44.275  27.828  31.345  1.00  0.00     0.049 A 
ATOM     56  H   UNL A   1      44.723  29.868  31.613  1.00  0.00     0.167 HD
ATOM     57  C   UNL A   1      44.695  26.476  29.437  1.00  0.00     0.074 A 
ATOM     58  C   UNL A   1      44.370  25.199  30.043  1.00  0.00     0.031 C 
ATOM     59  C   UNL A   1      44.775  27.703  30.001  1.00  0.00     0.037 A 
BRANCH  46  60
ATOM     60  C   UNL A   1      42.741  31.576  32.650  1.00  0.00     0.064 A 
ATOM     61  C   UNL A   1      42.761  32.603  33.598  1.00  0.00     0.173 A 
ATOM     62  C   UNL A   1      42.777  31.954  31.289  1.00  0.00     0.173 A 
ATOM     63  F   UNL A   1      42.799  32.308  34.906  1.00  0.00    -0.203 F 
ATOM     64  C   UNL A   1      42.726  33.942  33.206  1.00  0.00     0.198 A 
ATOM     65  C   UNL A   1      42.655  33.284  30.903  1.00  0.00     0.198 A 
ATOM     66  F   UNL A   1      42.905  31.029  30.323  1.00  0.00    -0.203 F 
ATOM     67  F   UNL A   1      42.770  34.909  34.132  1.00  0.00    -0.200 F 
ATOM     68  C   UNL A   1      42.624  34.279  31.864  1.00  0.00     0.200 A 
ATOM     69  F   UNL A   1      42.559  33.598  29.602  1.00  0.00    -0.200 F 
ATOM     70  F   UNL A   1      42.514  35.563  31.495  1.00  0.00    -0.200 F 
ENDBRANCH  46  60
BRANCH  47  71
ATOM     71  C   UNL A   1      42.421  24.459  26.337  1.00  0.00     0.064 A 
ATOM     72  C   UNL A   1      43.529  24.636  25.422  1.00  0.00     0.173 A 
ATOM     73  C   UNL A   1      42.037  23.118  26.467  1.00  0.00     0.173 A 
ATOM     74  F   UNL A   1      44.008  25.851  25.122  1.00  0.00    -0.203 F 
ATOM     75  C   UNL A   1      44.247  23.583  24.826  1.00  0.00     0.198 A 
ATOM     76  C   UNL A   1      42.740  22.056  25.829  1.00  0.00     0.198 A 
ATOM     77  F   UNL A   1      41.030  22.790  27.286  1.00  0.00    -0.203 F 
ATOM     78  F   UNL A   1      45.349  23.840  24.101  1.00  0.00    -0.200 F 
ATOM     79  C   UNL A   1      43.863  22.285  25.047  1.00  0.00     0.200 A 
ATOM     80  F   UNL A   1      42.363  20.785  26.036  1.00  0.00    -0.200 F 
ATOM     81  F   UNL A   1      44.581  21.270  24.540  1.00  0.00    -0.200 F 
ENDBRANCH  47  71
BRANCH  59  82
ATOM     82  C   UNL A   1      45.207  28.850  29.098  1.00  0.00     0.064 A 
ATOM     83  C   UNL A   1      44.409  29.565  28.169  1.00  0.00     0.173 A 
ATOM     84  C   UNL A   1      46.564  29.201  29.131  1.00  0.00     0.173 A 
ATOM     85  F   UNL A   1      43.076  29.432  28.111  1.00  0.00    -0.203 F 
ATOM     86  C   UNL A   1      44.965  30.487  27.276  1.00  0.00     0.198 A 
ATOM     87  C   UNL A   1      47.102  30.169  28.285  1.00  0.00     0.198 A 
ATOM     88  F   UNL A   1      47.384  28.613  30.016  1.00  0.00    -0.203 F 
ATOM     89  F   UNL A   1      44.190  31.088  26.359  1.00  0.00    -0.200 F 
ATOM     90  C   UNL A   1      46.311  30.790  27.337  1.00  0.00     0.200 A 
ATOM     91  F   UNL A   1      48.396  30.498  28.397  1.00  0.00    -0.200 F 
ATOM     92  F   UNL A   1      46.841  31.692  26.501  1.00  0.00    -0.200 F 
ENDBRANCH  59  82
ENDBRANCH  33  34
ENDBRANCH  26  28
ENDBRANCH  25  26
ENDBRANCH  24  25
ENDBRANCH   1  24
TORSDOF 15
ENDMDL
MODEL 2
REMARK VINA RESULT:     -10.9      4.806      9.880
REMARK SMILES Cc1cc(C(=O)OCCOCCOC(=O)c2ccc(-c3c4nc(c(-c5c(F)c(F)c(F)c(F)c5F)c5ccc([nH]5)c(-c5c(F)c(F)c(F)c(F)c5F)c5nc(c(-c6c(F)c(F)c(F)c(F)c6F)c6ccc3[nH]6)C=C5)C=C4)cc2)c(C)n1[C@@H]1C[N@H+]2CC[C@@H]1CC2
REMARK SMILES IDX 11 1 10 2 9 3 8 4 7 5 5 6 6 7 4 8 1 9 2 10 3 11 81 12 79 13
REMARK SMILES IDX 80 14 82 15 83 16 87 17 84 18 88 19 86 20 89 21 85 22 12 24
REMARK SMILES IDX 13 25 14 26 15 27 16 28 17 29 78 30 18 31 77 32 19 33 20 34
REMARK SMILES IDX 21 35 71 36 22 37 76 38 70 39 72 40 23 41 75 42 69 43 68 44
REMARK SMILES IDX 24 46 56 47 36 48 55 49 37 50 40 51 54 52 73 53 38 54 39 55
REMARK SMILES IDX 53 57 74 58 41 59 25 60 26 61 34 62 27 63 28 64 32 65 35 66
REMARK SMILES IDX 29 67 30 68 33 69 31 70 57 71 58 72 66 73 59 74 60 75 64 76
REMARK SMILES IDX 67 77 61 78 62 79 65 80 63 81 42 82 43 83 51 84 44 85 45 86
REMARK SMILES IDX 49 87 52 88 46 89 47 90 50 91 48 92
REMARK H PARENT 84 23 72 45 40 56
REMARK Flexibility Score: inf
ROOT
ATOM      1  C   UNL A   1      38.043  21.808  25.801  1.00  0.00     0.202 C 
ENDROOT
BRANCH   1   2
ATOM      2  O   UNL A   1      37.497  21.534  24.498  1.00  0.00    -0.374 OA
BRANCH   2   3
ATOM      3  C   UNL A   1      36.226  22.117  24.205  1.00  0.00     0.202 C 
BRANCH   3   4
ATOM      4  C   UNL A   1      35.066  21.642  25.100  1.00  0.00     0.261 C 
BRANCH   4   5
ATOM      5  O   UNL A   1      34.033  21.023  24.326  1.00  0.00    -0.460 OA
BRANCH   5   6
ATOM      6  C   UNL A   1      32.775  21.521  24.492  1.00  0.00     0.340 C 
ATOM      7  O   UNL A   1      31.826  20.889  24.967  1.00  0.00    -0.246 OA
BRANCH   6   8
ATOM      8  C   UNL A   1      32.698  22.921  24.087  1.00  0.00     0.081 A 
ATOM      9  C   UNL A   1      32.522  25.573  21.526  1.00  0.00     0.064 C 
ATOM     10  C   UNL A   1      32.619  24.771  22.774  1.00  0.00     0.016 A 
ATOM     11  C   UNL A   1      32.844  23.411  22.775  1.00  0.00     0.038 A 
ATOM     12  N   UNL A   1      32.449  25.181  24.095  1.00  0.00    -0.339 N 
ATOM     13  C   UNL A   1      32.521  24.035  24.906  1.00  0.00     0.030 A 
ATOM     14  C   UNL A   1      32.439  23.999  26.404  1.00  0.00     0.065 C 
BRANCH  12  15
ATOM     15  C   UNL A   1      32.113  26.519  24.597  1.00  0.00     0.145 C 
ATOM     16  C   UNL A   1      31.098  27.322  23.750  1.00  0.00     0.288 C 
ATOM     17  C   UNL A   1      33.267  27.468  25.042  1.00  0.00     0.029 C 
ATOM     18  N   UNL A   1      31.493  28.749  23.612  1.00  0.00    -0.333 N 
ATOM     19  C   UNL A   1      32.605  28.617  25.852  1.00  0.00     0.067 C 
ATOM     20  C   UNL A   1      33.917  28.186  23.852  1.00  0.00     0.067 C 
ATOM     21  C   UNL A   1      31.588  29.356  24.958  1.00  0.00     0.262 C 
ATOM     22  C   UNL A   1      32.826  28.820  22.973  1.00  0.00     0.262 C 
ATOM     23  H   UNL A   1      30.802  29.245  23.050  1.00  0.00     0.348 HD
ENDBRANCH  12  15
ENDBRANCH   6   8
ENDBRANCH   5   6
ENDBRANCH   4   5
ENDBRANCH   3   4
ENDBRANCH   2   3
ENDBRANCH   1   2
BRANCH   1  24
ATOM     24  C   UNL A   1      39.428  21.174  26.103  1.00  0.00     0.261 C 
BRANCH  24  25
ATOM     25  O   UNL A   1      40.158  21.650  27.297  1.00  0.00    -0.460 OA
BRANCH  25  26
ATOM     26  C   UNL A   1      41.096  22.626  27.085  1.00  0.00     0.338 C 
ATOM     27  O   UNL A   1      42.026  22.493  26.295  1.00  0.00    -0.246 OA
BRANCH  26  28
ATOM     28  C   UNL A   1      40.935  23.956  27.834  1.00  0.00     0.060 A 
ATOM     29  C   UNL A   1      39.652  24.469  27.900  1.00  0.00     0.016 A 
ATOM     30  C   UNL A   1      41.931  24.845  28.298  1.00  0.00     0.016 A 
ATOM     31  C   UNL A   1      39.395  25.776  28.419  1.00  0.00     0.010 A 
ATOM     32  C   UNL A   1      41.655  26.240  28.755  1.00  0.00     0.010 A 
ATOM     33  C   UNL A   1      40.359  26.785  28.812  1.00  0.00    -0.014 A 
BRANCH  33  34
ATOM     34  C   UNL A   1      39.799  28.350  28.998  1.00  0.00     0.031 A 
ATOM     35  C   UNL A   1      41.059  29.143  29.024  1.00  0.00     0.074 A 
ATOM     36  C   UNL A   1      38.699  29.186  29.287  1.00  0.00     0.049 A 
ATOM     37  N   UNL A   1      41.929  28.884  29.959  1.00  0.00    -0.248 NA
ATOM     38  C   UNL A   1      41.592  29.882  27.877  1.00  0.00     0.031 C 
ATOM     39  C   UNL A   1      37.317  28.809  29.632  1.00  0.00     0.029 A 
ATOM     40  N   UNL A   1      38.557  30.631  29.366  1.00  0.00    -0.354 N 
ATOM     41  C   UNL A   1      43.055  29.602  29.661  1.00  0.00     0.074 A 
ATOM     42  C   UNL A   1      42.856  30.054  28.290  1.00  0.00     0.031 C 
ATOM     43  C   UNL A   1      36.489  29.895  29.734  1.00  0.00     0.029 A 
ATOM     44  C   UNL A   1      37.211  31.153  29.535  1.00  0.00     0.049 A 
ATOM     45  H   UNL A   1      39.336  31.228  29.309  1.00  0.00     0.167 HD
ATOM     46  C   UNL A   1      43.626  30.238  30.721  1.00  0.00     0.037 A 
ATOM     47  C   UNL A   1      36.709  32.463  29.601  1.00  0.00     0.037 A 
ATOM     48  C   UNL A   1      43.266  31.626  30.730  1.00  0.00     0.049 A 
ATOM     49  C   UNL A   1      37.805  33.305  30.093  1.00  0.00     0.074 A 
ATOM     50  C   UNL A   1      43.187  32.577  29.731  1.00  0.00     0.029 A 
ATOM     51  N   UNL A   1      42.435  32.047  31.741  1.00  0.00    -0.354 N 
ATOM     52  N   UNL A   1      38.098  33.345  31.356  1.00  0.00    -0.248 NA
ATOM     53  C   UNL A   1      38.516  34.263  29.253  1.00  0.00     0.031 C 
ATOM     54  C   UNL A   1      41.930  33.188  29.933  1.00  0.00     0.029 A 
ATOM     55  C   UNL A   1      41.495  32.906  31.222  1.00  0.00     0.049 A 
ATOM     56  H   UNL A   1      42.502  31.777  32.686  1.00  0.00     0.167 HD
ATOM     57  C   UNL A   1      39.336  33.891  31.362  1.00  0.00     0.074 A 
ATOM     58  C   UNL A   1      39.416  34.680  30.147  1.00  0.00     0.031 C 
ATOM     59  C   UNL A   1      40.285  33.141  31.968  1.00  0.00     0.037 A 
BRANCH  46  60
ATOM     60  C   UNL A   1      43.720  29.352  31.939  1.00  0.00     0.064 A 
ATOM     61  C   UNL A   1      44.957  28.793  32.271  1.00  0.00     0.173 A 
ATOM     62  C   UNL A   1      42.589  28.876  32.640  1.00  0.00     0.173 A 
ATOM     63  F   UNL A   1      46.077  29.250  31.692  1.00  0.00    -0.203 F 
ATOM     64  C   UNL A   1      45.049  27.747  33.191  1.00  0.00     0.198 A 
ATOM     65  C   UNL A   1      42.672  27.779  33.491  1.00  0.00     0.198 A 
ATOM     66  F   UNL A   1      41.388  29.460  32.484  1.00  0.00    -0.203 F 
ATOM     67  F   UNL A   1      46.248  27.243  33.511  1.00  0.00    -0.200 F 
ATOM     68  C   UNL A   1      43.903  27.210  33.761  1.00  0.00     0.200 A 
ATOM     69  F   UNL A   1      41.557  27.269  34.037  1.00  0.00    -0.200 F 
ATOM     70  F   UNL A   1      43.988  26.156  34.586  1.00  0.00    -0.200 F 
ENDBRANCH  46  60
BRANCH  47  71
ATOM     71  C   UNL A   1      35.415  33.358  29.576  1.00  0.00     0.064 A 
ATOM     72  C   UNL A   1      34.666  33.649  30.781  1.00  0.00     0.173 A 
ATOM     73  C   UNL A   1      35.142  34.261  28.540  1.00  0.00     0.173 A 
ATOM     74  F   UNL A   1      34.748  32.869  31.867  1.00  0.00    -0.203 F 
ATOM     75  C   UNL A   1      33.856  34.785  30.961  1.00  0.00     0.198 A 
ATOM     76  C   UNL A   1      34.288  35.387  28.712  1.00  0.00     0.198 A 
ATOM     77  F   UNL A   1      35.764  34.129  27.362  1.00  0.00    -0.203 F 
ATOM     78  F   UNL A   1      33.310  35.043  32.162  1.00  0.00    -0.200 F 
ATOM     79  C   UNL A   1      33.682  35.669  29.928  1.00  0.00     0.200 A 
ATOM     80  F   UNL A   1      34.109  36.251  27.702  1.00  0.00    -0.200 F 
ATOM     81  F   UNL A   1      32.967  36.792  30.109  1.00  0.00    -0.200 F 
ENDBRANCH  47  71
BRANCH  59  82
ATOM     82  C   UNL A   1      39.904  32.476  33.283  1.00  0.00     0.064 A 
ATOM     83  C   UNL A   1      39.111  31.315  33.465  1.00  0.00     0.173 A 
ATOM     84  C   UNL A   1      40.322  33.117  34.458  1.00  0.00     0.173 A 
ATOM     85  F   UNL A   1      38.745  30.525  32.445  1.00  0.00    -0.203 F 
ATOM     86  C   UNL A   1      38.691  30.900  34.733  1.00  0.00     0.198 A 
ATOM     87  C   UNL A   1      39.956  32.662  35.724  1.00  0.00     0.198 A 
ATOM     88  F   UNL A   1      41.119  34.194  34.383  1.00  0.00    -0.203 F 
ATOM     89  F   UNL A   1      37.877  29.839  34.859  1.00  0.00    -0.200 F 
ATOM     90  C   UNL A   1      39.117  31.572  35.861  1.00  0.00     0.200 A 
ATOM     91  F   UNL A   1      40.427  33.286  36.811  1.00  0.00    -0.200 F 
ATOM     92  F   UNL A   1      38.739  31.161  37.079  1.00  0.00    -0.200 F 
ENDBRANCH  59  82
ENDBRANCH  33  34
ENDBRANCH  26  28
ENDBRANCH  25  26
ENDBRANCH  24  25
ENDBRANCH   1  24
TORSDOF 15
ENDMDL
MODEL 3
REMARK VINA RESULT:     -10.8      4.587      9.591
REMARK SMILES Cc1cc(C(=O)OCCOCCOC(=O)c2ccc(-c3c4nc(c(-c5c(F)c(F)c(F)c(F)c5F)c5ccc([nH]5)c(-c5c(F)c(F)c(F)c(F)c5F)c5nc(c(-c6c(F)c(F)c(F)c(F)c6F)c6ccc3[nH]6)C=C5)C=C4)cc2)c(C)n1[C@@H]1C[N@H+]2CC[C@@H]1CC2
REMARK SMILES IDX 11 1 10 2 9 3 8 4 7 5 5 6 6 7 4 8 1 9 2 10 3 11 81 12 79 13
REMARK SMILES IDX 80 14 82 15 83 16 87 17 84 18 88 19 86 20 89 21 85 22 12 24
REMARK SMILES IDX 13 25 14 26 15 27 16 28 17 29 78 30 18 31 77 32 19 33 20 34
REMARK SMILES IDX 21 35 71 36 22 37 76 38 70 39 72 40 23 41 75 42 69 43 68 44
REMARK SMILES IDX 24 46 56 47 36 48 55 49 37 50 40 51 54 52 73 53 38 54 39 55
REMARK SMILES IDX 53 57 74 58 41 59 25 60 26 61 34 62 27 63 28 64 32 65 35 66
REMARK SMILES IDX 29 67 30 68 33 69 31 70 57 71 58 72 66 73 59 74 60 75 64 76
REMARK SMILES IDX 67 77 61 78 62 79 65 80 63 81 42 82 43 83 51 84 44 85 45 86
REMARK SMILES IDX 49 87 52 88 46 89 47 90 50 91 48 92
REMARK H PARENT 84 23 72 45 40 56
REMARK Flexibility Score: inf
ROOT
ATOM      1  C   UNL A   1      39.552  21.858  26.491  1.00  0.00     0.202 C 
ENDROOT
BRANCH   1   2
ATOM      2  O   UNL A   1      38.626  21.658  25.407  1.00  0.00    -0.374 OA
BRANCH   2   3
ATOM      3  C   UNL A   1      37.410  22.403  25.464  1.00  0.00     0.202 C 
BRANCH   3   4
ATOM      4  C   UNL A   1      36.130  21.557  25.613  1.00  0.00     0.261 C 
BRANCH   4   5
ATOM      5  O   UNL A   1      35.428  21.456  24.370  1.00  0.00    -0.460 OA
BRANCH   5   6
ATOM      6  C   UNL A   1      34.081  21.668  24.420  1.00  0.00     0.340 C 
ATOM      7  O   UNL A   1      33.253  20.839  24.808  1.00  0.00    -0.246 OA
BRANCH   6   8
ATOM      8  C   UNL A   1      33.740  23.026  24.005  1.00  0.00     0.081 A 
ATOM      9  C   UNL A   1      32.838  25.527  21.446  1.00  0.00     0.064 C 
ATOM     10  C   UNL A   1      33.214  24.794  22.684  1.00  0.00     0.016 A 
ATOM     11  C   UNL A   1      33.643  23.485  22.678  1.00  0.00     0.038 A 
ATOM     12  N   UNL A   1      33.151  25.221  24.008  1.00  0.00    -0.339 N 
ATOM     13  C   UNL A   1      33.499  24.129  24.822  1.00  0.00     0.030 A 
ATOM     14  C   UNL A   1      33.613  24.135  26.318  1.00  0.00     0.065 C 
BRANCH  12  15
ATOM     15  C   UNL A   1      32.679  26.511  24.528  1.00  0.00     0.145 C 
ATOM     16  C   UNL A   1      31.399  27.076  23.869  1.00  0.00     0.288 C 
ATOM     17  C   UNL A   1      33.706  27.668  24.717  1.00  0.00     0.029 C 
ATOM     18  N   UNL A   1      31.501  28.539  23.618  1.00  0.00    -0.333 N 
ATOM     19  C   UNL A   1      33.011  28.734  25.607  1.00  0.00     0.067 C 
ATOM     20  C   UNL A   1      33.989  28.411  23.406  1.00  0.00     0.067 C 
ATOM     21  C   UNL A   1      31.732  29.234  24.904  1.00  0.00     0.262 C 
ATOM     22  C   UNL A   1      32.659  28.795  22.734  1.00  0.00     0.262 C 
ATOM     23  H   UNL A   1      30.641  28.874  23.185  1.00  0.00     0.348 HD
ENDBRANCH  12  15
ENDBRANCH   6   8
ENDBRANCH   5   6
ENDBRANCH   4   5
ENDBRANCH   3   4
ENDBRANCH   2   3
ENDBRANCH   1   2
BRANCH   1  24
ATOM     24  C   UNL A   1      40.927  21.150  26.348  1.00  0.00     0.261 C 
BRANCH  24  25
ATOM     25  O   UNL A   1      41.884  21.697  25.364  1.00  0.00    -0.460 OA
BRANCH  25  26
ATOM     26  C   UNL A   1      42.975  22.348  25.877  1.00  0.00     0.338 C 
ATOM     27  O   UNL A   1      44.050  21.790  26.076  1.00  0.00    -0.246 OA
BRANCH  26  28
ATOM     28  C   UNL A   1      42.849  23.852  26.164  1.00  0.00     0.060 A 
ATOM     29  C   UNL A   1      42.578  24.202  27.474  1.00  0.00     0.016 A 
ATOM     30  C   UNL A   1      42.767  24.930  25.254  1.00  0.00     0.016 A 
ATOM     31  C   UNL A   1      42.272  25.551  27.839  1.00  0.00     0.010 A 
ATOM     32  C   UNL A   1      42.360  26.314  25.638  1.00  0.00     0.010 A 
ATOM     33  C   UNL A   1      42.063  26.686  26.962  1.00  0.00    -0.014 A 
BRANCH  33  34
ATOM     34  C   UNL A   1      41.327  28.036  27.619  1.00  0.00     0.031 A 
ATOM     35  C   UNL A   1      42.453  29.007  27.707  1.00  0.00     0.074 A 
ATOM     36  C   UNL A   1      40.181  28.573  28.244  1.00  0.00     0.049 A 
ATOM     37  N   UNL A   1      43.486  28.684  28.433  1.00  0.00    -0.248 NA
ATOM     38  C   UNL A   1      42.692  30.083  26.743  1.00  0.00     0.031 C 
ATOM     39  C   UNL A   1      38.936  27.888  28.636  1.00  0.00     0.029 A 
ATOM     40  N   UNL A   1      39.853  29.907  28.719  1.00  0.00    -0.354 N 
ATOM     41  C   UNL A   1      44.441  29.638  28.207  1.00  0.00     0.074 A 
ATOM     42  C   UNL A   1      43.968  30.368  27.038  1.00  0.00     0.031 C 
ATOM     43  C   UNL A   1      37.991  28.755  29.116  1.00  0.00     0.029 A 
ATOM     44  C   UNL A   1      38.492  30.130  29.175  1.00  0.00     0.049 A 
ATOM     45  H   UNL A   1      40.524  30.627  28.732  1.00  0.00     0.167 HD
ATOM     46  C   UNL A   1      45.078  30.088  29.324  1.00  0.00     0.037 A 
ATOM     47  C   UNL A   1      37.830  31.277  29.643  1.00  0.00     0.037 A 
ATOM     48  C   UNL A   1      44.534  31.348  29.742  1.00  0.00     0.049 A 
ATOM     49  C   UNL A   1      38.861  32.152  30.210  1.00  0.00     0.074 A 
ATOM     50  C   UNL A   1      44.168  32.483  29.046  1.00  0.00     0.029 A 
ATOM     51  N   UNL A   1      43.821  31.359  30.918  1.00  0.00    -0.354 N 
ATOM     52  N   UNL A   1      39.340  31.935  31.396  1.00  0.00    -0.248 NA
ATOM     53  C   UNL A   1      39.292  33.394  29.576  1.00  0.00     0.031 C 
ATOM     54  C   UNL A   1      42.886  32.799  29.548  1.00  0.00     0.029 A 
ATOM     55  C   UNL A   1      42.701  32.141  30.757  1.00  0.00     0.049 A 
ATOM     56  H   UNL A   1      44.073  30.883  31.743  1.00  0.00     0.167 HD
ATOM     57  C   UNL A   1      40.476  32.670  31.402  1.00  0.00     0.074 A 
ATOM     58  C   UNL A   1      40.255  33.732  30.438  1.00  0.00     0.031 C 
ATOM     59  C   UNL A   1      41.603  31.973  31.673  1.00  0.00     0.037 A 
BRANCH  46  60
ATOM     60  C   UNL A   1      45.483  28.963  30.245  1.00  0.00     0.064 A 
ATOM     61  C   UNL A   1      46.814  28.534  30.239  1.00  0.00     0.173 A 
ATOM     62  C   UNL A   1      44.554  28.170  30.956  1.00  0.00     0.173 A 
ATOM     63  F   UNL A   1      47.755  29.279  29.642  1.00  0.00    -0.203 F 
ATOM     64  C   UNL A   1      47.181  27.326  30.834  1.00  0.00     0.198 A 
ATOM     65  C   UNL A   1      44.907  26.927  31.472  1.00  0.00     0.198 A 
ATOM     66  F   UNL A   1      43.288  28.587  31.131  1.00  0.00    -0.203 F 
ATOM     67  F   UNL A   1      48.466  26.948  30.835  1.00  0.00    -0.200 F 
ATOM     68  C   UNL A   1      46.222  26.503  31.406  1.00  0.00     0.200 A 
ATOM     69  F   UNL A   1      43.970  26.141  32.024  1.00  0.00    -0.200 F 
ATOM     70  F   UNL A   1      46.567  25.309  31.908  1.00  0.00    -0.200 F 
ENDBRANCH  46  60
BRANCH  47  71
ATOM     71  C   UNL A   1      36.436  31.911  30.006  1.00  0.00     0.064 A 
ATOM     72  C   UNL A   1      35.885  31.827  31.342  1.00  0.00     0.173 A 
ATOM     73  C   UNL A   1      35.850  32.930  29.244  1.00  0.00     0.173 A 
ATOM     74  F   UNL A   1      36.277  30.882  32.208  1.00  0.00    -0.203 F 
ATOM     75  C   UNL A   1      34.964  32.742  31.884  1.00  0.00     0.198 A 
ATOM     76  C   UNL A   1      34.886  33.830  29.783  1.00  0.00     0.198 A 
ATOM     77  F   UNL A   1      36.259  33.140  27.987  1.00  0.00    -0.203 F 
ATOM     78  F   UNL A   1      34.615  32.664  33.180  1.00  0.00    -0.200 F 
ATOM     79  C   UNL A   1      34.477  33.761  31.107  1.00  0.00     0.200 A 
ATOM     80  F   UNL A   1      34.402  34.824  29.023  1.00  0.00    -0.200 F 
ATOM     81  F   UNL A   1      33.651  34.680  31.632  1.00  0.00    -0.200 F 
ENDBRANCH  47  71
BRANCH  59  82
ATOM     82  C   UNL A   1      41.529  30.953  32.800  1.00  0.00     0.064 A 
ATOM     83  C   UNL A   1      41.039  29.624  32.732  1.00  0.00     0.173 A 
ATOM     84  C   UNL A   1      41.923  31.390  34.074  1.00  0.00     0.173 A 
ATOM     85  F   UNL A   1      40.746  29.023  31.569  1.00  0.00    -0.203 F 
ATOM     86  C   UNL A   1      40.867  28.841  33.877  1.00  0.00     0.198 A 
ATOM     87  C   UNL A   1      41.811  30.582  35.204  1.00  0.00     0.198 A 
ATOM     88  F   UNL A   1      42.447  32.616  34.225  1.00  0.00    -0.203 F 
ATOM     89  F   UNL A   1      40.328  27.615  33.781  1.00  0.00    -0.200 F 
ATOM     90  C   UNL A   1      41.256  29.320  35.112  1.00  0.00     0.200 A 
ATOM     91  F   UNL A   1      42.251  31.037  36.385  1.00  0.00    -0.200 F 
ATOM     92  F   UNL A   1      41.117  28.562  36.208  1.00  0.00    -0.200 F 
ENDBRANCH  59  82
ENDBRANCH  33  34
ENDBRANCH  26  28
ENDBRANCH  25  26
ENDBRANCH  24  25
ENDBRANCH   1  24
TORSDOF 15
ENDMDL
