MODEL 1
REMARK VINA RESULT:     -11.6      0.000      0.000
REMARK SMILES O=C(OCCOCCOC(=O)c1c(-c2ccc(Cl)cc2)noc1CO[C@@H]1CCCCO1)c1ccc(-c2c3nc(c(-c4c(F)c(F)c(F)c(F)c4F)c4ccc([nH]4)c(-c4c(F)c(F)c(F)c(F)c4F)c4nc(c(-c5c(F)c(F)c(F)c(F)c5F)c5ccc2[nH]5)C=C4)C=C3)cc1
REMARK SMILES IDX 7 1 6 2 5 3 4 4 3 5 2 6 1 7 32 8 33 9 94 10 34 11 93 12
REMARK SMILES IDX 35 13 36 14 37 15 87 16 38 17 92 18 86 19 88 20 39 21 91 22
REMARK SMILES IDX 85 23 84 24 40 26 72 27 52 28 71 29 53 30 56 31 70 32 89 33
REMARK SMILES IDX 54 34 55 35 69 37 90 38 57 39 41 40 42 41 50 42 43 43 44 44
REMARK SMILES IDX 48 45 51 46 45 47 46 48 49 49 47 50 73 51 74 52 82 53 75 54
REMARK SMILES IDX 76 55 80 56 83 57 77 58 78 59 81 60 79 61 58 62 59 63 67 64
REMARK SMILES IDX 60 65 61 66 65 67 68 68 62 69 63 70 66 71 64 72 8 73 9 74
REMARK SMILES IDX 10 75 11 76 12 77 13 78 23 79 21 80 22 81 14 82 15 83 20 84
REMARK SMILES IDX 16 85 19 86 17 87 18 88 24 89 25 90 26 91 27 92 31 93 28 94
REMARK SMILES IDX 30 95 29 96
REMARK H PARENT 88 25 56 36
REMARK Flexibility Score: inf
ROOT
ATOM      1  C   UNL A   1      33.564  27.005  25.765  1.00  0.00     0.202 C 
ENDROOT
BRANCH   1   2
ATOM      2  O   UNL A   1      32.551  26.941  26.769  1.00  0.00    -0.374 OA
BRANCH   2   3
ATOM      3  C   UNL A   1      31.527  27.917  26.698  1.00  0.00     0.202 C 
BRANCH   3   4
ATOM      4  C   UNL A   1      31.932  29.333  26.269  1.00  0.00     0.261 C 
BRANCH   4   5
ATOM      5  O   UNL A   1      32.375  30.179  27.351  1.00  0.00    -0.460 OA
BRANCH   5   6
ATOM      6  C   UNL A   1      33.328  31.138  27.187  1.00  0.00     0.338 C 
ATOM      7  O   UNL A   1      33.153  32.113  26.469  1.00  0.00    -0.246 OA
BRANCH   6   8
ATOM      8  C   UNL A   1      34.625  30.948  27.875  1.00  0.00     0.060 A 
ATOM      9  C   UNL A   1      34.973  29.689  28.337  1.00  0.00     0.016 A 
ATOM     10  C   UNL A   1      35.529  31.995  28.030  1.00  0.00     0.016 A 
ATOM     11  C   UNL A   1      36.059  29.497  29.160  1.00  0.00     0.010 A 
ATOM     12  C   UNL A   1      36.744  31.758  28.686  1.00  0.00     0.010 A 
ATOM     13  C   UNL A   1      37.005  30.507  29.279  1.00  0.00    -0.014 A 
BRANCH  13  14
ATOM     14  C   UNL A   1      38.255  30.219  30.017  1.00  0.00     0.031 A 
ATOM     15  C   UNL A   1      39.324  29.423  29.341  1.00  0.00     0.074 A 
ATOM     16  C   UNL A   1      38.445  30.724  31.253  1.00  0.00     0.049 A 
ATOM     17  N   UNL A   1      40.361  28.824  29.858  1.00  0.00    -0.248 NA
ATOM     18  C   UNL A   1      39.194  29.261  27.883  1.00  0.00     0.031 C 
ATOM     19  C   UNL A   1      37.521  31.616  31.962  1.00  0.00     0.029 A 
ATOM     20  N   UNL A   1      39.493  30.592  32.126  1.00  0.00    -0.354 N 
ATOM     21  C   UNL A   1      40.952  28.134  28.808  1.00  0.00     0.074 A 
ATOM     22  C   UNL A   1      40.176  28.415  27.619  1.00  0.00     0.031 C 
ATOM     23  C   UNL A   1      38.077  32.014  33.114  1.00  0.00     0.029 A 
ATOM     24  C   UNL A   1      39.320  31.286  33.301  1.00  0.00     0.049 A 
ATOM     25  H   UNL A   1      40.293  30.052  31.931  1.00  0.00     0.167 HD
ATOM     26  C   UNL A   1      42.028  27.317  28.863  1.00  0.00     0.037 A 
ATOM     27  C   UNL A   1      40.051  31.277  34.430  1.00  0.00     0.037 A 
ATOM     28  C   UNL A   1      42.792  27.113  30.065  1.00  0.00     0.049 A 
ATOM     29  C   UNL A   1      41.223  30.338  34.482  1.00  0.00     0.074 A 
ATOM     30  C   UNL A   1      43.859  26.266  30.290  1.00  0.00     0.029 A 
ATOM     31  N   UNL A   1      42.565  27.801  31.253  1.00  0.00    -0.354 N 
ATOM     32  N   UNL A   1      41.696  29.559  33.537  1.00  0.00    -0.248 NA
ATOM     33  C   UNL A   1      41.931  30.238  35.761  1.00  0.00     0.031 C 
ATOM     34  C   UNL A   1      44.262  26.423  31.623  1.00  0.00     0.029 A 
ATOM     35  C   UNL A   1      43.473  27.398  32.217  1.00  0.00     0.049 A 
ATOM     36  H   UNL A   1      41.862  28.476  31.389  1.00  0.00     0.167 HD
ATOM     37  C   UNL A   1      42.756  28.872  34.105  1.00  0.00     0.074 A 
ATOM     38  C   UNL A   1      42.872  29.350  35.471  1.00  0.00     0.031 C 
ATOM     39  C   UNL A   1      43.551  27.918  33.560  1.00  0.00     0.037 A 
BRANCH  26  40
ATOM     40  C   UNL A   1      42.347  26.534  27.623  1.00  0.00     0.064 A 
ATOM     41  C   UNL A   1      41.759  25.290  27.349  1.00  0.00     0.173 A 
ATOM     42  C   UNL A   1      43.327  27.004  26.735  1.00  0.00     0.173 A 
ATOM     43  F   UNL A   1      40.840  24.778  28.182  1.00  0.00    -0.203 F 
ATOM     44  C   UNL A   1      42.177  24.524  26.261  1.00  0.00     0.198 A 
ATOM     45  C   UNL A   1      43.720  26.250  25.633  1.00  0.00     0.198 A 
ATOM     46  F   UNL A   1      43.926  28.184  26.953  1.00  0.00    -0.203 F 
ATOM     47  F   UNL A   1      41.662  23.302  26.066  1.00  0.00    -0.200 F 
ATOM     48  C   UNL A   1      43.157  25.004  25.405  1.00  0.00     0.200 A 
ATOM     49  F   UNL A   1      44.668  26.717  24.807  1.00  0.00    -0.200 F 
ATOM     50  F   UNL A   1      43.575  24.257  24.374  1.00  0.00    -0.200 F 
ENDBRANCH  26  40
BRANCH  27  51
ATOM     51  C   UNL A   1      39.648  32.106  35.599  1.00  0.00     0.064 A 
ATOM     52  C   UNL A   1      40.210  33.372  35.814  1.00  0.00     0.173 A 
ATOM     53  C   UNL A   1      38.677  31.667  36.515  1.00  0.00     0.173 A 
ATOM     54  F   UNL A   1      41.157  33.832  34.984  1.00  0.00    -0.203 F 
ATOM     55  C   UNL A   1      39.819  34.162  36.894  1.00  0.00     0.198 A 
ATOM     56  C   UNL A   1      38.263  32.471  37.575  1.00  0.00     0.198 A 
ATOM     57  F   UNL A   1      38.105  30.463  36.365  1.00  0.00    -0.203 F 
ATOM     58  F   UNL A   1      40.399  35.354  37.094  1.00  0.00    -0.200 F 
ATOM     59  C   UNL A   1      38.839  33.716  37.768  1.00  0.00     0.200 A 
ATOM     60  F   UNL A   1      37.300  32.043  38.403  1.00  0.00    -0.200 F 
ATOM     61  F   UNL A   1      38.453  34.483  38.797  1.00  0.00    -0.200 F 
ENDBRANCH  27  51
BRANCH  39  62
ATOM     62  C   UNL A   1      44.629  27.370  34.440  1.00  0.00     0.064 A 
ATOM     63  C   UNL A   1      45.882  27.990  34.531  1.00  0.00     0.173 A 
ATOM     64  C   UNL A   1      44.385  26.237  35.228  1.00  0.00     0.173 A 
ATOM     65  F   UNL A   1      46.163  29.063  33.777  1.00  0.00    -0.203 F 
ATOM     66  C   UNL A   1      46.864  27.483  35.377  1.00  0.00     0.198 A 
ATOM     67  C   UNL A   1      45.360  25.749  36.091  1.00  0.00     0.198 A 
ATOM     68  F   UNL A   1      43.198  25.615  35.170  1.00  0.00    -0.203 F 
ATOM     69  F   UNL A   1      48.070  28.064  35.423  1.00  0.00    -0.200 F 
ATOM     70  C   UNL A   1      46.599  26.369  36.160  1.00  0.00     0.200 A 
ATOM     71  F   UNL A   1      45.101  24.678  36.853  1.00  0.00    -0.200 F 
ATOM     72  F   UNL A   1      47.543  25.887  36.981  1.00  0.00    -0.200 F 
ENDBRANCH  39  62
ENDBRANCH  13  14
ENDBRANCH   6   8
ENDBRANCH   5   6
ENDBRANCH   4   5
ENDBRANCH   3   4
ENDBRANCH   2   3
ENDBRANCH   1   2
BRANCH   1  73
ATOM     73  C   UNL A   1      33.729  25.602  25.190  1.00  0.00     0.261 C 
BRANCH  73  74
ATOM     74  O   UNL A   1      32.490  24.908  25.377  1.00  0.00    -0.459 OA
BRANCH  74  75
ATOM     75  C   UNL A   1      31.606  24.941  24.337  1.00  0.00     0.344 C 
ATOM     76  O   UNL A   1      30.425  25.231  24.420  1.00  0.00    -0.246 OA
BRANCH  75  77
ATOM     77  C   UNL A   1      32.291  24.703  23.093  1.00  0.00     0.133 A 
ATOM     78  C   UNL A   1      32.804  23.488  22.553  1.00  0.00     0.128 A 
ATOM     79  C   UNL A   1      32.588  25.656  22.142  1.00  0.00     0.177 A 
ATOM     80  N   UNL A   1      33.282  23.691  21.315  1.00  0.00    -0.079 NA
ATOM     81  O   UNL A   1      33.167  25.047  21.074  1.00  0.00    -0.357 OA
BRANCH  78  82
ATOM     82  C   UNL A   1      32.809  22.154  23.144  1.00  0.00     0.005 A 
ATOM     83  C   UNL A   1      33.528  21.897  24.320  1.00  0.00     0.012 A 
ATOM     84  C   UNL A   1      32.113  21.105  22.530  1.00  0.00     0.012 A 
ATOM     85  C   UNL A   1      33.603  20.596  24.832  1.00  0.00     0.021 A 
ATOM     86  C   UNL A   1      32.175  19.809  23.049  1.00  0.00     0.021 A 
ATOM     87  C   UNL A   1      32.934  19.557  24.188  1.00  0.00     0.041 A 
ATOM     88  Cl  UNL A   1      33.054  17.952  24.797  1.00  0.00    -0.084 Cl
ENDBRANCH  78  82
BRANCH  79  89
ATOM     89  C   UNL A   1      32.475  27.137  22.087  1.00  0.00     0.242 C 
BRANCH  89  90
ATOM     90  O   UNL A   1      31.088  27.456  22.028  1.00  0.00    -0.345 OA
BRANCH  90  91
ATOM     91  C   UNL A   1      30.712  28.740  22.545  1.00  0.00     0.250 C 
ATOM     92  C   UNL A   1      29.614  28.477  23.584  1.00  0.00     0.062 C 
ATOM     93  O   UNL A   1      30.327  29.670  21.532  1.00  0.00    -0.353 OA
ATOM     94  C   UNL A   1      28.275  28.311  22.874  1.00  0.00     0.008 C 
ATOM     95  C   UNL A   1      29.169  30.443  21.824  1.00  0.00     0.163 C 
ATOM     96  C   UNL A   1      27.952  29.554  22.049  1.00  0.00     0.029 C 
ENDBRANCH  90  91
ENDBRANCH  89  90
ENDBRANCH  79  89
ENDBRANCH  75  77
ENDBRANCH  74  75
ENDBRANCH  73  74
ENDBRANCH   1  73
TORSDOF 18
ENDMDL
MODEL 2
REMARK VINA RESULT:     -11.6      1.569      2.159
REMARK SMILES O=C(OCCOCCOC(=O)c1c(-c2ccc(Cl)cc2)noc1CO[C@@H]1CCCCO1)c1ccc(-c2c3nc(c(-c4c(F)c(F)c(F)c(F)c4F)c4ccc([nH]4)c(-c4c(F)c(F)c(F)c(F)c4F)c4nc(c(-c5c(F)c(F)c(F)c(F)c5F)c5ccc2[nH]5)C=C4)C=C3)cc1
REMARK SMILES IDX 7 1 6 2 5 3 4 4 3 5 2 6 1 7 32 8 33 9 94 10 34 11 93 12
REMARK SMILES IDX 35 13 36 14 37 15 87 16 38 17 92 18 86 19 88 20 39 21 91 22
REMARK SMILES IDX 85 23 84 24 40 26 72 27 52 28 71 29 53 30 56 31 70 32 89 33
REMARK SMILES IDX 54 34 55 35 69 37 90 38 57 39 41 40 42 41 50 42 43 43 44 44
REMARK SMILES IDX 48 45 51 46 45 47 46 48 49 49 47 50 73 51 74 52 82 53 75 54
REMARK SMILES IDX 76 55 80 56 83 57 77 58 78 59 81 60 79 61 58 62 59 63 67 64
REMARK SMILES IDX 60 65 61 66 65 67 68 68 62 69 63 70 66 71 64 72 8 73 9 74
REMARK SMILES IDX 10 75 11 76 12 77 13 78 23 79 21 80 22 81 14 82 15 83 20 84
REMARK SMILES IDX 16 85 19 86 17 87 18 88 24 89 25 90 26 91 27 92 31 93 28 94
REMARK SMILES IDX 30 95 29 96
REMARK H PARENT 88 25 56 36
REMARK Flexibility Score: inf
ROOT
ATOM      1  C   UNL A   1      33.296  29.168  25.973  1.00  0.00     0.202 C 
ENDROOT
BRANCH   1   2
ATOM      2  O   UNL A   1      33.030  30.385  26.671  1.00  0.00    -0.374 OA
BRANCH   2   3
ATOM      3  C   UNL A   1      31.704  30.878  26.600  1.00  0.00     0.202 C 
BRANCH   3   4
ATOM      4  C   UNL A   1      31.486  32.361  26.926  1.00  0.00     0.261 C 
BRANCH   4   5
ATOM      5  O   UNL A   1      32.697  33.143  26.977  1.00  0.00    -0.460 OA
BRANCH   5   6
ATOM      6  C   UNL A   1      33.088  33.814  28.098  1.00  0.00     0.338 C 
ATOM      7  O   UNL A   1      32.453  34.760  28.543  1.00  0.00    -0.246 OA
BRANCH   6   8
ATOM      8  C   UNL A   1      34.348  33.394  28.750  1.00  0.00     0.060 A 
ATOM      9  C   UNL A   1      34.434  32.134  29.320  1.00  0.00     0.016 A 
ATOM     10  C   UNL A   1      35.471  34.217  28.765  1.00  0.00     0.016 A 
ATOM     11  C   UNL A   1      35.498  31.772  30.115  1.00  0.00     0.010 A 
ATOM     12  C   UNL A   1      36.640  33.767  29.393  1.00  0.00     0.010 A 
ATOM     13  C   UNL A   1      36.650  32.546  30.096  1.00  0.00    -0.014 A 
BRANCH  13  14
ATOM     14  C   UNL A   1      37.846  32.046  30.809  1.00  0.00     0.031 A 
ATOM     15  C   UNL A   1      38.758  31.092  30.107  1.00  0.00     0.074 A 
ATOM     16  C   UNL A   1      38.137  32.498  32.047  1.00  0.00     0.049 A 
ATOM     17  N   UNL A   1      39.689  30.324  30.601  1.00  0.00    -0.248 NA
ATOM     18  C   UNL A   1      38.580  30.971  28.651  1.00  0.00     0.031 C 
ATOM     19  C   UNL A   1      37.385  33.523  32.780  1.00  0.00     0.029 A 
ATOM     20  N   UNL A   1      39.162  32.184  32.900  1.00  0.00    -0.354 N 
ATOM     21  C   UNL A   1      40.141  29.558  29.535  1.00  0.00     0.074 A 
ATOM     22  C   UNL A   1      39.404  29.977  28.362  1.00  0.00     0.031 C 
ATOM     23  C   UNL A   1      38.017  33.810  33.925  1.00  0.00     0.029 A 
ATOM     24  C   UNL A   1      39.126  32.884  34.083  1.00  0.00     0.049 A 
ATOM     25  H   UNL A   1      39.858  31.521  32.686  1.00  0.00     0.167 HD
ATOM     26  C   UNL A   1      41.067  28.573  29.564  1.00  0.00     0.037 A 
ATOM     27  C   UNL A   1      39.863  32.740  35.200  1.00  0.00     0.037 A 
ATOM     28  C   UNL A   1      41.806  28.231  30.750  1.00  0.00     0.049 A 
ATOM     29  C   UNL A   1      40.863  31.620  35.223  1.00  0.00     0.074 A 
ATOM     30  C   UNL A   1      42.721  27.216  30.949  1.00  0.00     0.029 A 
ATOM     31  N   UNL A   1      41.715  28.933  31.948  1.00  0.00    -0.354 N 
ATOM     32  N   UNL A   1      41.186  30.784  34.263  1.00  0.00    -0.248 NA
ATOM     33  C   UNL A   1      41.565  31.388  36.488  1.00  0.00     0.031 C 
ATOM     34  C   UNL A   1      43.166  27.288  32.276  1.00  0.00     0.029 A 
ATOM     35  C   UNL A   1      42.559  28.374  32.892  1.00  0.00     0.049 A 
ATOM     36  H   UNL A   1      41.136  29.714  32.102  1.00  0.00     0.167 HD
ATOM     37  C   UNL A   1      42.125  29.924  34.806  1.00  0.00     0.074 A 
ATOM     38  C   UNL A   1      42.341  30.360  36.173  1.00  0.00     0.031 C 
ATOM     39  C   UNL A   1      42.743  28.858  34.238  1.00  0.00     0.037 A 
BRANCH  26  40
ATOM     40  C   UNL A   1      41.232  27.763  28.311  1.00  0.00     0.064 A 
ATOM     41  C   UNL A   1      40.438  26.640  28.034  1.00  0.00     0.173 A 
ATOM     42  C   UNL A   1      42.266  28.071  27.413  1.00  0.00     0.173 A 
ATOM     43  F   UNL A   1      39.457  26.282  28.875  1.00  0.00    -0.203 F 
ATOM     44  C   UNL A   1      40.706  25.828  26.932  1.00  0.00     0.198 A 
ATOM     45  C   UNL A   1      42.512  27.275  26.298  1.00  0.00     0.198 A 
ATOM     46  F   UNL A   1      43.060  29.129  27.634  1.00  0.00    -0.203 F 
ATOM     47  F   UNL A   1      39.988  24.714  26.732  1.00  0.00    -0.200 F 
ATOM     48  C   UNL A   1      41.741  26.145  26.066  1.00  0.00     0.200 A 
ATOM     49  F   UNL A   1      43.514  27.584  25.463  1.00  0.00    -0.200 F 
ATOM     50  F   UNL A   1      42.013  25.350  25.021  1.00  0.00    -0.200 F 
ENDBRANCH  26  40
BRANCH  27  51
ATOM     51  C   UNL A   1      39.622  33.610  36.383  1.00  0.00     0.064 A 
ATOM     52  C   UNL A   1      40.202  34.883  36.473  1.00  0.00     0.173 A 
ATOM     53  C   UNL A   1      38.788  33.205  37.439  1.00  0.00     0.173 A 
ATOM     54  F   UNL A   1      41.024  35.312  35.505  1.00  0.00    -0.203 F 
ATOM     55  C   UNL A   1      39.961  35.711  37.569  1.00  0.00     0.198 A 
ATOM     56  C   UNL A   1      38.521  34.047  38.517  1.00  0.00     0.198 A 
ATOM     57  F   UNL A   1      38.206  31.996  37.412  1.00  0.00    -0.203 F 
ATOM     58  F   UNL A   1      40.557  36.909  37.644  1.00  0.00    -0.200 F 
ATOM     59  C   UNL A   1      39.112  35.297  38.585  1.00  0.00     0.200 A 
ATOM     60  F   UNL A   1      37.683  33.648  39.484  1.00  0.00    -0.200 F 
ATOM     61  F   UNL A   1      38.868  36.101  39.629  1.00  0.00    -0.200 F 
ENDBRANCH  27  51
BRANCH  39  62
ATOM     62  C   UNL A   1      43.729  28.128  35.094  1.00  0.00     0.064 A 
ATOM     63  C   UNL A   1      45.061  28.550  35.194  1.00  0.00     0.173 A 
ATOM     64  C   UNL A   1      43.319  27.023  35.851  1.00  0.00     0.173 A 
ATOM     65  F   UNL A   1      45.498  29.591  34.468  1.00  0.00    -0.203 F 
ATOM     66  C   UNL A   1      45.958  27.877  36.017  1.00  0.00     0.198 A 
ATOM     67  C   UNL A   1      44.213  26.368  36.693  1.00  0.00     0.198 A 
ATOM     68  F   UNL A   1      42.052  26.588  35.784  1.00  0.00    -0.203 F 
ATOM     69  F   UNL A   1      47.238  28.268  36.071  1.00  0.00    -0.200 F 
ATOM     70  C   UNL A   1      45.531  26.792  36.770  1.00  0.00     0.200 A 
ATOM     71  F   UNL A   1      43.797  25.327  37.426  1.00  0.00    -0.200 F 
ATOM     72  F   UNL A   1      46.394  26.150  37.570  1.00  0.00    -0.200 F 
ENDBRANCH  39  62
ENDBRANCH  13  14
ENDBRANCH   6   8
ENDBRANCH   5   6
ENDBRANCH   4   5
ENDBRANCH   3   4
ENDBRANCH   2   3
ENDBRANCH   1   2
BRANCH   1  73
ATOM     73  C   UNL A   1      32.132  28.221  26.243  1.00  0.00     0.261 C 
BRANCH  73  74
ATOM     74  O   UNL A   1      32.495  26.931  25.735  1.00  0.00    -0.459 OA
BRANCH  74  75
ATOM     75  C   UNL A   1      31.725  26.431  24.725  1.00  0.00     0.344 C 
ATOM     76  O   UNL A   1      30.567  26.066  24.830  1.00  0.00    -0.246 OA
BRANCH  75  77
ATOM     77  C   UNL A   1      32.435  26.506  23.473  1.00  0.00     0.133 A 
ATOM     78  C   UNL A   1      33.417  25.629  22.929  1.00  0.00     0.128 A 
ATOM     79  C   UNL A   1      32.283  27.489  22.520  1.00  0.00     0.177 A 
ATOM     80  N   UNL A   1      33.749  26.011  21.686  1.00  0.00    -0.079 NA
ATOM     81  O   UNL A   1      33.057  27.184  21.445  1.00  0.00    -0.357 OA
BRANCH  78  82
ATOM     82  C   UNL A   1      34.003  24.430  23.521  1.00  0.00     0.005 A 
ATOM     83  C   UNL A   1      33.485  23.161  23.224  1.00  0.00     0.012 A 
ATOM     84  C   UNL A   1      35.079  24.534  24.411  1.00  0.00     0.012 A 
ATOM     85  C   UNL A   1      33.992  22.023  23.864  1.00  0.00     0.021 A 
ATOM     86  C   UNL A   1      35.596  23.397  25.039  1.00  0.00     0.021 A 
ATOM     87  C   UNL A   1      35.039  22.149  24.776  1.00  0.00     0.041 A 
ATOM     88  Cl  UNL A   1      35.640  20.757  25.588  1.00  0.00    -0.084 Cl
ENDBRANCH  78  82
BRANCH  79  89
ATOM     89  C   UNL A   1      31.540  28.776  22.464  1.00  0.00     0.242 C 
BRANCH  89  90
ATOM     90  O   UNL A   1      30.184  28.472  22.158  1.00  0.00    -0.345 OA
BRANCH  90  91
ATOM     91  C   UNL A   1      29.191  29.158  22.934  1.00  0.00     0.250 C 
ATOM     92  C   UNL A   1      28.134  29.648  21.937  1.00  0.00     0.062 C 
ATOM     93  O   UNL A   1      29.729  30.199  23.752  1.00  0.00    -0.353 OA
ATOM     94  C   UNL A   1      28.606  30.947  21.295  1.00  0.00     0.008 C 
ATOM     95  C   UNL A   1      28.984  31.410  23.762  1.00  0.00     0.163 C 
ATOM     96  C   UNL A   1      28.872  32.003  22.363  1.00  0.00     0.029 C 
ENDBRANCH  90  91
ENDBRANCH  89  90
ENDBRANCH  79  89
ENDBRANCH  75  77
ENDBRANCH  74  75
ENDBRANCH  73  74
ENDBRANCH   1  73
TORSDOF 18
ENDMDL
MODEL 3
REMARK VINA RESULT:     -11.5      2.207      8.369
REMARK SMILES O=C(OCCOCCOC(=O)c1c(-c2ccc(Cl)cc2)noc1CO[C@@H]1CCCCO1)c1ccc(-c2c3nc(c(-c4c(F)c(F)c(F)c(F)c4F)c4ccc([nH]4)c(-c4c(F)c(F)c(F)c(F)c4F)c4nc(c(-c5c(F)c(F)c(F)c(F)c5F)c5ccc2[nH]5)C=C4)C=C3)cc1
REMARK SMILES IDX 7 1 6 2 5 3 4 4 3 5 2 6 1 7 32 8 33 9 94 10 34 11 93 12
REMARK SMILES IDX 35 13 36 14 37 15 87 16 38 17 92 18 86 19 88 20 39 21 91 22
REMARK SMILES IDX 85 23 84 24 40 26 72 27 52 28 71 29 53 30 56 31 70 32 89 33
REMARK SMILES IDX 54 34 55 35 69 37 90 38 57 39 41 40 42 41 50 42 43 43 44 44
REMARK SMILES IDX 48 45 51 46 45 47 46 48 49 49 47 50 73 51 74 52 82 53 75 54
REMARK SMILES IDX 76 55 80 56 83 57 77 58 78 59 81 60 79 61 58 62 59 63 67 64
REMARK SMILES IDX 60 65 61 66 65 67 68 68 62 69 63 70 66 71 64 72 8 73 9 74
REMARK SMILES IDX 10 75 11 76 12 77 13 78 23 79 21 80 22 81 14 82 15 83 20 84
REMARK SMILES IDX 16 85 19 86 17 87 18 88 24 89 25 90 26 91 27 92 31 93 28 94
REMARK SMILES IDX 30 95 29 96
REMARK H PARENT 88 25 56 36
REMARK Flexibility Score: inf
ROOT
ATOM      1  C   UNL A   1      33.193  29.303  25.883  1.00  0.00     0.202 C 
ENDROOT
BRANCH   1   2
ATOM      2  O   UNL A   1      33.044  30.598  26.466  1.00  0.00    -0.374 OA
BRANCH   2   3
ATOM      3  C   UNL A   1      31.718  31.063  26.643  1.00  0.00     0.202 C 
BRANCH   3   4
ATOM      4  C   UNL A   1      31.523  32.568  26.864  1.00  0.00     0.261 C 
BRANCH   4   5
ATOM      5  O   UNL A   1      32.747  33.331  26.881  1.00  0.00    -0.460 OA
BRANCH   5   6
ATOM      6  C   UNL A   1      33.255  33.874  28.023  1.00  0.00     0.338 C 
ATOM      7  O   UNL A   1      32.798  34.897  28.514  1.00  0.00    -0.246 OA
BRANCH   6   8
ATOM      8  C   UNL A   1      34.425  33.212  28.642  1.00  0.00     0.060 A 
ATOM      9  C   UNL A   1      34.327  31.890  29.045  1.00  0.00     0.016 A 
ATOM     10  C   UNL A   1      35.643  33.872  28.788  1.00  0.00     0.016 A 
ATOM     11  C   UNL A   1      35.304  31.294  29.809  1.00  0.00     0.010 A 
ATOM     12  C   UNL A   1      36.719  33.196  29.378  1.00  0.00     0.010 A 
ATOM     13  C   UNL A   1      36.546  31.905  29.916  1.00  0.00    -0.014 A 
BRANCH  13  14
ATOM     14  C   UNL A   1      37.640  31.166  30.584  1.00  0.00     0.031 A 
ATOM     15  C   UNL A   1      37.837  31.344  32.055  1.00  0.00     0.074 A 
ATOM     16  C   UNL A   1      38.400  30.299  29.884  1.00  0.00     0.049 A 
ATOM     17  N   UNL A   1      38.864  31.030  32.795  1.00  0.00    -0.248 NA
ATOM     18  C   UNL A   1      36.733  31.985  32.788  1.00  0.00     0.031 C 
ATOM     19  C   UNL A   1      38.217  29.953  28.469  1.00  0.00     0.029 A 
ATOM     20  N   UNL A   1      39.459  29.519  30.268  1.00  0.00    -0.354 N 
ATOM     21  C   UNL A   1      38.573  31.521  34.060  1.00  0.00     0.074 A 
ATOM     22  C   UNL A   1      37.260  32.126  33.994  1.00  0.00     0.031 C 
ATOM     23  C   UNL A   1      39.071  28.978  28.132  1.00  0.00     0.029 A 
ATOM     24  C   UNL A   1      39.965  28.741  29.253  1.00  0.00     0.049 A 
ATOM     25  H   UNL A   1      39.823  29.516  31.183  1.00  0.00     0.167 HD
ATOM     26  C   UNL A   1      39.363  31.489  35.157  1.00  0.00     0.037 A 
ATOM     27  C   UNL A   1      41.071  27.977  29.214  1.00  0.00     0.037 A 
ATOM     28  C   UNL A   1      40.641  30.830  35.179  1.00  0.00     0.049 A 
ATOM     29  C   UNL A   1      41.951  27.980  30.431  1.00  0.00     0.074 A 
ATOM     30  C   UNL A   1      41.580  30.773  36.191  1.00  0.00     0.029 A 
ATOM     31  N   UNL A   1      41.147  30.084  34.118  1.00  0.00    -0.354 N 
ATOM     32  N   UNL A   1      41.758  28.577  31.585  1.00  0.00    -0.248 NA
ATOM     33  C   UNL A   1      43.219  27.252  30.331  1.00  0.00     0.031 C 
ATOM     34  C   UNL A   1      42.665  30.014  35.732  1.00  0.00     0.029 A 
ATOM     35  C   UNL A   1      42.384  29.562  34.450  1.00  0.00     0.049 A 
ATOM     36  H   UNL A   1      40.690  29.946  33.257  1.00  0.00     0.167 HD
ATOM     37  C   UNL A   1      42.880  28.300  32.349  1.00  0.00     0.074 A 
ATOM     38  C   UNL A   1      43.736  27.457  31.535  1.00  0.00     0.031 C 
ATOM     39  C   UNL A   1      43.189  28.717  33.603  1.00  0.00     0.037 A 
BRANCH  26  40
ATOM     40  C   UNL A   1      38.895  32.268  36.352  1.00  0.00     0.064 A 
ATOM     41  C   UNL A   1      39.316  33.582  36.603  1.00  0.00     0.173 A 
ATOM     42  C   UNL A   1      38.072  31.651  37.307  1.00  0.00     0.173 A 
ATOM     43  F   UNL A   1      40.129  34.208  35.739  1.00  0.00    -0.203 F 
ATOM     44  C   UNL A   1      38.974  34.229  37.790  1.00  0.00     0.198 A 
ATOM     45  C   UNL A   1      37.708  32.311  38.477  1.00  0.00     0.198 A 
ATOM     46  F   UNL A   1      37.646  30.393  37.121  1.00  0.00    -0.203 F 
ATOM     47  F   UNL A   1      39.456  35.454  38.048  1.00  0.00    -0.200 F 
ATOM     48  C   UNL A   1      38.171  33.594  38.725  1.00  0.00     0.200 A 
ATOM     49  F   UNL A   1      36.932  31.695  39.380  1.00  0.00    -0.200 F 
ATOM     50  F   UNL A   1      37.863  34.209  39.876  1.00  0.00    -0.200 F 
ENDBRANCH  26  40
BRANCH  27  51
ATOM     51  C   UNL A   1      41.435  27.234  27.976  1.00  0.00     0.064 A 
ATOM     52  C   UNL A   1      42.199  27.839  26.970  1.00  0.00     0.173 A 
ATOM     53  C   UNL A   1      41.052  25.897  27.779  1.00  0.00     0.173 A 
ATOM     54  F   UNL A   1      42.574  29.120  27.095  1.00  0.00    -0.203 F 
ATOM     55  C   UNL A   1      42.563  27.141  25.819  1.00  0.00     0.198 A 
ATOM     56  C   UNL A   1      41.444  25.189  26.645  1.00  0.00     0.198 A 
ATOM     57  F   UNL A   1      40.317  25.263  28.705  1.00  0.00    -0.203 F 
ATOM     58  F   UNL A   1      43.265  27.757  24.858  1.00  0.00    -0.200 F 
ATOM     59  C   UNL A   1      42.194  25.813  25.661  1.00  0.00     0.200 A 
ATOM     60  F   UNL A   1      41.102  23.900  26.509  1.00  0.00    -0.200 F 
ATOM     61  F   UNL A   1      42.557  25.138  24.563  1.00  0.00    -0.200 F 
ENDBRANCH  27  51
BRANCH  39  62
ATOM     62  C   UNL A   1      44.487  28.231  34.163  1.00  0.00     0.064 A 
ATOM     63  C   UNL A   1      44.576  27.009  34.844  1.00  0.00     0.173 A 
ATOM     64  C   UNL A   1      45.658  28.978  33.976  1.00  0.00     0.173 A 
ATOM     65  F   UNL A   1      43.475  26.274  35.063  1.00  0.00    -0.203 F 
ATOM     66  C   UNL A   1      45.798  26.558  35.334  1.00  0.00     0.198 A 
ATOM     67  C   UNL A   1      46.881  28.511  34.445  1.00  0.00     0.198 A 
ATOM     68  F   UNL A   1      45.615  30.152  33.329  1.00  0.00    -0.203 F 
ATOM     69  F   UNL A   1      45.859  25.407  36.018  1.00  0.00    -0.200 F 
ATOM     70  C   UNL A   1      46.948  27.306  35.127  1.00  0.00     0.200 A 
ATOM     71  F   UNL A   1      47.993  29.229  34.238  1.00  0.00    -0.200 F 
ATOM     72  F   UNL A   1      48.126  26.865  35.592  1.00  0.00    -0.200 F 
ENDBRANCH  39  62
ENDBRANCH  13  14
ENDBRANCH   6   8
ENDBRANCH   5   6
ENDBRANCH   4   5
ENDBRANCH   3   4
ENDBRANCH   2   3
ENDBRANCH   1   2
BRANCH   1  73
ATOM     73  C   UNL A   1      32.578  28.293  26.846  1.00  0.00     0.261 C 
BRANCH  73  74
ATOM     74  O   UNL A   1      32.678  26.999  26.239  1.00  0.00    -0.459 OA
BRANCH  74  75
ATOM     75  C   UNL A   1      31.513  26.428  25.815  1.00  0.00     0.344 C 
ATOM     76  O   UNL A   1      30.522  26.246  26.501  1.00  0.00    -0.246 OA
BRANCH  75  77
ATOM     77  C   UNL A   1      31.568  26.179  24.397  1.00  0.00     0.133 A 
ATOM     78  C   UNL A   1      30.951  26.883  23.324  1.00  0.00     0.128 A 
ATOM     79  C   UNL A   1      32.269  25.161  23.786  1.00  0.00     0.177 A 
ATOM     80  N   UNL A   1      31.346  26.379  22.144  1.00  0.00    -0.079 NA
ATOM     81  O   UNL A   1      32.148  25.292  22.438  1.00  0.00    -0.357 OA
BRANCH  78  82
ATOM     82  C   UNL A   1      30.054  28.033  23.378  1.00  0.00     0.005 A 
ATOM     83  C   UNL A   1      28.675  27.873  23.178  1.00  0.00     0.012 A 
ATOM     84  C   UNL A   1      30.562  29.317  23.611  1.00  0.00     0.012 A 
ATOM     85  C   UNL A   1      27.832  28.991  23.142  1.00  0.00     0.021 A 
ATOM     86  C   UNL A   1      29.719  30.432  23.590  1.00  0.00     0.021 A 
ATOM     87  C   UNL A   1      28.361  30.265  23.338  1.00  0.00     0.041 A 
ATOM     88  Cl  UNL A   1      27.331  31.641  23.260  1.00  0.00    -0.084 Cl
ENDBRANCH  78  82
BRANCH  79  89
ATOM     89  C   UNL A   1      33.026  23.981  24.278  1.00  0.00     0.242 C 
BRANCH  89  90
ATOM     90  O   UNL A   1      34.412  24.285  24.162  1.00  0.00    -0.345 OA
BRANCH  90  91
ATOM     91  C   UNL A   1      35.257  23.796  25.214  1.00  0.00     0.250 C 
ATOM     92  C   UNL A   1      36.651  23.626  24.596  1.00  0.00     0.062 C 
ATOM     93  O   UNL A   1      34.761  22.609  25.835  1.00  0.00    -0.353 OA
ATOM     94  C   UNL A   1      36.718  22.298  23.852  1.00  0.00     0.008 C 
ATOM     95  C   UNL A   1      35.734  21.602  26.086  1.00  0.00     0.163 C 
ATOM     96  C   UNL A   1      36.401  21.142  24.796  1.00  0.00     0.029 C 
ENDBRANCH  90  91
ENDBRANCH  89  90
ENDBRANCH  79  89
ENDBRANCH  75  77
ENDBRANCH  74  75
ENDBRANCH  73  74
ENDBRANCH   1  73
TORSDOF 18
ENDMDL
