MODEL 1
REMARK VINA RESULT:     -11.8      0.000      0.000
REMARK SMILES CC(=O)NC(C)(C)C(=O)N1C[C@@H](C(=O)OCCOCCOC(=O)c2ccc(-c3c4nc(c(-c5c(F)c(F)c(F)c(F)c5F)c5ccc([nH]5)c(-c5c(F)c(F)c(F)c(F)c5F)c5nc(c(-c6c(F)c(F)c(F)c(F)c6F)c6ccc3[nH]6)C=C5)C=C4)cc2)[C@H](c2ccccc2C)C1
REMARK SMILES IDX 17 1 16 2 15 3 13 4 14 5 12 6 10 7 11 8 95 9 87 10 8 11 9 12
REMARK SMILES IDX 5 13 6 14 7 15 4 16 1 17 2 18 3 19 88 21 89 22 93 23 90 24
REMARK SMILES IDX 92 25 94 26 91 27 18 28 19 29 20 30 21 31 22 32 23 33 24 34
REMARK SMILES IDX 25 35 86 36 26 37 85 38 27 39 28 40 29 41 79 42 30 43 84 44
REMARK SMILES IDX 78 45 80 46 31 47 83 48 77 49 76 50 32 52 64 53 44 54 63 55
REMARK SMILES IDX 45 56 48 57 62 58 81 59 46 60 47 61 61 63 82 64 49 65 33 66
REMARK SMILES IDX 34 67 42 68 35 69 36 70 40 71 43 72 37 73 38 74 41 75 39 76
REMARK SMILES IDX 65 77 66 78 74 79 67 80 68 81 72 82 75 83 69 84 70 85 73 86
REMARK SMILES IDX 71 87 50 88 51 89 59 90 52 91 53 92 57 93 60 94 54 95 55 96
REMARK SMILES IDX 58 97 56 98
REMARK H PARENT 4 20 80 51 48 62
REMARK Flexibility Score: inf
ROOT
ATOM      1  C   UNL A   1      34.011  23.486  23.188  1.00  0.00     0.202 C 
ENDROOT
BRANCH   1   2
ATOM      2  C   UNL A   1      33.301  24.007  21.933  1.00  0.00     0.261 C 
BRANCH   2   3
ATOM      3  O   UNL A   1      33.545  25.420  21.774  1.00  0.00    -0.463 OA
BRANCH   3   4
ATOM      4  C   UNL A   1      32.481  26.146  21.376  1.00  0.00     0.311 C 
ATOM      5  O   UNL A   1      31.828  25.891  20.369  1.00  0.00    -0.252 OA
BRANCH   4   6
ATOM      6  C   UNL A   1      32.042  27.188  22.393  1.00  0.00     0.128 C 
ATOM      7  N   UNL A   1      32.593  27.529  24.660  1.00  0.00    -0.339 N 
ATOM      8  C   UNL A   1      33.180  27.195  23.402  1.00  0.00     0.135 C 
ATOM      9  C   UNL A   1      31.245  26.978  24.686  1.00  0.00     0.128 C 
ATOM     10  C   UNL A   1      30.734  27.019  23.221  1.00  0.00     0.055 C 
BRANCH   7  11
ATOM     11  C   UNL A   1      33.340  27.618  25.823  1.00  0.00     0.247 C 
ATOM     12  O   UNL A   1      34.246  26.799  25.970  1.00  0.00    -0.272 OA
BRANCH  11  13
ATOM     13  C   UNL A   1      33.071  28.803  26.844  1.00  0.00     0.113 C 
ATOM     14  C   UNL A   1      31.769  28.473  27.620  1.00  0.00     0.045 C 
ATOM     15  C   UNL A   1      32.915  30.156  26.123  1.00  0.00     0.045 C 
BRANCH  13  16
ATOM     16  N   UNL A   1      34.072  29.000  27.945  1.00  0.00    -0.342 N 
ATOM     17  C   UNL A   1      36.287  29.597  26.979  1.00  0.00     0.114 C 
ATOM     18  C   UNL A   1      35.250  29.662  28.053  1.00  0.00     0.217 C 
ATOM     19  O   UNL A   1      35.487  30.228  29.124  1.00  0.00    -0.275 OA
ATOM     20  H   UNL A   1      33.815  28.543  28.778  1.00  0.00     0.164 HD
ENDBRANCH  13  16
ENDBRANCH  11  13
ENDBRANCH   7  11
BRANCH  10  21
ATOM     21  C   UNL A   1      29.681  28.115  22.918  1.00  0.00    -0.039 A 
ATOM     22  C   UNL A   1      30.040  29.364  22.361  1.00  0.00     0.004 A 
ATOM     23  C   UNL A   1      28.305  27.930  23.203  1.00  0.00    -0.048 A 
ATOM     24  C   UNL A   1      29.093  30.361  22.081  1.00  0.00     0.000 A 
ATOM     25  C   UNL A   1      27.357  28.912  22.838  1.00  0.00     0.004 A 
ATOM     26  C   UNL A   1      27.750  26.713  23.877  1.00  0.00     0.044 C 
ATOM     27  C   UNL A   1      27.745  30.124  22.291  1.00  0.00     0.000 A 
ENDBRANCH  10  21
ENDBRANCH   4   6
ENDBRANCH   3   4
ENDBRANCH   2   3
ENDBRANCH   1   2
BRANCH   1  28
ATOM     28  O   UNL A   1      35.318  22.952  22.967  1.00  0.00    -0.374 OA
BRANCH  28  29
ATOM     29  C   UNL A   1      36.262  23.114  24.026  1.00  0.00     0.202 C 
BRANCH  29  30
ATOM     30  C   UNL A   1      37.080  21.869  24.383  1.00  0.00     0.261 C 
BRANCH  30  31
ATOM     31  O   UNL A   1      37.431  21.877  25.781  1.00  0.00    -0.460 OA
BRANCH  31  32
ATOM     32  C   UNL A   1      38.744  21.659  26.047  1.00  0.00     0.338 C 
ATOM     33  O   UNL A   1      39.424  20.729  25.687  1.00  0.00    -0.246 OA
BRANCH  32  34
ATOM     34  C   UNL A   1      39.304  22.878  26.678  1.00  0.00     0.060 A 
ATOM     35  C   UNL A   1      38.659  24.093  26.418  1.00  0.00     0.016 A 
ATOM     36  C   UNL A   1      40.425  22.843  27.510  1.00  0.00     0.016 A 
ATOM     37  C   UNL A   1      39.158  25.281  26.949  1.00  0.00     0.010 A 
ATOM     38  C   UNL A   1      40.913  24.034  28.062  1.00  0.00     0.010 A 
ATOM     39  C   UNL A   1      40.310  25.267  27.746  1.00  0.00    -0.014 A 
BRANCH  39  40
ATOM     40  C   UNL A   1      40.988  26.550  28.074  1.00  0.00     0.031 A 
ATOM     41  C   UNL A   1      42.416  26.743  27.628  1.00  0.00     0.074 A 
ATOM     42  C   UNL A   1      40.346  27.552  28.703  1.00  0.00     0.049 A 
ATOM     43  N   UNL A   1      43.211  27.769  27.796  1.00  0.00    -0.248 NA
ATOM     44  C   UNL A   1      43.033  25.621  26.902  1.00  0.00     0.031 C 
ATOM     45  C   UNL A   1      38.962  27.512  29.169  1.00  0.00     0.029 A 
ATOM     46  N   UNL A   1      40.781  28.808  29.054  1.00  0.00    -0.354 N 
ATOM     47  C   UNL A   1      44.418  27.409  27.212  1.00  0.00     0.074 A 
ATOM     48  C   UNL A   1      44.270  26.056  26.727  1.00  0.00     0.031 C 
ATOM     49  C   UNL A   1      38.658  28.690  29.742  1.00  0.00     0.029 A 
ATOM     50  C   UNL A   1      39.835  29.559  29.708  1.00  0.00     0.049 A 
ATOM     51  H   UNL A   1      41.687  29.137  28.855  1.00  0.00     0.167 HD
ATOM     52  C   UNL A   1      45.544  28.146  27.069  1.00  0.00     0.037 A 
ATOM     53  C   UNL A   1      39.914  30.799  30.231  1.00  0.00     0.037 A 
ATOM     54  C   UNL A   1      45.690  29.504  27.517  1.00  0.00     0.049 A 
ATOM     55  C   UNL A   1      41.197  31.584  30.097  1.00  0.00     0.074 A 
ATOM     56  C   UNL A   1      46.781  30.345  27.378  1.00  0.00     0.029 A 
ATOM     57  N   UNL A   1      44.715  30.220  28.194  1.00  0.00    -0.354 N 
ATOM     58  N   UNL A   1      42.318  31.249  29.504  1.00  0.00    -0.248 NA
ATOM     59  C   UNL A   1      41.222  32.925  30.701  1.00  0.00     0.031 C 
ATOM     60  C   UNL A   1      46.486  31.552  28.017  1.00  0.00     0.029 A 
ATOM     61  C   UNL A   1      45.191  31.485  28.502  1.00  0.00     0.049 A 
ATOM     62  H   UNL A   1      43.820  29.881  28.421  1.00  0.00     0.167 HD
ATOM     63  C   UNL A   1      43.164  32.345  29.634  1.00  0.00     0.074 A 
ATOM     64  C   UNL A   1      42.423  33.361  30.350  1.00  0.00     0.031 C 
ATOM     65  C   UNL A   1      44.439  32.496  29.200  1.00  0.00     0.037 A 
BRANCH  52  66
ATOM     66  C   UNL A   1      46.721  27.492  26.405  1.00  0.00     0.064 A 
ATOM     67  C   UNL A   1      46.921  27.561  25.018  1.00  0.00     0.173 A 
ATOM     68  C   UNL A   1      47.682  26.820  27.175  1.00  0.00     0.173 A 
ATOM     69  F   UNL A   1      46.021  28.177  24.236  1.00  0.00    -0.203 F 
ATOM     70  C   UNL A   1      48.027  26.959  24.424  1.00  0.00     0.198 A 
ATOM     71  C   UNL A   1      48.803  26.247  26.581  1.00  0.00     0.198 A 
ATOM     72  F   UNL A   1      47.539  26.727  28.506  1.00  0.00    -0.203 F 
ATOM     73  F   UNL A   1      48.171  26.995  23.092  1.00  0.00    -0.200 F 
ATOM     74  C   UNL A   1      48.971  26.311  25.206  1.00  0.00     0.200 A 
ATOM     75  F   UNL A   1      49.720  25.633  27.340  1.00  0.00    -0.200 F 
ATOM     76  F   UNL A   1      50.040  25.742  24.633  1.00  0.00    -0.200 F 
ENDBRANCH  52  66
BRANCH  53  77
ATOM     77  C   UNL A   1      38.747  31.390  30.941  1.00  0.00     0.064 A 
ATOM     78  C   UNL A   1      37.836  32.223  30.275  1.00  0.00     0.173 A 
ATOM     79  C   UNL A   1      38.545  31.171  32.312  1.00  0.00     0.173 A 
ATOM     80  F   UNL A   1      38.001  32.488  28.971  1.00  0.00    -0.203 F 
ATOM     81  C   UNL A   1      36.786  32.835  30.959  1.00  0.00     0.198 A 
ATOM     82  C   UNL A   1      37.477  31.758  32.987  1.00  0.00     0.198 A 
ATOM     83  F   UNL A   1      39.389  30.385  32.997  1.00  0.00    -0.203 F 
ATOM     84  F   UNL A   1      35.967  33.674  30.309  1.00  0.00    -0.200 F 
ATOM     85  C   UNL A   1      36.606  32.598  32.312  1.00  0.00     0.200 A 
ATOM     86  F   UNL A   1      37.300  31.518  34.293  1.00  0.00    -0.200 F 
ATOM     87  F   UNL A   1      35.598  33.189  32.969  1.00  0.00    -0.200 F 
ENDBRANCH  53  77
BRANCH  65  88
ATOM     88  C   UNL A   1      45.107  33.820  29.439  1.00  0.00     0.064 A 
ATOM     89  C   UNL A   1      45.876  34.063  30.588  1.00  0.00     0.173 A 
ATOM     90  C   UNL A   1      45.023  34.840  28.479  1.00  0.00     0.173 A 
ATOM     91  F   UNL A   1      45.980  33.125  31.541  1.00  0.00    -0.203 F 
ATOM     92  C   UNL A   1      46.514  35.287  30.777  1.00  0.00     0.198 A 
ATOM     93  C   UNL A   1      45.689  36.051  28.656  1.00  0.00     0.198 A 
ATOM     94  F   UNL A   1      44.311  34.656  27.358  1.00  0.00    -0.203 F 
ATOM     95  F   UNL A   1      47.204  35.513  31.902  1.00  0.00    -0.200 F 
ATOM     96  C   UNL A   1      46.427  36.276  29.807  1.00  0.00     0.200 A 
ATOM     97  F   UNL A   1      45.617  36.997  27.710  1.00  0.00    -0.200 F 
ATOM     98  F   UNL A   1      47.050  37.448  29.986  1.00  0.00    -0.200 F 
ENDBRANCH  65  88
ENDBRANCH  39  40
ENDBRANCH  32  34
ENDBRANCH  31  32
ENDBRANCH  30  31
ENDBRANCH  29  30
ENDBRANCH  28  29
ENDBRANCH   1  28
TORSDOF 18
ENDMDL
MODEL 2
REMARK VINA RESULT:     -11.4      4.213      9.729
REMARK SMILES CC(=O)NC(C)(C)C(=O)N1C[C@@H](C(=O)OCCOCCOC(=O)c2ccc(-c3c4nc(c(-c5c(F)c(F)c(F)c(F)c5F)c5ccc([nH]5)c(-c5c(F)c(F)c(F)c(F)c5F)c5nc(c(-c6c(F)c(F)c(F)c(F)c6F)c6ccc3[nH]6)C=C5)C=C4)cc2)[C@H](c2ccccc2C)C1
REMARK SMILES IDX 17 1 16 2 15 3 13 4 14 5 12 6 10 7 11 8 95 9 87 10 8 11 9 12
REMARK SMILES IDX 5 13 6 14 7 15 4 16 1 17 2 18 3 19 88 21 89 22 93 23 90 24
REMARK SMILES IDX 92 25 94 26 91 27 18 28 19 29 20 30 21 31 22 32 23 33 24 34
REMARK SMILES IDX 25 35 86 36 26 37 85 38 27 39 28 40 29 41 79 42 30 43 84 44
REMARK SMILES IDX 78 45 80 46 31 47 83 48 77 49 76 50 32 52 64 53 44 54 63 55
REMARK SMILES IDX 45 56 48 57 62 58 81 59 46 60 47 61 61 63 82 64 49 65 33 66
REMARK SMILES IDX 34 67 42 68 35 69 36 70 40 71 43 72 37 73 38 74 41 75 39 76
REMARK SMILES IDX 65 77 66 78 74 79 67 80 68 81 72 82 75 83 69 84 70 85 73 86
REMARK SMILES IDX 71 87 50 88 51 89 59 90 52 91 53 92 57 93 60 94 54 95 55 96
REMARK SMILES IDX 58 97 56 98
REMARK H PARENT 4 20 80 51 48 62
REMARK Flexibility Score: inf
ROOT
ATOM      1  C   UNL A   1      31.105  26.547  25.529  1.00  0.00     0.202 C 
ENDROOT
BRANCH   1   2
ATOM      2  C   UNL A   1      30.353  25.392  26.199  1.00  0.00     0.261 C 
BRANCH   2   3
ATOM      3  O   UNL A   1      30.501  24.185  25.423  1.00  0.00    -0.463 OA
BRANCH   3   4
ATOM      4  C   UNL A   1      30.681  23.058  26.140  1.00  0.00     0.311 C 
ATOM      5  O   UNL A   1      29.818  22.575  26.867  1.00  0.00    -0.252 OA
BRANCH   4   6
ATOM      6  C   UNL A   1      31.975  22.330  25.814  1.00  0.00     0.128 C 
ATOM      7  N   UNL A   1      34.172  23.089  25.424  1.00  0.00    -0.339 N 
ATOM      8  C   UNL A   1      33.050  23.299  26.281  1.00  0.00     0.135 C 
ATOM      9  C   UNL A   1      33.669  22.722  24.108  1.00  0.00     0.128 C 
ATOM     10  C   UNL A   1      32.348  21.944  24.353  1.00  0.00     0.055 C 
BRANCH   7  11
ATOM     11  C   UNL A   1      35.345  23.815  25.552  1.00  0.00     0.247 C 
ATOM     12  O   UNL A   1      35.236  25.024  25.754  1.00  0.00    -0.272 OA
BRANCH  11  13
ATOM     13  C   UNL A   1      36.743  23.064  25.536  1.00  0.00     0.113 C 
ATOM     14  C   UNL A   1      37.406  23.328  24.158  1.00  0.00     0.045 C 
ATOM     15  C   UNL A   1      36.580  21.547  25.751  1.00  0.00     0.045 C 
BRANCH  13  16
ATOM     16  N   UNL A   1      37.788  23.540  26.503  1.00  0.00    -0.342 N 
ATOM     17  C   UNL A   1      39.743  21.999  26.464  1.00  0.00     0.114 C 
ATOM     18  C   UNL A   1      39.125  23.349  26.630  1.00  0.00     0.217 C 
ATOM     19  O   UNL A   1      39.802  24.310  27.004  1.00  0.00    -0.275 OA
ATOM     20  H   UNL A   1      37.419  24.123  27.204  1.00  0.00     0.164 HD
ENDBRANCH  13  16
ENDBRANCH  11  13
ENDBRANCH   7  11
BRANCH  10  21
ATOM     21  C   UNL A   1      32.433  20.412  24.134  1.00  0.00    -0.039 A 
ATOM     22  C   UNL A   1      32.810  19.529  25.171  1.00  0.00     0.004 A 
ATOM     23  C   UNL A   1      32.156  19.819  22.877  1.00  0.00    -0.048 A 
ATOM     24  C   UNL A   1      32.886  18.140  24.983  1.00  0.00     0.000 A 
ATOM     25  C   UNL A   1      32.157  18.414  22.729  1.00  0.00     0.004 A 
ATOM     26  C   UNL A   1      31.831  20.600  21.641  1.00  0.00     0.044 C 
ATOM     27  C   UNL A   1      32.531  17.578  23.769  1.00  0.00     0.000 A 
ENDBRANCH  10  21
ENDBRANCH   4   6
ENDBRANCH   3   4
ENDBRANCH   2   3
ENDBRANCH   1   2
BRANCH   1  28
ATOM     28  O   UNL A   1      31.321  27.691  26.358  1.00  0.00    -0.374 OA
BRANCH  28  29
ATOM     29  C   UNL A   1      31.451  28.948  25.691  1.00  0.00     0.202 C 
BRANCH  29  30
ATOM     30  C   UNL A   1      31.816  30.138  26.583  1.00  0.00     0.261 C 
BRANCH  30  31
ATOM     31  O   UNL A   1      33.214  30.461  26.449  1.00  0.00    -0.460 OA
BRANCH  31  32
ATOM     32  C   UNL A   1      33.653  31.466  27.250  1.00  0.00     0.338 C 
ATOM     33  O   UNL A   1      33.027  32.420  27.645  1.00  0.00    -0.246 OA
BRANCH  32  34
ATOM     34  C   UNL A   1      34.992  31.100  27.771  1.00  0.00     0.060 A 
ATOM     35  C   UNL A   1      35.276  29.737  27.915  1.00  0.00     0.016 A 
ATOM     36  C   UNL A   1      35.953  32.056  28.105  1.00  0.00     0.016 A 
ATOM     37  C   UNL A   1      36.503  29.326  28.437  1.00  0.00     0.010 A 
ATOM     38  C   UNL A   1      37.193  31.643  28.608  1.00  0.00     0.010 A 
ATOM     39  C   UNL A   1      37.458  30.277  28.821  1.00  0.00    -0.014 A 
BRANCH  39  40
ATOM     40  C   UNL A   1      38.634  29.848  29.624  1.00  0.00     0.031 A 
ATOM     41  C   UNL A   1      38.769  30.364  31.034  1.00  0.00     0.074 A 
ATOM     42  C   UNL A   1      39.540  28.974  29.146  1.00  0.00     0.049 A 
ATOM     43  N   UNL A   1      39.702  30.132  31.923  1.00  0.00    -0.248 NA
ATOM     44  C   UNL A   1      37.712  31.276  31.503  1.00  0.00     0.031 C 
ATOM     45  C   UNL A   1      39.520  28.377  27.813  1.00  0.00     0.029 A 
ATOM     46  N   UNL A   1      40.656  28.433  29.738  1.00  0.00    -0.354 N 
ATOM     47  C   UNL A   1      39.350  30.877  33.041  1.00  0.00     0.074 A 
ATOM     48  C   UNL A   1      38.149  31.606  32.707  1.00  0.00     0.031 C 
ATOM     49  C   UNL A   1      40.573  27.549  27.689  1.00  0.00     0.029 A 
ATOM     50  C   UNL A   1      41.357  27.578  28.924  1.00  0.00     0.049 A 
ATOM     51  H   UNL A   1      40.928  28.640  30.662  1.00  0.00     0.167 HD
ATOM     52  C   UNL A   1      39.960  30.933  34.248  1.00  0.00     0.037 A 
ATOM     53  C   UNL A   1      42.505  26.906  29.145  1.00  0.00     0.037 A 
ATOM     54  C   UNL A   1      41.136  30.186  34.601  1.00  0.00     0.049 A 
ATOM     55  C   UNL A   1      43.189  27.021  30.486  1.00  0.00     0.074 A 
ATOM     56  C   UNL A   1      41.800  30.148  35.815  1.00  0.00     0.029 A 
ATOM     57  N   UNL A   1      41.826  29.349  33.739  1.00  0.00    -0.354 N 
ATOM     58  N   UNL A   1      42.824  27.694  31.550  1.00  0.00    -0.248 NA
ATOM     59  C   UNL A   1      44.445  26.274  30.657  1.00  0.00     0.031 C 
ATOM     60  C   UNL A   1      42.923  29.328  35.673  1.00  0.00     0.029 A 
ATOM     61  C   UNL A   1      42.925  28.809  34.389  1.00  0.00     0.049 A 
ATOM     62  H   UNL A   1      41.574  29.165  32.806  1.00  0.00     0.167 HD
ATOM     63  C   UNL A   1      43.781  27.426  32.522  1.00  0.00     0.074 A 
ATOM     64  C   UNL A   1      44.737  26.518  31.927  1.00  0.00     0.031 C 
ATOM     65  C   UNL A   1      43.861  27.891  33.793  1.00  0.00     0.037 A 
BRANCH  52  66
ATOM     66  C   UNL A   1      39.367  31.847  35.281  1.00  0.00     0.064 A 
ATOM     67  C   UNL A   1      38.509  31.371  36.284  1.00  0.00     0.173 A 
ATOM     68  C   UNL A   1      39.696  33.211  35.289  1.00  0.00     0.173 A 
ATOM     69  F   UNL A   1      38.150  30.079  36.309  1.00  0.00    -0.203 F 
ATOM     70  C   UNL A   1      37.981  32.234  37.242  1.00  0.00     0.198 A 
ATOM     71  C   UNL A   1      39.191  34.063  36.267  1.00  0.00     0.198 A 
ATOM     72  F   UNL A   1      40.514  33.716  34.353  1.00  0.00    -0.203 F 
ATOM     73  F   UNL A   1      37.124  31.768  38.160  1.00  0.00    -0.200 F 
ATOM     74  C   UNL A   1      38.330  33.576  37.238  1.00  0.00     0.200 A 
ATOM     75  F   UNL A   1      39.540  35.357  36.269  1.00  0.00    -0.200 F 
ATOM     76  F   UNL A   1      37.830  34.402  38.167  1.00  0.00    -0.200 F 
ENDBRANCH  52  66
BRANCH  53  77
ATOM     77  C   UNL A   1      43.098  26.062  28.073  1.00  0.00     0.064 A 
ATOM     78  C   UNL A   1      43.868  26.625  27.045  1.00  0.00     0.173 A 
ATOM     79  C   UNL A   1      42.866  24.679  28.027  1.00  0.00     0.173 A 
ATOM     80  F   UNL A   1      44.095  27.947  27.027  1.00  0.00    -0.203 F 
ATOM     81  C   UNL A   1      44.361  25.844  26.000  1.00  0.00     0.198 A 
ATOM     82  C   UNL A   1      43.385  23.894  27.000  1.00  0.00     0.198 A 
ATOM     83  F   UNL A   1      42.133  24.090  28.982  1.00  0.00    -0.203 F 
ATOM     84  F   UNL A   1      45.043  26.419  25.001  1.00  0.00    -0.200 F 
ATOM     85  C   UNL A   1      44.122  24.479  25.982  1.00  0.00     0.200 A 
ATOM     86  F   UNL A   1      43.161  22.573  26.991  1.00  0.00    -0.200 F 
ATOM     87  F   UNL A   1      44.592  23.728  24.976  1.00  0.00    -0.200 F 
ENDBRANCH  53  77
BRANCH  65  88
ATOM     88  C   UNL A   1      44.991  27.394  34.649  1.00  0.00     0.064 A 
ATOM     89  C   UNL A   1      46.206  28.088  34.746  1.00  0.00     0.173 A 
ATOM     90  C   UNL A   1      44.834  26.236  35.428  1.00  0.00     0.173 A 
ATOM     91  F   UNL A   1      46.412  29.195  34.015  1.00  0.00    -0.203 F 
ATOM     92  C   UNL A   1      47.231  27.628  35.570  1.00  0.00     0.198 A 
ATOM     93  C   UNL A   1      45.848  25.797  36.275  1.00  0.00     0.198 A 
ATOM     94  F   UNL A   1      43.688  25.541  35.382  1.00  0.00    -0.203 F 
ATOM     95  F   UNL A   1      48.400  28.282  35.611  1.00  0.00    -0.200 F 
ATOM     96  C   UNL A   1      47.048  26.488  36.340  1.00  0.00     0.200 A 
ATOM     97  F   UNL A   1      45.662  24.706  37.030  1.00  0.00    -0.200 F 
ATOM     98  F   UNL A   1      48.030  26.053  37.140  1.00  0.00    -0.200 F 
ENDBRANCH  65  88
ENDBRANCH  39  40
ENDBRANCH  32  34
ENDBRANCH  31  32
ENDBRANCH  30  31
ENDBRANCH  29  30
ENDBRANCH  28  29
ENDBRANCH   1  28
TORSDOF 18
ENDMDL
MODEL 3
REMARK VINA RESULT:     -11.4      4.221      7.842
REMARK SMILES CC(=O)NC(C)(C)C(=O)N1C[C@@H](C(=O)OCCOCCOC(=O)c2ccc(-c3c4nc(c(-c5c(F)c(F)c(F)c(F)c5F)c5ccc([nH]5)c(-c5c(F)c(F)c(F)c(F)c5F)c5nc(c(-c6c(F)c(F)c(F)c(F)c6F)c6ccc3[nH]6)C=C5)C=C4)cc2)[C@H](c2ccccc2C)C1
REMARK SMILES IDX 17 1 16 2 15 3 13 4 14 5 12 6 10 7 11 8 95 9 87 10 8 11 9 12
REMARK SMILES IDX 5 13 6 14 7 15 4 16 1 17 2 18 3 19 88 21 89 22 93 23 90 24
REMARK SMILES IDX 92 25 94 26 91 27 18 28 19 29 20 30 21 31 22 32 23 33 24 34
REMARK SMILES IDX 25 35 86 36 26 37 85 38 27 39 28 40 29 41 79 42 30 43 84 44
REMARK SMILES IDX 78 45 80 46 31 47 83 48 77 49 76 50 32 52 64 53 44 54 63 55
REMARK SMILES IDX 45 56 48 57 62 58 81 59 46 60 47 61 61 63 82 64 49 65 33 66
REMARK SMILES IDX 34 67 42 68 35 69 36 70 40 71 43 72 37 73 38 74 41 75 39 76
REMARK SMILES IDX 65 77 66 78 74 79 67 80 68 81 72 82 75 83 69 84 70 85 73 86
REMARK SMILES IDX 71 87 50 88 51 89 59 90 52 91 53 92 57 93 60 94 54 95 55 96
REMARK SMILES IDX 58 97 56 98
REMARK H PARENT 4 20 80 51 48 62
REMARK Flexibility Score: inf
ROOT
ATOM      1  C   UNL A   1      32.907  26.030  26.201  1.00  0.00     0.202 C 
ENDROOT
BRANCH   1   2
ATOM      2  C   UNL A   1      32.938  25.087  24.994  1.00  0.00     0.261 C 
BRANCH   2   3
ATOM      3  O   UNL A   1      34.298  24.730  24.676  1.00  0.00    -0.463 OA
BRANCH   3   4
ATOM      4  C   UNL A   1      34.444  23.903  23.620  1.00  0.00     0.311 C 
ATOM      5  O   UNL A   1      34.369  24.277  22.454  1.00  0.00    -0.252 OA
BRANCH   4   6
ATOM      6  C   UNL A   1      34.908  22.506  24.002  1.00  0.00     0.128 C 
ATOM      7  N   UNL A   1      33.740  20.566  24.658  1.00  0.00    -0.339 N 
ATOM      8  C   UNL A   1      33.688  21.642  23.722  1.00  0.00     0.135 C 
ATOM      9  C   UNL A   1      34.340  21.069  25.886  1.00  0.00     0.128 C 
ATOM     10  C   UNL A   1      35.353  22.163  25.454  1.00  0.00     0.055 C 
BRANCH   7  11
ATOM     11  C   UNL A   1      32.770  19.578  24.702  1.00  0.00     0.247 C 
ATOM     12  O   UNL A   1      31.751  19.822  25.347  1.00  0.00    -0.272 OA
BRANCH  11  13
ATOM     13  C   UNL A   1      32.962  18.248  23.857  1.00  0.00     0.113 C 
ATOM     14  C   UNL A   1      34.485  17.971  23.749  1.00  0.00     0.045 C 
ATOM     15  C   UNL A   1      32.356  18.373  22.446  1.00  0.00     0.045 C 
BRANCH  13  16
ATOM     16  N   UNL A   1      32.436  16.975  24.454  1.00  0.00    -0.342 N 
ATOM     17  C   UNL A   1      34.314  15.651  25.413  1.00  0.00     0.114 C 
ATOM     18  C   UNL A   1      32.890  16.104  25.389  1.00  0.00     0.217 C 
ATOM     19  O   UNL A   1      32.058  15.605  26.152  1.00  0.00    -0.275 OA
ATOM     20  H   UNL A   1      31.564  16.712  24.081  1.00  0.00     0.164 HD
ENDBRANCH  13  16
ENDBRANCH  11  13
ENDBRANCH   7  11
BRANCH  10  21
ATOM     21  C   UNL A   1      36.846  21.756  25.549  1.00  0.00    -0.039 A 
ATOM     22  C   UNL A   1      37.289  20.455  25.221  1.00  0.00     0.004 A 
ATOM     23  C   UNL A   1      37.842  22.663  25.990  1.00  0.00    -0.048 A 
ATOM     24  C   UNL A   1      38.638  20.079  25.301  1.00  0.00     0.000 A 
ATOM     25  C   UNL A   1      39.205  22.292  25.984  1.00  0.00     0.004 A 
ATOM     26  C   UNL A   1      37.551  24.053  26.467  1.00  0.00     0.044 C 
ATOM     27  C   UNL A   1      39.603  21.007  25.654  1.00  0.00     0.000 A 
ENDBRANCH  10  21
ENDBRANCH   4   6
ENDBRANCH   3   4
ENDBRANCH   2   3
ENDBRANCH   1   2
BRANCH   1  28
ATOM     28  O   UNL A   1      32.913  27.423  25.882  1.00  0.00    -0.374 OA
BRANCH  28  29
ATOM     29  C   UNL A   1      31.772  28.178  26.294  1.00  0.00     0.202 C 
BRANCH  29  30
ATOM     30  C   UNL A   1      31.780  29.660  25.907  1.00  0.00     0.261 C 
BRANCH  30  31
ATOM     31  O   UNL A   1      33.118  30.190  25.961  1.00  0.00    -0.460 OA
BRANCH  31  32
ATOM     32  C   UNL A   1      33.325  31.141  26.909  1.00  0.00     0.338 C 
ATOM     33  O   UNL A   1      32.531  31.950  27.324  1.00  0.00    -0.246 OA
BRANCH  32  34
ATOM     34  C   UNL A   1      34.641  30.894  27.544  1.00  0.00     0.060 A 
ATOM     35  C   UNL A   1      35.009  29.561  27.766  1.00  0.00     0.016 A 
ATOM     36  C   UNL A   1      35.502  31.930  27.910  1.00  0.00     0.016 A 
ATOM     37  C   UNL A   1      36.217  29.262  28.395  1.00  0.00     0.010 A 
ATOM     38  C   UNL A   1      36.726  31.628  28.521  1.00  0.00     0.010 A 
ATOM     39  C   UNL A   1      37.069  30.293  28.810  1.00  0.00    -0.014 A 
BRANCH  39  40
ATOM     40  C   UNL A   1      38.206  29.982  29.717  1.00  0.00     0.031 A 
ATOM     41  C   UNL A   1      39.301  29.075  29.213  1.00  0.00     0.074 A 
ATOM     42  C   UNL A   1      38.308  30.530  30.943  1.00  0.00     0.049 A 
ATOM     43  N   UNL A   1      40.386  28.662  29.817  1.00  0.00    -0.248 NA
ATOM     44  C   UNL A   1      39.143  28.556  27.845  1.00  0.00     0.031 C 
ATOM     45  C   UNL A   1      37.338  31.440  31.548  1.00  0.00     0.029 A 
ATOM     46  N   UNL A   1      39.286  30.400  31.900  1.00  0.00    -0.354 N 
ATOM     47  C   UNL A   1      41.026  27.828  28.910  1.00  0.00     0.074 A 
ATOM     48  C   UNL A   1      40.189  27.753  27.735  1.00  0.00     0.031 C 
ATOM     49  C   UNL A   1      37.771  31.790  32.772  1.00  0.00     0.029 A 
ATOM     50  C   UNL A   1      39.035  31.107  33.049  1.00  0.00     0.049 A 
ATOM     51  H   UNL A   1      40.092  29.849  31.772  1.00  0.00     0.167 HD
ATOM     52  C   UNL A   1      42.218  27.197  29.033  1.00  0.00     0.037 A 
ATOM     53  C   UNL A   1      39.737  31.185  34.198  1.00  0.00     0.037 A 
ATOM     54  C   UNL A   1      43.073  27.292  30.184  1.00  0.00     0.049 A 
ATOM     55  C   UNL A   1      41.042  30.436  34.326  1.00  0.00     0.074 A 
ATOM     56  C   UNL A   1      44.319  26.720  30.380  1.00  0.00     0.029 A 
ATOM     57  N   UNL A   1      42.771  28.002  31.335  1.00  0.00    -0.354 N 
ATOM     58  N   UNL A   1      41.659  29.685  33.445  1.00  0.00    -0.248 NA
ATOM     59  C   UNL A   1      41.751  30.552  35.609  1.00  0.00     0.031 C 
ATOM     60  C   UNL A   1      44.747  27.041  31.672  1.00  0.00     0.029 A 
ATOM     61  C   UNL A   1      43.796  27.861  32.257  1.00  0.00     0.049 A 
ATOM     62  H   UNL A   1      41.951  28.527  31.476  1.00  0.00     0.167 HD
ATOM     63  C   UNL A   1      42.838  29.270  34.053  1.00  0.00     0.074 A 
ATOM     64  C   UNL A   1      42.858  29.863  35.372  1.00  0.00     0.031 C 
ATOM     65  C   UNL A   1      43.816  28.470  33.561  1.00  0.00     0.037 A 
BRANCH  52  66
ATOM     66  C   UNL A   1      42.666  26.333  27.890  1.00  0.00     0.064 A 
ATOM     67  C   UNL A   1      43.530  26.814  26.895  1.00  0.00     0.173 A 
ATOM     68  C   UNL A   1      42.253  24.994  27.812  1.00  0.00     0.173 A 
ATOM     69  F   UNL A   1      43.939  28.091  26.914  1.00  0.00    -0.203 F 
ATOM     70  C   UNL A   1      43.945  25.991  25.849  1.00  0.00     0.198 A 
ATOM     71  C   UNL A   1      42.695  24.167  26.784  1.00  0.00     0.198 A 
ATOM     72  F   UNL A   1      41.427  24.486  28.740  1.00  0.00    -0.203 F 
ATOM     73  F   UNL A   1      44.731  26.485  24.883  1.00  0.00    -0.200 F 
ATOM     74  C   UNL A   1      43.535  24.667  25.801  1.00  0.00     0.200 A 
ATOM     75  F   UNL A   1      42.308  22.885  26.746  1.00  0.00    -0.200 F 
ATOM     76  F   UNL A   1      43.944  23.875  24.800  1.00  0.00    -0.200 F 
ENDBRANCH  52  66
BRANCH  53  77
ATOM     77  C   UNL A   1      39.228  31.999  35.334  1.00  0.00     0.064 A 
ATOM     78  C   UNL A   1      39.563  33.355  35.467  1.00  0.00     0.173 A 
ATOM     79  C   UNL A   1      38.433  31.426  36.339  1.00  0.00     0.173 A 
ATOM     80  F   UNL A   1      40.344  33.944  34.549  1.00  0.00    -0.203 F 
ATOM     81  C   UNL A   1      39.147  34.097  36.572  1.00  0.00     0.198 A 
ATOM     82  C   UNL A   1      37.991  32.176  37.426  1.00  0.00     0.198 A 
ATOM     83  F   UNL A   1      38.087  30.132  36.264  1.00  0.00    -0.203 F 
ATOM     84  F   UNL A   1      39.532  35.374  36.701  1.00  0.00    -0.200 F 
ATOM     85  C   UNL A   1      38.358  33.508  37.547  1.00  0.00     0.200 A 
ATOM     86  F   UNL A   1      37.220  31.606  38.362  1.00  0.00    -0.200 F 
ATOM     87  F   UNL A   1      37.960  34.220  38.611  1.00  0.00    -0.200 F 
ENDBRANCH  53  77
BRANCH  65  88
ATOM     88  C   UNL A   1      45.017  28.221  34.429  1.00  0.00     0.064 A 
ATOM     89  C   UNL A   1      45.092  27.113  35.287  1.00  0.00     0.173 A 
ATOM     90  C   UNL A   1      46.131  29.072  34.358  1.00  0.00     0.173 A 
ATOM     91  F   UNL A   1      44.052  26.275  35.400  1.00  0.00    -0.203 F 
ATOM     92  C   UNL A   1      46.228  26.882  36.060  1.00  0.00     0.198 A 
ATOM     93  C   UNL A   1      47.277  28.820  35.108  1.00  0.00     0.198 A 
ATOM     94  F   UNL A   1      46.116  30.139  33.546  1.00  0.00    -0.203 F 
ATOM     95  F   UNL A   1      46.260  25.844  36.907  1.00  0.00    -0.200 F 
ATOM     96  C   UNL A   1      47.322  27.731  35.964  1.00  0.00     0.200 A 
ATOM     97  F   UNL A   1      48.338  29.631  35.000  1.00  0.00    -0.200 F 
ATOM     98  F   UNL A   1      48.417  27.501  36.700  1.00  0.00    -0.200 F 
ENDBRANCH  65  88
ENDBRANCH  39  40
ENDBRANCH  32  34
ENDBRANCH  31  32
ENDBRANCH  30  31
ENDBRANCH  29  30
ENDBRANCH  28  29
ENDBRANCH   1  28
TORSDOF 18
ENDMDL
