MODEL 1
REMARK VINA RESULT:     -11.4      0.000      0.000
REMARK SMILES C[C@@H]1OCC[C@@H]1C(=O)Nc1ccc(C(=O)OCCOCCOC(=O)c2ccc(-c3c4nc(c(-c5c(F)c(F)c(F)c(F)c5F)c5ccc([nH]5)c(-c5c(F)c(F)c(F)c(F)c5F)c5nc(c(-c6c(F)c(F)c(F)c(F)c6F)c6ccc3[nH]6)C=C5)C=C4)cc2)cc1F
REMARK SMILES IDX 19 1 18 2 17 3 16 4 14 5 15 6 13 7 10 8 11 9 89 10 12 11
REMARK SMILES IDX 88 12 90 13 9 14 7 15 8 16 6 18 1 19 2 20 3 21 4 22 5 23
REMARK SMILES IDX 20 24 21 25 22 26 23 27 24 28 25 29 26 30 87 31 27 32 86 33
REMARK SMILES IDX 28 34 29 35 30 36 80 37 31 38 85 39 79 40 81 41 32 42 84 43
REMARK SMILES IDX 78 44 77 45 33 47 65 48 45 49 64 50 46 51 49 52 63 53 82 54
REMARK SMILES IDX 47 55 48 56 62 58 83 59 50 60 34 61 35 62 43 63 36 64 37 65
REMARK SMILES IDX 41 66 44 67 38 68 39 69 42 70 40 71 66 72 67 73 75 74 68 75
REMARK SMILES IDX 69 76 73 77 76 78 70 79 71 80 74 81 72 82 51 83 52 84 60 85
REMARK SMILES IDX 53 86 54 87 58 88 61 89 55 90 56 91 59 92 57 93
REMARK H PARENT 9 17 81 46 49 57
REMARK Flexibility Score: inf
ROOT
ATOM      1  O   UNL A   1      34.914  34.141  30.773  1.00  0.00    -0.374 OA
ENDROOT
BRANCH   1   2
ATOM      2  C   UNL A   1      34.026  34.187  29.657  1.00  0.00     0.202 C 
BRANCH   2   3
ATOM      3  C   UNL A   1      34.609  33.790  28.299  1.00  0.00     0.261 C 
BRANCH   3   4
ATOM      4  O   UNL A   1      33.950  32.640  27.765  1.00  0.00    -0.460 OA
BRANCH   4   5
ATOM      5  C   UNL A   1      34.729  31.541  27.585  1.00  0.00     0.338 C 
ATOM      6  O   UNL A   1      35.926  31.444  27.738  1.00  0.00    -0.246 OA
BRANCH   5   7
ATOM      7  C   UNL A   1      33.836  30.399  27.289  1.00  0.00     0.063 A 
ATOM      8  C   UNL A   1      32.145  28.187  26.746  1.00  0.00     0.077 A 
ATOM      9  C   UNL A   1      31.617  29.469  26.994  1.00  0.00     0.030 A 
ATOM     10  C   UNL A   1      33.545  28.083  26.739  1.00  0.00     0.147 A 
ATOM     11  C   UNL A   1      32.451  30.563  27.276  1.00  0.00     0.018 A 
ATOM     12  C   UNL A   1      34.378  29.161  26.992  1.00  0.00     0.057 A 
ATOM     13  F   UNL A   1      34.221  26.962  26.501  1.00  0.00    -0.205 F 
BRANCH   8  14
ATOM     14  N   UNL A   1      31.177  27.161  26.572  1.00  0.00    -0.323 N 
ATOM     15  C   UNL A   1      30.768  26.374  25.528  1.00  0.00     0.230 C 
ATOM     16  O   UNL A   1      29.949  25.481  25.762  1.00  0.00    -0.274 OA
ATOM     17  H   UNL A   1      30.683  26.970  27.402  1.00  0.00     0.170 HD
BRANCH  15  18
ATOM     18  C   UNL A   1      31.295  26.603  24.146  1.00  0.00     0.110 C 
ATOM     19  C   UNL A   1      28.978  27.559  23.495  1.00  0.00     0.039 C 
ATOM     20  C   UNL A   1      30.497  27.656  23.367  1.00  0.00     0.127 C 
ATOM     21  O   UNL A   1      30.836  27.449  21.976  1.00  0.00    -0.378 OA
ATOM     22  C   UNL A   1      31.664  26.277  21.902  1.00  0.00     0.161 C 
ATOM     23  C   UNL A   1      31.344  25.469  23.147  1.00  0.00     0.044 C 
ENDBRANCH  15  18
ENDBRANCH   8  14
ENDBRANCH   5   7
ENDBRANCH   4   5
ENDBRANCH   3   4
ENDBRANCH   2   3
ENDBRANCH   1   2
BRANCH   1  24
ATOM     24  C   UNL A   1      34.338  34.302  32.070  1.00  0.00     0.202 C 
BRANCH  24  25
ATOM     25  C   UNL A   1      34.626  33.201  33.096  1.00  0.00     0.261 C 
BRANCH  25  26
ATOM     26  O   UNL A   1      35.416  32.138  32.537  1.00  0.00    -0.460 OA
BRANCH  26  27
ATOM     27  C   UNL A   1      36.581  31.905  33.187  1.00  0.00     0.338 C 
ATOM     28  O   UNL A   1      36.812  32.049  34.374  1.00  0.00    -0.246 OA
BRANCH  27  29
ATOM     29  C   UNL A   1      37.536  31.263  32.268  1.00  0.00     0.060 A 
ATOM     30  C   UNL A   1      38.609  30.564  32.834  1.00  0.00     0.016 A 
ATOM     31  C   UNL A   1      37.429  31.409  30.885  1.00  0.00     0.016 A 
ATOM     32  C   UNL A   1      39.611  30.047  32.018  1.00  0.00     0.010 A 
ATOM     33  C   UNL A   1      38.437  30.895  30.066  1.00  0.00     0.010 A 
ATOM     34  C   UNL A   1      39.548  30.243  30.632  1.00  0.00    -0.014 A 
BRANCH  34  35
ATOM     35  C   UNL A   1      40.703  29.870  29.784  1.00  0.00     0.031 A 
ATOM     36  C   UNL A   1      40.751  28.504  29.164  1.00  0.00     0.074 A 
ATOM     37  C   UNL A   1      41.691  30.751  29.556  1.00  0.00     0.049 A 
ATOM     38  N   UNL A   1      41.686  27.955  28.433  1.00  0.00    -0.248 NA
ATOM     39  C   UNL A   1      39.585  27.638  29.403  1.00  0.00     0.031 C 
ATOM     40  C   UNL A   1      41.727  32.120  30.065  1.00  0.00     0.029 A 
ATOM     41  N   UNL A   1      42.854  30.623  28.840  1.00  0.00    -0.354 N 
ATOM     42  C   UNL A   1      41.225  26.682  28.126  1.00  0.00     0.074 A 
ATOM     43  C   UNL A   1      39.947  26.524  28.786  1.00  0.00     0.031 C 
ATOM     44  C   UNL A   1      42.858  32.709  29.643  1.00  0.00     0.029 A 
ATOM     45  C   UNL A   1      43.642  31.745  28.872  1.00  0.00     0.049 A 
ATOM     46  H   UNL A   1      43.099  29.804  28.351  1.00  0.00     0.167 HD
ATOM     47  C   UNL A   1      41.812  25.737  27.353  1.00  0.00     0.037 A 
ATOM     48  C   UNL A   1      44.866  31.963  28.353  1.00  0.00     0.037 A 
ATOM     49  C   UNL A   1      43.089  25.904  26.708  1.00  0.00     0.049 A 
ATOM     50  C   UNL A   1      45.547  30.868  27.580  1.00  0.00     0.074 A 
ATOM     51  C   UNL A   1      43.765  25.013  25.894  1.00  0.00     0.029 A 
ATOM     52  N   UNL A   1      43.889  27.034  26.814  1.00  0.00    -0.354 N 
ATOM     53  N   UNL A   1      45.105  29.668  27.284  1.00  0.00    -0.248 NA
ATOM     54  C   UNL A   1      46.897  31.150  27.073  1.00  0.00     0.031 C 
ATOM     55  C   UNL A   1      45.001  25.576  25.563  1.00  0.00     0.029 A 
ATOM     56  C   UNL A   1      45.069  26.848  26.111  1.00  0.00     0.049 A 
ATOM     57  H   UNL A   1      43.653  27.848  27.316  1.00  0.00     0.167 HD
ATOM     58  C   UNL A   1      46.109  29.062  26.540  1.00  0.00     0.074 A 
ATOM     59  C   UNL A   1      47.181  30.030  26.422  1.00  0.00     0.031 C 
ATOM     60  C   UNL A   1      46.133  27.816  26.004  1.00  0.00     0.037 A 
BRANCH  47  61
ATOM     61  C   UNL A   1      41.089  24.432  27.183  1.00  0.00     0.064 A 
ATOM     62  C   UNL A   1      41.559  23.270  27.815  1.00  0.00     0.173 A 
ATOM     63  C   UNL A   1      39.948  24.318  26.371  1.00  0.00     0.173 A 
ATOM     64  F   UNL A   1      42.648  23.318  28.596  1.00  0.00    -0.203 F 
ATOM     65  C   UNL A   1      40.917  22.047  27.639  1.00  0.00     0.198 A 
ATOM     66  C   UNL A   1      39.289  23.101  26.228  1.00  0.00     0.198 A 
ATOM     67  F   UNL A   1      39.450  25.400  25.752  1.00  0.00    -0.203 F 
ATOM     68  F   UNL A   1      41.400  20.947  28.234  1.00  0.00    -0.200 F 
ATOM     69  C   UNL A   1      39.777  21.965  26.856  1.00  0.00     0.200 A 
ATOM     70  F   UNL A   1      38.169  23.030  25.494  1.00  0.00    -0.200 F 
ATOM     71  F   UNL A   1      39.145  20.792  26.710  1.00  0.00    -0.200 F 
ENDBRANCH  47  61
BRANCH  48  72
ATOM     72  C   UNL A   1      45.497  33.292  28.543  1.00  0.00     0.064 A 
ATOM     73  C   UNL A   1      46.279  33.574  29.674  1.00  0.00     0.173 A 
ATOM     74  C   UNL A   1      45.260  34.333  27.635  1.00  0.00     0.173 A 
ATOM     75  F   UNL A   1      46.531  32.612  30.573  1.00  0.00    -0.203 F 
ATOM     76  C   UNL A   1      46.763  34.859  29.910  1.00  0.00     0.198 A 
ATOM     77  C   UNL A   1      45.767  35.611  27.861  1.00  0.00     0.198 A 
ATOM     78  F   UNL A   1      44.536  34.104  26.530  1.00  0.00    -0.203 F 
ATOM     79  F   UNL A   1      47.460  35.115  31.026  1.00  0.00    -0.200 F 
ATOM     80  C   UNL A   1      46.505  35.876  29.004  1.00  0.00     0.200 A 
ATOM     81  F   UNL A   1      45.531  36.588  26.975  1.00  0.00    -0.200 F 
ATOM     82  F   UNL A   1      46.963  37.114  29.236  1.00  0.00    -0.200 F 
ENDBRANCH  48  72
BRANCH  60  83
ATOM     83  C   UNL A   1      47.352  27.413  25.223  1.00  0.00     0.064 A 
ATOM     84  C   UNL A   1      48.460  26.847  25.875  1.00  0.00     0.173 A 
ATOM     85  C   UNL A   1      47.465  27.676  23.849  1.00  0.00     0.173 A 
ATOM     86  F   UNL A   1      48.408  26.583  27.190  1.00  0.00    -0.203 F 
ATOM     87  C   UNL A   1      49.641  26.584  25.188  1.00  0.00     0.198 A 
ATOM     88  C   UNL A   1      48.638  27.380  23.158  1.00  0.00     0.198 A 
ATOM     89  F   UNL A   1      46.432  28.203  23.176  1.00  0.00    -0.203 F 
ATOM     90  F   UNL A   1      50.700  26.087  25.843  1.00  0.00    -0.200 F 
ATOM     91  C   UNL A   1      49.729  26.848  23.830  1.00  0.00     0.200 A 
ATOM     92  F   UNL A   1      48.714  27.614  21.841  1.00  0.00    -0.200 F 
ATOM     93  F   UNL A   1      50.865  26.591  23.168  1.00  0.00    -0.200 F 
ENDBRANCH  60  83
ENDBRANCH  34  35
ENDBRANCH  27  29
ENDBRANCH  26  27
ENDBRANCH  25  26
ENDBRANCH  24  25
ENDBRANCH   1  24
TORSDOF 16
ENDMDL
MODEL 2
REMARK VINA RESULT:     -11.3      5.545     10.996
REMARK SMILES C[C@@H]1OCC[C@@H]1C(=O)Nc1ccc(C(=O)OCCOCCOC(=O)c2ccc(-c3c4nc(c(-c5c(F)c(F)c(F)c(F)c5F)c5ccc([nH]5)c(-c5c(F)c(F)c(F)c(F)c5F)c5nc(c(-c6c(F)c(F)c(F)c(F)c6F)c6ccc3[nH]6)C=C5)C=C4)cc2)cc1F
REMARK SMILES IDX 19 1 18 2 17 3 16 4 14 5 15 6 13 7 10 8 11 9 89 10 12 11
REMARK SMILES IDX 88 12 90 13 9 14 7 15 8 16 6 18 1 19 2 20 3 21 4 22 5 23
REMARK SMILES IDX 20 24 21 25 22 26 23 27 24 28 25 29 26 30 87 31 27 32 86 33
REMARK SMILES IDX 28 34 29 35 30 36 80 37 31 38 85 39 79 40 81 41 32 42 84 43
REMARK SMILES IDX 78 44 77 45 33 47 65 48 45 49 64 50 46 51 49 52 63 53 82 54
REMARK SMILES IDX 47 55 48 56 62 58 83 59 50 60 34 61 35 62 43 63 36 64 37 65
REMARK SMILES IDX 41 66 44 67 38 68 39 69 42 70 40 71 66 72 67 73 75 74 68 75
REMARK SMILES IDX 69 76 73 77 76 78 70 79 71 80 74 81 72 82 51 83 52 84 60 85
REMARK SMILES IDX 53 86 54 87 58 88 61 89 55 90 56 91 59 92 57 93
REMARK H PARENT 9 17 81 46 49 57
REMARK Flexibility Score: inf
ROOT
ATOM      1  O   UNL A   1      43.312  20.518  25.422  1.00  0.00    -0.374 OA
ENDROOT
BRANCH   1   2
ATOM      2  C   UNL A   1      42.106  20.217  26.123  1.00  0.00     0.202 C 
BRANCH   2   3
ATOM      3  C   UNL A   1      41.376  21.396  26.771  1.00  0.00     0.261 C 
BRANCH   3   4
ATOM      4  O   UNL A   1      39.987  21.398  26.433  1.00  0.00    -0.460 OA
BRANCH   4   5
ATOM      5  C   UNL A   1      39.293  22.511  26.786  1.00  0.00     0.338 C 
ATOM      6  O   UNL A   1      39.585  23.337  27.622  1.00  0.00    -0.246 OA
BRANCH   5   7
ATOM      7  C   UNL A   1      38.145  22.639  25.862  1.00  0.00     0.063 A 
ATOM      8  C   UNL A   1      35.953  22.921  24.083  1.00  0.00     0.077 A 
ATOM      9  C   UNL A   1      36.800  21.797  24.030  1.00  0.00     0.030 A 
ATOM     10  C   UNL A   1      36.230  23.859  25.089  1.00  0.00     0.147 A 
ATOM     11  C   UNL A   1      37.894  21.660  24.900  1.00  0.00     0.018 A 
ATOM     12  C   UNL A   1      37.292  23.723  25.969  1.00  0.00     0.057 A 
ATOM     13  F   UNL A   1      35.528  24.968  25.308  1.00  0.00    -0.205 F 
BRANCH   8  14
ATOM     14  N   UNL A   1      34.949  22.966  23.079  1.00  0.00    -0.323 N 
ATOM     15  C   UNL A   1      33.579  22.962  23.069  1.00  0.00     0.230 C 
ATOM     16  O   UNL A   1      33.007  23.124  21.988  1.00  0.00    -0.274 OA
ATOM     17  H   UNL A   1      35.330  23.013  22.172  1.00  0.00     0.170 HD
BRANCH  15  18
ATOM     18  C   UNL A   1      32.806  22.753  24.334  1.00  0.00     0.110 C 
ATOM     19  C   UNL A   1      32.524  20.266  23.673  1.00  0.00     0.039 C 
ATOM     20  C   UNL A   1      32.771  21.287  24.781  1.00  0.00     0.127 C 
ATOM     21  O   UNL A   1      31.674  21.193  25.719  1.00  0.00    -0.378 OA
ATOM     22  C   UNL A   1      31.008  22.467  25.736  1.00  0.00     0.161 C 
ATOM     23  C   UNL A   1      31.341  23.120  24.406  1.00  0.00     0.044 C 
ENDBRANCH  15  18
ENDBRANCH   8  14
ENDBRANCH   5   7
ENDBRANCH   4   5
ENDBRANCH   3   4
ENDBRANCH   2   3
ENDBRANCH   1   2
BRANCH   1  24
ATOM     24  C   UNL A   1      43.870  21.819  25.616  1.00  0.00     0.202 C 
BRANCH  24  25
ATOM     25  C   UNL A   1      43.930  22.735  24.390  1.00  0.00     0.261 C 
BRANCH  25  26
ATOM     26  O   UNL A   1      43.272  23.992  24.624  1.00  0.00    -0.460 OA
BRANCH  26  27
ATOM     27  C   UNL A   1      44.079  24.963  25.114  1.00  0.00     0.338 C 
ATOM     28  O   UNL A   1      45.176  25.297  24.702  1.00  0.00    -0.246 OA
BRANCH  27  29
ATOM     29  C   UNL A   1      43.362  25.720  26.154  1.00  0.00     0.060 A 
ATOM     30  C   UNL A   1      43.748  27.048  26.370  1.00  0.00     0.016 A 
ATOM     31  C   UNL A   1      42.389  25.119  26.953  1.00  0.00     0.016 A 
ATOM     32  C   UNL A   1      43.195  27.771  27.423  1.00  0.00     0.010 A 
ATOM     33  C   UNL A   1      41.839  25.843  28.014  1.00  0.00     0.010 A 
ATOM     34  C   UNL A   1      42.264  27.158  28.273  1.00  0.00    -0.014 A 
BRANCH  34  35
ATOM     35  C   UNL A   1      41.825  27.854  29.504  1.00  0.00     0.031 A 
ATOM     36  C   UNL A   1      40.608  28.731  29.460  1.00  0.00     0.074 A 
ATOM     37  C   UNL A   1      42.497  27.687  30.656  1.00  0.00     0.049 A 
ATOM     38  N   UNL A   1      40.079  29.467  30.402  1.00  0.00    -0.248 NA
ATOM     39  C   UNL A   1      39.891  28.786  28.176  1.00  0.00     0.031 C 
ATOM     40  C   UNL A   1      43.662  26.822  30.828  1.00  0.00     0.029 A 
ATOM     41  N   UNL A   1      42.297  28.240  31.894  1.00  0.00    -0.354 N 
ATOM     42  C   UNL A   1      38.971  30.076  29.828  1.00  0.00     0.074 A 
ATOM     43  C   UNL A   1      38.928  29.656  28.444  1.00  0.00     0.031 C 
ATOM     44  C   UNL A   1      44.074  26.901  32.104  1.00  0.00     0.029 A 
ATOM     45  C   UNL A   1      43.228  27.854  32.823  1.00  0.00     0.049 A 
ATOM     46  H   UNL A   1      41.555  28.856  32.097  1.00  0.00     0.167 HD
ATOM     47  C   UNL A   1      38.066  30.898  30.409  1.00  0.00     0.037 A 
ATOM     48  C   UNL A   1      43.392  28.240  34.103  1.00  0.00     0.037 A 
ATOM     49  C   UNL A   1      38.125  31.316  31.787  1.00  0.00     0.049 A 
ATOM     50  C   UNL A   1      42.436  29.231  34.705  1.00  0.00     0.074 A 
ATOM     51  C   UNL A   1      37.251  32.137  32.476  1.00  0.00     0.029 A 
ATOM     52  N   UNL A   1      39.122  30.952  32.682  1.00  0.00    -0.354 N 
ATOM     53  N   UNL A   1      41.384  29.797  34.162  1.00  0.00    -0.248 NA
ATOM     54  C   UNL A   1      42.688  29.644  36.092  1.00  0.00     0.031 C 
ATOM     55  C   UNL A   1      37.754  32.324  33.766  1.00  0.00     0.029 A 
ATOM     56  C   UNL A   1      38.904  31.564  33.907  1.00  0.00     0.049 A 
ATOM     57  H   UNL A   1      39.873  30.350  32.477  1.00  0.00     0.167 HD
ATOM     58  C   UNL A   1      40.837  30.613  35.144  1.00  0.00     0.074 A 
ATOM     59  C   UNL A   1      41.670  30.463  36.320  1.00  0.00     0.031 C 
ATOM     60  C   UNL A   1      39.743  31.412  35.072  1.00  0.00     0.037 A 
BRANCH  47  61
ATOM     61  C   UNL A   1      36.950  31.420  29.550  1.00  0.00     0.064 A 
ATOM     62  C   UNL A   1      36.933  32.764  29.144  1.00  0.00     0.173 A 
ATOM     63  C   UNL A   1      35.879  30.603  29.152  1.00  0.00     0.173 A 
ATOM     64  F   UNL A   1      37.926  33.591  29.500  1.00  0.00    -0.203 F 
ATOM     65  C   UNL A   1      35.887  33.268  28.374  1.00  0.00     0.198 A 
ATOM     66  C   UNL A   1      34.855  31.103  28.352  1.00  0.00     0.198 A 
ATOM     67  F   UNL A   1      35.851  29.309  29.504  1.00  0.00    -0.203 F 
ATOM     68  F   UNL A   1      35.882  34.561  28.020  1.00  0.00    -0.200 F 
ATOM     69  C   UNL A   1      34.856  32.435  27.970  1.00  0.00     0.200 A 
ATOM     70  F   UNL A   1      33.873  30.289  27.938  1.00  0.00    -0.200 F 
ATOM     71  F   UNL A   1      33.864  32.917  27.207  1.00  0.00    -0.200 F 
ENDBRANCH  47  61
BRANCH  48  72
ATOM     72  C   UNL A   1      44.504  27.652  34.891  1.00  0.00     0.064 A 
ATOM     73  C   UNL A   1      45.772  28.254  34.924  1.00  0.00     0.173 A 
ATOM     74  C   UNL A   1      44.342  26.431  35.559  1.00  0.00     0.173 A 
ATOM     75  F   UNL A   1      45.978  29.421  34.297  1.00  0.00    -0.203 F 
ATOM     76  C   UNL A   1      46.845  27.633  35.560  1.00  0.00     0.198 A 
ATOM     77  C   UNL A   1      45.410  25.825  36.215  1.00  0.00     0.198 A 
ATOM     78  F   UNL A   1      43.143  25.831  35.572  1.00  0.00    -0.203 F 
ATOM     79  F   UNL A   1      48.059  28.201  35.528  1.00  0.00    -0.200 F 
ATOM     80  C   UNL A   1      46.663  26.418  36.203  1.00  0.00     0.200 A 
ATOM     81  F   UNL A   1      45.228  24.660  36.851  1.00  0.00    -0.200 F 
ATOM     82  F   UNL A   1      47.698  25.817  36.807  1.00  0.00    -0.200 F 
ENDBRANCH  48  72
BRANCH  60  83
ATOM     83  C   UNL A   1      39.358  32.186  36.301  1.00  0.00     0.064 A 
ATOM     84  C   UNL A   1      38.335  31.721  37.143  1.00  0.00     0.173 A 
ATOM     85  C   UNL A   1      39.929  33.434  36.593  1.00  0.00     0.173 A 
ATOM     86  F   UNL A   1      37.748  30.538  36.904  1.00  0.00    -0.203 F 
ATOM     87  C   UNL A   1      37.882  32.486  38.213  1.00  0.00     0.198 A 
ATOM     88  C   UNL A   1      39.496  34.182  37.685  1.00  0.00     0.198 A 
ATOM     89  F   UNL A   1      40.920  33.918  35.829  1.00  0.00    -0.203 F 
ATOM     90  F   UNL A   1      36.872  32.041  38.974  1.00  0.00    -0.200 F 
ATOM     91  C   UNL A   1      38.464  33.714  38.485  1.00  0.00     0.200 A 
ATOM     92  F   UNL A   1      40.076  35.358  37.962  1.00  0.00    -0.200 F 
ATOM     93  F   UNL A   1      38.031  34.449  39.519  1.00  0.00    -0.200 F 
ENDBRANCH  60  83
ENDBRANCH  34  35
ENDBRANCH  27  29
ENDBRANCH  26  27
ENDBRANCH  25  26
ENDBRANCH  24  25
ENDBRANCH   1  24
TORSDOF 16
ENDMDL
MODEL 3
REMARK VINA RESULT:     -11.2      3.290      8.981
REMARK SMILES C[C@@H]1OCC[C@@H]1C(=O)Nc1ccc(C(=O)OCCOCCOC(=O)c2ccc(-c3c4nc(c(-c5c(F)c(F)c(F)c(F)c5F)c5ccc([nH]5)c(-c5c(F)c(F)c(F)c(F)c5F)c5nc(c(-c6c(F)c(F)c(F)c(F)c6F)c6ccc3[nH]6)C=C5)C=C4)cc2)cc1F
REMARK SMILES IDX 19 1 18 2 17 3 16 4 14 5 15 6 13 7 10 8 11 9 89 10 12 11
REMARK SMILES IDX 88 12 90 13 9 14 7 15 8 16 6 18 1 19 2 20 3 21 4 22 5 23
REMARK SMILES IDX 20 24 21 25 22 26 23 27 24 28 25 29 26 30 87 31 27 32 86 33
REMARK SMILES IDX 28 34 29 35 30 36 80 37 31 38 85 39 79 40 81 41 32 42 84 43
REMARK SMILES IDX 78 44 77 45 33 47 65 48 45 49 64 50 46 51 49 52 63 53 82 54
REMARK SMILES IDX 47 55 48 56 62 58 83 59 50 60 34 61 35 62 43 63 36 64 37 65
REMARK SMILES IDX 41 66 44 67 38 68 39 69 42 70 40 71 66 72 67 73 75 74 68 75
REMARK SMILES IDX 69 76 73 77 76 78 70 79 71 80 74 81 72 82 51 83 52 84 60 85
REMARK SMILES IDX 53 86 54 87 58 88 61 89 55 90 56 91 59 92 57 93
REMARK H PARENT 9 17 81 46 49 57
REMARK Flexibility Score: inf
ROOT
ATOM      1  O   UNL A   1      37.362  21.264  25.561  1.00  0.00    -0.374 OA
ENDROOT
BRANCH   1   2
ATOM      2  C   UNL A   1      36.076  21.684  25.108  1.00  0.00     0.202 C 
BRANCH   2   3
ATOM      3  C   UNL A   1      34.917  20.710  25.334  1.00  0.00     0.261 C 
BRANCH   3   4
ATOM      4  O   UNL A   1      33.968  20.774  24.268  1.00  0.00    -0.460 OA
BRANCH   4   5
ATOM      5  C   UNL A   1      32.668  20.596  24.621  1.00  0.00     0.338 C 
ATOM      6  O   UNL A   1      32.137  19.583  25.020  1.00  0.00    -0.246 OA
BRANCH   5   7
ATOM      7  C   UNL A   1      32.001  21.915  24.568  1.00  0.00     0.063 A 
ATOM      8  C   UNL A   1      30.747  24.459  24.495  1.00  0.00     0.077 A 
ATOM      9  C   UNL A   1      31.127  23.795  23.312  1.00  0.00     0.030 A 
ATOM     10  C   UNL A   1      30.984  23.772  25.696  1.00  0.00     0.147 A 
ATOM     11  C   UNL A   1      31.760  22.542  23.345  1.00  0.00     0.018 A 
ATOM     12  C   UNL A   1      31.586  22.524  25.739  1.00  0.00     0.057 A 
ATOM     13  F   UNL A   1      30.672  24.228  26.906  1.00  0.00    -0.205 F 
BRANCH   8  14
ATOM     14  N   UNL A   1      30.207  25.760  24.308  1.00  0.00    -0.323 N 
ATOM     15  C   UNL A   1      30.714  27.032  24.286  1.00  0.00     0.230 C 
ATOM     16  O   UNL A   1      29.953  27.954  23.982  1.00  0.00    -0.274 OA
ATOM     17  H   UNL A   1      29.233  25.742  24.159  1.00  0.00     0.170 HD
BRANCH  15  18
ATOM     18  C   UNL A   1      32.148  27.289  24.632  1.00  0.00     0.110 C 
ATOM     19  C   UNL A   1      31.412  27.707  27.079  1.00  0.00     0.039 C 
ATOM     20  C   UNL A   1      32.446  27.111  26.126  1.00  0.00     0.127 C 
ATOM     21  O   UNL A   1      33.701  27.792  26.356  1.00  0.00    -0.378 OA
ATOM     22  C   UNL A   1      34.068  28.449  25.131  1.00  0.00     0.161 C 
ATOM     23  C   UNL A   1      32.770  28.641  24.365  1.00  0.00     0.044 C 
ENDBRANCH  15  18
ENDBRANCH   8  14
ENDBRANCH   5   7
ENDBRANCH   4   5
ENDBRANCH   3   4
ENDBRANCH   2   3
ENDBRANCH   1   2
BRANCH   1  24
ATOM     24  C   UNL A   1      37.913  20.090  24.960  1.00  0.00     0.202 C 
BRANCH  24  25
ATOM     25  C   UNL A   1      39.106  19.444  25.672  1.00  0.00     0.261 C 
BRANCH  25  26
ATOM     26  O   UNL A   1      40.229  20.337  25.758  1.00  0.00    -0.460 OA
BRANCH  26  27
ATOM     27  C   UNL A   1      40.816  20.382  26.978  1.00  0.00     0.338 C 
ATOM     28  O   UNL A   1      41.251  19.450  27.629  1.00  0.00    -0.246 OA
BRANCH  27  29
ATOM     29  C   UNL A   1      41.026  21.786  27.370  1.00  0.00     0.060 A 
ATOM     30  C   UNL A   1      40.427  22.776  26.582  1.00  0.00     0.016 A 
ATOM     31  C   UNL A   1      41.858  22.128  28.437  1.00  0.00     0.016 A 
ATOM     32  C   UNL A   1      40.696  24.119  26.828  1.00  0.00     0.010 A 
ATOM     33  C   UNL A   1      42.132  23.476  28.681  1.00  0.00     0.010 A 
ATOM     34  C   UNL A   1      41.580  24.473  27.856  1.00  0.00    -0.014 A 
BRANCH  34  35
ATOM     35  C   UNL A   1      42.020  25.881  27.994  1.00  0.00     0.031 A 
ATOM     36  C   UNL A   1      43.349  26.295  27.432  1.00  0.00     0.074 A 
ATOM     37  C   UNL A   1      41.229  26.784  28.597  1.00  0.00     0.049 A 
ATOM     38  N   UNL A   1      43.947  27.457  27.485  1.00  0.00    -0.248 NA
ATOM     39  C   UNL A   1      44.107  25.257  26.717  1.00  0.00     0.031 C 
ATOM     40  C   UNL A   1      39.900  26.506  29.136  1.00  0.00     0.029 A 
ATOM     41  N   UNL A   1      41.433  28.114  28.861  1.00  0.00    -0.354 N 
ATOM     42  C   UNL A   1      45.151  27.291  26.813  1.00  0.00     0.074 A 
ATOM     43  C   UNL A   1      45.218  25.905  26.400  1.00  0.00     0.031 C 
ATOM     44  C   UNL A   1      39.403  27.635  29.665  1.00  0.00     0.029 A 
ATOM     45  C   UNL A   1      40.397  28.701  29.541  1.00  0.00     0.049 A 
ATOM     46  H   UNL A   1      42.244  28.600  28.588  1.00  0.00     0.167 HD
ATOM     47  C   UNL A   1      46.106  28.216  26.555  1.00  0.00     0.037 A 
ATOM     48  C   UNL A   1      40.274  29.952  30.026  1.00  0.00     0.037 A 
ATOM     49  C   UNL A   1      46.032  29.591  26.979  1.00  0.00     0.049 A 
ATOM     50  C   UNL A   1      41.387  30.939  29.817  1.00  0.00     0.074 A 
ATOM     51  C   UNL A   1      46.940  30.610  26.758  1.00  0.00     0.029 A 
ATOM     52  N   UNL A   1      44.993  30.135  27.723  1.00  0.00    -0.354 N 
ATOM     53  N   UNL A   1      42.520  30.782  29.173  1.00  0.00    -0.248 NA
ATOM     54  C   UNL A   1      41.212  32.276  30.402  1.00  0.00     0.031 C 
ATOM     55  C   UNL A   1      46.484  31.752  27.423  1.00  0.00     0.029 A 
ATOM     56  C   UNL A   1      45.257  31.466  28.001  1.00  0.00     0.049 A 
ATOM     57  H   UNL A   1      44.188  29.646  28.011  1.00  0.00     0.167 HD
ATOM     58  C   UNL A   1      43.182  32.000  29.257  1.00  0.00     0.074 A 
ATOM     59  C   UNL A   1      42.319  32.891  30.007  1.00  0.00     0.031 C 
ATOM     60  C   UNL A   1      44.394  32.345  28.754  1.00  0.00     0.037 A 
BRANCH  47  61
ATOM     61  C   UNL A   1      47.323  27.764  25.799  1.00  0.00     0.064 A 
ATOM     62  C   UNL A   1      48.483  27.372  26.486  1.00  0.00     0.173 A 
ATOM     63  C   UNL A   1      47.358  27.747  24.395  1.00  0.00     0.173 A 
ATOM     64  F   UNL A   1      48.508  27.375  27.827  1.00  0.00    -0.203 F 
ATOM     65  C   UNL A   1      49.629  26.983  25.797  1.00  0.00     0.198 A 
ATOM     66  C   UNL A   1      48.494  27.322  23.712  1.00  0.00     0.198 A 
ATOM     67  F   UNL A   1      46.274  28.102  23.689  1.00  0.00    -0.203 F 
ATOM     68  F   UNL A   1      50.731  26.637  26.476  1.00  0.00    -0.200 F 
ATOM     69  C   UNL A   1      49.630  26.947  24.412  1.00  0.00     0.200 A 
ATOM     70  F   UNL A   1      48.483  27.260  22.372  1.00  0.00    -0.200 F 
ATOM     71  F   UNL A   1      50.725  26.547  23.751  1.00  0.00    -0.200 F 
ENDBRANCH  47  61
BRANCH  48  72
ATOM     72  C   UNL A   1      39.024  30.324  30.736  1.00  0.00     0.064 A 
ATOM     73  C   UNL A   1      37.945  30.909  30.055  1.00  0.00     0.173 A 
ATOM     74  C   UNL A   1      38.920  30.178  32.125  1.00  0.00     0.173 A 
ATOM     75  F   UNL A   1      37.999  31.072  28.725  1.00  0.00    -0.203 F 
ATOM     76  C   UNL A   1      36.827  31.372  30.745  1.00  0.00     0.198 A 
ATOM     77  C   UNL A   1      37.790  30.620  32.810  1.00  0.00     0.198 A 
ATOM     78  F   UNL A   1      39.918  29.606  32.814  1.00  0.00    -0.203 F 
ATOM     79  F   UNL A   1      35.834  31.978  30.078  1.00  0.00    -0.200 F 
ATOM     80  C   UNL A   1      36.752  31.229  32.122  1.00  0.00     0.200 A 
ATOM     81  F   UNL A   1      37.712  30.464  34.138  1.00  0.00    -0.200 F 
ATOM     82  F   UNL A   1      35.680  31.683  32.786  1.00  0.00    -0.200 F 
ENDBRANCH  48  72
BRANCH  60  83
ATOM     83  C   UNL A   1      44.872  33.751  28.979  1.00  0.00     0.064 A 
ATOM     84  C   UNL A   1      44.586  34.758  28.042  1.00  0.00     0.173 A 
ATOM     85  C   UNL A   1      45.694  34.084  30.066  1.00  0.00     0.173 A 
ATOM     86  F   UNL A   1      43.812  34.491  26.979  1.00  0.00    -0.203 F 
ATOM     87  C   UNL A   1      45.126  36.034  28.171  1.00  0.00     0.198 A 
ATOM     88  C   UNL A   1      46.206  35.371  30.210  1.00  0.00     0.198 A 
ATOM     89  F   UNL A   1      45.987  33.163  30.997  1.00  0.00    -0.203 F 
ATOM     90  F   UNL A   1      44.876  36.964  27.239  1.00  0.00    -0.200 F 
ATOM     91  C   UNL A   1      45.933  36.340  29.256  1.00  0.00     0.200 A 
ATOM     92  F   UNL A   1      46.966  35.673  31.271  1.00  0.00    -0.200 F 
ATOM     93  F   UNL A   1      46.449  37.571  29.383  1.00  0.00    -0.200 F 
ENDBRANCH  60  83
ENDBRANCH  34  35
ENDBRANCH  27  29
ENDBRANCH  26  27
ENDBRANCH  25  26
ENDBRANCH  24  25
ENDBRANCH   1  24
TORSDOF 16
ENDMDL
