MODEL 1
REMARK VINA RESULT:     -12.1      0.000      0.000
REMARK SMILES CCCCc1cc(S(F)(F)(F)(F)F)cc2c1O[C@@H](C(F)(F)F)C(C(=O)OCCOCCOC(=O)c1ccc(-c3c4nc(c(-c5c(F)c(F)c(F)c(F)c5F)c5ccc([nH]5)c(-c5c(F)c(F)c(F)c(F)c5F)c5nc(c(-c6c(F)c(F)c(F)c(F)c6F)c6ccc3[nH]6)C=C5)C=C4)cc1)=C2
REMARK SMILES IDX 28 1 27 2 26 3 24 4 25 5 23 6 5 7 6 8 16 9 7 10 15 11 17 12
REMARK SMILES IDX 14 13 98 14 18 15 4 16 3 17 2 18 1 19 8 20 9 21 10 22 11 23
REMARK SMILES IDX 12 24 13 25 19 26 20 27 21 28 22 29 29 30 30 31 31 32 32 33
REMARK SMILES IDX 33 34 34 35 35 36 36 37 97 38 37 39 96 40 38 41 39 42 40 43
REMARK SMILES IDX 90 44 41 45 95 46 89 47 91 48 42 49 94 50 88 51 87 52 43 54
REMARK SMILES IDX 75 55 55 56 74 57 56 58 59 59 73 60 92 61 57 62 58 63 72 65
REMARK SMILES IDX 93 66 60 67 44 68 45 69 53 70 46 71 47 72 51 73 54 74 48 75
REMARK SMILES IDX 49 76 52 77 50 78 76 79 77 80 85 81 78 82 79 83 83 84 86 85
REMARK SMILES IDX 80 86 81 87 84 88 82 89 61 90 62 91 70 92 63 93 64 94 68 95
REMARK SMILES IDX 71 96 65 97 66 98 69 99 67 100
REMARK H PARENT 91 53 59 64
REMARK Flexibility Score: inf
ROOT
ATOM      1  C   UNL A   1      30.271  27.328  23.619  1.00  0.00     0.202 C 
ENDROOT
BRANCH   1   2
ATOM      2  C   UNL A   1      29.490  26.209  24.291  1.00  0.00     0.261 C 
BRANCH   2   3
ATOM      3  O   UNL A   1      30.268  25.022  24.286  1.00  0.00    -0.460 OA
BRANCH   3   4
ATOM      4  C   UNL A   1      30.768  24.495  25.507  1.00  0.00     0.338 C 
ATOM      5  O   UNL A   1      30.238  24.836  26.610  1.00  0.00    -0.246 OA
BRANCH   4   6
ATOM      6  C   UNL A   1      31.936  23.522  25.493  1.00  0.00     0.087 C 
ATOM      7  C   UNL A   1      35.278  21.064  25.004  1.00  0.00    -0.004 A 
ATOM      8  C   UNL A   1      35.112  19.708  24.793  1.00  0.00     0.032 A 
ATOM      9  C   UNL A   1      34.162  21.858  25.108  1.00  0.00     0.131 A 
ATOM     10  C   UNL A   1      33.861  19.160  24.683  1.00  0.00     0.108 A 
ATOM     11  C   UNL A   1      32.883  21.337  25.021  1.00  0.00     0.019 A 
ATOM     12  O   UNL A   1      34.343  23.216  25.205  1.00  0.00    -0.475 OA
ATOM     13  C   UNL A   1      32.752  19.971  24.804  1.00  0.00     0.036 A 
ATOM     14  C   UNL A   1      31.767  22.265  25.105  1.00  0.00     0.027 C 
ATOM     15  C   UNL A   1      33.327  23.971  25.922  1.00  0.00     0.316 C 
BRANCH   7  16
ATOM     16  C   UNL A   1      36.669  21.666  25.119  1.00  0.00     0.039 C 
BRANCH  16  17
ATOM     17  C   UNL A   1      37.710  20.564  25.001  1.00  0.00     0.005 C 
BRANCH  17  18
ATOM     18  C   UNL A   1      38.967  20.971  25.752  1.00  0.00    -0.003 C 
ATOM     19  C   UNL A   1      38.881  22.443  26.124  1.00  0.00     0.004 C 
ENDBRANCH  17  18
ENDBRANCH  16  17
ENDBRANCH   7  16
BRANCH  10  20
ATOM     20  S   UNL A   1      33.667  17.386  24.383  1.00  0.00     0.310 S 
ATOM     21  F   UNL A   1      32.108  17.536  24.130  1.00  0.00    -0.094 F 
ATOM     22  F   UNL A   1      33.329  17.190  25.910  1.00  0.00    -0.094 F 
ATOM     23  F   UNL A   1      33.500  15.862  24.123  1.00  0.00    -0.094 F 
ATOM     24  F   UNL A   1      33.867  17.621  22.835  1.00  0.00    -0.094 F 
ATOM     25  F   UNL A   1      33.726  18.949  24.613  1.00  0.00    -0.094 F 
ENDBRANCH  10  20
BRANCH  15  26
ATOM     26  C   UNL A   1      33.491  25.449  25.605  1.00  0.00     0.430 C 
ATOM     27  F   UNL A   1      34.767  25.796  25.751  1.00  0.00    -0.167 F 
ATOM     28  F   UNL A   1      33.111  25.679  24.351  1.00  0.00    -0.167 F 
ATOM     29  F   UNL A   1      32.738  26.166  26.434  1.00  0.00    -0.167 F 
ENDBRANCH  15  26
ENDBRANCH   4   6
ENDBRANCH   3   4
ENDBRANCH   2   3
ENDBRANCH   1   2
BRANCH   1  30
ATOM     30  O   UNL A   1      31.039  28.020  24.592  1.00  0.00    -0.374 OA
BRANCH  30  31
ATOM     31  C   UNL A   1      31.756  29.074  23.966  1.00  0.00     0.202 C 
BRANCH  31  32
ATOM     32  C   UNL A   1      32.836  29.580  24.907  1.00  0.00     0.261 C 
BRANCH  32  33
ATOM     33  O   UNL A   1      32.233  30.102  26.083  1.00  0.00    -0.460 OA
BRANCH  33  34
ATOM     34  C   UNL A   1      32.899  31.105  26.836  1.00  0.00     0.338 C 
ATOM     35  O   UNL A   1      32.425  32.283  26.886  1.00  0.00    -0.246 OA
BRANCH  34  36
ATOM     36  C   UNL A   1      34.178  30.767  27.585  1.00  0.00     0.060 A 
ATOM     37  C   UNL A   1      34.401  29.464  27.997  1.00  0.00     0.016 A 
ATOM     38  C   UNL A   1      35.061  31.728  27.835  1.00  0.00     0.016 A 
ATOM     39  C   UNL A   1      35.459  29.328  28.926  1.00  0.00     0.010 A 
ATOM     40  C   UNL A   1      36.146  31.488  28.641  1.00  0.00     0.010 A 
ATOM     41  C   UNL A   1      36.395  30.236  29.132  1.00  0.00    -0.014 A 
BRANCH  41  42
ATOM     42  C   UNL A   1      37.680  29.908  29.875  1.00  0.00     0.031 A 
ATOM     43  C   UNL A   1      37.882  30.492  31.126  1.00  0.00     0.074 A 
ATOM     44  C   UNL A   1      38.576  29.045  29.269  1.00  0.00     0.049 A 
ATOM     45  N   UNL A   1      38.915  30.311  31.951  1.00  0.00    -0.248 NA
ATOM     46  C   UNL A   1      36.948  31.436  31.757  1.00  0.00     0.031 C 
ATOM     47  C   UNL A   1      38.376  28.445  28.011  1.00  0.00     0.029 A 
ATOM     48  N   UNL A   1      39.794  28.617  29.750  1.00  0.00    -0.354 N 
ATOM     49  C   UNL A   1      38.746  31.025  33.066  1.00  0.00     0.074 A 
ATOM     50  C   UNL A   1      37.480  31.764  32.955  1.00  0.00     0.031 C 
ATOM     51  C   UNL A   1      39.461  27.675  27.733  1.00  0.00     0.029 A 
ATOM     52  C   UNL A   1      40.358  27.781  28.811  1.00  0.00     0.049 A 
ATOM     53  H   UNL A   1      40.193  28.865  30.615  1.00  0.00     0.167 HD
ATOM     54  C   UNL A   1      39.595  31.088  34.171  1.00  0.00     0.037 A 
ATOM     55  C   UNL A   1      41.585  27.139  28.875  1.00  0.00     0.037 A 
ATOM     56  C   UNL A   1      40.802  30.412  34.253  1.00  0.00     0.049 A 
ATOM     57  C   UNL A   1      42.462  27.248  29.956  1.00  0.00     0.074 A 
ATOM     58  C   UNL A   1      41.667  30.458  35.363  1.00  0.00     0.029 A 
ATOM     59  N   UNL A   1      41.377  29.596  33.304  1.00  0.00    -0.354 N 
ATOM     60  N   UNL A   1      42.274  27.931  31.087  1.00  0.00    -0.248 NA
ATOM     61  C   UNL A   1      43.779  26.599  30.019  1.00  0.00     0.031 C 
ATOM     62  C   UNL A   1      42.753  29.689  35.084  1.00  0.00     0.029 A 
ATOM     63  C   UNL A   1      42.584  29.149  33.795  1.00  0.00     0.049 A 
ATOM     64  H   UNL A   1      40.992  29.370  32.426  1.00  0.00     0.167 HD
ATOM     65  C   UNL A   1      43.326  27.782  31.894  1.00  0.00     0.074 A 
ATOM     66  C   UNL A   1      44.313  26.929  31.216  1.00  0.00     0.031 C 
ATOM     67  C   UNL A   1      43.503  28.320  33.170  1.00  0.00     0.037 A 
BRANCH  54  68
ATOM     68  C   UNL A   1      39.173  31.946  35.353  1.00  0.00     0.064 A 
ATOM     69  C   UNL A   1      38.472  31.389  36.410  1.00  0.00     0.173 A 
ATOM     70  C   UNL A   1      39.572  33.212  35.383  1.00  0.00     0.173 A 
ATOM     71  F   UNL A   1      38.276  30.080  36.539  1.00  0.00    -0.203 F 
ATOM     72  C   UNL A   1      37.984  32.338  37.338  1.00  0.00     0.198 A 
ATOM     73  C   UNL A   1      39.167  34.049  36.394  1.00  0.00     0.198 A 
ATOM     74  F   UNL A   1      40.370  33.674  34.424  1.00  0.00    -0.203 F 
ATOM     75  F   UNL A   1      37.017  31.953  38.167  1.00  0.00    -0.200 F 
ATOM     76  C   UNL A   1      38.422  33.580  37.440  1.00  0.00     0.200 A 
ATOM     77  F   UNL A   1      39.504  35.336  36.355  1.00  0.00    -0.200 F 
ATOM     78  F   UNL A   1      38.153  34.333  38.503  1.00  0.00    -0.200 F 
ENDBRANCH  54  68
BRANCH  55  79
ATOM     79  C   UNL A   1      41.998  26.268  27.700  1.00  0.00     0.064 A 
ATOM     80  C   UNL A   1      41.592  24.945  27.650  1.00  0.00     0.173 A 
ATOM     81  C   UNL A   1      42.818  26.772  26.785  1.00  0.00     0.173 A 
ATOM     82  F   UNL A   1      40.590  24.466  28.380  1.00  0.00    -0.203 F 
ATOM     83  C   UNL A   1      42.341  24.149  26.749  1.00  0.00     0.198 A 
ATOM     84  C   UNL A   1      43.409  25.957  25.850  1.00  0.00     0.198 A 
ATOM     85  F   UNL A   1      43.069  28.078  26.775  1.00  0.00    -0.203 F 
ATOM     86  F   UNL A   1      42.275  22.828  26.890  1.00  0.00    -0.200 F 
ATOM     87  C   UNL A   1      43.099  24.627  25.780  1.00  0.00     0.200 A 
ATOM     88  F   UNL A   1      44.295  26.470  25.001  1.00  0.00    -0.200 F 
ATOM     89  F   UNL A   1      43.538  23.857  24.789  1.00  0.00    -0.200 F 
ENDBRANCH  55  79
BRANCH  67  90
ATOM     90  C   UNL A   1      44.779  27.975  33.920  1.00  0.00     0.064 A 
ATOM     91  C   UNL A   1      44.817  26.833  34.703  1.00  0.00     0.173 A 
ATOM     92  C   UNL A   1      45.834  28.773  33.816  1.00  0.00     0.173 A 
ATOM     93  F   UNL A   1      43.890  25.880  34.642  1.00  0.00    -0.203 F 
ATOM     94  C   UNL A   1      45.932  26.770  35.572  1.00  0.00     0.198 A 
ATOM     95  C   UNL A   1      46.944  28.573  34.600  1.00  0.00     0.198 A 
ATOM     96  F   UNL A   1      45.817  29.776  32.943  1.00  0.00    -0.203 F 
ATOM     97  F   UNL A   1      45.873  25.920  36.594  1.00  0.00    -0.200 F 
ATOM     98  C   UNL A   1      47.026  27.497  35.441  1.00  0.00     0.200 A 
ATOM     99  F   UNL A   1      47.952  29.439  34.542  1.00  0.00    -0.200 F 
ATOM    100  F   UNL A   1      48.148  27.199  36.089  1.00  0.00    -0.200 F 
ENDBRANCH  67  90
ENDBRANCH  41  42
ENDBRANCH  34  36
ENDBRANCH  33  34
ENDBRANCH  32  33
ENDBRANCH  31  32
ENDBRANCH  30  31
ENDBRANCH   1  30
TORSDOF 19
ENDMDL
MODEL 2
REMARK VINA RESULT:     -12.1      0.505      6.919
REMARK SMILES CCCCc1cc(S(F)(F)(F)(F)F)cc2c1O[C@@H](C(F)(F)F)C(C(=O)OCCOCCOC(=O)c1ccc(-c3c4nc(c(-c5c(F)c(F)c(F)c(F)c5F)c5ccc([nH]5)c(-c5c(F)c(F)c(F)c(F)c5F)c5nc(c(-c6c(F)c(F)c(F)c(F)c6F)c6ccc3[nH]6)C=C5)C=C4)cc1)=C2
REMARK SMILES IDX 28 1 27 2 26 3 24 4 25 5 23 6 5 7 6 8 16 9 7 10 15 11 17 12
REMARK SMILES IDX 14 13 98 14 18 15 4 16 3 17 2 18 1 19 8 20 9 21 10 22 11 23
REMARK SMILES IDX 12 24 13 25 19 26 20 27 21 28 22 29 29 30 30 31 31 32 32 33
REMARK SMILES IDX 33 34 34 35 35 36 36 37 97 38 37 39 96 40 38 41 39 42 40 43
REMARK SMILES IDX 90 44 41 45 95 46 89 47 91 48 42 49 94 50 88 51 87 52 43 54
REMARK SMILES IDX 75 55 55 56 74 57 56 58 59 59 73 60 92 61 57 62 58 63 72 65
REMARK SMILES IDX 93 66 60 67 44 68 45 69 53 70 46 71 47 72 51 73 54 74 48 75
REMARK SMILES IDX 49 76 52 77 50 78 76 79 77 80 85 81 78 82 79 83 83 84 86 85
REMARK SMILES IDX 80 86 81 87 84 88 82 89 61 90 62 91 70 92 63 93 64 94 68 95
REMARK SMILES IDX 71 96 65 97 66 98 69 99 67 100
REMARK H PARENT 91 53 59 64
REMARK Flexibility Score: inf
ROOT
ATOM      1  C   UNL A   1      30.145  27.436  23.633  1.00  0.00     0.202 C 
ENDROOT
BRANCH   1   2
ATOM      2  C   UNL A   1      29.346  26.385  24.387  1.00  0.00     0.261 C 
BRANCH   2   3
ATOM      3  O   UNL A   1      30.050  25.152  24.368  1.00  0.00    -0.460 OA
BRANCH   3   4
ATOM      4  C   UNL A   1      30.658  24.662  25.555  1.00  0.00     0.338 C 
ATOM      5  O   UNL A   1      30.235  25.047  26.690  1.00  0.00    -0.246 OA
BRANCH   4   6
ATOM      6  C   UNL A   1      31.812  23.678  25.467  1.00  0.00     0.087 C 
ATOM      7  C   UNL A   1      35.076  21.170  24.758  1.00  0.00    -0.004 A 
ATOM      8  C   UNL A   1      34.881  19.809  24.609  1.00  0.00     0.032 A 
ATOM      9  C   UNL A   1      33.980  21.978  24.936  1.00  0.00     0.131 A 
ATOM     10  C   UNL A   1      33.621  19.271  24.634  1.00  0.00     0.108 A 
ATOM     11  C   UNL A   1      32.695  21.468  24.985  1.00  0.00     0.019 A 
ATOM     12  O   UNL A   1      34.180  23.337  24.970  1.00  0.00    -0.475 OA
ATOM     13  C   UNL A   1      32.534  20.097  24.828  1.00  0.00     0.036 A 
ATOM     14  C   UNL A   1      31.598  22.410  25.139  1.00  0.00     0.027 C 
ATOM     15  C   UNL A   1      33.239  24.126  25.751  1.00  0.00     0.316 C 
BRANCH   7  16
ATOM     16  C   UNL A   1      36.477  21.760  24.724  1.00  0.00     0.039 C 
BRANCH  16  17
ATOM     17  C   UNL A   1      36.863  22.229  26.118  1.00  0.00     0.005 C 
BRANCH  17  18
ATOM     18  C   UNL A   1      37.189  23.713  26.081  1.00  0.00    -0.003 C 
ATOM     19  C   UNL A   1      38.633  23.925  26.505  1.00  0.00     0.004 C 
ENDBRANCH  17  18
ENDBRANCH  16  17
ENDBRANCH   7  16
BRANCH  10  20
ATOM     20  S   UNL A   1      33.387  17.490  24.413  1.00  0.00     0.310 S 
ATOM     21  F   UNL A   1      31.807  17.637  24.398  1.00  0.00    -0.094 F 
ATOM     22  F   UNL A   1      33.287  17.335  25.978  1.00  0.00    -0.094 F 
ATOM     23  F   UNL A   1      33.185  15.960  24.221  1.00  0.00    -0.094 F 
ATOM     24  F   UNL A   1      33.348  17.684  22.847  1.00  0.00    -0.094 F 
ATOM     25  F   UNL A   1      33.478  19.058  24.590  1.00  0.00    -0.094 F 
ENDBRANCH  10  20
BRANCH  15  26
ATOM     26  C   UNL A   1      33.385  25.590  25.370  1.00  0.00     0.430 C 
ATOM     27  F   UNL A   1      32.901  25.782  24.146  1.00  0.00    -0.167 F 
ATOM     28  F   UNL A   1      32.711  26.343  26.235  1.00  0.00    -0.167 F 
ATOM     29  F   UNL A   1      34.671  25.930  25.396  1.00  0.00    -0.167 F 
ENDBRANCH  15  26
ENDBRANCH   4   6
ENDBRANCH   3   4
ENDBRANCH   2   3
ENDBRANCH   1   2
BRANCH   1  30
ATOM     30  O   UNL A   1      30.860  28.241  24.558  1.00  0.00    -0.374 OA
BRANCH  30  31
ATOM     31  C   UNL A   1      31.926  28.898  23.888  1.00  0.00     0.202 C 
BRANCH  31  32
ATOM     32  C   UNL A   1      32.929  29.407  24.910  1.00  0.00     0.261 C 
BRANCH  32  33
ATOM     33  O   UNL A   1      32.236  29.907  26.046  1.00  0.00    -0.460 OA
BRANCH  33  34
ATOM     34  C   UNL A   1      32.820  30.931  26.838  1.00  0.00     0.338 C 
ATOM     35  O   UNL A   1      32.288  32.084  26.878  1.00  0.00    -0.246 OA
BRANCH  34  36
ATOM     36  C   UNL A   1      34.080  30.646  27.639  1.00  0.00     0.060 A 
ATOM     37  C   UNL A   1      34.916  31.694  27.984  1.00  0.00     0.016 A 
ATOM     38  C   UNL A   1      34.360  29.396  27.991  1.00  0.00     0.016 A 
ATOM     39  C   UNL A   1      36.184  31.284  28.459  1.00  0.00     0.010 A 
ATOM     40  C   UNL A   1      35.565  29.088  28.575  1.00  0.00     0.010 A 
ATOM     41  C   UNL A   1      36.464  30.068  28.891  1.00  0.00    -0.014 A 
BRANCH  41  42
ATOM     42  C   UNL A   1      37.720  29.774  29.697  1.00  0.00     0.031 A 
ATOM     43  C   UNL A   1      38.679  28.931  29.134  1.00  0.00     0.074 A 
ATOM     44  C   UNL A   1      37.841  30.361  30.945  1.00  0.00     0.049 A 
ATOM     45  N   UNL A   1      39.855  28.576  29.653  1.00  0.00    -0.248 NA
ATOM     46  C   UNL A   1      38.537  28.279  27.824  1.00  0.00     0.031 C 
ATOM     47  C   UNL A   1      36.882  31.219  31.517  1.00  0.00     0.029 A 
ATOM     48  N   UNL A   1      38.878  30.230  31.842  1.00  0.00    -0.354 N 
ATOM     49  C   UNL A   1      40.507  27.772  28.810  1.00  0.00     0.074 A 
ATOM     50  C   UNL A   1      39.665  27.564  27.624  1.00  0.00     0.031 C 
ATOM     51  C   UNL A   1      37.328  31.591  32.745  1.00  0.00     0.029 A 
ATOM     52  C   UNL A   1      38.573  30.973  32.962  1.00  0.00     0.049 A 
ATOM     53  H   UNL A   1      39.695  29.699  31.707  1.00  0.00     0.167 HD
ATOM     54  C   UNL A   1      41.771  27.206  28.984  1.00  0.00     0.037 A 
ATOM     55  C   UNL A   1      39.327  31.114  34.117  1.00  0.00     0.037 A 
ATOM     56  C   UNL A   1      42.543  27.382  30.121  1.00  0.00     0.049 A 
ATOM     57  C   UNL A   1      40.565  30.500  34.315  1.00  0.00     0.074 A 
ATOM     58  C   UNL A   1      43.822  26.823  30.309  1.00  0.00     0.029 A 
ATOM     59  N   UNL A   1      42.227  28.104  31.250  1.00  0.00    -0.354 N 
ATOM     60  N   UNL A   1      41.234  29.728  33.456  1.00  0.00    -0.248 NA
ATOM     61  C   UNL A   1      41.357  30.616  35.547  1.00  0.00     0.031 C 
ATOM     62  C   UNL A   1      44.268  27.196  31.538  1.00  0.00     0.029 A 
ATOM     63  C   UNL A   1      43.275  27.993  32.138  1.00  0.00     0.049 A 
ATOM     64  H   UNL A   1      41.397  28.612  31.398  1.00  0.00     0.167 HD
ATOM     65  C   UNL A   1      42.392  29.340  33.993  1.00  0.00     0.074 A 
ATOM     66  C   UNL A   1      42.485  29.900  35.349  1.00  0.00     0.031 C 
ATOM     67  C   UNL A   1      43.378  28.544  33.406  1.00  0.00     0.037 A 
BRANCH  54  68
ATOM     68  C   UNL A   1      42.332  26.346  27.862  1.00  0.00     0.064 A 
ATOM     69  C   UNL A   1      42.045  24.992  27.807  1.00  0.00     0.173 A 
ATOM     70  C   UNL A   1      43.024  26.943  26.900  1.00  0.00     0.173 A 
ATOM     71  F   UNL A   1      41.154  24.406  28.601  1.00  0.00    -0.203 F 
ATOM     72  C   UNL A   1      42.786  24.289  26.827  1.00  0.00     0.198 A 
ATOM     73  C   UNL A   1      43.608  26.207  25.898  1.00  0.00     0.198 A 
ATOM     74  F   UNL A   1      43.154  28.268  26.907  1.00  0.00    -0.203 F 
ATOM     75  F   UNL A   1      42.853  22.965  26.934  1.00  0.00    -0.200 F 
ATOM     76  C   UNL A   1      43.416  24.856  25.814  1.00  0.00     0.200 A 
ATOM     77  F   UNL A   1      44.371  26.817  24.995  1.00  0.00    -0.200 F 
ATOM     78  F   UNL A   1      43.839  24.151  24.769  1.00  0.00    -0.200 F 
ENDBRANCH  54  68
BRANCH  55  79
ATOM     79  C   UNL A   1      38.773  31.987  35.230  1.00  0.00     0.064 A 
ATOM     80  C   UNL A   1      39.000  33.354  35.211  1.00  0.00     0.173 A 
ATOM     81  C   UNL A   1      38.153  31.407  36.252  1.00  0.00     0.173 A 
ATOM     82  F   UNL A   1      39.382  34.009  34.119  1.00  0.00    -0.203 F 
ATOM     83  C   UNL A   1      38.790  33.987  36.459  1.00  0.00     0.198 A 
ATOM     84  C   UNL A   1      37.855  32.121  37.387  1.00  0.00     0.198 A 
ATOM     85  F   UNL A   1      37.816  30.123  36.173  1.00  0.00    -0.203 F 
ATOM     86  F   UNL A   1      39.317  35.196  36.636  1.00  0.00    -0.200 F 
ATOM     87  C   UNL A   1      38.107  33.463  37.460  1.00  0.00     0.200 A 
ATOM     88  F   UNL A   1      37.315  31.498  38.431  1.00  0.00    -0.200 F 
ATOM     89  F   UNL A   1      37.687  34.200  38.484  1.00  0.00    -0.200 F 
ENDBRANCH  55  79
BRANCH  67  90
ATOM     90  C   UNL A   1      44.641  28.267  34.204  1.00  0.00     0.064 A 
ATOM     91  C   UNL A   1      44.697  27.148  35.018  1.00  0.00     0.173 A 
ATOM     92  C   UNL A   1      45.669  29.102  34.111  1.00  0.00     0.173 A 
ATOM     93  F   UNL A   1      43.809  26.159  34.955  1.00  0.00    -0.203 F 
ATOM     94  C   UNL A   1      45.785  27.150  35.923  1.00  0.00     0.198 A 
ATOM     95  C   UNL A   1      46.760  28.964  34.934  1.00  0.00     0.198 A 
ATOM     96  F   UNL A   1      45.643  30.081  33.211  1.00  0.00    -0.203 F 
ATOM     97  F   UNL A   1      45.725  26.326  36.966  1.00  0.00    -0.200 F 
ATOM     98  C   UNL A   1      46.855  27.914  35.806  1.00  0.00     0.200 A 
ATOM     99  F   UNL A   1      47.737  29.866  34.884  1.00  0.00    -0.200 F 
ATOM    100  F   UNL A   1      47.966  27.676  36.497  1.00  0.00    -0.200 F 
ENDBRANCH  67  90
ENDBRANCH  41  42
ENDBRANCH  34  36
ENDBRANCH  33  34
ENDBRANCH  32  33
ENDBRANCH  31  32
ENDBRANCH  30  31
ENDBRANCH   1  30
TORSDOF 19
ENDMDL
MODEL 3
REMARK VINA RESULT:     -11.8      4.485      8.748
REMARK SMILES CCCCc1cc(S(F)(F)(F)(F)F)cc2c1O[C@@H](C(F)(F)F)C(C(=O)OCCOCCOC(=O)c1ccc(-c3c4nc(c(-c5c(F)c(F)c(F)c(F)c5F)c5ccc([nH]5)c(-c5c(F)c(F)c(F)c(F)c5F)c5nc(c(-c6c(F)c(F)c(F)c(F)c6F)c6ccc3[nH]6)C=C5)C=C4)cc1)=C2
REMARK SMILES IDX 28 1 27 2 26 3 24 4 25 5 23 6 5 7 6 8 16 9 7 10 15 11 17 12
REMARK SMILES IDX 14 13 98 14 18 15 4 16 3 17 2 18 1 19 8 20 9 21 10 22 11 23
REMARK SMILES IDX 12 24 13 25 19 26 20 27 21 28 22 29 29 30 30 31 31 32 32 33
REMARK SMILES IDX 33 34 34 35 35 36 36 37 97 38 37 39 96 40 38 41 39 42 40 43
REMARK SMILES IDX 90 44 41 45 95 46 89 47 91 48 42 49 94 50 88 51 87 52 43 54
REMARK SMILES IDX 75 55 55 56 74 57 56 58 59 59 73 60 92 61 57 62 58 63 72 65
REMARK SMILES IDX 93 66 60 67 44 68 45 69 53 70 46 71 47 72 51 73 54 74 48 75
REMARK SMILES IDX 49 76 52 77 50 78 76 79 77 80 85 81 78 82 79 83 83 84 86 85
REMARK SMILES IDX 80 86 81 87 84 88 82 89 61 90 62 91 70 92 63 93 64 94 68 95
REMARK SMILES IDX 71 96 65 97 66 98 69 99 67 100
REMARK H PARENT 91 53 59 64
REMARK Flexibility Score: inf
ROOT
ATOM      1  C   UNL A   1      37.864  21.545  25.101  1.00  0.00     0.202 C 
ENDROOT
BRANCH   1   2
ATOM      2  C   UNL A   1      36.860  22.601  24.665  1.00  0.00     0.261 C 
BRANCH   2   3
ATOM      3  O   UNL A   1      35.619  21.979  24.370  1.00  0.00    -0.460 OA
BRANCH   3   4
ATOM      4  C   UNL A   1      34.512  22.152  25.243  1.00  0.00     0.338 C 
ATOM      5  O   UNL A   1      34.283  21.296  26.155  1.00  0.00    -0.246 OA
BRANCH   4   6
ATOM      6  C   UNL A   1      33.602  23.359  25.087  1.00  0.00     0.087 C 
ATOM      7  C   UNL A   1      31.325  26.747  24.200  1.00  0.00    -0.004 A 
ATOM      8  C   UNL A   1      31.500  27.908  24.932  1.00  0.00     0.032 A 
ATOM      9  C   UNL A   1      32.125  25.665  24.477  1.00  0.00     0.131 A 
ATOM     10  C   UNL A   1      32.453  27.984  25.913  1.00  0.00     0.108 A 
ATOM     11  C   UNL A   1      33.085  25.700  25.473  1.00  0.00     0.019 A 
ATOM     12  O   UNL A   1      32.016  24.560  23.668  1.00  0.00    -0.475 OA
ATOM     13  C   UNL A   1      33.236  26.882  26.187  1.00  0.00     0.036 A 
ATOM     14  C   UNL A   1      33.906  24.515  25.663  1.00  0.00     0.027 C 
ATOM     15  C   UNL A   1      32.324  23.269  24.265  1.00  0.00     0.316 C 
BRANCH   7  16
ATOM     16  C   UNL A   1      30.270  26.671  23.109  1.00  0.00     0.039 C 
BRANCH  16  17
ATOM     17  C   UNL A   1      29.064  27.505  23.511  1.00  0.00     0.005 C 
BRANCH  17  18
ATOM     18  C   UNL A   1      29.035  28.783  22.689  1.00  0.00    -0.003 C 
ATOM     19  C   UNL A   1      27.647  29.400  22.760  1.00  0.00     0.004 C 
ENDBRANCH  17  18
ENDBRANCH  16  17
ENDBRANCH   7  16
BRANCH  10  20
ATOM     20  S   UNL A   1      32.681  29.519  26.844  1.00  0.00     0.310 S 
ATOM     21  F   UNL A   1      33.932  28.934  27.625  1.00  0.00    -0.094 F 
ATOM     22  F   UNL A   1      31.776  28.929  27.991  1.00  0.00    -0.094 F 
ATOM     23  F   UNL A   1      32.879  30.839  27.642  1.00  0.00    -0.094 F 
ATOM     24  F   UNL A   1      33.697  30.037  25.752  1.00  0.00    -0.094 F 
ATOM     25  F   UNL A   1      32.581  28.140  26.077  1.00  0.00    -0.094 F 
ENDBRANCH  10  20
BRANCH  15  26
ATOM     26  C   UNL A   1      32.517  22.245  23.158  1.00  0.00     0.430 C 
ATOM     27  F   UNL A   1      32.716  21.044  23.694  1.00  0.00    -0.167 F 
ATOM     28  F   UNL A   1      31.432  22.211  22.389  1.00  0.00    -0.167 F 
ATOM     29  F   UNL A   1      33.571  22.582  22.421  1.00  0.00    -0.167 F 
ENDBRANCH  15  26
ENDBRANCH   4   6
ENDBRANCH   3   4
ENDBRANCH   2   3
ENDBRANCH   1   2
BRANCH   1  30
ATOM     30  O   UNL A   1      37.253  20.264  25.056  1.00  0.00    -0.374 OA
BRANCH  30  31
ATOM     31  C   UNL A   1      38.259  19.263  25.001  1.00  0.00     0.202 C 
BRANCH  31  32
ATOM     32  C   UNL A   1      39.500  19.751  25.731  1.00  0.00     0.261 C 
BRANCH  32  33
ATOM     33  O   UNL A   1      40.470  18.714  25.762  1.00  0.00    -0.460 OA
BRANCH  33  34
ATOM     34  C   UNL A   1      41.829  19.022  26.035  1.00  0.00     0.338 C 
ATOM     35  O   UNL A   1      42.709  18.106  25.992  1.00  0.00    -0.246 OA
BRANCH  34  36
ATOM     36  C   UNL A   1      42.230  20.448  26.377  1.00  0.00     0.060 A 
ATOM     37  C   UNL A   1      42.676  21.287  25.370  1.00  0.00     0.016 A 
ATOM     38  C   UNL A   1      42.149  20.864  27.635  1.00  0.00     0.016 A 
ATOM     39  C   UNL A   1      43.293  22.471  25.840  1.00  0.00     0.010 A 
ATOM     40  C   UNL A   1      42.650  22.090  28.000  1.00  0.00     0.010 A 
ATOM     41  C   UNL A   1      43.160  22.948  27.064  1.00  0.00    -0.014 A 
BRANCH  41  42
ATOM     42  C   UNL A   1      43.554  24.374  27.415  1.00  0.00     0.031 A 
ATOM     43  C   UNL A   1      42.537  25.276  27.730  1.00  0.00     0.074 A 
ATOM     44  C   UNL A   1      44.900  24.696  27.404  1.00  0.00     0.049 A 
ATOM     45  N   UNL A   1      42.667  26.552  28.096  1.00  0.00    -0.248 NA
ATOM     46  C   UNL A   1      41.105  24.946  27.708  1.00  0.00     0.031 C 
ATOM     47  C   UNL A   1      45.932  23.789  27.096  1.00  0.00     0.029 A 
ATOM     48  N   UNL A   1      45.479  25.915  27.679  1.00  0.00    -0.354 N 
ATOM     49  C   UNL A   1      41.468  27.089  28.334  1.00  0.00     0.074 A 
ATOM     50  C   UNL A   1      40.445  26.064  28.082  1.00  0.00     0.031 C 
ATOM     51  C   UNL A   1      47.115  24.454  27.173  1.00  0.00     0.029 A 
ATOM     52  C   UNL A   1      46.842  25.787  27.530  1.00  0.00     0.049 A 
ATOM     53  H   UNL A   1      45.001  26.736  27.937  1.00  0.00     0.167 HD
ATOM     54  C   UNL A   1      41.188  28.389  28.754  1.00  0.00     0.037 A 
ATOM     55  C   UNL A   1      47.809  26.767  27.693  1.00  0.00     0.037 A 
ATOM     56  C   UNL A   1      42.159  29.358  28.957  1.00  0.00     0.049 A 
ATOM     57  C   UNL A   1      47.524  28.085  28.055  1.00  0.00     0.074 A 
ATOM     58  C   UNL A   1      41.893  30.672  29.387  1.00  0.00     0.029 A 
ATOM     59  N   UNL A   1      43.519  29.236  28.784  1.00  0.00    -0.354 N 
ATOM     60  N   UNL A   1      46.329  28.609  28.331  1.00  0.00    -0.248 NA
ATOM     61  C   UNL A   1      48.537  29.140  28.197  1.00  0.00     0.031 C 
ATOM     62  C   UNL A   1      43.077  31.337  29.463  1.00  0.00     0.029 A 
ATOM     63  C   UNL A   1      44.100  30.449  29.082  1.00  0.00     0.049 A 
ATOM     64  H   UNL A   1      43.995  28.423  28.498  1.00  0.00     0.167 HD
ATOM     65  C   UNL A   1      46.456  29.897  28.657  1.00  0.00     0.074 A 
ATOM     66  C   UNL A   1      47.878  30.259  28.569  1.00  0.00     0.031 C 
ATOM     67  C   UNL A   1      45.445  30.785  29.029  1.00  0.00     0.037 A 
BRANCH  54  68
ATOM     68  C   UNL A   1      39.736  28.767  29.000  1.00  0.00     0.064 A 
ATOM     69  C   UNL A   1      39.215  28.747  30.283  1.00  0.00     0.173 A 
ATOM     70  C   UNL A   1      39.017  29.199  27.972  1.00  0.00     0.173 A 
ATOM     71  F   UNL A   1      39.964  28.568  31.368  1.00  0.00    -0.203 F 
ATOM     72  C   UNL A   1      37.813  28.934  30.336  1.00  0.00     0.198 A 
ATOM     73  C   UNL A   1      37.684  29.493  28.125  1.00  0.00     0.198 A 
ATOM     74  F   UNL A   1      39.592  29.348  26.781  1.00  0.00    -0.203 F 
ATOM     75  F   UNL A   1      37.183  28.578  31.452  1.00  0.00    -0.200 F 
ATOM     76  C   UNL A   1      37.088  29.437  29.354  1.00  0.00     0.200 A 
ATOM     77  F   UNL A   1      36.961  29.837  27.062  1.00  0.00    -0.200 F 
ATOM     78  F   UNL A   1      35.844  29.867  29.551  1.00  0.00    -0.200 F 
ENDBRANCH  54  68
BRANCH  55  79
ATOM     79  C   UNL A   1      49.262  26.384  27.462  1.00  0.00     0.064 A 
ATOM     80  C   UNL A   1      50.056  26.019  28.537  1.00  0.00     0.173 A 
ATOM     81  C   UNL A   1      49.767  26.493  26.238  1.00  0.00     0.173 A 
ATOM     82  F   UNL A   1      49.558  25.655  29.714  1.00  0.00    -0.203 F 
ATOM     83  C   UNL A   1      51.444  26.070  28.267  1.00  0.00     0.198 A 
ATOM     84  C   UNL A   1      51.122  26.396  26.030  1.00  0.00     0.198 A 
ATOM     85  F   UNL A   1      48.954  26.697  25.206  1.00  0.00    -0.203 F 
ATOM     86  F   UNL A   1      52.276  26.092  29.306  1.00  0.00    -0.200 F 
ATOM     87  C   UNL A   1      51.972  26.097  27.058  1.00  0.00     0.200 A 
ATOM     88  F   UNL A   1      51.613  26.598  24.810  1.00  0.00    -0.200 F 
ATOM     89  F   UNL A   1      53.262  25.845  26.849  1.00  0.00    -0.200 F 
ENDBRANCH  55  79
BRANCH  67  90
ATOM     90  C   UNL A   1      45.841  32.205  29.399  1.00  0.00     0.064 A 
ATOM     91  C   UNL A   1      46.184  32.493  30.709  1.00  0.00     0.173 A 
ATOM     92  C   UNL A   1      45.850  33.145  28.462  1.00  0.00     0.173 A 
ATOM     93  F   UNL A   1      46.434  31.554  31.618  1.00  0.00    -0.203 F 
ATOM     94  C   UNL A   1      46.246  33.878  30.994  1.00  0.00     0.198 A 
ATOM     95  C   UNL A   1      46.051  34.463  28.795  1.00  0.00     0.198 A 
ATOM     96  F   UNL A   1      45.662  32.809  27.189  1.00  0.00    -0.203 F 
ATOM     97  F   UNL A   1      46.210  34.249  32.271  1.00  0.00    -0.200 F 
ATOM     98  C   UNL A   1      46.337  34.827  30.081  1.00  0.00     0.200 A 
ATOM     99  F   UNL A   1      45.966  35.397  27.851  1.00  0.00    -0.200 F 
ATOM    100  F   UNL A   1      46.688  36.071  30.395  1.00  0.00    -0.200 F 
ENDBRANCH  67  90
ENDBRANCH  41  42
ENDBRANCH  34  36
ENDBRANCH  33  34
ENDBRANCH  32  33
ENDBRANCH  31  32
ENDBRANCH  30  31
ENDBRANCH   1  30
TORSDOF 19
ENDMDL
