MODEL 1
REMARK VINA RESULT:     -13.2      0.000      0.000
REMARK SMILES C[NH+]1CCC(C(=O)N2C[C@@H](C(=O)OCCOCCOC(=O)c3ccc(-c4c5nc(c(-c6c(F)c(F)c(F)c(F)c6F)c6ccc([nH]6)c(-c6c(F)c(F)c(F)c(F)c6F)c6nc(c(-c7c(F)c(F)c(F)c(F)c7F)c7ccc4[nH]7)C=C6)C=C5)cc3)[C@H](c3ccc4c(c3)OCO4)C2)CC1
REMARK SMILES IDX 16 1 15 2 14 3 13 4 11 5 12 6 10 7 8 8 9 9 95 10 85 11 6 12
REMARK SMILES IDX 7 13 5 14 1 15 2 16 3 17 97 18 4 20 96 21 86 22 87 23 91 24
REMARK SMILES IDX 88 25 90 26 89 27 92 28 94 29 93 30 17 31 18 32 19 33 20 34
REMARK SMILES IDX 21 35 22 36 23 37 84 38 24 39 83 40 25 41 26 42 27 43 77 44
REMARK SMILES IDX 28 45 82 46 76 47 78 48 29 49 81 50 75 51 74 52 30 54 62 55
REMARK SMILES IDX 42 56 61 57 43 58 46 59 60 60 79 61 44 62 45 63 59 65 80 66
REMARK SMILES IDX 47 67 31 68 32 69 40 70 33 71 34 72 38 73 41 74 35 75 36 76
REMARK SMILES IDX 39 77 37 78 63 79 64 80 72 81 65 82 66 83 70 84 73 85 67 86
REMARK SMILES IDX 68 87 71 88 69 89 48 90 49 91 57 92 50 93 51 94 55 95 58 96
REMARK SMILES IDX 52 97 53 98 56 99 54 100
REMARK H PARENT 2 19 78 53 46 64
REMARK Flexibility Score: inf
ROOT
ATOM      1  O   UNL A   1      40.822  21.597  26.535  1.00  0.00    -0.374 OA
ENDROOT
BRANCH   1   2
ATOM      2  C   UNL A   1      39.626  20.921  26.153  1.00  0.00     0.202 C 
BRANCH   2   3
ATOM      3  C   UNL A   1      38.462  21.801  25.687  1.00  0.00     0.261 C 
BRANCH   3   4
ATOM      4  O   UNL A   1      37.361  21.013  25.218  1.00  0.00    -0.463 OA
BRANCH   4   5
ATOM      5  C   UNL A   1      36.118  21.435  25.582  1.00  0.00     0.311 C 
ATOM      6  O   UNL A   1      35.787  21.811  26.697  1.00  0.00    -0.252 OA
BRANCH   5   7
ATOM      7  C   UNL A   1      35.192  21.375  24.398  1.00  0.00     0.128 C 
ATOM      8  N   UNL A   1      33.699  22.656  23.169  1.00  0.00    -0.341 N 
ATOM      9  C   UNL A   1      34.985  22.753  23.814  1.00  0.00     0.135 C 
ATOM     10  C   UNL A   1      32.840  21.768  23.945  1.00  0.00     0.128 C 
ATOM     11  C   UNL A   1      33.781  20.872  24.782  1.00  0.00     0.055 C 
BRANCH   8  12
ATOM     12  C   UNL A   1      33.155  23.583  22.307  1.00  0.00     0.226 C 
ATOM     13  O   UNL A   1      33.461  23.580  21.110  1.00  0.00    -0.275 OA
BRANCH  12  14
ATOM     14  C   UNL A   1      32.400  24.791  22.878  1.00  0.00     0.090 C 
ATOM     15  C   UNL A   1      31.078  28.808  23.634  1.00  0.00     0.332 C 
ATOM     16  N   UNL A   1      31.863  27.629  23.270  1.00  0.00    -0.337 N 
ATOM     17  C   UNL A   1      31.208  26.905  22.171  1.00  0.00     0.262 C 
ATOM     18  C   UNL A   1      32.057  26.748  24.431  1.00  0.00     0.262 C 
ATOM     19  H   UNL A   1      32.782  27.938  22.955  1.00  0.00     0.347 HD
ATOM     20  C   UNL A   1      32.075  25.737  21.715  1.00  0.00     0.075 C 
ATOM     21  C   UNL A   1      32.973  25.573  24.059  1.00  0.00     0.075 C 
ENDBRANCH  12  14
ENDBRANCH   8  12
BRANCH  11  22
ATOM     22  C   UNL A   1      33.785  19.357  24.591  1.00  0.00    -0.038 A 
ATOM     23  C   UNL A   1      34.948  18.605  24.315  1.00  0.00     0.008 A 
ATOM     24  C   UNL A   1      32.591  18.667  24.898  1.00  0.00     0.054 A 
ATOM     25  C   UNL A   1      34.946  17.207  24.431  1.00  0.00     0.051 A 
ATOM     26  C   UNL A   1      32.640  17.305  25.081  1.00  0.00     0.166 A 
ATOM     27  C   UNL A   1      33.792  16.594  24.863  1.00  0.00     0.165 A 
ATOM     28  O   UNL A   1      31.630  16.531  25.561  1.00  0.00    -0.454 OA
ATOM     29  O   UNL A   1      33.647  15.277  25.173  1.00  0.00    -0.454 OA
ATOM     30  C   UNL A   1      32.344  15.297  25.789  1.00  0.00     0.468 C 
ENDBRANCH  11  22
ENDBRANCH   5   7
ENDBRANCH   4   5
ENDBRANCH   3   4
ENDBRANCH   2   3
ENDBRANCH   1   2
BRANCH   1  31
ATOM     31  C   UNL A   1      42.066  20.936  26.312  1.00  0.00     0.202 C 
BRANCH  31  32
ATOM     32  C   UNL A   1      43.198  21.761  25.687  1.00  0.00     0.261 C 
BRANCH  32  33
ATOM     33  O   UNL A   1      42.714  22.875  24.915  1.00  0.00    -0.460 OA
BRANCH  33  34
ATOM     34  C   UNL A   1      43.481  23.990  24.993  1.00  0.00     0.338 C 
ATOM     35  O   UNL A   1      44.504  24.233  24.380  1.00  0.00    -0.246 OA
BRANCH  34  36
ATOM     36  C   UNL A   1      42.837  24.996  25.855  1.00  0.00     0.060 A 
ATOM     37  C   UNL A   1      43.510  26.207  26.060  1.00  0.00     0.016 A 
ATOM     38  C   UNL A   1      41.670  24.702  26.561  1.00  0.00     0.016 A 
ATOM     39  C   UNL A   1      43.040  27.114  27.008  1.00  0.00     0.010 A 
ATOM     40  C   UNL A   1      41.205  25.609  27.519  1.00  0.00     0.010 A 
ATOM     41  C   UNL A   1      41.906  26.803  27.771  1.00  0.00    -0.014 A 
BRANCH  41  42
ATOM     42  C   UNL A   1      41.523  27.671  28.910  1.00  0.00     0.031 A 
ATOM     43  C   UNL A   1      42.288  27.577  30.201  1.00  0.00     0.074 A 
ATOM     44  C   UNL A   1      40.502  28.539  28.791  1.00  0.00     0.049 A 
ATOM     45  N   UNL A   1      42.086  28.201  31.333  1.00  0.00    -0.248 NA
ATOM     46  C   UNL A   1      43.435  26.655  30.218  1.00  0.00     0.031 C 
ATOM     47  C   UNL A   1      39.708  28.746  27.581  1.00  0.00     0.029 A 
ATOM     48  N   UNL A   1      39.952  29.398  29.708  1.00  0.00    -0.354 N 
ATOM     49  C   UNL A   1      43.070  27.744  32.199  1.00  0.00     0.074 A 
ATOM     50  C   UNL A   1      43.860  26.774  31.468  1.00  0.00     0.031 C 
ATOM     51  C   UNL A   1      38.751  29.653  27.839  1.00  0.00     0.029 A 
ATOM     52  C   UNL A   1      38.851  30.071  29.237  1.00  0.00     0.049 A 
ATOM     53  H   UNL A   1      40.312  29.521  30.616  1.00  0.00     0.167 HD
ATOM     54  C   UNL A   1      43.298  28.104  33.484  1.00  0.00     0.037 A 
ATOM     55  C   UNL A   1      38.006  30.906  29.872  1.00  0.00     0.037 A 
ATOM     56  C   UNL A   1      42.521  29.078  34.205  1.00  0.00     0.049 A 
ATOM     57  C   UNL A   1      38.253  31.252  31.318  1.00  0.00     0.074 A 
ATOM     58  C   UNL A   1      42.705  29.546  35.495  1.00  0.00     0.029 A 
ATOM     59  N   UNL A   1      41.407  29.729  33.700  1.00  0.00    -0.354 N 
ATOM     60  N   UNL A   1      39.213  30.849  32.114  1.00  0.00    -0.248 NA
ATOM     61  C   UNL A   1      37.300  32.175  31.951  1.00  0.00     0.031 C 
ATOM     62  C   UNL A   1      41.674  30.443  35.787  1.00  0.00     0.029 A 
ATOM     63  C   UNL A   1      40.874  30.571  34.663  1.00  0.00     0.049 A 
ATOM     64  H   UNL A   1      41.046  29.611  32.791  1.00  0.00     0.167 HD
ATOM     65  C   UNL A   1      38.995  31.484  33.329  1.00  0.00     0.074 A 
ATOM     66  C   UNL A   1      37.819  32.312  33.164  1.00  0.00     0.031 C 
ATOM     67  C   UNL A   1      39.705  31.391  34.480  1.00  0.00     0.037 A 
BRANCH  54  68
ATOM     68  C   UNL A   1      44.421  27.429  34.212  1.00  0.00     0.064 A 
ATOM     69  C   UNL A   1      45.704  27.992  34.273  1.00  0.00     0.173 A 
ATOM     70  C   UNL A   1      44.193  26.233  34.909  1.00  0.00     0.173 A 
ATOM     71  F   UNL A   1      45.973  29.129  33.613  1.00  0.00    -0.203 F 
ATOM     72  C   UNL A   1      46.722  27.376  34.996  1.00  0.00     0.198 A 
ATOM     73  C   UNL A   1      45.207  25.632  35.650  1.00  0.00     0.198 A 
ATOM     74  F   UNL A   1      42.982  25.657  34.886  1.00  0.00    -0.203 F 
ATOM     75  F   UNL A   1      47.947  27.916  35.017  1.00  0.00    -0.200 F 
ATOM     76  C   UNL A   1      46.470  26.201  35.690  1.00  0.00     0.200 A 
ATOM     77  F   UNL A   1      44.960  24.503  36.329  1.00  0.00    -0.200 F 
ATOM     78  F   UNL A   1      47.449  25.616  36.396  1.00  0.00    -0.200 F 
ENDBRANCH  54  68
BRANCH  55  79
ATOM     79  C   UNL A   1      36.828  31.454  29.153  1.00  0.00     0.064 A 
ATOM     80  C   UNL A   1      36.769  32.801  28.774  1.00  0.00     0.173 A 
ATOM     81  C   UNL A   1      35.723  30.641  28.854  1.00  0.00     0.173 A 
ATOM     82  F   UNL A   1      37.790  33.622  29.058  1.00  0.00    -0.203 F 
ATOM     83  C   UNL A   1      35.640  33.322  28.143  1.00  0.00     0.198 A 
ATOM     84  C   UNL A   1      34.608  31.156  28.200  1.00  0.00     0.198 A 
ATOM     85  F   UNL A   1      35.734  29.343  29.193  1.00  0.00    -0.203 F 
ATOM     86  F   UNL A   1      35.589  34.624  27.834  1.00  0.00    -0.200 F 
ATOM     87  C   UNL A   1      34.562  32.498  27.853  1.00  0.00     0.200 A 
ATOM     88  F   UNL A   1      33.575  30.353  27.910  1.00  0.00    -0.200 F 
ATOM     89  F   UNL A   1      33.478  32.998  27.247  1.00  0.00    -0.200 F 
ENDBRANCH  55  79
BRANCH  67  90
ATOM     90  C   UNL A   1      39.249  32.225  35.642  1.00  0.00     0.064 A 
ATOM     91  C   UNL A   1      38.393  31.708  36.624  1.00  0.00     0.173 A 
ATOM     92  C   UNL A   1      39.708  33.542  35.795  1.00  0.00     0.173 A 
ATOM     93  F   UNL A   1      37.916  30.458  36.513  1.00  0.00    -0.203 F 
ATOM     94  C   UNL A   1      37.995  32.486  37.707  1.00  0.00     0.198 A 
ATOM     95  C   UNL A   1      39.329  34.308  36.894  1.00  0.00     0.198 A 
ATOM     96  F   UNL A   1      40.534  34.081  34.887  1.00  0.00    -0.203 F 
ATOM     97  F   UNL A   1      37.143  31.985  38.613  1.00  0.00    -0.200 F 
ATOM     98  C   UNL A   1      38.469  33.782  37.846  1.00  0.00     0.200 A 
ATOM     99  F   UNL A   1      39.797  35.556  37.033  1.00  0.00    -0.200 F 
ATOM    100  F   UNL A   1      38.090  34.526  38.894  1.00  0.00    -0.200 F 
ENDBRANCH  67  90
ENDBRANCH  41  42
ENDBRANCH  34  36
ENDBRANCH  33  34
ENDBRANCH  32  33
ENDBRANCH  31  32
ENDBRANCH   1  31
TORSDOF 17
ENDMDL
MODEL 2
REMARK VINA RESULT:     -13.2      3.345      9.004
REMARK SMILES C[NH+]1CCC(C(=O)N2C[C@@H](C(=O)OCCOCCOC(=O)c3ccc(-c4c5nc(c(-c6c(F)c(F)c(F)c(F)c6F)c6ccc([nH]6)c(-c6c(F)c(F)c(F)c(F)c6F)c6nc(c(-c7c(F)c(F)c(F)c(F)c7F)c7ccc4[nH]7)C=C6)C=C5)cc3)[C@H](c3ccc4c(c3)OCO4)C2)CC1
REMARK SMILES IDX 16 1 15 2 14 3 13 4 11 5 12 6 10 7 8 8 9 9 95 10 85 11 6 12
REMARK SMILES IDX 7 13 5 14 1 15 2 16 3 17 97 18 4 20 96 21 86 22 87 23 91 24
REMARK SMILES IDX 88 25 90 26 89 27 92 28 94 29 93 30 17 31 18 32 19 33 20 34
REMARK SMILES IDX 21 35 22 36 23 37 84 38 24 39 83 40 25 41 26 42 27 43 77 44
REMARK SMILES IDX 28 45 82 46 76 47 78 48 29 49 81 50 75 51 74 52 30 54 62 55
REMARK SMILES IDX 42 56 61 57 43 58 46 59 60 60 79 61 44 62 45 63 59 65 80 66
REMARK SMILES IDX 47 67 31 68 32 69 40 70 33 71 34 72 38 73 41 74 35 75 36 76
REMARK SMILES IDX 39 77 37 78 63 79 64 80 72 81 65 82 66 83 70 84 73 85 67 86
REMARK SMILES IDX 68 87 71 88 69 89 48 90 49 91 57 92 50 93 51 94 55 95 58 96
REMARK SMILES IDX 52 97 53 98 56 99 54 100
REMARK H PARENT 2 19 78 53 46 64
REMARK Flexibility Score: inf
ROOT
ATOM      1  O   UNL A   1      32.002  30.430  25.349  1.00  0.00    -0.374 OA
ENDROOT
BRANCH   1   2
ATOM      2  C   UNL A   1      32.961  29.394  25.147  1.00  0.00     0.202 C 
BRANCH   2   3
ATOM      3  C   UNL A   1      33.413  28.629  26.394  1.00  0.00     0.261 C 
BRANCH   3   4
ATOM      4  O   UNL A   1      32.993  27.260  26.354  1.00  0.00    -0.463 OA
BRANCH   4   5
ATOM      5  C   UNL A   1      31.701  27.013  26.708  1.00  0.00     0.311 C 
ATOM      6  O   UNL A   1      31.056  27.634  27.540  1.00  0.00    -0.252 OA
BRANCH   5   7
ATOM      7  C   UNL A   1      31.167  25.852  25.916  1.00  0.00     0.128 C 
ATOM      8  N   UNL A   1      31.685  23.691  25.249  1.00  0.00    -0.341 N 
ATOM      9  C   UNL A   1      31.770  24.554  26.401  1.00  0.00     0.135 C 
ATOM     10  C   UNL A   1      31.880  24.486  24.040  1.00  0.00     0.128 C 
ATOM     11  C   UNL A   1      31.535  25.945  24.417  1.00  0.00     0.055 C 
BRANCH   8  12
ATOM     12  C   UNL A   1      31.907  22.332  25.238  1.00  0.00     0.226 C 
ATOM     13  O   UNL A   1      31.087  21.559  25.744  1.00  0.00    -0.275 OA
BRANCH  12  14
ATOM     14  C   UNL A   1      33.296  21.798  24.861  1.00  0.00     0.090 C 
ATOM     15  C   UNL A   1      36.998  19.618  24.917  1.00  0.00     0.332 C 
ATOM     16  N   UNL A   1      35.759  20.300  25.292  1.00  0.00    -0.337 N 
ATOM     17  C   UNL A   1      34.609  19.648  24.651  1.00  0.00     0.262 C 
ATOM     18  C   UNL A   1      35.816  21.726  24.935  1.00  0.00     0.262 C 
ATOM     19  H   UNL A   1      35.648  20.236  26.303  1.00  0.00     0.347 HD
ATOM     20  C   UNL A   1      33.307  20.286  25.122  1.00  0.00     0.075 C 
ATOM     21  C   UNL A   1      34.555  22.448  25.432  1.00  0.00     0.075 C 
ENDBRANCH  12  14
ENDBRANCH   8  12
BRANCH  11  22
ATOM     22  C   UNL A   1      30.388  26.676  23.724  1.00  0.00    -0.038 A 
ATOM     23  C   UNL A   1      29.035  26.555  24.110  1.00  0.00     0.008 A 
ATOM     24  C   UNL A   1      30.735  27.665  22.777  1.00  0.00     0.054 A 
ATOM     25  C   UNL A   1      28.067  27.453  23.635  1.00  0.00     0.051 A 
ATOM     26  C   UNL A   1      29.781  28.577  22.391  1.00  0.00     0.166 A 
ATOM     27  C   UNL A   1      28.482  28.480  22.819  1.00  0.00     0.165 A 
ATOM     28  O   UNL A   1      30.003  29.692  21.644  1.00  0.00    -0.454 OA
ATOM     29  O   UNL A   1      27.721  29.521  22.384  1.00  0.00    -0.454 OA
ATOM     30  C   UNL A   1      28.739  30.367  21.811  1.00  0.00     0.468 C 
ENDBRANCH  11  22
ENDBRANCH   5   7
ENDBRANCH   4   5
ENDBRANCH   3   4
ENDBRANCH   2   3
ENDBRANCH   1   2
BRANCH   1  31
ATOM     31  C   UNL A   1      31.801  30.909  26.678  1.00  0.00     0.202 C 
BRANCH  31  32
ATOM     32  C   UNL A   1      31.590  32.416  26.858  1.00  0.00     0.261 C 
BRANCH  32  33
ATOM     33  O   UNL A   1      32.809  33.170  26.725  1.00  0.00    -0.460 OA
BRANCH  33  34
ATOM     34  C   UNL A   1      33.264  33.712  27.880  1.00  0.00     0.338 C 
ATOM     35  O   UNL A   1      32.710  34.537  28.584  1.00  0.00    -0.246 OA
BRANCH  34  36
ATOM     36  C   UNL A   1      34.520  33.062  28.292  1.00  0.00     0.060 A 
ATOM     37  C   UNL A   1      34.447  31.750  28.777  1.00  0.00     0.016 A 
ATOM     38  C   UNL A   1      35.721  33.772  28.338  1.00  0.00     0.016 A 
ATOM     39  C   UNL A   1      35.569  31.156  29.352  1.00  0.00     0.010 A 
ATOM     40  C   UNL A   1      36.844  33.178  28.924  1.00  0.00     0.010 A 
ATOM     41  C   UNL A   1      36.764  31.880  29.463  1.00  0.00    -0.014 A 
BRANCH  41  42
ATOM     42  C   UNL A   1      37.893  31.325  30.248  1.00  0.00     0.031 A 
ATOM     43  C   UNL A   1      38.804  30.310  29.615  1.00  0.00     0.074 A 
ATOM     44  C   UNL A   1      38.103  31.726  31.514  1.00  0.00     0.049 A 
ATOM     45  N   UNL A   1      39.813  29.660  30.138  1.00  0.00    -0.248 NA
ATOM     46  C   UNL A   1      38.545  29.985  28.204  1.00  0.00     0.031 C 
ATOM     47  C   UNL A   1      37.310  32.727  32.224  1.00  0.00     0.029 A 
ATOM     48  N   UNL A   1      39.043  31.327  32.431  1.00  0.00    -0.354 N 
ATOM     49  C   UNL A   1      40.302  28.844  29.127  1.00  0.00     0.074 A 
ATOM     50  C   UNL A   1      39.469  29.065  27.963  1.00  0.00     0.031 C 
ATOM     51  C   UNL A   1      37.779  32.843  33.479  1.00  0.00     0.029 A 
ATOM     52  C   UNL A   1      38.887  31.908  33.665  1.00  0.00     0.049 A 
ATOM     53  H   UNL A   1      39.760  30.686  32.224  1.00  0.00     0.167 HD
ATOM     54  C   UNL A   1      41.353  27.991  29.165  1.00  0.00     0.037 A 
ATOM     55  C   UNL A   1      39.545  31.687  34.819  1.00  0.00     0.037 A 
ATOM     56  C   UNL A   1      42.189  27.782  30.318  1.00  0.00     0.049 A 
ATOM     57  C   UNL A   1      40.680  30.696  34.847  1.00  0.00     0.074 A 
ATOM     58  C   UNL A   1      43.308  26.975  30.438  1.00  0.00     0.029 A 
ATOM     59  N   UNL A   1      41.993  28.378  31.553  1.00  0.00    -0.354 N 
ATOM     60  N   UNL A   1      41.163  29.963  33.873  1.00  0.00    -0.248 NA
ATOM     61  C   UNL A   1      41.365  30.506  36.134  1.00  0.00     0.031 C 
ATOM     62  C   UNL A   1      43.759  27.047  31.759  1.00  0.00     0.029 A 
ATOM     63  C   UNL A   1      42.950  27.933  32.451  1.00  0.00     0.049 A 
ATOM     64  H   UNL A   1      41.277  29.022  31.763  1.00  0.00     0.167 HD
ATOM     65  C   UNL A   1      42.219  29.247  34.422  1.00  0.00     0.074 A 
ATOM     66  C   UNL A   1      42.317  29.642  35.811  1.00  0.00     0.031 C 
ATOM     67  C   UNL A   1      43.036  28.341  33.829  1.00  0.00     0.037 A 
BRANCH  54  68
ATOM     68  C   UNL A   1      41.655  27.197  27.930  1.00  0.00     0.064 A 
ATOM     69  C   UNL A   1      42.564  27.653  26.964  1.00  0.00     0.173 A 
ATOM     70  C   UNL A   1      41.073  25.934  27.742  1.00  0.00     0.173 A 
ATOM     71  F   UNL A   1      43.138  28.859  27.094  1.00  0.00    -0.203 F 
ATOM     72  C   UNL A   1      42.870  26.879  25.848  1.00  0.00     0.198 A 
ATOM     73  C   UNL A   1      41.399  25.153  26.637  1.00  0.00     0.198 A 
ATOM     74  F   UNL A   1      40.201  25.451  28.639  1.00  0.00    -0.203 F 
ATOM     75  F   UNL A   1      43.719  27.346  24.923  1.00  0.00    -0.200 F 
ATOM     76  C   UNL A   1      42.294  25.627  25.689  1.00  0.00     0.200 A 
ATOM     77  F   UNL A   1      40.850  23.939  26.490  1.00  0.00    -0.200 F 
ATOM     78  F   UNL A   1      42.599  24.877  24.620  1.00  0.00    -0.200 F 
ENDBRANCH  54  68
BRANCH  55  79
ATOM     79  C   UNL A   1      39.132  32.398  36.055  1.00  0.00     0.064 A 
ATOM     80  C   UNL A   1      39.608  33.682  36.350  1.00  0.00     0.173 A 
ATOM     81  C   UNL A   1      38.269  31.793  36.981  1.00  0.00     0.173 A 
ATOM     82  F   UNL A   1      40.453  34.292  35.507  1.00  0.00    -0.203 F 
ATOM     83  C   UNL A   1      39.255  34.326  37.535  1.00  0.00     0.198 A 
ATOM     84  C   UNL A   1      37.896  32.447  38.152  1.00  0.00     0.198 A 
ATOM     85  F   UNL A   1      37.782  30.566  36.743  1.00  0.00    -0.203 F 
ATOM     86  F   UNL A   1      39.763  35.534  37.815  1.00  0.00    -0.200 F 
ATOM     87  C   UNL A   1      38.396  33.709  38.433  1.00  0.00     0.200 A 
ATOM     88  F   UNL A   1      37.055  31.853  39.010  1.00  0.00    -0.200 F 
ATOM     89  F   UNL A   1      38.057  34.328  39.572  1.00  0.00    -0.200 F 
ENDBRANCH  55  79
BRANCH  67  90
ATOM     90  C   UNL A   1      44.123  27.738  34.669  1.00  0.00     0.064 A 
ATOM     91  C   UNL A   1      45.351  28.388  34.855  1.00  0.00     0.173 A 
ATOM     92  C   UNL A   1      43.917  26.517  35.328  1.00  0.00     0.173 A 
ATOM     93  F   UNL A   1      45.600  29.551  34.234  1.00  0.00    -0.203 F 
ATOM     94  C   UNL A   1      46.342  27.827  35.655  1.00  0.00     0.198 A 
ATOM     95  C   UNL A   1      44.901  25.971  36.148  1.00  0.00     0.198 A 
ATOM     96  F   UNL A   1      42.758  25.859  35.187  1.00  0.00    -0.203 F 
ATOM     97  F   UNL A   1      47.525  28.445  35.787  1.00  0.00    -0.200 F 
ATOM     98  C   UNL A   1      46.115  26.623  36.306  1.00  0.00     0.200 A 
ATOM     99  F   UNL A   1      44.675  24.815  36.785  1.00  0.00    -0.200 F 
ATOM    100  F   UNL A   1      47.068  26.089  37.081  1.00  0.00    -0.200 F 
ENDBRANCH  67  90
ENDBRANCH  41  42
ENDBRANCH  34  36
ENDBRANCH  33  34
ENDBRANCH  32  33
ENDBRANCH  31  32
ENDBRANCH   1  31
TORSDOF 17
ENDMDL
MODEL 3
REMARK VINA RESULT:     -13.1      3.356      9.130
REMARK SMILES C[NH+]1CCC(C(=O)N2C[C@@H](C(=O)OCCOCCOC(=O)c3ccc(-c4c5nc(c(-c6c(F)c(F)c(F)c(F)c6F)c6ccc([nH]6)c(-c6c(F)c(F)c(F)c(F)c6F)c6nc(c(-c7c(F)c(F)c(F)c(F)c7F)c7ccc4[nH]7)C=C6)C=C5)cc3)[C@H](c3ccc4c(c3)OCO4)C2)CC1
REMARK SMILES IDX 16 1 15 2 14 3 13 4 11 5 12 6 10 7 8 8 9 9 95 10 85 11 6 12
REMARK SMILES IDX 7 13 5 14 1 15 2 16 3 17 97 18 4 20 96 21 86 22 87 23 91 24
REMARK SMILES IDX 88 25 90 26 89 27 92 28 94 29 93 30 17 31 18 32 19 33 20 34
REMARK SMILES IDX 21 35 22 36 23 37 84 38 24 39 83 40 25 41 26 42 27 43 77 44
REMARK SMILES IDX 28 45 82 46 76 47 78 48 29 49 81 50 75 51 74 52 30 54 62 55
REMARK SMILES IDX 42 56 61 57 43 58 46 59 60 60 79 61 44 62 45 63 59 65 80 66
REMARK SMILES IDX 47 67 31 68 32 69 40 70 33 71 34 72 38 73 41 74 35 75 36 76
REMARK SMILES IDX 39 77 37 78 63 79 64 80 72 81 65 82 66 83 70 84 73 85 67 86
REMARK SMILES IDX 68 87 71 88 69 89 48 90 49 91 57 92 50 93 51 94 55 95 58 96
REMARK SMILES IDX 52 97 53 98 56 99 54 100
REMARK H PARENT 2 19 78 53 46 64
REMARK Flexibility Score: inf
ROOT
ATOM      1  O   UNL A   1      32.012  30.415  25.596  1.00  0.00    -0.374 OA
ENDROOT
BRANCH   1   2
ATOM      2  C   UNL A   1      33.228  29.676  25.677  1.00  0.00     0.202 C 
BRANCH   2   3
ATOM      3  C   UNL A   1      33.466  28.889  26.969  1.00  0.00     0.261 C 
BRANCH   3   4
ATOM      4  O   UNL A   1      33.300  27.481  26.766  1.00  0.00    -0.463 OA
BRANCH   4   5
ATOM      5  C   UNL A   1      32.020  27.015  26.778  1.00  0.00     0.311 C 
ATOM      6  O   UNL A   1      31.114  27.429  27.484  1.00  0.00    -0.252 OA
BRANCH   5   7
ATOM      7  C   UNL A   1      31.874  25.899  25.779  1.00  0.00     0.128 C 
ATOM      8  N   UNL A   1      33.051  24.177  24.765  1.00  0.00    -0.341 N 
ATOM      9  C   UNL A   1      32.880  24.805  26.052  1.00  0.00     0.135 C 
ATOM     10  C   UNL A   1      32.945  25.190  23.720  1.00  0.00     0.128 C 
ATOM     11  C   UNL A   1      32.153  26.368  24.332  1.00  0.00     0.055 C 
BRANCH   8  12
ATOM     12  C   UNL A   1      33.704  22.988  24.526  1.00  0.00     0.226 C 
ATOM     13  O   UNL A   1      33.066  21.935  24.410  1.00  0.00    -0.275 OA
BRANCH  12  14
ATOM     14  C   UNL A   1      35.227  22.918  24.693  1.00  0.00     0.090 C 
ATOM     15  C   UNL A   1      39.147  21.901  26.129  1.00  0.00     0.332 C 
ATOM     16  N   UNL A   1      37.712  22.156  26.014  1.00  0.00    -0.337 N 
ATOM     17  C   UNL A   1      37.120  21.270  25.002  1.00  0.00     0.262 C 
ATOM     18  C   UNL A   1      37.452  23.567  25.689  1.00  0.00     0.262 C 
ATOM     19  H   UNL A   1      37.276  21.958  26.915  1.00  0.00     0.347 HD
ATOM     20  C   UNL A   1      35.608  21.454  24.954  1.00  0.00     0.075 C 
ATOM     21  C   UNL A   1      35.941  23.840  25.680  1.00  0.00     0.075 C 
ENDBRANCH  12  14
ENDBRANCH   8  12
BRANCH  11  22
ATOM     22  C   UNL A   1      30.812  26.794  23.739  1.00  0.00    -0.038 A 
ATOM     23  C   UNL A   1      29.570  26.265  24.150  1.00  0.00     0.008 A 
ATOM     24  C   UNL A   1      30.819  27.912  22.874  1.00  0.00     0.054 A 
ATOM     25  C   UNL A   1      28.366  26.885  23.785  1.00  0.00     0.051 A 
ATOM     26  C   UNL A   1      29.629  28.543  22.598  1.00  0.00     0.166 A 
ATOM     27  C   UNL A   1      28.433  28.049  23.051  1.00  0.00     0.165 A 
ATOM     28  O   UNL A   1      29.491  29.729  21.947  1.00  0.00    -0.454 OA
ATOM     29  O   UNL A   1      27.389  28.861  22.732  1.00  0.00    -0.454 OA
ATOM     30  C   UNL A   1      28.098  30.002  22.209  1.00  0.00     0.468 C 
ENDBRANCH  11  22
ENDBRANCH   5   7
ENDBRANCH   4   5
ENDBRANCH   3   4
ENDBRANCH   2   3
ENDBRANCH   1   2
BRANCH   1  31
ATOM     31  C   UNL A   1      31.515  31.021  26.789  1.00  0.00     0.202 C 
BRANCH  31  32
ATOM     32  C   UNL A   1      31.657  32.543  26.916  1.00  0.00     0.261 C 
BRANCH  32  33
ATOM     33  O   UNL A   1      33.015  32.991  26.752  1.00  0.00    -0.460 OA
BRANCH  33  34
ATOM     34  C   UNL A   1      33.567  33.533  27.865  1.00  0.00     0.338 C 
ATOM     35  O   UNL A   1      33.109  34.413  28.570  1.00  0.00    -0.246 OA
BRANCH  34  36
ATOM     36  C   UNL A   1      34.797  32.808  28.231  1.00  0.00     0.060 A 
ATOM     37  C   UNL A   1      34.673  31.470  28.624  1.00  0.00     0.016 A 
ATOM     38  C   UNL A   1      36.023  33.468  28.327  1.00  0.00     0.016 A 
ATOM     39  C   UNL A   1      35.771  30.796  29.157  1.00  0.00     0.010 A 
ATOM     40  C   UNL A   1      37.121  32.794  28.871  1.00  0.00     0.010 A 
ATOM     41  C   UNL A   1      36.991  31.466  29.319  1.00  0.00    -0.014 A 
BRANCH  41  42
ATOM     42  C   UNL A   1      38.096  30.815  30.065  1.00  0.00     0.031 A 
ATOM     43  C   UNL A   1      38.336  31.185  31.502  1.00  0.00     0.074 A 
ATOM     44  C   UNL A   1      38.875  29.899  29.463  1.00  0.00     0.049 A 
ATOM     45  N   UNL A   1      39.276  30.780  32.318  1.00  0.00    -0.248 NA
ATOM     46  C   UNL A   1      37.390  32.140  32.101  1.00  0.00     0.031 C 
ATOM     47  C   UNL A   1      38.719  29.433  28.087  1.00  0.00     0.029 A 
ATOM     48  N   UNL A   1      39.963  29.207  29.934  1.00  0.00    -0.354 N 
ATOM     49  C   UNL A   1      39.043  31.435  33.519  1.00  0.00     0.074 A 
ATOM     50  C   UNL A   1      37.883  32.279  33.324  1.00  0.00     0.031 C 
ATOM     51  C   UNL A   1      39.697  28.551  27.813  1.00  0.00     0.029 A 
ATOM     52  C   UNL A   1      40.559  28.412  28.986  1.00  0.00     0.049 A 
ATOM     53  H   UNL A   1      40.285  29.275  30.861  1.00  0.00     0.167 HD
ATOM     54  C   UNL A   1      39.730  31.336  34.682  1.00  0.00     0.037 A 
ATOM     55  C   UNL A   1      41.687  27.679  29.052  1.00  0.00     0.037 A 
ATOM     56  C   UNL A   1      40.875  30.485  34.880  1.00  0.00     0.049 A 
ATOM     57  C   UNL A   1      42.462  27.625  30.343  1.00  0.00     0.074 A 
ATOM     58  C   UNL A   1      41.608  30.280  36.036  1.00  0.00     0.029 A 
ATOM     59  N   UNL A   1      41.457  29.704  33.894  1.00  0.00    -0.354 N 
ATOM     60  N   UNL A   1      42.206  28.212  31.487  1.00  0.00    -0.248 NA
ATOM     61  C   UNL A   1      43.679  26.801  30.353  1.00  0.00     0.031 C 
ATOM     62  C   UNL A   1      42.662  29.412  35.737  1.00  0.00     0.029 A 
ATOM     63  C   UNL A   1      42.559  29.040  34.407  1.00  0.00     0.049 A 
ATOM     64  H   UNL A   1      41.135  29.632  32.966  1.00  0.00     0.167 HD
ATOM     65  C   UNL A   1      43.213  27.811  32.356  1.00  0.00     0.074 A 
ATOM     66  C   UNL A   1      44.077  26.919  31.612  1.00  0.00     0.031 C 
ATOM     67  C   UNL A   1      43.405  28.151  33.654  1.00  0.00     0.037 A 
BRANCH  54  68
ATOM     68  C   UNL A   1      39.282  32.183  35.834  1.00  0.00     0.064 A 
ATOM     69  C   UNL A   1      38.364  31.711  36.784  1.00  0.00     0.173 A 
ATOM     70  C   UNL A   1      39.826  33.462  36.024  1.00  0.00     0.173 A 
ATOM     71  F   UNL A   1      37.808  30.498  36.639  1.00  0.00    -0.203 F 
ATOM     72  C   UNL A   1      37.998  32.494  37.875  1.00  0.00     0.198 A 
ATOM     73  C   UNL A   1      39.476  34.233  37.129  1.00  0.00     0.198 A 
ATOM     74  F   UNL A   1      40.712  33.958  35.147  1.00  0.00    -0.203 F 
ATOM     75  F   UNL A   1      37.099  32.035  38.755  1.00  0.00    -0.200 F 
ATOM     76  C   UNL A   1      38.560  33.750  38.051  1.00  0.00     0.200 A 
ATOM     77  F   UNL A   1      40.027  35.442  37.304  1.00  0.00    -0.200 F 
ATOM     78  F   UNL A   1      38.216  34.498  39.110  1.00  0.00    -0.200 F 
ENDBRANCH  54  68
BRANCH  55  79
ATOM     79  C   UNL A   1      42.171  26.955  27.849  1.00  0.00     0.064 A 
ATOM     80  C   UNL A   1      41.809  25.624  27.606  1.00  0.00     0.173 A 
ATOM     81  C   UNL A   1      43.028  27.579  26.929  1.00  0.00     0.173 A 
ATOM     82  F   UNL A   1      41.011  24.979  28.468  1.00  0.00    -0.203 F 
ATOM     83  C   UNL A   1      42.305  24.935  26.500  1.00  0.00     0.198 A 
ATOM     84  C   UNL A   1      43.502  26.898  25.811  1.00  0.00     0.198 A 
ATOM     85  F   UNL A   1      43.400  28.854  27.115  1.00  0.00    -0.203 F 
ATOM     86  F   UNL A   1      41.983  23.647  26.317  1.00  0.00    -0.200 F 
ATOM     87  C   UNL A   1      43.148  25.573  25.602  1.00  0.00     0.200 A 
ATOM     88  F   UNL A   1      44.304  27.523  24.939  1.00  0.00    -0.200 F 
ATOM     89  F   UNL A   1      43.625  24.910  24.540  1.00  0.00    -0.200 F 
ENDBRANCH  55  79
BRANCH  67  90
ATOM     90  C   UNL A   1      44.577  27.536  34.362  1.00  0.00     0.064 A 
ATOM     91  C   UNL A   1      45.807  28.200  34.457  1.00  0.00     0.173 A 
ATOM     92  C   UNL A   1      44.452  26.286  34.989  1.00  0.00     0.173 A 
ATOM     93  F   UNL A   1      45.979  29.391  33.863  1.00  0.00    -0.203 F 
ATOM     94  C   UNL A   1      46.879  27.627  35.137  1.00  0.00     0.198 A 
ATOM     95  C   UNL A   1      45.518  25.728  35.689  1.00  0.00     0.198 A 
ATOM     96  F   UNL A   1      43.294  25.614  34.932  1.00  0.00    -0.203 F 
ATOM     97  F   UNL A   1      48.059  28.260  35.180  1.00  0.00    -0.200 F 
ATOM     98  C   UNL A   1      46.731  26.395  35.758  1.00  0.00     0.200 A 
ATOM     99  F   UNL A   1      45.370  24.544  36.298  1.00  0.00    -0.200 F 
ATOM    100  F   UNL A   1      47.762  25.849  36.417  1.00  0.00    -0.200 F 
ENDBRANCH  67  90
ENDBRANCH  41  42
ENDBRANCH  34  36
ENDBRANCH  33  34
ENDBRANCH  32  33
ENDBRANCH  31  32
ENDBRANCH   1  31
TORSDOF 17
ENDMDL
