MODEL 1
REMARK VINA RESULT:     -12.1      0.000      0.000
REMARK SMILES Cc1cc(C(=O)N2[C@@H](C(=O)OCCOCCOC(=O)c3ccc(-c4c5nc(c(-c6c(F)c(F)c(F)c(F)c6F)c6ccc([nH]6)c(-c6c(F)c(F)c(F)c(F)c6F)c6nc(c(-c7c(F)c(F)c(F)c(F)c7F)c7ccc4[nH]7)C=C6)C=C5)cc3)C[C@H]3CCCC[C@H]32)c(C)s1
REMARK SMILES IDX 14 1 13 2 12 3 11 4 9 5 10 6 8 7 7 8 89 9 83 10 84 11 88 12
REMARK SMILES IDX 85 13 87 14 86 15 5 16 6 17 4 18 1 19 2 20 3 21 92 22 90 23
REMARK SMILES IDX 91 24 15 25 16 26 17 27 18 28 19 29 20 30 21 31 82 32 22 33
REMARK SMILES IDX 81 34 23 35 24 36 25 37 75 38 26 39 80 40 74 41 76 42 27 43
REMARK SMILES IDX 79 44 73 45 72 46 28 48 60 49 40 50 59 51 41 52 44 53 58 54
REMARK SMILES IDX 77 55 42 56 43 57 57 59 78 60 45 61 29 62 30 63 38 64 31 65
REMARK SMILES IDX 32 66 36 67 39 68 33 69 34 70 37 71 35 72 61 73 62 74 70 75
REMARK SMILES IDX 63 76 64 77 68 78 71 79 65 80 66 81 69 82 67 83 46 84 47 85
REMARK SMILES IDX 55 86 48 87 49 88 53 89 56 90 50 91 51 92 54 93 52 94
REMARK H PARENT 76 47 44 58
REMARK Flexibility Score: inf
ROOT
ATOM      1  O   UNL A   1      32.383  30.296  26.103  1.00  0.00    -0.374 OA
ENDROOT
BRANCH   1   2
ATOM      2  C   UNL A   1      32.056  29.101  26.816  1.00  0.00     0.202 C 
BRANCH   2   3
ATOM      3  C   UNL A   1      33.252  28.203  27.157  1.00  0.00     0.261 C 
BRANCH   3   4
ATOM      4  O   UNL A   1      33.816  27.579  25.981  1.00  0.00    -0.462 OA
BRANCH   4   5
ATOM      5  C   UNL A   1      33.497  26.271  25.782  1.00  0.00     0.328 C 
ATOM      6  O   UNL A   1      32.567  25.690  26.331  1.00  0.00    -0.250 OA
BRANCH   5   7
ATOM      7  C   UNL A   1      34.354  25.594  24.702  1.00  0.00     0.196 C 
ATOM      8  N   UNL A   1      33.680  25.092  23.486  1.00  0.00    -0.322 N 
ATOM      9  C   UNL A   1      33.880  23.656  23.322  1.00  0.00     0.089 C 
ATOM     10  C   UNL A   1      35.053  24.350  25.282  1.00  0.00     0.043 C 
ATOM     11  C   UNL A   1      35.196  23.426  24.072  1.00  0.00     0.014 C 
ATOM     12  C   UNL A   1      32.704  22.835  23.862  1.00  0.00     0.025 C 
ATOM     13  C   UNL A   1      35.498  21.969  24.400  1.00  0.00     0.006 C 
ATOM     14  C   UNL A   1      33.077  21.364  24.017  1.00  0.00     0.002 C 
ATOM     15  C   UNL A   1      34.294  21.190  24.919  1.00  0.00     0.000 C 
BRANCH   8  16
ATOM     16  C   UNL A   1      33.159  25.826  22.426  1.00  0.00     0.255 C 
ATOM     17  O   UNL A   1      33.639  25.746  21.297  1.00  0.00    -0.269 OA
BRANCH  16  18
ATOM     18  C   UNL A   1      32.070  26.766  22.720  1.00  0.00     0.053 A 
ATOM     19  C   UNL A   1      28.420  27.439  23.519  1.00  0.00     0.056 C 
ATOM     20  C   UNL A   1      29.886  27.466  23.251  1.00  0.00     0.003 A 
ATOM     21  C   UNL A   1      30.731  26.395  23.095  1.00  0.00     0.029 A 
ATOM     22  S   UNL A   1      30.735  28.936  23.149  1.00  0.00    -0.145 S 
ATOM     23  C   UNL A   1      32.228  28.140  22.843  1.00  0.00     0.014 A 
ATOM     24  C   UNL A   1      33.470  28.966  22.764  1.00  0.00     0.057 C 
ENDBRANCH  16  18
ENDBRANCH   8  16
ENDBRANCH   5   7
ENDBRANCH   4   5
ENDBRANCH   3   4
ENDBRANCH   2   3
ENDBRANCH   1   2
BRANCH   1  25
ATOM     25  C   UNL A   1      31.384  31.315  26.126  1.00  0.00     0.202 C 
BRANCH  25  26
ATOM     26  C   UNL A   1      31.618  32.409  27.168  1.00  0.00     0.261 C 
BRANCH  26  27
ATOM     27  O   UNL A   1      32.874  33.063  26.913  1.00  0.00    -0.460 OA
BRANCH  27  28
ATOM     28  C   UNL A   1      33.449  33.614  28.002  1.00  0.00     0.338 C 
ATOM     29  O   UNL A   1      32.967  34.460  28.746  1.00  0.00    -0.246 OA
BRANCH  28  30
ATOM     30  C   UNL A   1      34.724  32.937  28.306  1.00  0.00     0.060 A 
ATOM     31  C   UNL A   1      34.648  31.589  28.677  1.00  0.00     0.016 A 
ATOM     32  C   UNL A   1      35.954  33.600  28.292  1.00  0.00     0.016 A 
ATOM     33  C   UNL A   1      35.787  30.920  29.110  1.00  0.00     0.010 A 
ATOM     34  C   UNL A   1      37.100  32.926  28.731  1.00  0.00     0.010 A 
ATOM     35  C   UNL A   1      37.010  31.599  29.186  1.00  0.00    -0.014 A 
BRANCH  35  36
ATOM     36  C   UNL A   1      38.139  30.957  29.903  1.00  0.00     0.031 A 
ATOM     37  C   UNL A   1      38.365  31.294  31.351  1.00  0.00     0.074 A 
ATOM     38  C   UNL A   1      38.908  30.039  29.293  1.00  0.00     0.049 A 
ATOM     39  N   UNL A   1      39.266  30.835  32.182  1.00  0.00    -0.248 NA
ATOM     40  C   UNL A   1      37.447  32.280  31.945  1.00  0.00     0.031 C 
ATOM     41  C   UNL A   1      38.765  29.606  27.906  1.00  0.00     0.029 A 
ATOM     42  N   UNL A   1      39.966  29.305  29.770  1.00  0.00    -0.354 N 
ATOM     43  C   UNL A   1      39.028  31.478  33.389  1.00  0.00     0.074 A 
ATOM     44  C   UNL A   1      37.918  32.381  33.178  1.00  0.00     0.031 C 
ATOM     45  C   UNL A   1      39.705  28.683  27.639  1.00  0.00     0.029 A 
ATOM     46  C   UNL A   1      40.530  28.481  28.829  1.00  0.00     0.049 A 
ATOM     47  H   UNL A   1      40.287  29.364  30.699  1.00  0.00     0.167 HD
ATOM     48  C   UNL A   1      39.670  31.320  34.571  1.00  0.00     0.037 A 
ATOM     49  C   UNL A   1      41.602  27.670  28.917  1.00  0.00     0.037 A 
ATOM     50  C   UNL A   1      40.768  30.413  34.781  1.00  0.00     0.049 A 
ATOM     51  C   UNL A   1      42.334  27.552  30.228  1.00  0.00     0.074 A 
ATOM     52  C   UNL A   1      41.467  30.160  35.948  1.00  0.00     0.029 A 
ATOM     53  N   UNL A   1      41.334  29.619  33.795  1.00  0.00    -0.354 N 
ATOM     54  N   UNL A   1      42.080  28.136  31.374  1.00  0.00    -0.248 NA
ATOM     55  C   UNL A   1      43.499  26.657  30.259  1.00  0.00     0.031 C 
ATOM     56  C   UNL A   1      42.489  29.250  35.657  1.00  0.00     0.029 A 
ATOM     57  C   UNL A   1      42.392  28.896  34.320  1.00  0.00     0.049 A 
ATOM     58  H   UNL A   1      41.029  29.577  32.860  1.00  0.00     0.167 HD
ATOM     59  C   UNL A   1      43.034  27.662  32.266  1.00  0.00     0.074 A 
ATOM     60  C   UNL A   1      43.865  26.732  31.531  1.00  0.00     0.031 C 
ATOM     61  C   UNL A   1      43.208  27.970  33.575  1.00  0.00     0.037 A 
BRANCH  48  62
ATOM     62  C   UNL A   1      39.215  32.164  35.725  1.00  0.00     0.064 A 
ATOM     63  C   UNL A   1      39.653  33.486  35.892  1.00  0.00     0.173 A 
ATOM     64  C   UNL A   1      38.305  31.651  36.662  1.00  0.00     0.173 A 
ATOM     65  F   UNL A   1      40.533  34.019  35.032  1.00  0.00    -0.203 F 
ATOM     66  C   UNL A   1      39.215  34.256  36.967  1.00  0.00     0.198 A 
ATOM     67  C   UNL A   1      37.849  32.431  37.720  1.00  0.00     0.198 A 
ATOM     68  F   UNL A   1      37.854  30.393  36.548  1.00  0.00    -0.203 F 
ATOM     69  F   UNL A   1      39.681  35.501  37.131  1.00  0.00    -0.200 F 
ATOM     70  C   UNL A   1      38.309  33.730  37.876  1.00  0.00     0.200 A 
ATOM     71  F   UNL A   1      36.965  31.925  38.591  1.00  0.00    -0.200 F 
ATOM     72  F   UNL A   1      37.884  34.473  38.907  1.00  0.00    -0.200 F 
ENDBRANCH  48  62
BRANCH  49  73
ATOM     73  C   UNL A   1      42.053  26.911  27.722  1.00  0.00     0.064 A 
ATOM     74  C   UNL A   1      41.556  25.631  27.442  1.00  0.00     0.173 A 
ATOM     75  C   UNL A   1      43.002  27.451  26.840  1.00  0.00     0.173 A 
ATOM     76  F   UNL A   1      40.668  25.063  28.270  1.00  0.00    -0.203 F 
ATOM     77  C   UNL A   1      42.002  24.913  26.334  1.00  0.00     0.198 A 
ATOM     78  C   UNL A   1      43.425  26.744  25.717  1.00  0.00     0.198 A 
ATOM     79  F   UNL A   1      43.511  28.671  27.065  1.00  0.00    -0.203 F 
ATOM     80  F   UNL A   1      41.543  23.674  26.113  1.00  0.00    -0.200 F 
ATOM     81  C   UNL A   1      42.930  25.473  25.469  1.00  0.00     0.200 A 
ATOM     82  F   UNL A   1      44.315  27.291  24.879  1.00  0.00    -0.200 F 
ATOM     83  F   UNL A   1      43.355  24.783  24.401  1.00  0.00    -0.200 F 
ENDBRANCH  49  73
BRANCH  61  84
ATOM     84  C   UNL A   1      44.319  27.275  34.307  1.00  0.00     0.064 A 
ATOM     85  C   UNL A   1      44.136  26.016  34.897  1.00  0.00     0.173 A 
ATOM     86  C   UNL A   1      45.594  27.857  34.380  1.00  0.00     0.173 A 
ATOM     87  F   UNL A   1      42.932  25.425  34.867  1.00  0.00    -0.203 F 
ATOM     88  C   UNL A   1      45.183  25.375  35.554  1.00  0.00     0.198 A 
ATOM     89  C   UNL A   1      46.646  27.200  35.012  1.00  0.00     0.198 A 
ATOM     90  F   UNL A   1      45.824  29.056  33.824  1.00  0.00    -0.203 F 
ATOM     91  F   UNL A   1      44.974  24.194  36.150  1.00  0.00    -0.200 F 
ATOM     92  C   UNL A   1      46.438  25.964  35.606  1.00  0.00     0.200 A 
ATOM     93  F   UNL A   1      47.861  27.764  35.048  1.00  0.00    -0.200 F 
ATOM     94  F   UNL A   1      47.447  25.342  36.232  1.00  0.00    -0.200 F 
ENDBRANCH  61  84
ENDBRANCH  35  36
ENDBRANCH  28  30
ENDBRANCH  27  28
ENDBRANCH  26  27
ENDBRANCH  25  26
ENDBRANCH   1  25
TORSDOF 16
ENDMDL
MODEL 2
REMARK VINA RESULT:     -11.9      4.526     10.217
REMARK SMILES Cc1cc(C(=O)N2[C@@H](C(=O)OCCOCCOC(=O)c3ccc(-c4c5nc(c(-c6c(F)c(F)c(F)c(F)c6F)c6ccc([nH]6)c(-c6c(F)c(F)c(F)c(F)c6F)c6nc(c(-c7c(F)c(F)c(F)c(F)c7F)c7ccc4[nH]7)C=C6)C=C5)cc3)C[C@H]3CCCC[C@H]32)c(C)s1
REMARK SMILES IDX 14 1 13 2 12 3 11 4 9 5 10 6 8 7 7 8 89 9 83 10 84 11 88 12
REMARK SMILES IDX 85 13 87 14 86 15 5 16 6 17 4 18 1 19 2 20 3 21 92 22 90 23
REMARK SMILES IDX 91 24 15 25 16 26 17 27 18 28 19 29 20 30 21 31 82 32 22 33
REMARK SMILES IDX 81 34 23 35 24 36 25 37 75 38 26 39 80 40 74 41 76 42 27 43
REMARK SMILES IDX 79 44 73 45 72 46 28 48 60 49 40 50 59 51 41 52 44 53 58 54
REMARK SMILES IDX 77 55 42 56 43 57 57 59 78 60 45 61 29 62 30 63 38 64 31 65
REMARK SMILES IDX 32 66 36 67 39 68 33 69 34 70 37 71 35 72 61 73 62 74 70 75
REMARK SMILES IDX 63 76 64 77 68 78 71 79 65 80 66 81 69 82 67 83 46 84 47 85
REMARK SMILES IDX 55 86 48 87 49 88 53 89 56 90 50 91 51 92 54 93 52 94
REMARK H PARENT 76 47 44 58
REMARK Flexibility Score: inf
ROOT
ATOM      1  O   UNL A   1      37.450  21.390  25.368  1.00  0.00    -0.374 OA
ENDROOT
BRANCH   1   2
ATOM      2  C   UNL A   1      36.867  22.207  24.350  1.00  0.00     0.202 C 
BRANCH   2   3
ATOM      3  C   UNL A   1      36.747  23.695  24.705  1.00  0.00     0.261 C 
BRANCH   3   4
ATOM      4  O   UNL A   1      35.591  23.965  25.530  1.00  0.00    -0.462 OA
BRANCH   4   5
ATOM      5  C   UNL A   1      34.629  24.754  24.980  1.00  0.00     0.328 C 
ATOM      6  O   UNL A   1      34.455  24.903  23.776  1.00  0.00    -0.250 OA
BRANCH   5   7
ATOM      7  C   UNL A   1      33.684  25.375  26.020  1.00  0.00     0.196 C 
ATOM      8  N   UNL A   1      32.268  24.952  26.022  1.00  0.00    -0.322 N 
ATOM      9  C   UNL A   1      31.374  26.083  25.804  1.00  0.00     0.089 C 
ATOM     10  C   UNL A   1      33.617  26.902  25.831  1.00  0.00     0.043 C 
ATOM     11  C   UNL A   1      32.212  27.259  26.317  1.00  0.00     0.014 C 
ATOM     12  C   UNL A   1      30.945  26.218  24.338  1.00  0.00     0.025 C 
ATOM     13  C   UNL A   1      31.708  28.634  25.896  1.00  0.00     0.006 C 
ATOM     14  C   UNL A   1      30.326  27.585  24.063  1.00  0.00     0.002 C 
ATOM     15  C   UNL A   1      31.280  28.714  24.436  1.00  0.00     0.000 C 
BRANCH   8  16
ATOM     16  C   UNL A   1      31.733  23.741  26.451  1.00  0.00     0.255 C 
ATOM     17  O   UNL A   1      30.926  23.694  27.377  1.00  0.00    -0.269 OA
BRANCH  16  18
ATOM     18  C   UNL A   1      32.230  22.515  25.817  1.00  0.00     0.053 A 
ATOM     19  C   UNL A   1      32.272  20.100  22.887  1.00  0.00     0.056 C 
ATOM     20  C   UNL A   1      32.473  20.877  24.142  1.00  0.00     0.003 A 
ATOM     21  C   UNL A   1      31.937  22.098  24.471  1.00  0.00     0.029 A 
ATOM     22  S   UNL A   1      33.501  20.309  25.374  1.00  0.00    -0.145 S 
ATOM     23  C   UNL A   1      33.188  21.675  26.370  1.00  0.00     0.014 A 
ATOM     24  C   UNL A   1      33.952  21.813  27.646  1.00  0.00     0.057 C 
ENDBRANCH  16  18
ENDBRANCH   8  16
ENDBRANCH   5   7
ENDBRANCH   4   5
ENDBRANCH   3   4
ENDBRANCH   2   3
ENDBRANCH   1   2
BRANCH   1  25
ATOM     25  C   UNL A   1      37.801  20.067  24.963  1.00  0.00     0.202 C 
BRANCH  25  26
ATOM     26  C   UNL A   1      39.043  19.502  25.654  1.00  0.00     0.261 C 
BRANCH  26  27
ATOM     27  O   UNL A   1      40.078  20.502  25.689  1.00  0.00    -0.460 OA
BRANCH  27  28
ATOM     28  C   UNL A   1      40.835  20.484  26.807  1.00  0.00     0.338 C 
ATOM     29  O   UNL A   1      41.418  19.521  27.290  1.00  0.00    -0.246 OA
BRANCH  28  30
ATOM     30  C   UNL A   1      41.021  21.853  27.320  1.00  0.00     0.060 A 
ATOM     31  C   UNL A   1      40.421  22.887  26.591  1.00  0.00     0.016 A 
ATOM     32  C   UNL A   1      41.805  22.140  28.442  1.00  0.00     0.016 A 
ATOM     33  C   UNL A   1      40.664  24.213  26.931  1.00  0.00     0.010 A 
ATOM     34  C   UNL A   1      42.050  23.475  28.782  1.00  0.00     0.010 A 
ATOM     35  C   UNL A   1      41.519  24.515  27.999  1.00  0.00    -0.014 A 
BRANCH  35  36
ATOM     36  C   UNL A   1      41.979  25.914  28.170  1.00  0.00     0.031 A 
ATOM     37  C   UNL A   1      43.308  26.317  27.593  1.00  0.00     0.074 A 
ATOM     38  C   UNL A   1      41.196  26.828  28.770  1.00  0.00     0.049 A 
ATOM     39  N   UNL A   1      43.897  27.487  27.595  1.00  0.00    -0.248 NA
ATOM     40  C   UNL A   1      44.077  25.259  26.918  1.00  0.00     0.031 C 
ATOM     41  C   UNL A   1      39.876  26.565  29.336  1.00  0.00     0.029 A 
ATOM     42  N   UNL A   1      41.404  28.165  28.999  1.00  0.00    -0.354 N 
ATOM     43  C   UNL A   1      45.102  27.303  26.930  1.00  0.00     0.074 A 
ATOM     44  C   UNL A   1      45.177  25.906  26.565  1.00  0.00     0.031 C 
ATOM     45  C   UNL A   1      39.391  27.706  29.855  1.00  0.00     0.029 A 
ATOM     46  C   UNL A   1      40.377  28.770  29.679  1.00  0.00     0.049 A 
ATOM     47  H   UNL A   1      42.211  28.644  28.702  1.00  0.00     0.167 HD
ATOM     48  C   UNL A   1      46.055  28.221  26.640  1.00  0.00     0.037 A 
ATOM     49  C   UNL A   1      40.258  30.037  30.122  1.00  0.00     0.037 A 
ATOM     50  C   UNL A   1      45.973  29.613  26.998  1.00  0.00     0.049 A 
ATOM     51  C   UNL A   1      41.356  31.027  29.835  1.00  0.00     0.074 A 
ATOM     52  C   UNL A   1      46.874  30.628  26.725  1.00  0.00     0.029 A 
ATOM     53  N   UNL A   1      44.933  30.183  27.716  1.00  0.00    -0.354 N 
ATOM     54  N   UNL A   1      42.476  30.854  29.175  1.00  0.00    -0.248 NA
ATOM     55  C   UNL A   1      41.171  32.390  30.351  1.00  0.00     0.031 C 
ATOM     56  C   UNL A   1      46.402  31.802  27.322  1.00  0.00     0.029 A 
ATOM     57  C   UNL A   1      45.183  31.530  27.921  1.00  0.00     0.049 A 
ATOM     58  H   UNL A   1      44.135  29.701  28.034  1.00  0.00     0.167 HD
ATOM     59  C   UNL A   1      43.115  32.088  29.174  1.00  0.00     0.074 A 
ATOM     60  C   UNL A   1      42.251  33.004  29.889  1.00  0.00     0.031 C 
ATOM     61  C   UNL A   1      44.310  32.430  28.632  1.00  0.00     0.037 A 
BRANCH  48  62
ATOM     62  C   UNL A   1      47.281  27.743  25.921  1.00  0.00     0.064 A 
ATOM     63  C   UNL A   1      48.423  27.311  26.612  1.00  0.00     0.173 A 
ATOM     64  C   UNL A   1      47.303  27.690  24.519  1.00  0.00     0.173 A 
ATOM     65  F   UNL A   1      48.458  27.355  27.952  1.00  0.00    -0.203 F 
ATOM     66  C   UNL A   1      49.551  26.866  25.926  1.00  0.00     0.198 A 
ATOM     67  C   UNL A   1      48.421  27.218  23.837  1.00  0.00     0.198 A 
ATOM     68  F   UNL A   1      46.237  28.090  23.810  1.00  0.00    -0.203 F 
ATOM     69  F   UNL A   1      50.646  26.500  26.605  1.00  0.00    -0.200 F 
ATOM     70  C   UNL A   1      49.546  26.814  24.540  1.00  0.00     0.200 A 
ATOM     71  F   UNL A   1      48.412  27.159  22.498  1.00  0.00    -0.200 F 
ATOM     72  F   UNL A   1      50.629  26.380  23.881  1.00  0.00    -0.200 F 
ENDBRANCH  48  62
BRANCH  49  73
ATOM     73  C   UNL A   1      39.053  30.439  30.893  1.00  0.00     0.064 A 
ATOM     74  C   UNL A   1      37.912  30.940  30.252  1.00  0.00     0.173 A 
ATOM     75  C   UNL A   1      39.025  30.338  32.293  1.00  0.00     0.173 A 
ATOM     76  F   UNL A   1      37.901  31.079  28.919  1.00  0.00    -0.203 F 
ATOM     77  C   UNL A   1      36.794  31.339  30.982  1.00  0.00     0.198 A 
ATOM     78  C   UNL A   1      37.897  30.711  33.019  1.00  0.00     0.198 A 
ATOM     79  F   UNL A   1      40.093  29.868  32.954  1.00  0.00    -0.203 F 
ATOM     80  F   UNL A   1      35.733  31.855  30.348  1.00  0.00    -0.200 F 
ATOM     81  C   UNL A   1      36.785  31.217  32.364  1.00  0.00     0.200 A 
ATOM     82  F   UNL A   1      37.888  30.583  34.352  1.00  0.00    -0.200 F 
ATOM     83  F   UNL A   1      35.707  31.598  33.064  1.00  0.00    -0.200 F 
ENDBRANCH  49  73
BRANCH  61  84
ATOM     84  C   UNL A   1      44.742  33.862  28.762  1.00  0.00     0.064 A 
ATOM     85  C   UNL A   1      45.562  34.290  29.817  1.00  0.00     0.173 A 
ATOM     86  C   UNL A   1      44.368  34.807  27.796  1.00  0.00     0.173 A 
ATOM     87  F   UNL A   1      45.936  33.427  30.774  1.00  0.00    -0.203 F 
ATOM     88  C   UNL A   1      45.972  35.617  29.912  1.00  0.00     0.198 A 
ATOM     89  C   UNL A   1      44.803  36.127  27.877  1.00  0.00     0.198 A 
ATOM     90  F   UNL A   1      43.592  34.448  26.762  1.00  0.00    -0.203 F 
ATOM     91  F   UNL A   1      46.717  36.013  30.951  1.00  0.00    -0.200 F 
ATOM     92  C   UNL A   1      45.598  36.532  28.939  1.00  0.00     0.200 A 
ATOM     93  F   UNL A   1      44.454  37.007  26.929  1.00  0.00    -0.200 F 
ATOM     94  F   UNL A   1      46.000  37.808  29.027  1.00  0.00    -0.200 F 
ENDBRANCH  61  84
ENDBRANCH  35  36
ENDBRANCH  28  30
ENDBRANCH  27  28
ENDBRANCH  26  27
ENDBRANCH  25  26
ENDBRANCH   1  25
TORSDOF 16
ENDMDL
MODEL 3
REMARK VINA RESULT:     -11.9      4.464     10.153
REMARK SMILES Cc1cc(C(=O)N2[C@@H](C(=O)OCCOCCOC(=O)c3ccc(-c4c5nc(c(-c6c(F)c(F)c(F)c(F)c6F)c6ccc([nH]6)c(-c6c(F)c(F)c(F)c(F)c6F)c6nc(c(-c7c(F)c(F)c(F)c(F)c7F)c7ccc4[nH]7)C=C6)C=C5)cc3)C[C@H]3CCCC[C@H]32)c(C)s1
REMARK SMILES IDX 14 1 13 2 12 3 11 4 9 5 10 6 8 7 7 8 89 9 83 10 84 11 88 12
REMARK SMILES IDX 85 13 87 14 86 15 5 16 6 17 4 18 1 19 2 20 3 21 92 22 90 23
REMARK SMILES IDX 91 24 15 25 16 26 17 27 18 28 19 29 20 30 21 31 82 32 22 33
REMARK SMILES IDX 81 34 23 35 24 36 25 37 75 38 26 39 80 40 74 41 76 42 27 43
REMARK SMILES IDX 79 44 73 45 72 46 28 48 60 49 40 50 59 51 41 52 44 53 58 54
REMARK SMILES IDX 77 55 42 56 43 57 57 59 78 60 45 61 29 62 30 63 38 64 31 65
REMARK SMILES IDX 32 66 36 67 39 68 33 69 34 70 37 71 35 72 61 73 62 74 70 75
REMARK SMILES IDX 63 76 64 77 68 78 71 79 65 80 66 81 69 82 67 83 46 84 47 85
REMARK SMILES IDX 55 86 48 87 49 88 53 89 56 90 50 91 51 92 54 93 52 94
REMARK H PARENT 76 47 44 58
REMARK Flexibility Score: inf
ROOT
ATOM      1  O   UNL A   1      37.483  21.341  24.364  1.00  0.00    -0.374 OA
ENDROOT
BRANCH   1   2
ATOM      2  C   UNL A   1      36.849  22.389  25.100  1.00  0.00     0.202 C 
BRANCH   2   3
ATOM      3  C   UNL A   1      35.974  23.331  24.262  1.00  0.00     0.261 C 
BRANCH   3   4
ATOM      4  O   UNL A   1      35.475  24.443  25.040  1.00  0.00    -0.462 OA
BRANCH   4   5
ATOM      5  C   UNL A   1      34.408  25.110  24.522  1.00  0.00     0.328 C 
ATOM      6  O   UNL A   1      34.109  25.128  23.333  1.00  0.00    -0.250 OA
BRANCH   5   7
ATOM      7  C   UNL A   1      33.524  25.768  25.592  1.00  0.00     0.196 C 
ATOM      8  N   UNL A   1      32.135  25.287  25.745  1.00  0.00    -0.322 N 
ATOM      9  C   UNL A   1      31.173  26.361  25.524  1.00  0.00     0.089 C 
ATOM     10  C   UNL A   1      33.368  27.272  25.300  1.00  0.00     0.043 C 
ATOM     11  C   UNL A   1      31.993  27.606  25.878  1.00  0.00     0.014 C 
ATOM     12  C   UNL A   1      30.618  26.367  24.095  1.00  0.00     0.025 C 
ATOM     13  C   UNL A   1      31.391  28.924  25.404  1.00  0.00     0.006 C 
ATOM     14  C   UNL A   1      29.913  27.682  23.777  1.00  0.00     0.002 C 
ATOM     15  C   UNL A   1      30.840  28.875  23.984  1.00  0.00     0.000 C 
BRANCH   8  16
ATOM     16  C   UNL A   1      31.695  24.092  26.305  1.00  0.00     0.255 C 
ATOM     17  O   UNL A   1      30.990  24.080  27.312  1.00  0.00    -0.269 OA
BRANCH  16  18
ATOM     18  C   UNL A   1      32.174  22.842  25.702  1.00  0.00     0.053 A 
ATOM     19  C   UNL A   1      32.180  20.356  22.833  1.00  0.00     0.056 C 
ATOM     20  C   UNL A   1      32.392  21.160  24.069  1.00  0.00     0.003 A 
ATOM     21  C   UNL A   1      31.875  22.397  24.366  1.00  0.00     0.029 A 
ATOM     22  S   UNL A   1      33.410  20.606  25.315  1.00  0.00    -0.145 S 
ATOM     23  C   UNL A   1      33.118  22.001  26.277  1.00  0.00     0.014 A 
ATOM     24  C   UNL A   1      33.882  22.159  27.550  1.00  0.00     0.057 C 
ENDBRANCH  16  18
ENDBRANCH   8  16
ENDBRANCH   5   7
ENDBRANCH   4   5
ENDBRANCH   3   4
ENDBRANCH   2   3
ENDBRANCH   1   2
BRANCH   1  25
ATOM     25  C   UNL A   1      37.511  20.070  25.010  1.00  0.00     0.202 C 
BRANCH  25  26
ATOM     26  C   UNL A   1      38.913  19.568  25.360  1.00  0.00     0.261 C 
BRANCH  26  27
ATOM     27  O   UNL A   1      39.776  20.686  25.633  1.00  0.00    -0.460 OA
BRANCH  27  28
ATOM     28  C   UNL A   1      40.457  20.597  26.794  1.00  0.00     0.338 C 
ATOM     29  O   UNL A   1      40.924  19.585  27.304  1.00  0.00    -0.246 OA
BRANCH  28  30
ATOM     30  C   UNL A   1      40.728  21.943  27.333  1.00  0.00     0.060 A 
ATOM     31  C   UNL A   1      40.031  23.008  26.749  1.00  0.00     0.016 A 
ATOM     32  C   UNL A   1      41.675  22.180  28.334  1.00  0.00     0.016 A 
ATOM     33  C   UNL A   1      40.332  24.317  27.106  1.00  0.00     0.010 A 
ATOM     34  C   UNL A   1      41.978  23.499  28.691  1.00  0.00     0.010 A 
ATOM     35  C   UNL A   1      41.341  24.573  28.043  1.00  0.00    -0.014 A 
BRANCH  35  36
ATOM     36  C   UNL A   1      41.831  25.963  28.203  1.00  0.00     0.031 A 
ATOM     37  C   UNL A   1      43.164  26.335  27.616  1.00  0.00     0.074 A 
ATOM     38  C   UNL A   1      41.070  26.896  28.802  1.00  0.00     0.049 A 
ATOM     39  N   UNL A   1      43.777  27.492  27.607  1.00  0.00    -0.248 NA
ATOM     40  C   UNL A   1      43.907  25.257  26.942  1.00  0.00     0.031 C 
ATOM     41  C   UNL A   1      39.749  26.664  29.378  1.00  0.00     0.029 A 
ATOM     42  N   UNL A   1      41.307  28.230  29.022  1.00  0.00    -0.354 N 
ATOM     43  C   UNL A   1      44.974  27.280  26.936  1.00  0.00     0.074 A 
ATOM     44  C   UNL A   1      45.018  25.879  26.579  1.00  0.00     0.031 C 
ATOM     45  C   UNL A   1      39.290  27.818  29.892  1.00  0.00     0.029 A 
ATOM     46  C   UNL A   1      40.297  28.861  29.704  1.00  0.00     0.049 A 
ATOM     47  H   UNL A   1      42.122  28.691  28.718  1.00  0.00     0.167 HD
ATOM     48  C   UNL A   1      45.944  28.176  26.635  1.00  0.00     0.037 A 
ATOM     49  C   UNL A   1      40.206  30.132  30.140  1.00  0.00     0.037 A 
ATOM     50  C   UNL A   1      45.893  29.572  26.985  1.00  0.00     0.049 A 
ATOM     51  C   UNL A   1      41.323  31.097  29.841  1.00  0.00     0.074 A 
ATOM     52  C   UNL A   1      46.813  30.566  26.700  1.00  0.00     0.029 A 
ATOM     53  N   UNL A   1      44.869  30.167  27.706  1.00  0.00    -0.354 N 
ATOM     54  N   UNL A   1      42.435  30.897  29.175  1.00  0.00    -0.248 NA
ATOM     55  C   UNL A   1      41.170  32.467  30.350  1.00  0.00     0.031 C 
ATOM     56  C   UNL A   1      46.369  31.753  27.293  1.00  0.00     0.029 A 
ATOM     57  C   UNL A   1      45.148  31.510  27.901  1.00  0.00     0.049 A 
ATOM     58  H   UNL A   1      44.064  29.703  28.032  1.00  0.00     0.167 HD
ATOM     59  C   UNL A   1      43.100  32.117  29.164  1.00  0.00     0.074 A 
ATOM     60  C   UNL A   1      42.260  33.056  29.878  1.00  0.00     0.031 C 
ATOM     61  C   UNL A   1      44.298  32.432  28.612  1.00  0.00     0.037 A 
BRANCH  48  62
ATOM     62  C   UNL A   1      47.156  27.668  25.912  1.00  0.00     0.064 A 
ATOM     63  C   UNL A   1      47.246  27.693  24.512  1.00  0.00     0.173 A 
ATOM     64  C   UNL A   1      48.255  27.175  26.632  1.00  0.00     0.173 A 
ATOM     65  F   UNL A   1      46.218  28.141  23.777  1.00  0.00    -0.203 F 
ATOM     66  C   UNL A   1      48.382  27.221  23.859  1.00  0.00     0.198 A 
ATOM     67  C   UNL A   1      49.399  26.730  25.977  1.00  0.00     0.198 A 
ATOM     68  F   UNL A   1      48.220  27.131  27.972  1.00  0.00    -0.203 F 
ATOM     69  F   UNL A   1      48.429  27.213  22.520  1.00  0.00    -0.200 F 
ATOM     70  C   UNL A   1      49.460  26.746  24.593  1.00  0.00     0.200 A 
ATOM     71  F   UNL A   1      50.443  26.281  26.688  1.00  0.00    -0.200 F 
ATOM     72  F   UNL A   1      50.554  26.297  23.963  1.00  0.00    -0.200 F 
ENDBRANCH  48  62
BRANCH  49  73
ATOM     73  C   UNL A   1      39.015  30.563  30.916  1.00  0.00     0.064 A 
ATOM     74  C   UNL A   1      38.988  30.479  32.315  1.00  0.00     0.173 A 
ATOM     75  C   UNL A   1      37.873  31.059  30.270  1.00  0.00     0.173 A 
ATOM     76  F   UNL A   1      40.046  29.987  32.976  1.00  0.00    -0.203 F 
ATOM     77  C   UNL A   1      37.859  30.861  33.036  1.00  0.00     0.198 A 
ATOM     78  C   UNL A   1      36.755  31.467  30.994  1.00  0.00     0.198 A 
ATOM     79  F   UNL A   1      37.847  31.156  28.932  1.00  0.00    -0.203 F 
ATOM     80  F   UNL A   1      37.843  30.730  34.370  1.00  0.00    -0.200 F 
ATOM     81  C   UNL A   1      36.746  31.361  32.376  1.00  0.00     0.200 A 
ATOM     82  F   UNL A   1      35.687  31.958  30.353  1.00  0.00    -0.200 F 
ATOM     83  F   UNL A   1      35.662  31.731  33.072  1.00  0.00    -0.200 F 
ENDBRANCH  49  73
BRANCH  61  84
ATOM     84  C   UNL A   1      44.761  33.855  28.731  1.00  0.00     0.064 A 
ATOM     85  C   UNL A   1      44.410  34.825  27.781  1.00  0.00     0.173 A 
ATOM     86  C   UNL A   1      45.528  34.262  29.833  1.00  0.00     0.173 A 
ATOM     87  F   UNL A   1      43.689  34.483  26.701  1.00  0.00    -0.203 F 
ATOM     88  C   UNL A   1      44.830  36.145  27.917  1.00  0.00     0.198 A 
ATOM     89  C   UNL A   1      45.922  35.589  29.982  1.00  0.00     0.198 A 
ATOM     90  F   UNL A   1      45.883  33.375  30.775  1.00  0.00    -0.203 F 
ATOM     91  F   UNL A   1      44.522  37.045  26.974  1.00  0.00    -0.200 F 
ATOM     92  C   UNL A   1      45.579  36.528  29.020  1.00  0.00     0.200 A 
ATOM     93  F   UNL A   1      46.633  35.960  31.056  1.00  0.00    -0.200 F 
ATOM     94  F   UNL A   1      45.976  37.801  29.154  1.00  0.00    -0.200 F 
ENDBRANCH  61  84
ENDBRANCH  35  36
ENDBRANCH  28  30
ENDBRANCH  27  28
ENDBRANCH  26  27
ENDBRANCH  25  26
ENDBRANCH   1  25
TORSDOF 16
ENDMDL
