MODEL 1
REMARK VINA RESULT:     -11.7      0.000      0.000
REMARK SMILES CCCOC(=O)c1c(NC(=O)[C@@H]2CC=CC[C@H]2C(=O)OCCOCCOC(=O)c2ccc(-c3c4nc(c(-c5c(F)c(F)c(F)c(F)c5F)c5ccc([nH]5)c(-c5c(F)c(F)c(F)c(F)c5F)c5nc(c(-c6c(F)c(F)c(F)c(F)c6F)c6ccc3[nH]6)C=C5)C=C4)cc2)sc2c1CCCC2
REMARK SMILES IDX 21 1 20 2 18 3 19 4 17 5 12 6 13 7 14 8 16 9 15 10 10 11
REMARK SMILES IDX 9 12 11 14 8 15 7 16 94 17 92 18 93 19 95 20 98 21 96 22
REMARK SMILES IDX 97 23 5 24 6 25 4 26 3 27 2 28 1 29 22 30 23 31 24 32 25 33
REMARK SMILES IDX 26 34 27 35 28 36 29 37 30 38 91 39 31 40 90 41 32 42 33 43
REMARK SMILES IDX 34 44 84 45 35 46 89 47 83 48 85 49 36 50 88 51 82 52 81 53
REMARK SMILES IDX 37 55 69 56 49 57 68 58 50 59 53 60 67 61 86 62 51 63 52 64
REMARK SMILES IDX 66 66 87 67 54 68 38 69 39 70 47 71 40 72 41 73 45 74 48 75
REMARK SMILES IDX 42 76 43 77 46 78 44 79 70 80 71 81 79 82 72 83 73 84 77 85
REMARK SMILES IDX 80 86 74 87 75 88 78 89 76 90 55 91 56 92 64 93 57 94 58 95
REMARK SMILES IDX 62 96 65 97 59 98 60 99 63 100 61 101
REMARK H PARENT 9 13 85 54 53 65
REMARK Flexibility Score: inf
ROOT
ATOM      1  C   UNL A   1      33.935  28.137  26.449  1.00  0.00     0.261 C 
ENDROOT
BRANCH   1   2
ATOM      2  O   UNL A   1      33.062  27.051  26.791  1.00  0.00    -0.463 OA
BRANCH   2   3
ATOM      3  C   UNL A   1      32.149  26.697  25.846  1.00  0.00     0.310 C 
ATOM      4  O   UNL A   1      31.135  27.330  25.578  1.00  0.00    -0.252 OA
BRANCH   3   5
ATOM      5  C   UNL A   1      32.443  25.331  25.235  1.00  0.00     0.116 C 
ATOM      6  C   UNL A   1      31.231  24.380  25.249  1.00  0.00     0.097 C 
ATOM      7  C   UNL A   1      31.042  23.426  24.073  1.00  0.00     0.041 C 
ATOM      8  C   UNL A   1      31.599  23.919  22.792  1.00  0.00    -0.030 C 
ATOM      9  C   UNL A   1      33.028  25.672  23.851  1.00  0.00     0.043 C 
ATOM     10  C   UNL A   1      32.509  24.888  22.694  1.00  0.00    -0.030 C 
BRANCH   6  11
ATOM     11  C   UNL A   1      31.048  23.527  26.486  1.00  0.00     0.229 C 
ATOM     12  N   UNL A   1      31.739  22.433  26.859  1.00  0.00    -0.317 N 
ATOM     13  H   UNL A   1      31.249  21.914  27.537  1.00  0.00     0.170 HD
ATOM     14  O   UNL A   1      30.108  23.816  27.246  1.00  0.00    -0.274 OA
BRANCH  12  15
ATOM     15  C   UNL A   1      32.936  21.845  26.550  1.00  0.00     0.110 A 
ATOM     16  C   UNL A   1      33.521  20.790  25.868  1.00  0.00     0.098 A 
ATOM     17  C   UNL A   1      34.924  21.136  25.583  1.00  0.00    -0.017 A 
ATOM     18  S   UNL A   1      34.130  22.893  27.232  1.00  0.00    -0.122 S 
ATOM     19  C   UNL A   1      35.323  22.299  26.206  1.00  0.00     0.011 A 
ATOM     20  C   UNL A   1      35.872  20.386  24.680  1.00  0.00     0.038 C 
ATOM     21  C   UNL A   1      36.658  22.964  26.076  1.00  0.00     0.047 C 
ATOM     22  C   UNL A   1      37.330  20.843  24.864  1.00  0.00     0.005 C 
ATOM     23  C   UNL A   1      37.445  22.370  24.901  1.00  0.00     0.006 C 
BRANCH  16  24
ATOM     24  C   UNL A   1      32.954  19.538  25.357  1.00  0.00     0.341 C 
ATOM     25  O   UNL A   1      32.528  18.684  26.127  1.00  0.00    -0.246 OA
BRANCH  24  26
ATOM     26  O   UNL A   1      32.731  19.491  23.996  1.00  0.00    -0.462 OA
BRANCH  26  27
ATOM     27  C   UNL A   1      32.432  18.144  23.565  1.00  0.00     0.233 C 
BRANCH  27  28
ATOM     28  C   UNL A   1      33.648  17.348  23.074  1.00  0.00     0.038 C 
ATOM     29  C   UNL A   1      34.119  16.260  24.032  1.00  0.00     0.007 C 
ENDBRANCH  27  28
ENDBRANCH  26  27
ENDBRANCH  24  26
ENDBRANCH  16  24
ENDBRANCH  12  15
ENDBRANCH   6  11
ENDBRANCH   3   5
ENDBRANCH   2   3
ENDBRANCH   1   2
BRANCH   1  30
ATOM     30  C   UNL A   1      33.529  29.477  27.067  1.00  0.00     0.202 C 
BRANCH  30  31
ATOM     31  O   UNL A   1      32.995  30.447  26.172  1.00  0.00    -0.374 OA
BRANCH  31  32
ATOM     32  C   UNL A   1      31.732  31.037  26.500  1.00  0.00     0.202 C 
BRANCH  32  33
ATOM     33  C   UNL A   1      31.787  32.492  26.961  1.00  0.00     0.261 C 
BRANCH  33  34
ATOM     34  O   UNL A   1      33.149  32.864  27.238  1.00  0.00    -0.460 OA
BRANCH  34  35
ATOM     35  C   UNL A   1      33.258  33.918  28.072  1.00  0.00     0.338 C 
ATOM     36  O   UNL A   1      32.527  34.890  28.148  1.00  0.00    -0.246 OA
BRANCH  35  37
ATOM     37  C   UNL A   1      34.333  33.660  29.040  1.00  0.00     0.060 A 
ATOM     38  C   UNL A   1      35.612  34.145  28.748  1.00  0.00     0.016 A 
ATOM     39  C   UNL A   1      34.122  32.786  30.106  1.00  0.00     0.016 A 
ATOM     40  C   UNL A   1      36.705  33.689  29.482  1.00  0.00     0.010 A 
ATOM     41  C   UNL A   1      35.220  32.336  30.848  1.00  0.00     0.010 A 
ATOM     42  C   UNL A   1      36.522  32.740  30.500  1.00  0.00    -0.014 A 
BRANCH  42  43
ATOM     43  C   UNL A   1      37.709  32.037  31.050  1.00  0.00     0.031 A 
ATOM     44  C   UNL A   1      38.153  32.347  32.455  1.00  0.00     0.074 A 
ATOM     45  C   UNL A   1      38.337  31.082  30.343  1.00  0.00     0.049 A 
ATOM     46  N   UNL A   1      39.133  31.827  33.152  1.00  0.00    -0.248 NA
ATOM     47  C   UNL A   1      37.387  33.378  33.175  1.00  0.00     0.031 C 
ATOM     48  C   UNL A   1      37.976  30.658  28.993  1.00  0.00     0.029 A 
ATOM     49  N   UNL A   1      39.408  30.290  30.673  1.00  0.00    -0.354 N 
ATOM     50  C   UNL A   1      39.095  32.461  34.387  1.00  0.00     0.074 A 
ATOM     51  C   UNL A   1      38.022  33.428  34.337  1.00  0.00     0.031 C 
ATOM     52  C   UNL A   1      38.810  29.675  28.609  1.00  0.00     0.029 A 
ATOM     53  C   UNL A   1      39.777  29.421  29.677  1.00  0.00     0.049 A 
ATOM     54  H   UNL A   1      39.868  30.339  31.542  1.00  0.00     0.167 HD
ATOM     55  C   UNL A   1      39.876  32.246  35.473  1.00  0.00     0.037 A 
ATOM     56  C   UNL A   1      40.786  28.530  29.630  1.00  0.00     0.037 A 
ATOM     57  C   UNL A   1      40.944  31.284  35.532  1.00  0.00     0.049 A 
ATOM     58  C   UNL A   1      41.689  28.364  30.824  1.00  0.00     0.074 A 
ATOM     59  C   UNL A   1      41.785  30.990  36.591  1.00  0.00     0.029 A 
ATOM     60  N   UNL A   1      41.321  30.461  34.482  1.00  0.00    -0.354 N 
ATOM     61  N   UNL A   1      41.634  28.954  31.993  1.00  0.00    -0.248 NA
ATOM     62  C   UNL A   1      42.794  27.403  30.691  1.00  0.00     0.031 C 
ATOM     63  C   UNL A   1      42.699  30.019  36.168  1.00  0.00     0.029 A 
ATOM     64  C   UNL A   1      42.398  29.676  34.860  1.00  0.00     0.049 A 
ATOM     65  H   UNL A   1      40.887  30.439  33.598  1.00  0.00     0.167 HD
ATOM     66  C   UNL A   1      42.675  28.421  32.741  1.00  0.00     0.074 A 
ATOM     67  C   UNL A   1      43.340  27.449  31.898  1.00  0.00     0.031 C 
ATOM     68  C   UNL A   1      43.046  28.708  34.013  1.00  0.00     0.037 A 
BRANCH  55  69
ATOM     69  C   UNL A   1      39.612  33.083  36.690  1.00  0.00     0.064 A 
ATOM     70  C   UNL A   1      38.667  32.700  37.654  1.00  0.00     0.173 A 
ATOM     71  C   UNL A   1      40.342  34.259  36.915  1.00  0.00     0.173 A 
ATOM     72  F   UNL A   1      37.936  31.590  37.478  1.00  0.00    -0.203 F 
ATOM     73  C   UNL A   1      38.450  33.477  38.789  1.00  0.00     0.198 A 
ATOM     74  C   UNL A   1      40.138  35.020  38.063  1.00  0.00     0.198 A 
ATOM     75  F   UNL A   1      41.261  34.665  36.025  1.00  0.00    -0.203 F 
ATOM     76  F   UNL A   1      37.517  33.112  39.680  1.00  0.00    -0.200 F 
ATOM     77  C   UNL A   1      39.189  34.631  38.995  1.00  0.00     0.200 A 
ATOM     78  F   UNL A   1      40.861  36.131  38.266  1.00  0.00    -0.200 F 
ATOM     79  F   UNL A   1      38.984  35.374  40.092  1.00  0.00    -0.200 F 
ENDBRANCH  55  69
BRANCH  56  80
ATOM     80  C   UNL A   1      41.001  27.720  28.403  1.00  0.00     0.064 A 
ATOM     81  C   UNL A   1      40.347  26.495  28.220  1.00  0.00     0.173 A 
ATOM     82  C   UNL A   1      41.879  28.150  27.397  1.00  0.00     0.173 A 
ATOM     83  F   UNL A   1      39.520  26.029  29.169  1.00  0.00    -0.203 F 
ATOM     84  C   UNL A   1      40.573  25.722  27.083  1.00  0.00     0.198 A 
ATOM     85  C   UNL A   1      42.084  27.389  26.249  1.00  0.00     0.198 A 
ATOM     86  F   UNL A   1      42.531  29.313  27.527  1.00  0.00    -0.203 F 
ATOM     87  F   UNL A   1      39.968  24.534  26.952  1.00  0.00    -0.200 F 
ATOM     88  C   UNL A   1      41.437  26.172  26.095  1.00  0.00     0.200 A 
ATOM     89  F   UNL A   1      42.912  27.832  25.292  1.00  0.00    -0.200 F 
ATOM     90  F   UNL A   1      41.651  25.431  25.000  1.00  0.00    -0.200 F 
ENDBRANCH  56  80
BRANCH  68  91
ATOM     91  C   UNL A   1      44.206  27.946  34.584  1.00  0.00     0.064 A 
ATOM     92  C   UNL A   1      45.506  28.470  34.570  1.00  0.00     0.173 A 
ATOM     93  C   UNL A   1      44.006  26.697  35.190  1.00  0.00     0.173 A 
ATOM     94  F   UNL A   1      45.751  29.655  33.990  1.00  0.00    -0.203 F 
ATOM     95  C   UNL A   1      46.569  27.761  35.125  1.00  0.00     0.198 A 
ATOM     96  C   UNL A   1      45.066  26.002  35.766  1.00  0.00     0.198 A 
ATOM     97  F   UNL A   1      42.779  26.156  35.235  1.00  0.00    -0.203 F 
ATOM     98  F   UNL A   1      47.811  28.261  35.063  1.00  0.00    -0.200 F 
ATOM     99  C   UNL A   1      46.347  26.531  35.727  1.00  0.00     0.200 A 
ATOM    100  F   UNL A   1      44.848  24.820  36.358  1.00  0.00    -0.200 F 
ATOM    101  F   UNL A   1      47.370  25.852  36.265  1.00  0.00    -0.200 F 
ENDBRANCH  68  91
ENDBRANCH  42  43
ENDBRANCH  35  37
ENDBRANCH  34  35
ENDBRANCH  33  34
ENDBRANCH  32  33
ENDBRANCH  31  32
ENDBRANCH  30  31
ENDBRANCH   1  30
TORSDOF 20
ENDMDL
MODEL 2
REMARK VINA RESULT:     -11.5      5.129     10.889
REMARK SMILES CCCOC(=O)c1c(NC(=O)[C@@H]2CC=CC[C@H]2C(=O)OCCOCCOC(=O)c2ccc(-c3c4nc(c(-c5c(F)c(F)c(F)c(F)c5F)c5ccc([nH]5)c(-c5c(F)c(F)c(F)c(F)c5F)c5nc(c(-c6c(F)c(F)c(F)c(F)c6F)c6ccc3[nH]6)C=C5)C=C4)cc2)sc2c1CCCC2
REMARK SMILES IDX 21 1 20 2 18 3 19 4 17 5 12 6 13 7 14 8 16 9 15 10 10 11
REMARK SMILES IDX 9 12 11 14 8 15 7 16 94 17 92 18 93 19 95 20 98 21 96 22
REMARK SMILES IDX 97 23 5 24 6 25 4 26 3 27 2 28 1 29 22 30 23 31 24 32 25 33
REMARK SMILES IDX 26 34 27 35 28 36 29 37 30 38 91 39 31 40 90 41 32 42 33 43
REMARK SMILES IDX 34 44 84 45 35 46 89 47 83 48 85 49 36 50 88 51 82 52 81 53
REMARK SMILES IDX 37 55 69 56 49 57 68 58 50 59 53 60 67 61 86 62 51 63 52 64
REMARK SMILES IDX 66 66 87 67 54 68 38 69 39 70 47 71 40 72 41 73 45 74 48 75
REMARK SMILES IDX 42 76 43 77 46 78 44 79 70 80 71 81 79 82 72 83 73 84 77 85
REMARK SMILES IDX 80 86 74 87 75 88 78 89 76 90 55 91 56 92 64 93 57 94 58 95
REMARK SMILES IDX 62 96 65 97 59 98 60 99 63 100 61 101
REMARK H PARENT 9 13 85 54 53 65
REMARK Flexibility Score: inf
ROOT
ATOM      1  C   UNL A   1      36.207  22.866  25.437  1.00  0.00     0.261 C 
ENDROOT
BRANCH   1   2
ATOM      2  O   UNL A   1      35.503  24.050  25.039  1.00  0.00    -0.463 OA
BRANCH   2   3
ATOM      3  C   UNL A   1      34.810  23.970  23.870  1.00  0.00     0.310 C 
ATOM      4  O   UNL A   1      35.253  23.516  22.822  1.00  0.00    -0.252 OA
BRANCH   3   5
ATOM      5  C   UNL A   1      33.445  24.644  23.955  1.00  0.00     0.116 C 
ATOM      6  C   UNL A   1      32.633  24.550  22.649  1.00  0.00     0.097 C 
ATOM      7  C   UNL A   1      31.118  24.387  22.745  1.00  0.00     0.041 C 
ATOM      8  C   UNL A   1      30.655  23.699  23.973  1.00  0.00    -0.030 C 
ATOM      9  C   UNL A   1      32.805  24.009  25.205  1.00  0.00     0.043 C 
ATOM     10  C   UNL A   1      31.388  23.566  25.079  1.00  0.00    -0.030 C 
BRANCH   6  11
ATOM     11  C   UNL A   1      32.851  25.647  21.629  1.00  0.00     0.229 C 
ATOM     12  N   UNL A   1      32.582  26.961  21.743  1.00  0.00    -0.317 N 
ATOM     13  H   UNL A   1      32.550  27.398  20.861  1.00  0.00     0.170 HD
ATOM     14  O   UNL A   1      33.279  25.312  20.511  1.00  0.00    -0.274 OA
BRANCH  12  15
ATOM     15  C   UNL A   1      32.339  27.855  22.751  1.00  0.00     0.110 A 
ATOM     16  C   UNL A   1      31.348  28.386  23.561  1.00  0.00     0.098 A 
ATOM     17  C   UNL A   1      31.977  28.943  24.770  1.00  0.00    -0.017 A 
ATOM     18  S   UNL A   1      33.898  28.468  23.181  1.00  0.00    -0.122 S 
ATOM     19  C   UNL A   1      33.354  28.954  24.697  1.00  0.00     0.011 A 
ATOM     20  C   UNL A   1      31.273  29.423  26.015  1.00  0.00     0.038 C 
ATOM     21  C   UNL A   1      34.298  29.392  25.773  1.00  0.00     0.047 C 
ATOM     22  C   UNL A   1      32.207  30.226  26.937  1.00  0.00     0.005 C 
ATOM     23  C   UNL A   1      33.563  29.533  27.112  1.00  0.00     0.006 C 
BRANCH  16  24
ATOM     24  C   UNL A   1      29.887  28.376  23.431  1.00  0.00     0.341 C 
ATOM     25  O   UNL A   1      29.242  27.366  23.693  1.00  0.00    -0.246 OA
BRANCH  24  26
ATOM     26  O   UNL A   1      29.294  29.605  23.222  1.00  0.00    -0.462 OA
BRANCH  26  27
ATOM     27  C   UNL A   1      29.673  30.153  21.938  1.00  0.00     0.233 C 
BRANCH  27  28
ATOM     28  C   UNL A   1      28.590  31.004  21.265  1.00  0.00     0.038 C 
ATOM     29  C   UNL A   1      28.390  32.381  21.888  1.00  0.00     0.007 C 
ENDBRANCH  27  28
ENDBRANCH  26  27
ENDBRANCH  24  26
ENDBRANCH  16  24
ENDBRANCH  12  15
ENDBRANCH   6  11
ENDBRANCH   3   5
ENDBRANCH   2   3
ENDBRANCH   1   2
BRANCH   1  30
ATOM     30  C   UNL A   1      37.729  22.988  25.343  1.00  0.00     0.202 C 
BRANCH  30  31
ATOM     31  O   UNL A   1      38.478  21.837  25.716  1.00  0.00    -0.374 OA
BRANCH  31  32
ATOM     32  C   UNL A   1      38.218  20.613  25.020  1.00  0.00     0.202 C 
BRANCH  32  33
ATOM     33  C   UNL A   1      39.136  19.446  25.377  1.00  0.00     0.261 C 
BRANCH  33  34
ATOM     34  O   UNL A   1      40.028  19.835  26.437  1.00  0.00    -0.460 OA
BRANCH  34  35
ATOM     35  C   UNL A   1      41.313  19.496  26.208  1.00  0.00     0.338 C 
ATOM     36  O   UNL A   1      41.741  18.454  25.744  1.00  0.00    -0.246 OA
BRANCH  35  37
ATOM     37  C   UNL A   1      42.171  20.665  26.448  1.00  0.00     0.060 A 
ATOM     38  C   UNL A   1      42.391  21.059  27.772  1.00  0.00     0.016 A 
ATOM     39  C   UNL A   1      42.579  21.468  25.383  1.00  0.00     0.016 A 
ATOM     40  C   UNL A   1      42.953  22.307  28.035  1.00  0.00     0.010 A 
ATOM     41  C   UNL A   1      43.153  22.717  25.649  1.00  0.00     0.010 A 
ATOM     42  C   UNL A   1      43.286  23.164  26.976  1.00  0.00    -0.014 A 
BRANCH  42  43
ATOM     43  C   UNL A   1      43.582  24.590  27.270  1.00  0.00     0.031 A 
ATOM     44  C   UNL A   1      44.959  25.124  26.977  1.00  0.00     0.074 A 
ATOM     45  C   UNL A   1      42.623  25.417  27.720  1.00  0.00     0.049 A 
ATOM     46  N   UNL A   1      45.427  26.340  27.115  1.00  0.00    -0.248 NA
ATOM     47  C   UNL A   1      45.939  24.160  26.450  1.00  0.00     0.031 C 
ATOM     48  C   UNL A   1      41.242  25.035  27.998  1.00  0.00     0.029 A 
ATOM     49  N   UNL A   1      42.669  26.759  28.009  1.00  0.00    -0.354 N 
ATOM     50  C   UNL A   1      46.748  26.286  26.689  1.00  0.00     0.074 A 
ATOM     51  C   UNL A   1      47.021  24.915  26.320  1.00  0.00     0.031 C 
ATOM     52  C   UNL A   1      40.566  26.119  28.415  1.00  0.00     0.029 A 
ATOM     53  C   UNL A   1      41.474  27.265  28.456  1.00  0.00     0.049 A 
ATOM     54  H   UNL A   1      43.481  27.305  27.905  1.00  0.00     0.167 HD
ATOM     55  C   UNL A   1      47.649  27.293  26.598  1.00  0.00     0.037 A 
ATOM     56  C   UNL A   1      41.155  28.510  28.860  1.00  0.00     0.037 A 
ATOM     57  C   UNL A   1      47.385  28.660  26.961  1.00  0.00     0.049 A 
ATOM     58  C   UNL A   1      42.198  29.596  28.822  1.00  0.00     0.074 A 
ATOM     59  C   UNL A   1      48.234  29.751  26.896  1.00  0.00     0.029 A 
ATOM     60  N   UNL A   1      46.177  29.121  27.461  1.00  0.00    -0.354 N 
ATOM     61  N   UNL A   1      43.437  29.540  28.400  1.00  0.00    -0.248 NA
ATOM     62  C   UNL A   1      41.794  30.921  29.315  1.00  0.00     0.031 C 
ATOM     63  C   UNL A   1      47.553  30.866  27.398  1.00  0.00     0.029 A 
ATOM     64  C   UNL A   1      46.266  30.477  27.733  1.00  0.00     0.049 A 
ATOM     65  H   UNL A   1      45.376  28.567  27.602  1.00  0.00     0.167 HD
ATOM     66  C   UNL A   1      43.952  30.820  28.551  1.00  0.00     0.074 A 
ATOM     67  C   UNL A   1      42.886  31.638  29.093  1.00  0.00     0.031 C 
ATOM     68  C   UNL A   1      45.195  31.280  28.266  1.00  0.00     0.037 A 
BRANCH  55  69
ATOM     69  C   UNL A   1      49.021  26.948  26.098  1.00  0.00     0.064 A 
ATOM     70  C   UNL A   1      50.014  26.456  26.959  1.00  0.00     0.173 A 
ATOM     71  C   UNL A   1      49.334  27.074  24.737  1.00  0.00     0.173 A 
ATOM     72  F   UNL A   1      49.768  26.329  28.271  1.00  0.00    -0.203 F 
ATOM     73  C   UNL A   1      51.276  26.120  26.475  1.00  0.00     0.198 A 
ATOM     74  C   UNL A   1      50.589  26.714  24.254  1.00  0.00     0.198 A 
ATOM     75  F   UNL A   1      48.417  27.535  23.873  1.00  0.00    -0.203 F 
ATOM     76  F   UNL A   1      52.221  25.685  27.321  1.00  0.00    -0.200 F 
ATOM     77  C   UNL A   1      51.560  26.243  25.125  1.00  0.00     0.200 A 
ATOM     78  F   UNL A   1      50.859  26.824  22.945  1.00  0.00    -0.200 F 
ATOM     79  F   UNL A   1      52.773  25.912  24.660  1.00  0.00    -0.200 F 
ENDBRANCH  55  69
BRANCH  56  80
ATOM     80  C   UNL A   1      39.780  28.801  29.340  1.00  0.00     0.064 A 
ATOM     81  C   UNL A   1      39.399  28.525  30.660  1.00  0.00     0.173 A 
ATOM     82  C   UNL A   1      38.813  29.345  28.481  1.00  0.00     0.173 A 
ATOM     83  F   UNL A   1      40.280  27.978  31.511  1.00  0.00    -0.203 F 
ATOM     84  C   UNL A   1      38.099  28.770  31.100  1.00  0.00     0.198 A 
ATOM     85  C   UNL A   1      37.522  29.613  28.929  1.00  0.00     0.198 A 
ATOM     86  F   UNL A   1      39.127  29.621  27.207  1.00  0.00    -0.203 F 
ATOM     87  F   UNL A   1      37.750  28.458  32.355  1.00  0.00    -0.200 F 
ATOM     88  C   UNL A   1      37.164  29.319  30.236  1.00  0.00     0.200 A 
ATOM     89  F   UNL A   1      36.623  30.153  28.093  1.00  0.00    -0.200 F 
ATOM     90  F   UNL A   1      35.916  29.558  30.659  1.00  0.00    -0.200 F 
ENDBRANCH  56  80
BRANCH  68  91
ATOM     91  C   UNL A   1      45.467  32.736  28.504  1.00  0.00     0.064 A 
ATOM     92  C   UNL A   1      45.210  33.701  27.520  1.00  0.00     0.173 A 
ATOM     93  C   UNL A   1      45.949  33.174  29.746  1.00  0.00     0.173 A 
ATOM     94  F   UNL A   1      44.761  33.329  26.311  1.00  0.00    -0.203 F 
ATOM     95  C   UNL A   1      45.446  35.052  27.764  1.00  0.00     0.198 A 
ATOM     96  C   UNL A   1      46.160  34.528  29.995  1.00  0.00     0.198 A 
ATOM     97  F   UNL A   1      46.203  32.291  30.723  1.00  0.00    -0.203 F 
ATOM     98  F   UNL A   1      45.234  35.953  26.794  1.00  0.00    -0.200 F 
ATOM     99  C   UNL A   1      45.915  35.464  29.002  1.00  0.00     0.200 A 
ATOM    100  F   UNL A   1      46.601  34.926  31.196  1.00  0.00    -0.200 F 
ATOM    101  F   UNL A   1      46.137  36.765  29.237  1.00  0.00    -0.200 F 
ENDBRANCH  68  91
ENDBRANCH  42  43
ENDBRANCH  35  37
ENDBRANCH  34  35
ENDBRANCH  33  34
ENDBRANCH  32  33
ENDBRANCH  31  32
ENDBRANCH  30  31
ENDBRANCH   1  30
TORSDOF 20
ENDMDL
MODEL 3
REMARK VINA RESULT:     -10.9      1.816      7.728
REMARK SMILES CCCOC(=O)c1c(NC(=O)[C@@H]2CC=CC[C@H]2C(=O)OCCOCCOC(=O)c2ccc(-c3c4nc(c(-c5c(F)c(F)c(F)c(F)c5F)c5ccc([nH]5)c(-c5c(F)c(F)c(F)c(F)c5F)c5nc(c(-c6c(F)c(F)c(F)c(F)c6F)c6ccc3[nH]6)C=C5)C=C4)cc2)sc2c1CCCC2
REMARK SMILES IDX 21 1 20 2 18 3 19 4 17 5 12 6 13 7 14 8 16 9 15 10 10 11
REMARK SMILES IDX 9 12 11 14 8 15 7 16 94 17 92 18 93 19 95 20 98 21 96 22
REMARK SMILES IDX 97 23 5 24 6 25 4 26 3 27 2 28 1 29 22 30 23 31 24 32 25 33
REMARK SMILES IDX 26 34 27 35 28 36 29 37 30 38 91 39 31 40 90 41 32 42 33 43
REMARK SMILES IDX 34 44 84 45 35 46 89 47 83 48 85 49 36 50 88 51 82 52 81 53
REMARK SMILES IDX 37 55 69 56 49 57 68 58 50 59 53 60 67 61 86 62 51 63 52 64
REMARK SMILES IDX 66 66 87 67 54 68 38 69 39 70 47 71 40 72 41 73 45 74 48 75
REMARK SMILES IDX 42 76 43 77 46 78 44 79 70 80 71 81 79 82 72 83 73 84 77 85
REMARK SMILES IDX 80 86 74 87 75 88 78 89 76 90 55 91 56 92 64 93 57 94 58 95
REMARK SMILES IDX 62 96 65 97 59 98 60 99 63 100 61 101
REMARK H PARENT 9 13 85 54 53 65
REMARK Flexibility Score: inf
ROOT
ATOM      1  C   UNL A   1      31.249  27.249  26.615  1.00  0.00     0.261 C 
ENDROOT
BRANCH   1   2
ATOM      2  O   UNL A   1      31.888  26.034  27.029  1.00  0.00    -0.463 OA
BRANCH   2   3
ATOM      3  C   UNL A   1      33.088  25.760  26.447  1.00  0.00     0.310 C 
ATOM      4  O   UNL A   1      33.942  26.595  26.176  1.00  0.00    -0.252 OA
BRANCH   3   5
ATOM      5  C   UNL A   1      33.211  24.300  26.026  1.00  0.00     0.116 C 
ATOM      6  C   UNL A   1      34.663  23.862  25.753  1.00  0.00     0.097 C 
ATOM      7  C   UNL A   1      35.076  22.441  26.130  1.00  0.00     0.041 C 
ATOM      8  C   UNL A   1      34.314  21.863  27.261  1.00  0.00    -0.030 C 
ATOM      9  C   UNL A   1      32.465  23.538  27.138  1.00  0.00     0.043 C 
ATOM     10  C   UNL A   1      33.136  22.325  27.684  1.00  0.00    -0.030 C 
BRANCH   6  11
ATOM     11  C   UNL A   1      35.185  24.068  24.347  1.00  0.00     0.229 C 
ATOM     12  N   UNL A   1      34.505  24.447  23.248  1.00  0.00    -0.317 N 
ATOM     13  H   UNL A   1      35.005  24.234  22.427  1.00  0.00     0.170 HD
ATOM     14  O   UNL A   1      36.381  23.804  24.137  1.00  0.00    -0.274 OA
BRANCH  12  15
ATOM     15  C   UNL A   1      33.308  25.047  22.963  1.00  0.00     0.110 A 
ATOM     16  C   UNL A   1      31.934  24.865  22.976  1.00  0.00     0.098 A 
ATOM     17  C   UNL A   1      31.286  26.187  22.995  1.00  0.00    -0.017 A 
ATOM     18  S   UNL A   1      33.726  26.653  22.477  1.00  0.00    -0.122 S 
ATOM     19  C   UNL A   1      32.179  27.221  22.818  1.00  0.00     0.011 A 
ATOM     20  C   UNL A   1      29.823  26.471  23.230  1.00  0.00     0.038 C 
ATOM     21  C   UNL A   1      31.863  28.685  22.848  1.00  0.00     0.047 C 
ATOM     22  C   UNL A   1      29.448  27.919  22.869  1.00  0.00     0.005 C 
ATOM     23  C   UNL A   1      30.463  28.922  23.427  1.00  0.00     0.006 C 
BRANCH  16  24
ATOM     24  C   UNL A   1      31.123  23.647  23.065  1.00  0.00     0.341 C 
ATOM     25  O   UNL A   1      29.900  23.713  23.133  1.00  0.00    -0.246 OA
BRANCH  24  26
ATOM     26  O   UNL A   1      31.794  22.461  22.842  1.00  0.00    -0.462 OA
BRANCH  26  27
ATOM     27  C   UNL A   1      31.948  21.714  24.070  1.00  0.00     0.233 C 
BRANCH  27  28
ATOM     28  C   UNL A   1      32.981  20.583  24.002  1.00  0.00     0.038 C 
ATOM     29  C   UNL A   1      32.505  19.256  24.583  1.00  0.00     0.007 C 
ENDBRANCH  27  28
ENDBRANCH  26  27
ENDBRANCH  24  26
ENDBRANCH  16  24
ENDBRANCH  12  15
ENDBRANCH   6  11
ENDBRANCH   3   5
ENDBRANCH   2   3
ENDBRANCH   1   2
BRANCH   1  30
ATOM     30  C   UNL A   1      31.584  28.456  27.493  1.00  0.00     0.202 C 
BRANCH  30  31
ATOM     31  O   UNL A   1      32.330  29.499  26.874  1.00  0.00    -0.374 OA
BRANCH  31  32
ATOM     32  C   UNL A   1      31.615  30.460  26.092  1.00  0.00     0.202 C 
BRANCH  32  33
ATOM     33  C   UNL A   1      31.865  31.922  26.458  1.00  0.00     0.261 C 
BRANCH  33  34
ATOM     34  O   UNL A   1      32.560  31.997  27.715  1.00  0.00    -0.460 OA
BRANCH  34  35
ATOM     35  C   UNL A   1      33.547  32.915  27.728  1.00  0.00     0.338 C 
ATOM     36  O   UNL A   1      33.444  34.126  27.639  1.00  0.00    -0.246 OA
BRANCH  35  37
ATOM     37  C   UNL A   1      34.821  32.252  28.041  1.00  0.00     0.060 A 
ATOM     38  C   UNL A   1      34.786  30.904  28.414  1.00  0.00     0.016 A 
ATOM     39  C   UNL A   1      35.992  33.000  28.160  1.00  0.00     0.016 A 
ATOM     40  C   UNL A   1      35.914  30.319  28.986  1.00  0.00     0.010 A 
ATOM     41  C   UNL A   1      37.127  32.408  28.726  1.00  0.00     0.010 A 
ATOM     42  C   UNL A   1      37.072  31.082  29.196  1.00  0.00    -0.014 A 
BRANCH  42  43
ATOM     43  C   UNL A   1      38.138  30.546  30.080  1.00  0.00     0.031 A 
ATOM     44  C   UNL A   1      39.120  29.551  29.518  1.00  0.00     0.074 A 
ATOM     45  C   UNL A   1      38.280  30.990  31.341  1.00  0.00     0.049 A 
ATOM     46  N   UNL A   1      40.151  28.984  30.093  1.00  0.00    -0.248 NA
ATOM     47  C   UNL A   1      38.916  29.147  28.117  1.00  0.00     0.031 C 
ATOM     48  C   UNL A   1      37.426  31.983  31.986  1.00  0.00     0.029 A 
ATOM     49  N   UNL A   1      39.208  30.666  32.299  1.00  0.00    -0.354 N 
ATOM     50  C   UNL A   1      40.718  28.165  29.126  1.00  0.00     0.074 A 
ATOM     51  C   UNL A   1      39.901  28.278  27.939  1.00  0.00     0.031 C 
ATOM     52  C   UNL A   1      37.872  32.193  33.236  1.00  0.00     0.029 A 
ATOM     53  C   UNL A   1      39.027  31.331  33.486  1.00  0.00     0.049 A 
ATOM     54  H   UNL A   1      39.935  30.019  32.149  1.00  0.00     0.167 HD
ATOM     55  C   UNL A   1      41.831  27.397  29.214  1.00  0.00     0.037 A 
ATOM     56  C   UNL A   1      39.712  31.246  34.643  1.00  0.00     0.037 A 
ATOM     57  C   UNL A   1      42.650  27.281  30.391  1.00  0.00     0.049 A 
ATOM     58  C   UNL A   1      40.900  30.326  34.739  1.00  0.00     0.074 A 
ATOM     59  C   UNL A   1      43.801  26.532  30.572  1.00  0.00     0.029 A 
ATOM     60  N   UNL A   1      42.402  27.929  31.590  1.00  0.00    -0.354 N 
ATOM     61  N   UNL A   1      41.440  29.570  33.814  1.00  0.00    -0.248 NA
ATOM     62  C   UNL A   1      41.577  30.251  36.042  1.00  0.00     0.031 C 
ATOM     63  C   UNL A   1      44.225  26.695  31.896  1.00  0.00     0.029 A 
ATOM     64  C   UNL A   1      43.363  27.580  32.525  1.00  0.00     0.049 A 
ATOM     65  H   UNL A   1      41.652  28.546  31.754  1.00  0.00     0.167 HD
ATOM     66  C   UNL A   1      42.530  28.952  34.412  1.00  0.00     0.074 A 
ATOM     67  C   UNL A   1      42.583  29.430  35.778  1.00  0.00     0.031 C 
ATOM     68  C   UNL A   1      43.408  28.068  33.879  1.00  0.00     0.037 A 
BRANCH  55  69
ATOM     69  C   UNL A   1      42.220  26.604  28.001  1.00  0.00     0.064 A 
ATOM     70  C   UNL A   1      41.699  25.323  27.763  1.00  0.00     0.173 A 
ATOM     71  C   UNL A   1      43.092  27.148  27.047  1.00  0.00     0.173 A 
ATOM     72  F   UNL A   1      40.871  24.756  28.652  1.00  0.00    -0.203 F 
ATOM     73  C   UNL A   1      42.054  24.609  26.621  1.00  0.00     0.198 A 
ATOM     74  C   UNL A   1      43.425  26.440  25.895  1.00  0.00     0.198 A 
ATOM     75  F   UNL A   1      43.613  28.372  27.227  1.00  0.00    -0.203 F 
ATOM     76  F   UNL A   1      41.573  23.373  26.431  1.00  0.00    -0.200 F 
ATOM     77  C   UNL A   1      42.911  25.170  25.687  1.00  0.00     0.200 A 
ATOM     78  F   UNL A   1      44.246  26.988  24.987  1.00  0.00    -0.200 F 
ATOM     79  F   UNL A   1      43.245  24.484  24.584  1.00  0.00    -0.200 F 
ENDBRANCH  55  69
BRANCH  56  80
ATOM     80  C   UNL A   1      39.289  32.057  35.813  1.00  0.00     0.064 A 
ATOM     81  C   UNL A   1      39.825  33.331  36.044  1.00  0.00     0.173 A 
ATOM     82  C   UNL A   1      38.351  31.566  36.734  1.00  0.00     0.173 A 
ATOM     83  F   UNL A   1      40.747  33.831  35.207  1.00  0.00    -0.203 F 
ATOM     84  C   UNL A   1      39.450  34.078  37.159  1.00  0.00     0.198 A 
ATOM     85  C   UNL A   1      37.958  32.325  37.833  1.00  0.00     0.198 A 
ATOM     86  F   UNL A   1      37.812  30.351  36.559  1.00  0.00    -0.203 F 
ATOM     87  F   UNL A   1      40.010  35.275  37.379  1.00  0.00    -0.200 F 
ATOM     88  C   UNL A   1      38.513  33.577  38.050  1.00  0.00     0.200 A 
ATOM     89  F   UNL A   1      37.044  31.840  38.687  1.00  0.00    -0.200 F 
ATOM     90  F   UNL A   1      38.150  34.296  39.120  1.00  0.00    -0.200 F 
ENDBRANCH  56  80
BRANCH  68  91
ATOM     91  C   UNL A   1      44.521  27.581  34.760  1.00  0.00     0.064 A 
ATOM     92  C   UNL A   1      44.429  26.365  35.452  1.00  0.00     0.173 A 
ATOM     93  C   UNL A   1      45.708  28.317  34.878  1.00  0.00     0.173 A 
ATOM     94  F   UNL A   1      43.308  25.630  35.382  1.00  0.00    -0.203 F 
ATOM     95  C   UNL A   1      45.479  25.914  36.249  1.00  0.00     0.198 A 
ATOM     96  C   UNL A   1      46.766  27.852  35.655  1.00  0.00     0.198 A 
ATOM     97  F   UNL A   1      45.848  29.484  34.230  1.00  0.00    -0.203 F 
ATOM     98  F   UNL A   1      45.354  24.770  36.935  1.00  0.00    -0.200 F 
ATOM     99  C   UNL A   1      46.648  26.655  36.344  1.00  0.00     0.200 A 
ATOM    100  F   UNL A   1      47.899  28.563  35.737  1.00  0.00    -0.200 F 
ATOM    101  F   UNL A   1      47.660  26.217  37.107  1.00  0.00    -0.200 F 
ENDBRANCH  68  91
ENDBRANCH  42  43
ENDBRANCH  35  37
ENDBRANCH  34  35
ENDBRANCH  33  34
ENDBRANCH  32  33
ENDBRANCH  31  32
ENDBRANCH  30  31
ENDBRANCH   1  30
TORSDOF 20
ENDMDL
