MODEL 1
REMARK VINA RESULT:     -12.2      0.000      0.000
REMARK SMILES Cc1cccc(C(=O)Nc2cc(C(=O)OCCOCCOC(=O)c3ccc(-c4c5nc(c(-c6c(F)c(F)c(F)c(F)c6F)c6ccc([nH]6)c(-c6c(F)c(F)c(F)c(F)c6F)c6nc(c(-c7c(F)c(F)c(F)c(F)c7F)c7ccc4[nH]7)C=C6)C=C5)cc3)ccc2N2CC[NH+](CC(=O)NC(C)(C)C)CC2)c1
REMARK SMILES IDX 17 1 16 2 15 3 13 4 14 5 12 6 10 7 11 8 89 9 88 10 87 11
REMARK SMILES IDX 9 12 7 13 8 14 6 16 1 17 2 18 3 19 104 20 4 21 5 22 90 23
REMARK SMILES IDX 91 24 103 25 92 26 102 27 93 28 94 30 95 31 96 32 97 33
REMARK SMILES IDX 98 35 99 36 100 37 101 38 18 39 19 40 20 41 21 42 22 43
REMARK SMILES IDX 23 44 24 45 25 46 86 47 26 48 85 49 27 50 28 51 29 52 79 53
REMARK SMILES IDX 30 54 84 55 78 56 80 57 31 58 83 59 77 60 76 61 32 63 64 64
REMARK SMILES IDX 44 65 63 66 45 67 48 68 62 69 81 70 46 71 47 72 61 74 82 75
REMARK SMILES IDX 49 76 33 77 34 78 42 79 35 80 36 81 40 82 43 83 37 84 38 85
REMARK SMILES IDX 41 86 39 87 65 88 66 89 74 90 67 91 68 92 72 93 75 94 69 95
REMARK SMILES IDX 70 96 73 97 71 98 50 99 51 100 59 101 52 102 53 103 57 104
REMARK SMILES IDX 60 105 54 106 55 107 58 108 56 109
REMARK H PARENT 9 15 93 29 97 34 80 62 48 73
REMARK Flexibility Score: inf
ROOT
ATOM      1  C   UNL A   1      34.768  21.439  26.518  1.00  0.00     0.202 C 
ENDROOT
BRANCH   1   2
ATOM      2  C   UNL A   1      33.630  20.742  25.826  1.00  0.00     0.261 C 
BRANCH   2   3
ATOM      3  O   UNL A   1      32.916  21.616  24.971  1.00  0.00    -0.460 OA
BRANCH   3   4
ATOM      4  C   UNL A   1      31.767  22.201  25.391  1.00  0.00     0.338 C 
ATOM      5  O   UNL A   1      30.678  21.711  25.577  1.00  0.00    -0.246 OA
BRANCH   4   6
ATOM      6  C   UNL A   1      32.164  23.599  25.634  1.00  0.00     0.062 A 
ATOM      7  C   UNL A   1      33.300  25.531  24.800  1.00  0.00     0.065 A 
ATOM      8  C   UNL A   1      32.945  24.223  24.662  1.00  0.00     0.044 A 
ATOM      9  C   UNL A   1      33.019  26.231  26.003  1.00  0.00     0.061 A 
ATOM     10  C   UNL A   1      32.245  25.588  26.984  1.00  0.00     0.029 A 
ATOM     11  C   UNL A   1      31.781  24.282  26.785  1.00  0.00     0.018 A 
BRANCH   7  12
ATOM     12  N   UNL A   1      33.795  26.171  23.645  1.00  0.00    -0.320 N 
ATOM     13  C   UNL A   1      33.077  26.888  22.683  1.00  0.00     0.255 C 
ATOM     14  O   UNL A   1      33.697  27.330  21.712  1.00  0.00    -0.269 OA
ATOM     15  H   UNL A   1      34.766  26.104  23.499  1.00  0.00     0.170 HD
BRANCH  13  16
ATOM     16  C   UNL A   1      31.618  27.281  22.825  1.00  0.00     0.040 A 
ATOM     17  C   UNL A   1      29.331  30.293  22.545  1.00  0.00     0.044 C 
ATOM     18  C   UNL A   1      29.739  28.849  22.636  1.00  0.00    -0.050 A 
ATOM     19  C   UNL A   1      28.866  27.883  23.142  1.00  0.00     0.003 A 
ATOM     20  C   UNL A   1      31.079  28.506  22.405  1.00  0.00     0.017 A 
ATOM     21  C   UNL A   1      29.357  26.624  23.486  1.00  0.00     0.001 A 
ATOM     22  C   UNL A   1      30.722  26.332  23.344  1.00  0.00     0.014 A 
ENDBRANCH  13  16
ENDBRANCH   7  12
BRANCH   9  23
ATOM     23  N   UNL A   1      33.293  27.585  26.062  1.00  0.00    -0.359 N 
ATOM     24  C   UNL A   1      34.439  28.234  26.711  1.00  0.00     0.178 C 
ATOM     25  C   UNL A   1      32.074  28.347  26.271  1.00  0.00     0.178 C 
ATOM     26  C   UNL A   1      34.499  29.738  26.257  1.00  0.00     0.284 C 
ATOM     27  C   UNL A   1      32.214  29.663  25.521  1.00  0.00     0.284 C 
ATOM     28  N   UNL A   1      33.227  30.509  26.144  1.00  0.00    -0.324 N 
ATOM     29  H   UNL A   1      33.452  31.307  25.551  1.00  0.00     0.348 HD
BRANCH  28  30
ATOM     30  C   UNL A   1      32.731  31.207  27.352  1.00  0.00     0.363 C 
BRANCH  30  31
ATOM     31  C   UNL A   1      32.109  32.596  27.177  1.00  0.00     0.275 C 
ATOM     32  O   UNL A   1      31.130  32.725  26.425  1.00  0.00    -0.268 OA
ATOM     33  N   UNL A   1      32.550  33.749  27.763  1.00  0.00    -0.347 N 
ATOM     34  H   UNL A   1      31.916  34.478  27.572  1.00  0.00     0.164 HD
BRANCH  33  35
ATOM     35  C   UNL A   1      33.675  34.277  28.600  1.00  0.00     0.032 C 
ATOM     36  C   UNL A   1      34.863  34.763  27.751  1.00  0.00     0.034 C 
ATOM     37  C   UNL A   1      33.150  35.559  29.281  1.00  0.00     0.034 C 
ATOM     38  C   UNL A   1      34.172  33.331  29.691  1.00  0.00     0.034 C 
ENDBRANCH  33  35
ENDBRANCH  30  31
ENDBRANCH  28  30
ENDBRANCH   9  23
ENDBRANCH   4   6
ENDBRANCH   3   4
ENDBRANCH   2   3
ENDBRANCH   1   2
BRANCH   1  39
ATOM     39  O   UNL A   1      35.911  21.123  25.741  1.00  0.00    -0.374 OA
BRANCH  39  40
ATOM     40  C   UNL A   1      36.785  22.191  25.446  1.00  0.00     0.202 C 
BRANCH  40  41
ATOM     41  C   UNL A   1      38.163  21.665  25.043  1.00  0.00     0.261 C 
BRANCH  41  42
ATOM     42  O   UNL A   1      38.910  21.360  26.248  1.00  0.00    -0.460 OA
BRANCH  42  43
ATOM     43  C   UNL A   1      40.072  20.664  26.082  1.00  0.00     0.338 C 
ATOM     44  O   UNL A   1      40.145  19.486  25.771  1.00  0.00    -0.246 OA
BRANCH  43  45
ATOM     45  C   UNL A   1      41.237  21.446  26.619  1.00  0.00     0.060 A 
ATOM     46  C   UNL A   1      41.397  21.615  28.012  1.00  0.00     0.016 A 
ATOM     47  C   UNL A   1      41.944  22.273  25.754  1.00  0.00     0.016 A 
ATOM     48  C   UNL A   1      42.130  22.706  28.530  1.00  0.00     0.010 A 
ATOM     49  C   UNL A   1      42.577  23.394  26.264  1.00  0.00     0.010 A 
ATOM     50  C   UNL A   1      42.646  23.662  27.649  1.00  0.00    -0.014 A 
BRANCH  50  51
ATOM     51  C   UNL A   1      42.989  25.072  27.975  1.00  0.00     0.031 A 
ATOM     52  C   UNL A   1      41.905  26.047  28.260  1.00  0.00     0.074 A 
ATOM     53  C   UNL A   1      44.199  25.376  28.491  1.00  0.00     0.049 A 
ATOM     54  N   UNL A   1      42.023  27.140  28.934  1.00  0.00    -0.248 NA
ATOM     55  C   UNL A   1      40.572  25.867  27.712  1.00  0.00     0.031 C 
ATOM     56  C   UNL A   1      44.385  26.118  29.743  1.00  0.00     0.029 A 
ATOM     57  N   UNL A   1      45.465  24.895  28.217  1.00  0.00    -0.354 N 
ATOM     58  C   UNL A   1      40.785  27.708  29.087  1.00  0.00     0.074 A 
ATOM     59  C   UNL A   1      39.926  26.902  28.255  1.00  0.00     0.031 C 
ATOM     60  C   UNL A   1      45.675  26.072  30.076  1.00  0.00     0.029 A 
ATOM     61  C   UNL A   1      46.428  25.530  29.000  1.00  0.00     0.049 A 
ATOM     62  H   UNL A   1      45.660  24.195  27.554  1.00  0.00     0.167 HD
ATOM     63  C   UNL A   1      40.646  28.788  29.914  1.00  0.00     0.037 A 
ATOM     64  C   UNL A   1      47.495  26.191  28.480  1.00  0.00     0.037 A 
ATOM     65  C   UNL A   1      41.964  29.384  30.273  1.00  0.00     0.049 A 
ATOM     66  C   UNL A   1      47.216  27.691  28.348  1.00  0.00     0.074 A 
ATOM     67  C   UNL A   1      42.594  29.841  31.418  1.00  0.00     0.029 A 
ATOM     68  N   UNL A   1      42.938  29.511  29.269  1.00  0.00    -0.354 N 
ATOM     69  N   UNL A   1      46.239  28.347  28.937  1.00  0.00    -0.248 NA
ATOM     70  C   UNL A   1      47.989  28.557  27.470  1.00  0.00     0.031 C 
ATOM     71  C   UNL A   1      43.907  30.309  31.068  1.00  0.00     0.029 A 
ATOM     72  C   UNL A   1      44.111  30.091  29.719  1.00  0.00     0.049 A 
ATOM     73  H   UNL A   1      42.799  29.218  28.340  1.00  0.00     0.167 HD
ATOM     74  C   UNL A   1      46.141  29.624  28.430  1.00  0.00     0.074 A 
ATOM     75  C   UNL A   1      47.272  29.693  27.512  1.00  0.00     0.031 C 
ATOM     76  C   UNL A   1      45.130  30.507  28.748  1.00  0.00     0.037 A 
BRANCH  63  77
ATOM     77  C   UNL A   1      39.293  29.326  30.413  1.00  0.00     0.064 A 
ATOM     78  C   UNL A   1      38.389  29.975  29.540  1.00  0.00     0.173 A 
ATOM     79  C   UNL A   1      38.844  29.305  31.759  1.00  0.00     0.173 A 
ATOM     80  F   UNL A   1      38.649  30.106  28.234  1.00  0.00    -0.203 F 
ATOM     81  C   UNL A   1      37.174  30.538  29.971  1.00  0.00     0.198 A 
ATOM     82  C   UNL A   1      37.603  29.805  32.176  1.00  0.00     0.198 A 
ATOM     83  F   UNL A   1      39.602  28.864  32.765  1.00  0.00    -0.203 F 
ATOM     84  F   UNL A   1      36.395  31.189  29.095  1.00  0.00    -0.200 F 
ATOM     85  C   UNL A   1      36.772  30.438  31.286  1.00  0.00     0.200 A 
ATOM     86  F   UNL A   1      37.241  29.690  33.463  1.00  0.00    -0.200 F 
ATOM     87  F   UNL A   1      35.611  30.966  31.695  1.00  0.00    -0.200 F 
ENDBRANCH  63  77
BRANCH  64  88
ATOM     88  C   UNL A   1      48.299  25.221  27.660  1.00  0.00     0.064 A 
ATOM     89  C   UNL A   1      48.049  25.363  26.269  1.00  0.00     0.173 A 
ATOM     90  C   UNL A   1      49.628  24.990  28.046  1.00  0.00     0.173 A 
ATOM     91  F   UNL A   1      46.788  25.520  25.833  1.00  0.00    -0.203 F 
ATOM     92  C   UNL A   1      49.090  25.647  25.384  1.00  0.00     0.198 A 
ATOM     93  C   UNL A   1      50.670  25.268  27.151  1.00  0.00     0.198 A 
ATOM     94  F   UNL A   1      49.923  24.812  29.341  1.00  0.00    -0.203 F 
ATOM     95  F   UNL A   1      48.818  26.085  24.145  1.00  0.00    -0.200 F 
ATOM     96  C   UNL A   1      50.395  25.666  25.847  1.00  0.00     0.200 A 
ATOM     97  F   UNL A   1      51.927  25.363  27.609  1.00  0.00    -0.200 F 
ATOM     98  F   UNL A   1      51.368  26.189  25.085  1.00  0.00    -0.200 F 
ENDBRANCH  64  88
BRANCH  76  99
ATOM     99  C   UNL A   1      44.925  31.881  28.106  1.00  0.00     0.064 A 
ATOM    100  C   UNL A   1      45.327  33.096  28.678  1.00  0.00     0.173 A 
ATOM    101  C   UNL A   1      44.252  32.017  26.859  1.00  0.00     0.173 A 
ATOM    102  F   UNL A   1      45.749  33.159  29.947  1.00  0.00    -0.203 F 
ATOM    103  C   UNL A   1      45.242  34.311  27.986  1.00  0.00     0.198 A 
ATOM    104  C   UNL A   1      44.104  33.238  26.201  1.00  0.00     0.198 A 
ATOM    105  F   UNL A   1      43.708  30.973  26.220  1.00  0.00    -0.203 F 
ATOM    106  F   UNL A   1      45.742  35.425  28.540  1.00  0.00    -0.200 F 
ATOM    107  C   UNL A   1      44.641  34.380  26.744  1.00  0.00     0.200 A 
ATOM    108  F   UNL A   1      43.447  33.288  25.034  1.00  0.00    -0.200 F 
ATOM    109  F   UNL A   1      44.556  35.545  26.086  1.00  0.00    -0.200 F 
ENDBRANCH  76  99
ENDBRANCH  50  51
ENDBRANCH  43  45
ENDBRANCH  42  43
ENDBRANCH  41  42
ENDBRANCH  40  41
ENDBRANCH  39  40
ENDBRANCH   1  39
TORSDOF 20
ENDMDL
MODEL 2
REMARK VINA RESULT:     -12.1      4.742     10.100
REMARK SMILES Cc1cccc(C(=O)Nc2cc(C(=O)OCCOCCOC(=O)c3ccc(-c4c5nc(c(-c6c(F)c(F)c(F)c(F)c6F)c6ccc([nH]6)c(-c6c(F)c(F)c(F)c(F)c6F)c6nc(c(-c7c(F)c(F)c(F)c(F)c7F)c7ccc4[nH]7)C=C6)C=C5)cc3)ccc2N2CC[NH+](CC(=O)NC(C)(C)C)CC2)c1
REMARK SMILES IDX 17 1 16 2 15 3 13 4 14 5 12 6 10 7 11 8 89 9 88 10 87 11
REMARK SMILES IDX 9 12 7 13 8 14 6 16 1 17 2 18 3 19 104 20 4 21 5 22 90 23
REMARK SMILES IDX 91 24 103 25 92 26 102 27 93 28 94 30 95 31 96 32 97 33
REMARK SMILES IDX 98 35 99 36 100 37 101 38 18 39 19 40 20 41 21 42 22 43
REMARK SMILES IDX 23 44 24 45 25 46 86 47 26 48 85 49 27 50 28 51 29 52 79 53
REMARK SMILES IDX 30 54 84 55 78 56 80 57 31 58 83 59 77 60 76 61 32 63 64 64
REMARK SMILES IDX 44 65 63 66 45 67 48 68 62 69 81 70 46 71 47 72 61 74 82 75
REMARK SMILES IDX 49 76 33 77 34 78 42 79 35 80 36 81 40 82 43 83 37 84 38 85
REMARK SMILES IDX 41 86 39 87 65 88 66 89 74 90 67 91 68 92 72 93 75 94 69 95
REMARK SMILES IDX 70 96 73 97 71 98 50 99 51 100 59 101 52 102 53 103 57 104
REMARK SMILES IDX 60 105 54 106 55 107 58 108 56 109
REMARK H PARENT 9 15 93 29 97 34 80 62 48 73
REMARK Flexibility Score: inf
ROOT
ATOM      1  C   UNL A   1      40.355  23.038  26.295  1.00  0.00     0.202 C 
ENDROOT
BRANCH   1   2
ATOM      2  C   UNL A   1      39.843  21.635  26.119  1.00  0.00     0.261 C 
BRANCH   2   3
ATOM      3  O   UNL A   1      38.428  21.590  26.078  1.00  0.00    -0.460 OA
BRANCH   3   4
ATOM      4  C   UNL A   1      37.792  20.832  25.151  1.00  0.00     0.338 C 
ATOM      5  O   UNL A   1      37.986  19.683  24.832  1.00  0.00    -0.246 OA
BRANCH   4   6
ATOM      6  C   UNL A   1      36.740  21.728  24.641  1.00  0.00     0.062 A 
ATOM      7  C   UNL A   1      34.405  22.242  24.577  1.00  0.00     0.065 A 
ATOM      8  C   UNL A   1      35.420  21.422  24.971  1.00  0.00     0.044 A 
ATOM      9  C   UNL A   1      34.654  23.326  23.695  1.00  0.00     0.061 A 
ATOM     10  C   UNL A   1      35.986  23.617  23.355  1.00  0.00     0.029 A 
ATOM     11  C   UNL A   1      37.038  22.842  23.859  1.00  0.00     0.018 A 
BRANCH   7  12
ATOM     12  N   UNL A   1      33.163  22.050  25.216  1.00  0.00    -0.320 N 
ATOM     13  C   UNL A   1      32.288  20.966  25.092  1.00  0.00     0.255 C 
ATOM     14  O   UNL A   1      31.219  21.016  25.705  1.00  0.00    -0.269 OA
ATOM     15  H   UNL A   1      32.877  22.769  25.825  1.00  0.00     0.170 HD
BRANCH  13  16
ATOM     16  C   UNL A   1      32.629  19.673  24.375  1.00  0.00     0.040 A 
ATOM     17  C   UNL A   1      34.635  16.487  24.822  1.00  0.00     0.044 C 
ATOM     18  C   UNL A   1      33.621  17.432  24.241  1.00  0.00    -0.050 A 
ATOM     19  C   UNL A   1      33.197  17.310  22.915  1.00  0.00     0.003 A 
ATOM     20  C   UNL A   1      33.256  18.571  24.973  1.00  0.00     0.017 A 
ATOM     21  C   UNL A   1      32.492  18.355  22.319  1.00  0.00     0.001 A 
ATOM     22  C   UNL A   1      32.225  19.530  23.037  1.00  0.00     0.014 A 
ENDBRANCH  13  16
ENDBRANCH   7  12
BRANCH   9  23
ATOM     23  N   UNL A   1      33.621  24.199  23.409  1.00  0.00    -0.359 N 
ATOM     24  C   UNL A   1      33.033  24.482  22.093  1.00  0.00     0.178 C 
ATOM     25  C   UNL A   1      33.740  25.411  24.200  1.00  0.00     0.178 C 
ATOM     26  C   UNL A   1      31.699  25.289  22.294  1.00  0.00     0.284 C 
ATOM     27  C   UNL A   1      32.335  25.891  24.530  1.00  0.00     0.284 C 
ATOM     28  N   UNL A   1      31.652  26.361  23.329  1.00  0.00    -0.324 N 
ATOM     29  H   UNL A   1      30.661  26.516  23.508  1.00  0.00     0.348 HD
BRANCH  28  30
ATOM     30  C   UNL A   1      32.065  27.727  22.929  1.00  0.00     0.363 C 
BRANCH  30  31
ATOM     31  C   UNL A   1      31.204  28.905  23.399  1.00  0.00     0.275 C 
ATOM     32  O   UNL A   1      30.348  29.369  22.628  1.00  0.00    -0.268 OA
ATOM     33  N   UNL A   1      31.302  29.534  24.609  1.00  0.00    -0.347 N 
ATOM     34  H   UNL A   1      30.568  30.185  24.699  1.00  0.00     0.164 HD
BRANCH  33  35
ATOM     35  C   UNL A   1      32.150  29.565  25.843  1.00  0.00     0.032 C 
ATOM     36  C   UNL A   1      31.993  30.876  26.633  1.00  0.00     0.034 C 
ATOM     37  C   UNL A   1      31.583  28.485  26.790  1.00  0.00     0.034 C 
ATOM     38  C   UNL A   1      33.632  29.268  25.620  1.00  0.00     0.034 C 
ENDBRANCH  33  35
ENDBRANCH  30  31
ENDBRANCH  28  30
ENDBRANCH   9  23
ENDBRANCH   4   6
ENDBRANCH   3   4
ENDBRANCH   2   3
ENDBRANCH   1   2
BRANCH   1  39
ATOM     39  O   UNL A   1      39.851  23.451  27.555  1.00  0.00    -0.374 OA
BRANCH  39  40
ATOM     40  C   UNL A   1      40.158  24.768  27.954  1.00  0.00     0.202 C 
BRANCH  40  41
ATOM     41  C   UNL A   1      40.125  25.718  26.756  1.00  0.00     0.261 C 
BRANCH  41  42
ATOM     42  O   UNL A   1      41.151  26.726  26.939  1.00  0.00    -0.460 OA
BRANCH  42  43
ATOM     43  C   UNL A   1      40.721  27.974  27.286  1.00  0.00     0.338 C 
ATOM     44  O   UNL A   1      40.196  28.771  26.524  1.00  0.00    -0.246 OA
BRANCH  43  45
ATOM     45  C   UNL A   1      41.241  28.354  28.643  1.00  0.00     0.060 A 
ATOM     46  C   UNL A   1      40.689  27.768  29.804  1.00  0.00     0.016 A 
ATOM     47  C   UNL A   1      42.005  29.508  28.767  1.00  0.00     0.016 A 
ATOM     48  C   UNL A   1      40.768  28.423  31.053  1.00  0.00     0.010 A 
ATOM     49  C   UNL A   1      41.995  30.194  29.972  1.00  0.00     0.010 A 
ATOM     50  C   UNL A   1      41.344  29.696  31.122  1.00  0.00    -0.014 A 
BRANCH  50  51
ATOM     51  C   UNL A   1      41.092  30.725  32.165  1.00  0.00     0.031 A 
ATOM     52  C   UNL A   1      42.158  31.057  33.146  1.00  0.00     0.074 A 
ATOM     53  C   UNL A   1      40.165  31.687  31.964  1.00  0.00     0.049 A 
ATOM     54  N   UNL A   1      42.262  32.155  33.814  1.00  0.00    -0.248 NA
ATOM     55  C   UNL A   1      43.181  30.087  33.498  1.00  0.00     0.031 C 
ATOM     56  C   UNL A   1      40.446  33.123  32.069  1.00  0.00     0.029 A 
ATOM     57  N   UNL A   1      38.915  31.651  31.377  1.00  0.00    -0.354 N 
ATOM     58  C   UNL A   1      43.436  32.140  34.521  1.00  0.00     0.074 A 
ATOM     59  C   UNL A   1      43.940  30.801  34.331  1.00  0.00     0.031 C 
ATOM     60  C   UNL A   1      39.390  33.796  31.614  1.00  0.00     0.029 A 
ATOM     61  C   UNL A   1      38.304  32.904  31.413  1.00  0.00     0.049 A 
ATOM     62  H   UNL A   1      38.508  30.845  30.986  1.00  0.00     0.167 HD
ATOM     63  C   UNL A   1      43.837  33.274  35.170  1.00  0.00     0.037 A 
ATOM     64  C   UNL A   1      37.090  33.127  31.982  1.00  0.00     0.037 A 
ATOM     65  C   UNL A   1      42.737  34.274  35.268  1.00  0.00     0.049 A 
ATOM     66  C   UNL A   1      37.230  33.617  33.426  1.00  0.00     0.074 A 
ATOM     67  C   UNL A   1      42.581  35.635  35.069  1.00  0.00     0.029 A 
ATOM     68  N   UNL A   1      41.445  33.821  35.582  1.00  0.00    -0.354 N 
ATOM     69  N   UNL A   1      38.329  34.087  33.977  1.00  0.00    -0.248 NA
ATOM     70  C   UNL A   1      36.139  33.543  34.387  1.00  0.00     0.031 C 
ATOM     71  C   UNL A   1      41.216  35.990  35.345  1.00  0.00     0.029 A 
ATOM     72  C   UNL A   1      40.515  34.841  35.660  1.00  0.00     0.049 A 
ATOM     73  H   UNL A   1      41.226  32.874  35.732  1.00  0.00     0.167 HD
ATOM     74  C   UNL A   1      38.166  34.225  35.338  1.00  0.00     0.074 A 
ATOM     75  C   UNL A   1      36.766  33.866  35.532  1.00  0.00     0.031 C 
ATOM     76  C   UNL A   1      39.182  34.563  36.208  1.00  0.00     0.037 A 
BRANCH  63  77
ATOM     77  C   UNL A   1      45.253  33.493  35.734  1.00  0.00     0.064 A 
ATOM     78  C   UNL A   1      45.468  33.763  37.105  1.00  0.00     0.173 A 
ATOM     79  C   UNL A   1      46.448  33.524  34.969  1.00  0.00     0.173 A 
ATOM     80  F   UNL A   1      44.456  33.791  37.980  1.00  0.00    -0.203 F 
ATOM     81  C   UNL A   1      46.738  34.034  37.646  1.00  0.00     0.198 A 
ATOM     82  C   UNL A   1      47.721  33.727  35.519  1.00  0.00     0.198 A 
ATOM     83  F   UNL A   1      46.455  33.431  33.638  1.00  0.00    -0.203 F 
ATOM     84  F   UNL A   1      46.856  34.339  38.947  1.00  0.00    -0.200 F 
ATOM     85  C   UNL A   1      47.867  33.999  36.856  1.00  0.00     0.200 A 
ATOM     86  F   UNL A   1      48.801  33.684  34.723  1.00  0.00    -0.200 F 
ATOM     87  F   UNL A   1      49.078  34.247  37.372  1.00  0.00    -0.200 F 
ENDBRANCH  63  77
BRANCH  64  88
ATOM     88  C   UNL A   1      36.075  32.265  31.285  1.00  0.00     0.064 A 
ATOM     89  C   UNL A   1      35.795  32.726  29.971  1.00  0.00     0.173 A 
ATOM     90  C   UNL A   1      36.171  30.876  31.464  1.00  0.00     0.173 A 
ATOM     91  F   UNL A   1      35.627  34.040  29.749  1.00  0.00    -0.203 F 
ATOM     92  C   UNL A   1      35.992  31.894  28.867  1.00  0.00     0.198 A 
ATOM     93  C   UNL A   1      36.359  30.044  30.352  1.00  0.00     0.198 A 
ATOM     94  F   UNL A   1      36.399  30.378  32.686  1.00  0.00    -0.203 F 
ATOM     95  F   UNL A   1      36.030  32.415  27.631  1.00  0.00    -0.200 F 
ATOM     96  C   UNL A   1      36.342  30.569  29.064  1.00  0.00     0.200 A 
ATOM     97  F   UNL A   1      36.773  28.781  30.534  1.00  0.00    -0.200 F 
ATOM     98  F   UNL A   1      36.787  29.834  28.033  1.00  0.00    -0.200 F 
ENDBRANCH  64  88
BRANCH  76  99
ATOM     99  C   UNL A   1      39.060  34.599  37.733  1.00  0.00     0.064 A 
ATOM    100  C   UNL A   1      39.206  35.751  38.518  1.00  0.00     0.173 A 
ATOM    101  C   UNL A   1      38.823  33.410  38.479  1.00  0.00     0.173 A 
ATOM    102  F   UNL A   1      39.670  36.893  37.994  1.00  0.00    -0.203 F 
ATOM    103  C   UNL A   1      38.947  35.754  39.894  1.00  0.00     0.198 A 
ATOM    104  C   UNL A   1      38.635  33.402  39.861  1.00  0.00     0.198 A 
ATOM    105  F   UNL A   1      38.761  32.203  37.904  1.00  0.00    -0.203 F 
ATOM    106  F   UNL A   1      38.996  36.909  40.574  1.00  0.00    -0.200 F 
ATOM    107  C   UNL A   1      38.650  34.583  40.564  1.00  0.00     0.200 A 
ATOM    108  F   UNL A   1      38.426  32.240  40.497  1.00  0.00    -0.200 F 
ATOM    109  F   UNL A   1      38.408  34.588  41.882  1.00  0.00    -0.200 F 
ENDBRANCH  76  99
ENDBRANCH  50  51
ENDBRANCH  43  45
ENDBRANCH  42  43
ENDBRANCH  41  42
ENDBRANCH  40  41
ENDBRANCH  39  40
ENDBRANCH   1  39
TORSDOF 20
ENDMDL
MODEL 3
REMARK VINA RESULT:     -12.0      3.700      7.030
REMARK SMILES Cc1cccc(C(=O)Nc2cc(C(=O)OCCOCCOC(=O)c3ccc(-c4c5nc(c(-c6c(F)c(F)c(F)c(F)c6F)c6ccc([nH]6)c(-c6c(F)c(F)c(F)c(F)c6F)c6nc(c(-c7c(F)c(F)c(F)c(F)c7F)c7ccc4[nH]7)C=C6)C=C5)cc3)ccc2N2CC[NH+](CC(=O)NC(C)(C)C)CC2)c1
REMARK SMILES IDX 17 1 16 2 15 3 13 4 14 5 12 6 10 7 11 8 89 9 88 10 87 11
REMARK SMILES IDX 9 12 7 13 8 14 6 16 1 17 2 18 3 19 104 20 4 21 5 22 90 23
REMARK SMILES IDX 91 24 103 25 92 26 102 27 93 28 94 30 95 31 96 32 97 33
REMARK SMILES IDX 98 35 99 36 100 37 101 38 18 39 19 40 20 41 21 42 22 43
REMARK SMILES IDX 23 44 24 45 25 46 86 47 26 48 85 49 27 50 28 51 29 52 79 53
REMARK SMILES IDX 30 54 84 55 78 56 80 57 31 58 83 59 77 60 76 61 32 63 64 64
REMARK SMILES IDX 44 65 63 66 45 67 48 68 62 69 81 70 46 71 47 72 61 74 82 75
REMARK SMILES IDX 49 76 33 77 34 78 42 79 35 80 36 81 40 82 43 83 37 84 38 85
REMARK SMILES IDX 41 86 39 87 65 88 66 89 74 90 67 91 68 92 72 93 75 94 69 95
REMARK SMILES IDX 70 96 73 97 71 98 50 99 51 100 59 101 52 102 53 103 57 104
REMARK SMILES IDX 60 105 54 106 55 107 58 108 56 109
REMARK H PARENT 9 15 93 29 97 34 80 62 48 73
REMARK Flexibility Score: inf
ROOT
ATOM      1  C   UNL A   1      40.427  21.969  27.079  1.00  0.00     0.202 C 
ENDROOT
BRANCH   1   2
ATOM      2  C   UNL A   1      39.716  21.034  26.141  1.00  0.00     0.261 C 
BRANCH   2   3
ATOM      3  O   UNL A   1      38.413  21.490  25.825  1.00  0.00    -0.460 OA
BRANCH   3   4
ATOM      4  C   UNL A   1      37.611  20.765  25.007  1.00  0.00     0.338 C 
ATOM      5  O   UNL A   1      37.670  19.595  24.712  1.00  0.00    -0.246 OA
BRANCH   4   6
ATOM      6  C   UNL A   1      36.584  21.735  24.589  1.00  0.00     0.062 A 
ATOM      7  C   UNL A   1      34.267  22.327  24.599  1.00  0.00     0.065 A 
ATOM      8  C   UNL A   1      35.258  21.445  24.909  1.00  0.00     0.044 A 
ATOM      9  C   UNL A   1      34.542  23.474  23.809  1.00  0.00     0.061 A 
ATOM     10  C   UNL A   1      35.880  23.750  23.479  1.00  0.00     0.029 A 
ATOM     11  C   UNL A   1      36.911  22.901  23.901  1.00  0.00     0.018 A 
BRANCH   7  12
ATOM     12  N   UNL A   1      33.026  22.123  25.236  1.00  0.00    -0.320 N 
ATOM     13  C   UNL A   1      32.166  21.026  25.114  1.00  0.00     0.255 C 
ATOM     14  O   UNL A   1      31.093  21.064  25.723  1.00  0.00    -0.269 OA
ATOM     15  H   UNL A   1      32.728  22.840  25.841  1.00  0.00     0.170 HD
BRANCH  13  16
ATOM     16  C   UNL A   1      32.525  19.736  24.402  1.00  0.00     0.040 A 
ATOM     17  C   UNL A   1      34.430  16.500  24.934  1.00  0.00     0.044 C 
ATOM     18  C   UNL A   1      33.476  17.475  24.301  1.00  0.00    -0.050 A 
ATOM     19  C   UNL A   1      33.136  17.379  22.949  1.00  0.00     0.003 A 
ATOM     20  C   UNL A   1      33.088  18.612  25.024  1.00  0.00     0.017 A 
ATOM     21  C   UNL A   1      32.494  18.447  22.323  1.00  0.00     0.001 A 
ATOM     22  C   UNL A   1      32.206  19.618  23.039  1.00  0.00     0.014 A 
ENDBRANCH  13  16
ENDBRANCH   7  12
BRANCH   9  23
ATOM     23  N   UNL A   1      33.537  24.402  23.612  1.00  0.00    -0.359 N 
ATOM     24  C   UNL A   1      33.261  25.170  22.391  1.00  0.00     0.178 C 
ATOM     25  C   UNL A   1      33.354  25.221  24.797  1.00  0.00     0.178 C 
ATOM     26  C   UNL A   1      31.852  25.854  22.526  1.00  0.00     0.284 C 
ATOM     27  C   UNL A   1      31.874  25.554  24.908  1.00  0.00     0.284 C 
ATOM     28  N   UNL A   1      31.463  26.453  23.835  1.00  0.00    -0.324 N 
ATOM     29  H   UNL A   1      30.448  26.538  23.798  1.00  0.00     0.348 HD
BRANCH  28  30
ATOM     30  C   UNL A   1      31.837  27.864  24.090  1.00  0.00     0.363 C 
BRANCH  30  31
ATOM     31  C   UNL A   1      31.931  28.812  22.889  1.00  0.00     0.275 C 
ATOM     32  O   UNL A   1      33.036  28.994  22.353  1.00  0.00    -0.268 OA
ATOM     33  N   UNL A   1      30.895  29.519  22.347  1.00  0.00    -0.347 N 
ATOM     34  H   UNL A   1      31.199  29.967  21.524  1.00  0.00     0.164 HD
BRANCH  33  35
ATOM     35  C   UNL A   1      29.451  29.841  22.584  1.00  0.00     0.032 C 
ATOM     36  C   UNL A   1      29.256  30.889  23.694  1.00  0.00     0.034 C 
ATOM     37  C   UNL A   1      28.945  30.547  21.307  1.00  0.00     0.034 C 
ATOM     38  C   UNL A   1      28.551  28.635  22.846  1.00  0.00     0.034 C 
ENDBRANCH  33  35
ENDBRANCH  30  31
ENDBRANCH  28  30
ENDBRANCH   9  23
ENDBRANCH   4   6
ENDBRANCH   3   4
ENDBRANCH   2   3
ENDBRANCH   1   2
BRANCH   1  39
ATOM     39  O   UNL A   1      41.774  21.527  27.079  1.00  0.00    -0.374 OA
BRANCH  39  40
ATOM     40  C   UNL A   1      42.744  22.463  27.495  1.00  0.00     0.202 C 
BRANCH  40  41
ATOM     41  C   UNL A   1      42.983  23.511  26.408  1.00  0.00     0.261 C 
BRANCH  41  42
ATOM     42  O   UNL A   1      42.690  24.820  26.957  1.00  0.00    -0.460 OA
BRANCH  42  43
ATOM     43  C   UNL A   1      42.154  25.734  26.097  1.00  0.00     0.338 C 
ATOM     44  O   UNL A   1      42.506  25.898  24.940  1.00  0.00    -0.246 OA
BRANCH  43  45
ATOM     45  C   UNL A   1      41.286  26.711  26.838  1.00  0.00     0.060 A 
ATOM     46  C   UNL A   1      41.355  28.090  26.540  1.00  0.00     0.016 A 
ATOM     47  C   UNL A   1      40.686  26.307  28.025  1.00  0.00     0.016 A 
ATOM     48  C   UNL A   1      40.974  29.058  27.496  1.00  0.00     0.010 A 
ATOM     49  C   UNL A   1      40.405  27.257  28.994  1.00  0.00     0.010 A 
ATOM     50  C   UNL A   1      40.584  28.641  28.772  1.00  0.00    -0.014 A 
BRANCH  50  51
ATOM     51  C   UNL A   1      40.628  29.450  30.019  1.00  0.00     0.031 A 
ATOM     52  C   UNL A   1      39.693  30.591  30.192  1.00  0.00     0.074 A 
ATOM     53  C   UNL A   1      41.112  28.914  31.162  1.00  0.00     0.049 A 
ATOM     54  N   UNL A   1      39.323  31.109  31.313  1.00  0.00    -0.248 NA
ATOM     55  C   UNL A   1      39.149  31.294  29.042  1.00  0.00     0.031 C 
ATOM     56  C   UNL A   1      40.366  28.883  32.424  1.00  0.00     0.029 A 
ATOM     57  N   UNL A   1      42.179  28.071  31.403  1.00  0.00    -0.354 N 
ATOM     58  C   UNL A   1      38.363  32.059  31.073  1.00  0.00     0.074 A 
ATOM     59  C   UNL A   1      38.337  32.172  29.635  1.00  0.00     0.031 C 
ATOM     60  C   UNL A   1      41.028  28.115  33.289  1.00  0.00     0.029 A 
ATOM     61  C   UNL A   1      42.309  27.796  32.763  1.00  0.00     0.049 A 
ATOM     62  H   UNL A   1      42.772  27.712  30.704  1.00  0.00     0.167 HD
ATOM     63  C   UNL A   1      37.704  32.620  32.130  1.00  0.00     0.037 A 
ATOM     64  C   UNL A   1      43.443  28.040  33.470  1.00  0.00     0.037 A 
ATOM     65  C   UNL A   1      38.383  32.329  33.424  1.00  0.00     0.049 A 
ATOM     66  C   UNL A   1      43.382  29.398  34.176  1.00  0.00     0.074 A 
ATOM     67  C   UNL A   1      38.016  31.916  34.694  1.00  0.00     0.029 A 
ATOM     68  N   UNL A   1      39.785  32.402  33.477  1.00  0.00    -0.354 N 
ATOM     69  N   UNL A   1      42.297  30.114  34.377  1.00  0.00    -0.248 NA
ATOM     70  C   UNL A   1      44.574  30.089  34.649  1.00  0.00     0.031 C 
ATOM     71  C   UNL A   1      39.196  31.825  35.510  1.00  0.00     0.029 A 
ATOM     72  C   UNL A   1      40.298  32.128  34.732  1.00  0.00     0.049 A 
ATOM     73  H   UNL A   1      40.344  32.627  32.700  1.00  0.00     0.167 HD
ATOM     74  C   UNL A   1      42.625  31.370  34.836  1.00  0.00     0.074 A 
ATOM     75  C   UNL A   1      44.073  31.290  34.986  1.00  0.00     0.031 C 
ATOM     76  C   UNL A   1      41.715  32.393  35.007  1.00  0.00     0.037 A 
BRANCH  63  77
ATOM     77  C   UNL A   1      36.416  33.454  32.002  1.00  0.00     0.064 A 
ATOM     78  C   UNL A   1      35.475  33.205  30.976  1.00  0.00     0.173 A 
ATOM     79  C   UNL A   1      36.070  34.566  32.812  1.00  0.00     0.173 A 
ATOM     80  F   UNL A   1      35.640  32.204  30.102  1.00  0.00    -0.203 F 
ATOM     81  C   UNL A   1      34.320  33.985  30.784  1.00  0.00     0.198 A 
ATOM     82  C   UNL A   1      34.886  35.301  32.664  1.00  0.00     0.198 A 
ATOM     83  F   UNL A   1      36.884  35.056  33.749  1.00  0.00    -0.203 F 
ATOM     84  F   UNL A   1      33.504  33.724  29.753  1.00  0.00    -0.200 F 
ATOM     85  C   UNL A   1      34.016  35.023  31.639  1.00  0.00     0.200 A 
ATOM     86  F   UNL A   1      34.619  36.304  33.515  1.00  0.00    -0.200 F 
ATOM     87  F   UNL A   1      32.912  35.760  31.465  1.00  0.00    -0.200 F 
ENDBRANCH  63  77
BRANCH  64  88
ATOM     88  C   UNL A   1      44.566  27.257  32.849  1.00  0.00     0.064 A 
ATOM     89  C   UNL A   1      44.449  25.864  33.104  1.00  0.00     0.173 A 
ATOM     90  C   UNL A   1      44.987  27.634  31.564  1.00  0.00     0.173 A 
ATOM     91  F   UNL A   1      44.113  25.439  34.333  1.00  0.00    -0.203 F 
ATOM     92  C   UNL A   1      44.375  24.952  32.050  1.00  0.00     0.198 A 
ATOM     93  C   UNL A   1      44.920  26.712  30.512  1.00  0.00     0.198 A 
ATOM     94  F   UNL A   1      45.150  28.932  31.273  1.00  0.00    -0.203 F 
ATOM     95  F   UNL A   1      43.957  23.697  32.277  1.00  0.00    -0.200 F 
ATOM     96  C   UNL A   1      44.543  25.394  30.749  1.00  0.00     0.200 A 
ATOM     97  F   UNL A   1      45.005  27.146  29.246  1.00  0.00    -0.200 F 
ATOM     98  F   UNL A   1      44.217  24.594  29.722  1.00  0.00    -0.200 F 
ENDBRANCH  64  88
BRANCH  76  99
ATOM     99  C   UNL A   1      42.067  33.832  35.392  1.00  0.00     0.064 A 
ATOM    100  C   UNL A   1      41.780  34.419  36.631  1.00  0.00     0.173 A 
ATOM    101  C   UNL A   1      42.697  34.707  34.463  1.00  0.00     0.173 A 
ATOM    102  F   UNL A   1      40.980  33.813  37.518  1.00  0.00    -0.203 F 
ATOM    103  C   UNL A   1      42.249  35.692  36.980  1.00  0.00     0.198 A 
ATOM    104  C   UNL A   1      43.101  36.002  34.788  1.00  0.00     0.198 A 
ATOM    105  F   UNL A   1      42.952  34.348  33.198  1.00  0.00    -0.203 F 
ATOM    106  F   UNL A   1      42.036  36.159  38.219  1.00  0.00    -0.200 F 
ATOM    107  C   UNL A   1      42.918  36.478  36.064  1.00  0.00     0.200 A 
ATOM    108  F   UNL A   1      43.679  36.771  33.855  1.00  0.00    -0.200 F 
ATOM    109  F   UNL A   1      43.361  37.698  36.399  1.00  0.00    -0.200 F 
ENDBRANCH  76  99
ENDBRANCH  50  51
ENDBRANCH  43  45
ENDBRANCH  42  43
ENDBRANCH  41  42
ENDBRANCH  40  41
ENDBRANCH  39  40
ENDBRANCH   1  39
TORSDOF 20
ENDMDL
