MODEL 1
REMARK VINA RESULT:     -11.5      0.000      0.000
REMARK SMILES COc1ccc(S(=O)(=O)N[C@H]2C=C[C@@H](C(=O)OCCOCCOC(=O)c3ccc(-c4c5nc(c(-c6c(F)c(F)c(F)c(F)c6F)c6ccc([nH]6)c(-c6c(F)c(F)c(F)c(F)c6F)c6nc(c(-c7c(F)c(F)c(F)c(F)c7F)c7ccc4[nH]7)C=C6)C=C5)cc3)C2)cc1
REMARK SMILES IDX 19 1 18 2 17 3 15 4 16 5 14 6 11 7 12 8 89 9 13 10 10 11
REMARK SMILES IDX 7 13 8 14 9 15 6 16 3 17 4 18 91 19 5 20 90 21 2 22 1 23
REMARK SMILES IDX 20 24 21 25 22 26 23 27 24 28 25 29 26 30 27 31 88 32 28 33
REMARK SMILES IDX 87 34 29 35 30 36 31 37 81 38 32 39 86 40 80 41 82 42 33 43
REMARK SMILES IDX 85 44 79 45 78 46 34 48 66 49 46 50 65 51 47 52 50 53 64 54
REMARK SMILES IDX 83 55 48 56 49 57 63 59 84 60 51 61 35 62 36 63 44 64 37 65
REMARK SMILES IDX 38 66 42 67 45 68 39 69 40 70 43 71 41 72 67 73 68 74 76 75
REMARK SMILES IDX 69 76 70 77 74 78 77 79 71 80 72 81 75 82 73 83 52 84 53 85
REMARK SMILES IDX 61 86 54 87 55 88 59 89 62 90 56 91 57 92 60 93 58 94
REMARK H PARENT 10 12 82 47 50 58
REMARK Flexibility Score: inf
ROOT
ATOM      1  C   UNL A   1      41.495  21.174  26.408  1.00  0.00     0.202 C 
ENDROOT
BRANCH   1   2
ATOM      2  C   UNL A   1      40.135  21.593  26.967  1.00  0.00     0.261 C 
BRANCH   2   3
ATOM      3  O   UNL A   1      39.104  21.252  26.029  1.00  0.00    -0.463 OA
BRANCH   3   4
ATOM      4  C   UNL A   1      38.292  22.264  25.644  1.00  0.00     0.312 C 
ATOM      5  O   UNL A   1      38.390  23.424  26.030  1.00  0.00    -0.252 OA
BRANCH   4   6
ATOM      6  C   UNL A   1      37.260  21.836  24.610  1.00  0.00     0.123 C 
ATOM      7  C   UNL A   1      34.883  21.846  24.089  1.00  0.00     0.093 C 
ATOM      8  C   UNL A   1      35.569  23.020  23.490  1.00  0.00    -0.011 C 
ATOM      9  C   UNL A   1      35.900  21.297  25.091  1.00  0.00     0.043 C 
ATOM     10  C   UNL A   1      36.876  23.013  23.764  1.00  0.00    -0.015 C 
BRANCH   7  11
ATOM     11  N   UNL A   1      33.574  22.126  24.649  1.00  0.00    -0.204 NA
ATOM     12  H   UNL A   1      33.703  22.076  25.660  1.00  0.00     0.142 HD
BRANCH  11  13
ATOM     13  S   UNL A   1      32.159  21.288  24.354  1.00  0.00     0.241 S 
ATOM     14  O   UNL A   1      31.668  21.647  23.044  1.00  0.00    -0.207 OA
ATOM     15  O   UNL A   1      31.352  21.480  25.539  1.00  0.00    -0.207 OA
BRANCH  13  16
ATOM     16  C   UNL A   1      32.617  19.576  24.327  1.00  0.00     0.082 A 
ATOM     17  C   UNL A   1      33.089  16.825  24.372  1.00  0.00     0.118 A 
ATOM     18  C   UNL A   1      33.125  17.567  25.556  1.00  0.00     0.048 A 
ATOM     19  C   UNL A   1      32.867  17.476  23.157  1.00  0.00     0.048 A 
ATOM     20  C   UNL A   1      32.876  18.940  25.542  1.00  0.00     0.025 A 
ATOM     21  C   UNL A   1      32.650  18.858  23.130  1.00  0.00     0.025 A 
BRANCH  17  22
ATOM     22  O   UNL A   1      33.288  15.481  24.535  1.00  0.00    -0.497 OA
ATOM     23  C   UNL A   1      32.624  14.867  25.633  1.00  0.00     0.278 C 
ENDBRANCH  17  22
ENDBRANCH  13  16
ENDBRANCH  11  13
ENDBRANCH   7  11
ENDBRANCH   4   6
ENDBRANCH   3   4
ENDBRANCH   2   3
ENDBRANCH   1   2
BRANCH   1  24
ATOM     24  O   UNL A   1      42.429  22.238  26.209  1.00  0.00    -0.374 OA
BRANCH  24  25
ATOM     25  C   UNL A   1      43.594  21.954  25.432  1.00  0.00     0.202 C 
BRANCH  25  26
ATOM     26  C   UNL A   1      44.280  23.158  24.775  1.00  0.00     0.261 C 
BRANCH  26  27
ATOM     27  O   UNL A   1      43.462  24.341  24.822  1.00  0.00    -0.460 OA
BRANCH  27  28
ATOM     28  C   UNL A   1      44.107  25.459  25.233  1.00  0.00     0.338 C 
ATOM     29  O   UNL A   1      45.136  25.929  24.774  1.00  0.00    -0.246 OA
BRANCH  28  30
ATOM     30  C   UNL A   1      43.306  26.177  26.242  1.00  0.00     0.060 A 
ATOM     31  C   UNL A   1      43.592  27.535  26.438  1.00  0.00     0.016 A 
ATOM     32  C   UNL A   1      42.369  25.526  27.046  1.00  0.00     0.016 A 
ATOM     33  C   UNL A   1      42.982  28.234  27.478  1.00  0.00     0.010 A 
ATOM     34  C   UNL A   1      41.767  26.227  28.098  1.00  0.00     0.010 A 
ATOM     35  C   UNL A   1      42.101  27.571  28.341  1.00  0.00    -0.014 A 
BRANCH  35  36
ATOM     36  C   UNL A   1      41.658  28.251  29.582  1.00  0.00     0.031 A 
ATOM     37  C   UNL A   1      40.408  29.084  29.551  1.00  0.00     0.074 A 
ATOM     38  C   UNL A   1      42.333  28.091  30.733  1.00  0.00     0.049 A 
ATOM     39  N   UNL A   1      39.822  29.746  30.517  1.00  0.00    -0.248 NA
ATOM     40  C   UNL A   1      39.722  29.183  28.253  1.00  0.00     0.031 C 
ATOM     41  C   UNL A   1      43.532  27.275  30.902  1.00  0.00     0.029 A 
ATOM     42  N   UNL A   1      42.095  28.609  31.982  1.00  0.00    -0.354 N 
ATOM     43  C   UNL A   1      38.706  30.340  29.946  1.00  0.00     0.074 A 
ATOM     44  C   UNL A   1      38.707  29.984  28.542  1.00  0.00     0.031 C 
ATOM     45  C   UNL A   1      43.925  27.342  32.185  1.00  0.00     0.029 A 
ATOM     46  C   UNL A   1      43.022  28.227  32.918  1.00  0.00     0.049 A 
ATOM     47  H   UNL A   1      41.332  29.197  32.186  1.00  0.00     0.167 HD
ATOM     48  C   UNL A   1      37.760  31.109  30.537  1.00  0.00     0.037 A 
ATOM     49  C   UNL A   1      43.132  28.564  34.218  1.00  0.00     0.037 A 
ATOM     50  C   UNL A   1      37.757  31.463  31.933  1.00  0.00     0.049 A 
ATOM     51  C   UNL A   1      42.113  29.487  34.834  1.00  0.00     0.074 A 
ATOM     52  C   UNL A   1      36.821  32.202  32.635  1.00  0.00     0.029 A 
ATOM     53  N   UNL A   1      38.749  31.111  32.835  1.00  0.00    -0.354 N 
ATOM     54  N   UNL A   1      41.039  30.012  34.297  1.00  0.00    -0.248 NA
ATOM     55  C   UNL A   1      42.328  29.867  36.238  1.00  0.00     0.031 C 
ATOM     56  C   UNL A   1      37.274  32.339  33.952  1.00  0.00     0.029 A 
ATOM     57  C   UNL A   1      38.467  31.647  34.081  1.00  0.00     0.049 A 
ATOM     58  H   UNL A   1      39.537  30.561  32.622  1.00  0.00     0.167 HD
ATOM     59  C   UNL A   1      40.435  30.758  35.301  1.00  0.00     0.074 A 
ATOM     60  C   UNL A   1      41.260  30.614  36.483  1.00  0.00     0.031 C 
ATOM     61  C   UNL A   1      39.296  31.492  35.250  1.00  0.00     0.037 A 
BRANCH  48  62
ATOM     62  C   UNL A   1      36.667  31.647  29.664  1.00  0.00     0.064 A 
ATOM     63  C   UNL A   1      35.652  30.820  29.158  1.00  0.00     0.173 A 
ATOM     64  C   UNL A   1      36.628  33.010  29.336  1.00  0.00     0.173 A 
ATOM     65  F   UNL A   1      35.652  29.506  29.431  1.00  0.00    -0.203 F 
ATOM     66  C   UNL A   1      34.656  31.334  28.332  1.00  0.00     0.198 A 
ATOM     67  C   UNL A   1      35.617  33.525  28.532  1.00  0.00     0.198 A 
ATOM     68  F   UNL A   1      37.574  33.843  29.797  1.00  0.00    -0.203 F 
ATOM     69  F   UNL A   1      33.724  30.518  27.821  1.00  0.00    -0.200 F 
ATOM     70  C   UNL A   1      34.637  32.687  28.023  1.00  0.00     0.200 A 
ATOM     71  F   UNL A   1      35.595  34.834  28.241  1.00  0.00    -0.200 F 
ATOM     72  F   UNL A   1      33.678  33.179  27.227  1.00  0.00    -0.200 F 
ENDBRANCH  48  62
BRANCH  49  73
ATOM     73  C   UNL A   1      44.246  28.017  35.031  1.00  0.00     0.064 A 
ATOM     74  C   UNL A   1      45.473  28.688  35.111  1.00  0.00     0.173 A 
ATOM     75  C   UNL A   1      44.110  26.814  35.738  1.00  0.00     0.173 A 
ATOM     76  F   UNL A   1      45.660  29.827  34.430  1.00  0.00    -0.203 F 
ATOM     77  C   UNL A   1      46.526  28.172  35.865  1.00  0.00     0.198 A 
ATOM     78  C   UNL A   1      45.156  26.309  36.508  1.00  0.00     0.198 A 
ATOM     79  F   UNL A   1      42.957  26.130  35.685  1.00  0.00    -0.203 F 
ATOM     80  F   UNL A   1      47.701  28.814  35.898  1.00  0.00    -0.200 F 
ATOM     81  C   UNL A   1      46.364  26.987  36.567  1.00  0.00     0.200 A 
ATOM     82  F   UNL A   1      44.992  25.168  37.190  1.00  0.00    -0.200 F 
ATOM     83  F   UNL A   1      47.375  26.493  37.294  1.00  0.00    -0.200 F 
ENDBRANCH  49  73
BRANCH  61  84
ATOM     84  C   UNL A   1      38.857  32.172  36.513  1.00  0.00     0.064 A 
ATOM     85  C   UNL A   1      39.256  33.480  36.822  1.00  0.00     0.173 A 
ATOM     86  C   UNL A   1      37.991  31.520  37.406  1.00  0.00     0.173 A 
ATOM     87  F   UNL A   1      40.094  34.139  36.009  1.00  0.00    -0.203 F 
ATOM     88  C   UNL A   1      38.822  34.104  37.989  1.00  0.00     0.198 A 
ATOM     89  C   UNL A   1      37.538  32.156  38.559  1.00  0.00     0.198 A 
ATOM     90  F   UNL A   1      37.576  30.269  37.154  1.00  0.00    -0.203 F 
ATOM     91  F   UNL A   1      39.249  35.339  38.286  1.00  0.00    -0.200 F 
ATOM     92  C   UNL A   1      37.959  33.444  38.853  1.00  0.00     0.200 A 
ATOM     93  F   UNL A   1      36.696  31.521  39.386  1.00  0.00    -0.200 F 
ATOM     94  F   UNL A   1      37.538  34.048  39.972  1.00  0.00    -0.200 F 
ENDBRANCH  61  84
ENDBRANCH  35  36
ENDBRANCH  28  30
ENDBRANCH  27  28
ENDBRANCH  26  27
ENDBRANCH  25  26
ENDBRANCH  24  25
ENDBRANCH   1  24
TORSDOF 18
ENDMDL
MODEL 2
REMARK VINA RESULT:     -11.4      0.800      7.423
REMARK SMILES COc1ccc(S(=O)(=O)N[C@H]2C=C[C@@H](C(=O)OCCOCCOC(=O)c3ccc(-c4c5nc(c(-c6c(F)c(F)c(F)c(F)c6F)c6ccc([nH]6)c(-c6c(F)c(F)c(F)c(F)c6F)c6nc(c(-c7c(F)c(F)c(F)c(F)c7F)c7ccc4[nH]7)C=C6)C=C5)cc3)C2)cc1
REMARK SMILES IDX 19 1 18 2 17 3 15 4 16 5 14 6 11 7 12 8 89 9 13 10 10 11
REMARK SMILES IDX 7 13 8 14 9 15 6 16 3 17 4 18 91 19 5 20 90 21 2 22 1 23
REMARK SMILES IDX 20 24 21 25 22 26 23 27 24 28 25 29 26 30 27 31 88 32 28 33
REMARK SMILES IDX 87 34 29 35 30 36 31 37 81 38 32 39 86 40 80 41 82 42 33 43
REMARK SMILES IDX 85 44 79 45 78 46 34 48 66 49 46 50 65 51 47 52 50 53 64 54
REMARK SMILES IDX 83 55 48 56 49 57 63 59 84 60 51 61 35 62 36 63 44 64 37 65
REMARK SMILES IDX 38 66 42 67 45 68 39 69 40 70 43 71 41 72 67 73 68 74 76 75
REMARK SMILES IDX 69 76 70 77 74 78 77 79 71 80 72 81 75 82 73 83 52 84 53 85
REMARK SMILES IDX 61 86 54 87 55 88 59 89 62 90 56 91 57 92 60 93 58 94
REMARK H PARENT 10 12 82 47 50 58
REMARK Flexibility Score: inf
ROOT
ATOM      1  C   UNL A   1      41.358  21.046  26.676  1.00  0.00     0.202 C 
ENDROOT
BRANCH   1   2
ATOM      2  C   UNL A   1      40.078  21.480  25.961  1.00  0.00     0.261 C 
BRANCH   2   3
ATOM      3  O   UNL A   1      39.338  22.375  26.804  1.00  0.00    -0.463 OA
BRANCH   3   4
ATOM      4  C   UNL A   1      38.279  22.992  26.229  1.00  0.00     0.312 C 
ATOM      5  O   UNL A   1      38.107  24.206  26.204  1.00  0.00    -0.252 OA
BRANCH   4   6
ATOM      6  C   UNL A   1      37.329  22.022  25.540  1.00  0.00     0.123 C 
ATOM      7  C   UNL A   1      35.025  21.708  24.821  1.00  0.00     0.093 C 
ATOM      8  C   UNL A   1      35.856  22.279  23.729  1.00  0.00    -0.011 C 
ATOM      9  C   UNL A   1      35.890  21.882  26.071  1.00  0.00     0.043 C 
ATOM     10  C   UNL A   1      37.124  22.443  24.116  1.00  0.00    -0.015 C 
BRANCH   7  11
ATOM     11  N   UNL A   1      33.691  22.267  24.928  1.00  0.00    -0.204 NA
ATOM     12  H   UNL A   1      33.581  22.501  25.914  1.00  0.00     0.142 HD
BRANCH  11  13
ATOM     13  S   UNL A   1      32.258  21.524  24.498  1.00  0.00     0.241 S 
ATOM     14  O   UNL A   1      31.855  22.003  23.196  1.00  0.00    -0.207 OA
ATOM     15  O   UNL A   1      31.398  21.667  25.652  1.00  0.00    -0.207 OA
BRANCH  13  16
ATOM     16  C   UNL A   1      32.638  19.798  24.363  1.00  0.00     0.082 A 
ATOM     17  C   UNL A   1      32.980  17.031  24.214  1.00  0.00     0.118 A 
ATOM     18  C   UNL A   1      32.954  17.674  25.456  1.00  0.00     0.048 A 
ATOM     19  C   UNL A   1      32.887  17.788  23.044  1.00  0.00     0.048 A 
ATOM     20  C   UNL A   1      32.770  19.054  25.537  1.00  0.00     0.025 A 
ATOM     21  C   UNL A   1      32.735  19.177  23.116  1.00  0.00     0.025 A 
BRANCH  17  22
ATOM     22  O   UNL A   1      33.104  15.670  24.279  1.00  0.00    -0.497 OA
ATOM     23  C   UNL A   1      33.017  15.083  25.571  1.00  0.00     0.278 C 
ENDBRANCH  17  22
ENDBRANCH  13  16
ENDBRANCH  11  13
ENDBRANCH   7  11
ENDBRANCH   4   6
ENDBRANCH   3   4
ENDBRANCH   2   3
ENDBRANCH   1   2
BRANCH   1  24
ATOM     24  O   UNL A   1      42.201  20.158  25.937  1.00  0.00    -0.374 OA
BRANCH  24  25
ATOM     25  C   UNL A   1      43.470  20.656  25.512  1.00  0.00     0.202 C 
BRANCH  25  26
ATOM     26  C   UNL A   1      43.815  22.086  25.947  1.00  0.00     0.261 C 
BRANCH  26  27
ATOM     27  O   UNL A   1      43.227  23.073  25.082  1.00  0.00    -0.460 OA
BRANCH  27  28
ATOM     28  C   UNL A   1      43.820  24.291  25.127  1.00  0.00     0.338 C 
ATOM     29  O   UNL A   1      44.762  24.679  24.457  1.00  0.00    -0.246 OA
BRANCH  28  30
ATOM     30  C   UNL A   1      43.062  25.202  26.006  1.00  0.00     0.060 A 
ATOM     31  C   UNL A   1      43.627  26.457  26.267  1.00  0.00     0.016 A 
ATOM     32  C   UNL A   1      41.882  24.810  26.640  1.00  0.00     0.016 A 
ATOM     33  C   UNL A   1      43.044  27.305  27.206  1.00  0.00     0.010 A 
ATOM     34  C   UNL A   1      41.304  25.658  27.593  1.00  0.00     0.010 A 
ATOM     35  C   UNL A   1      41.905  26.890  27.907  1.00  0.00    -0.014 A 
BRANCH  35  36
ATOM     36  C   UNL A   1      41.445  27.684  29.071  1.00  0.00     0.031 A 
ATOM     37  C   UNL A   1      42.218  27.606  30.358  1.00  0.00     0.074 A 
ATOM     38  C   UNL A   1      40.382  28.500  28.972  1.00  0.00     0.049 A 
ATOM     39  N   UNL A   1      42.015  28.229  31.492  1.00  0.00    -0.248 NA
ATOM     40  C   UNL A   1      43.381  26.705  30.368  1.00  0.00     0.031 C 
ATOM     41  C   UNL A   1      39.579  28.696  27.769  1.00  0.00     0.029 A 
ATOM     42  N   UNL A   1      39.802  29.322  29.906  1.00  0.00    -0.354 N 
ATOM     43  C   UNL A   1      43.017  27.793  32.347  1.00  0.00     0.074 A 
ATOM     44  C   UNL A   1      43.815  26.834  31.612  1.00  0.00     0.031 C 
ATOM     45  C   UNL A   1      38.609  29.587  28.035  1.00  0.00     0.029 A 
ATOM     46  C   UNL A   1      38.708  30.002  29.433  1.00  0.00     0.049 A 
ATOM     47  H   UNL A   1      40.140  29.416  30.826  1.00  0.00     0.167 HD
ATOM     48  C   UNL A   1      43.258  28.164  33.628  1.00  0.00     0.037 A 
ATOM     49  C   UNL A   1      37.878  30.854  30.064  1.00  0.00     0.037 A 
ATOM     50  C   UNL A   1      42.466  29.119  34.359  1.00  0.00     0.049 A 
ATOM     51  C   UNL A   1      38.117  31.188  31.514  1.00  0.00     0.074 A 
ATOM     52  C   UNL A   1      42.654  29.591  35.646  1.00  0.00     0.029 A 
ATOM     53  N   UNL A   1      41.327  29.737  33.867  1.00  0.00    -0.354 N 
ATOM     54  N   UNL A   1      39.090  30.804  32.303  1.00  0.00    -0.248 NA
ATOM     55  C   UNL A   1      37.136  32.072  32.159  1.00  0.00     0.031 C 
ATOM     56  C   UNL A   1      41.598  30.458  35.950  1.00  0.00     0.029 A 
ATOM     57  C   UNL A   1      40.779  30.560  34.837  1.00  0.00     0.049 A 
ATOM     58  H   UNL A   1      40.961  29.610  32.962  1.00  0.00     0.167 HD
ATOM     59  C   UNL A   1      38.857  31.420  33.526  1.00  0.00     0.074 A 
ATOM     60  C   UNL A   1      37.652  32.208  33.373  1.00  0.00     0.031 C 
ATOM     61  C   UNL A   1      39.580  31.343  34.671  1.00  0.00     0.037 A 
BRANCH  48  62
ATOM     62  C   UNL A   1      44.407  27.506  34.329  1.00  0.00     0.064 A 
ATOM     63  C   UNL A   1      45.696  28.061  34.316  1.00  0.00     0.173 A 
ATOM     64  C   UNL A   1      44.216  26.308  35.033  1.00  0.00     0.173 A 
ATOM     65  F   UNL A   1      45.934  29.199  33.646  1.00  0.00    -0.203 F 
ATOM     66  C   UNL A   1      46.756  27.425  34.957  1.00  0.00     0.198 A 
ATOM     67  C   UNL A   1      45.271  25.688  35.694  1.00  0.00     0.198 A 
ATOM     68  F   UNL A   1      43.002  25.737  35.078  1.00  0.00    -0.203 F 
ATOM     69  F   UNL A   1      47.988  27.948  34.892  1.00  0.00    -0.200 F 
ATOM     70  C   UNL A   1      46.542  26.241  35.648  1.00  0.00     0.200 A 
ATOM     71  F   UNL A   1      45.061  24.548  36.368  1.00  0.00    -0.200 F 
ATOM     72  F   UNL A   1      47.563  25.629  36.263  1.00  0.00    -0.200 F 
ENDBRANCH  48  62
BRANCH  49  73
ATOM     73  C   UNL A   1      36.743  31.462  29.325  1.00  0.00     0.064 A 
ATOM     74  C   UNL A   1      35.642  30.688  28.938  1.00  0.00     0.173 A 
ATOM     75  C   UNL A   1      36.740  32.823  28.988  1.00  0.00     0.173 A 
ATOM     76  F   UNL A   1      35.614  29.377  29.214  1.00  0.00    -0.203 F 
ATOM     77  C   UNL A   1      34.579  31.252  28.234  1.00  0.00     0.198 A 
ATOM     78  C   UNL A   1      35.668  33.391  28.303  1.00  0.00     0.198 A 
ATOM     79  F   UNL A   1      37.776  33.603  29.329  1.00  0.00    -0.203 F 
ATOM     80  F   UNL A   1      33.553  30.485  27.845  1.00  0.00    -0.200 F 
ATOM     81  C   UNL A   1      34.591  32.604  27.923  1.00  0.00     0.200 A 
ATOM     82  F   UNL A   1      35.679  34.698  28.011  1.00  0.00    -0.200 F 
ATOM     83  F   UNL A   1      33.567  33.147  27.249  1.00  0.00    -0.200 F 
ENDBRANCH  49  73
BRANCH  61  84
ATOM     84  C   UNL A   1      39.107  32.154  35.840  1.00  0.00     0.064 A 
ATOM     85  C   UNL A   1      38.289  31.602  36.836  1.00  0.00     0.173 A 
ATOM     86  C   UNL A   1      39.512  33.490  35.988  1.00  0.00     0.173 A 
ATOM     87  F   UNL A   1      37.863  30.334  36.732  1.00  0.00    -0.203 F 
ATOM     88  C   UNL A   1      37.875  32.363  37.926  1.00  0.00     0.198 A 
ATOM     89  C   UNL A   1      39.118  34.241  37.092  1.00  0.00     0.198 A 
ATOM     90  F   UNL A   1      40.299  34.064  35.065  1.00  0.00    -0.203 F 
ATOM     91  F   UNL A   1      37.059  31.828  38.845  1.00  0.00    -0.200 F 
ATOM     92  C   UNL A   1      38.296  33.679  38.056  1.00  0.00     0.200 A 
ATOM     93  F   UNL A   1      39.534  35.509  37.222  1.00  0.00    -0.200 F 
ATOM     94  F   UNL A   1      37.902  34.409  39.109  1.00  0.00    -0.200 F 
ENDBRANCH  61  84
ENDBRANCH  35  36
ENDBRANCH  28  30
ENDBRANCH  27  28
ENDBRANCH  26  27
ENDBRANCH  25  26
ENDBRANCH  24  25
ENDBRANCH   1  24
TORSDOF 18
ENDMDL
MODEL 3
REMARK VINA RESULT:     -11.2      3.798      8.818
REMARK SMILES COc1ccc(S(=O)(=O)N[C@H]2C=C[C@@H](C(=O)OCCOCCOC(=O)c3ccc(-c4c5nc(c(-c6c(F)c(F)c(F)c(F)c6F)c6ccc([nH]6)c(-c6c(F)c(F)c(F)c(F)c6F)c6nc(c(-c7c(F)c(F)c(F)c(F)c7F)c7ccc4[nH]7)C=C6)C=C5)cc3)C2)cc1
REMARK SMILES IDX 19 1 18 2 17 3 15 4 16 5 14 6 11 7 12 8 89 9 13 10 10 11
REMARK SMILES IDX 7 13 8 14 9 15 6 16 3 17 4 18 91 19 5 20 90 21 2 22 1 23
REMARK SMILES IDX 20 24 21 25 22 26 23 27 24 28 25 29 26 30 27 31 88 32 28 33
REMARK SMILES IDX 87 34 29 35 30 36 31 37 81 38 32 39 86 40 80 41 82 42 33 43
REMARK SMILES IDX 85 44 79 45 78 46 34 48 66 49 46 50 65 51 47 52 50 53 64 54
REMARK SMILES IDX 83 55 48 56 49 57 63 59 84 60 51 61 35 62 36 63 44 64 37 65
REMARK SMILES IDX 38 66 42 67 45 68 39 69 40 70 43 71 41 72 67 73 68 74 76 75
REMARK SMILES IDX 69 76 70 77 74 78 77 79 71 80 72 81 75 82 73 83 52 84 53 85
REMARK SMILES IDX 61 86 54 87 55 88 59 89 62 90 56 91 57 92 60 93 58 94
REMARK H PARENT 10 12 82 47 50 58
REMARK Flexibility Score: inf
ROOT
ATOM      1  C   UNL A   1      32.181  29.454  26.482  1.00  0.00     0.202 C 
ENDROOT
BRANCH   1   2
ATOM      2  C   UNL A   1      32.899  29.338  25.138  1.00  0.00     0.261 C 
BRANCH   2   3
ATOM      3  O   UNL A   1      31.933  29.185  24.088  1.00  0.00    -0.463 OA
BRANCH   3   4
ATOM      4  C   UNL A   1      32.281  28.356  23.077  1.00  0.00     0.312 C 
ATOM      5  O   UNL A   1      33.337  28.414  22.457  1.00  0.00    -0.252 OA
BRANCH   4   6
ATOM      6  C   UNL A   1      31.243  27.273  22.814  1.00  0.00     0.123 C 
ATOM      7  C   UNL A   1      30.239  25.253  23.729  1.00  0.00     0.093 C 
ATOM      8  C   UNL A   1      29.456  26.459  24.102  1.00  0.00    -0.011 C 
ATOM      9  C   UNL A   1      31.563  25.820  23.212  1.00  0.00     0.043 C 
ATOM     10  C   UNL A   1      29.997  27.569  23.593  1.00  0.00    -0.015 C 
BRANCH   7  11
ATOM     11  N   UNL A   1      30.376  24.265  24.782  1.00  0.00    -0.204 NA
ATOM     12  H   UNL A   1      29.423  24.073  25.090  1.00  0.00     0.142 HD
BRANCH  11  13
ATOM     13  S   UNL A   1      31.262  24.420  26.190  1.00  0.00     0.241 S 
ATOM     14  O   UNL A   1      30.568  23.738  27.257  1.00  0.00    -0.207 OA
ATOM     15  O   UNL A   1      31.584  25.828  26.279  1.00  0.00    -0.207 OA
BRANCH  13  16
ATOM     16  C   UNL A   1      32.789  23.572  25.887  1.00  0.00     0.082 A 
ATOM     17  C   UNL A   1      35.224  22.221  25.677  1.00  0.00     0.118 A 
ATOM     18  C   UNL A   1      35.197  23.591  25.959  1.00  0.00     0.048 A 
ATOM     19  C   UNL A   1      34.025  21.542  25.448  1.00  0.00     0.048 A 
ATOM     20  C   UNL A   1      33.984  24.268  26.079  1.00  0.00     0.025 A 
ATOM     21  C   UNL A   1      32.805  22.221  25.534  1.00  0.00     0.025 A 
BRANCH  17  22
ATOM     22  O   UNL A   1      36.475  21.668  25.649  1.00  0.00    -0.497 OA
ATOM     23  C   UNL A   1      37.571  22.573  25.625  1.00  0.00     0.278 C 
ENDBRANCH  17  22
ENDBRANCH  13  16
ENDBRANCH  11  13
ENDBRANCH   7  11
ENDBRANCH   4   6
ENDBRANCH   3   4
ENDBRANCH   2   3
ENDBRANCH   1   2
BRANCH   1  24
ATOM     24  O   UNL A   1      32.365  30.694  27.171  1.00  0.00    -0.374 OA
BRANCH  24  25
ATOM     25  C   UNL A   1      31.560  31.800  26.759  1.00  0.00     0.202 C 
BRANCH  25  26
ATOM     26  C   UNL A   1      32.210  33.185  26.865  1.00  0.00     0.261 C 
BRANCH  26  27
ATOM     27  O   UNL A   1      32.501  33.546  28.227  1.00  0.00    -0.460 OA
BRANCH  27  28
ATOM     28  C   UNL A   1      33.614  34.301  28.388  1.00  0.00     0.338 C 
ATOM     29  O   UNL A   1      33.679  35.518  28.443  1.00  0.00    -0.246 OA
BRANCH  28  30
ATOM     30  C   UNL A   1      34.784  33.446  28.664  1.00  0.00     0.060 A 
ATOM     31  C   UNL A   1      34.554  32.251  29.358  1.00  0.00     0.016 A 
ATOM     32  C   UNL A   1      36.084  33.842  28.343  1.00  0.00     0.016 A 
ATOM     33  C   UNL A   1      35.627  31.473  29.785  1.00  0.00     0.010 A 
ATOM     34  C   UNL A   1      37.163  33.065  28.785  1.00  0.00     0.010 A 
ATOM     35  C   UNL A   1      36.939  31.900  29.540  1.00  0.00    -0.014 A 
BRANCH  35  36
ATOM     36  C   UNL A   1      38.062  31.204  30.211  1.00  0.00     0.031 A 
ATOM     37  C   UNL A   1      38.343  31.499  31.658  1.00  0.00     0.074 A 
ATOM     38  C   UNL A   1      38.792  30.285  29.557  1.00  0.00     0.049 A 
ATOM     39  N   UNL A   1      39.253  30.992  32.451  1.00  0.00    -0.248 NA
ATOM     40  C   UNL A   1      37.477  32.500  32.300  1.00  0.00     0.031 C 
ATOM     41  C   UNL A   1      38.591  29.880  28.169  1.00  0.00     0.029 A 
ATOM     42  N   UNL A   1      39.852  29.523  29.983  1.00  0.00    -0.354 N 
ATOM     43  C   UNL A   1      39.073  31.614  33.679  1.00  0.00     0.074 A 
ATOM     44  C   UNL A   1      37.983  32.554  33.522  1.00  0.00     0.031 C 
ATOM     45  C   UNL A   1      39.496  28.937  27.856  1.00  0.00     0.029 A 
ATOM     46  C   UNL A   1      40.356  28.695  29.014  1.00  0.00     0.049 A 
ATOM     47  H   UNL A   1      40.214  29.567  30.898  1.00  0.00     0.167 HD
ATOM     48  C   UNL A   1      39.749  31.415  34.836  1.00  0.00     0.037 A 
ATOM     49  C   UNL A   1      41.401  27.846  29.056  1.00  0.00     0.037 A 
ATOM     50  C   UNL A   1      40.832  30.479  34.993  1.00  0.00     0.049 A 
ATOM     51  C   UNL A   1      42.190  27.702  30.331  1.00  0.00     0.074 A 
ATOM     52  C   UNL A   1      41.553  30.176  36.134  1.00  0.00     0.029 A 
ATOM     53  N   UNL A   1      41.357  29.705  33.970  1.00  0.00    -0.354 N 
ATOM     54  N   UNL A   1      41.988  28.263  31.498  1.00  0.00    -0.248 NA
ATOM     55  C   UNL A   1      43.356  26.808  30.289  1.00  0.00     0.031 C 
ATOM     56  C   UNL A   1      42.547  29.254  35.789  1.00  0.00     0.029 A 
ATOM     57  C   UNL A   1      42.417  28.949  34.444  1.00  0.00     0.049 A 
ATOM     58  H   UNL A   1      41.026  29.694  33.042  1.00  0.00     0.167 HD
ATOM     59  C   UNL A   1      42.980  27.770  32.336  1.00  0.00     0.074 A 
ATOM     60  C   UNL A   1      43.782  26.859  31.544  1.00  0.00     0.031 C 
ATOM     61  C   UNL A   1      43.204  28.043  33.646  1.00  0.00     0.037 A 
BRANCH  48  62
ATOM     62  C   UNL A   1      39.356  32.253  36.014  1.00  0.00     0.064 A 
ATOM     63  C   UNL A   1      39.944  33.503  36.262  1.00  0.00     0.173 A 
ATOM     64  C   UNL A   1      38.369  31.804  36.904  1.00  0.00     0.173 A 
ATOM     65  F   UNL A   1      40.903  33.971  35.448  1.00  0.00    -0.203 F 
ATOM     66  C   UNL A   1      39.579  34.258  37.374  1.00  0.00     0.198 A 
ATOM     67  C   UNL A   1      37.988  32.573  38.000  1.00  0.00     0.198 A 
ATOM     68  F   UNL A   1      37.773  30.617  36.711  1.00  0.00    -0.203 F 
ATOM     69  F   UNL A   1      40.188  35.426  37.617  1.00  0.00    -0.200 F 
ATOM     70  C   UNL A   1      38.599  33.794  38.239  1.00  0.00     0.200 A 
ATOM     71  F   UNL A   1      37.035  32.127  38.831  1.00  0.00    -0.200 F 
ATOM     72  F   UNL A   1      38.251  34.521  39.309  1.00  0.00    -0.200 F 
ENDBRANCH  48  62
BRANCH  49  73
ATOM     73  C   UNL A   1      41.757  27.054  27.852  1.00  0.00     0.064 A 
ATOM     74  C   UNL A   1      42.624  27.573  26.882  1.00  0.00     0.173 A 
ATOM     75  C   UNL A   1      41.237  25.768  27.645  1.00  0.00     0.173 A 
ATOM     76  F   UNL A   1      43.123  28.809  27.023  1.00  0.00    -0.203 F 
ATOM     77  C   UNL A   1      42.953  26.838  25.744  1.00  0.00     0.198 A 
ATOM     78  C   UNL A   1      41.583  25.025  26.519  1.00  0.00     0.198 A 
ATOM     79  F   UNL A   1      40.397  25.231  28.542  1.00  0.00    -0.203 F 
ATOM     80  F   UNL A   1      43.756  27.370  24.814  1.00  0.00    -0.200 F 
ATOM     81  C   UNL A   1      42.437  25.563  25.568  1.00  0.00     0.200 A 
ATOM     82  F   UNL A   1      41.089  23.791  26.355  1.00  0.00    -0.200 F 
ATOM     83  F   UNL A   1      42.757  24.855  24.476  1.00  0.00    -0.200 F 
ENDBRANCH  49  73
BRANCH  61  84
ATOM     84  C   UNL A   1      44.340  27.329  34.314  1.00  0.00     0.064 A 
ATOM     85  C   UNL A   1      45.616  27.903  34.410  1.00  0.00     0.173 A 
ATOM     86  C   UNL A   1      44.139  26.071  34.905  1.00  0.00     0.173 A 
ATOM     87  F   UNL A   1      45.862  29.096  33.848  1.00  0.00    -0.203 F 
ATOM     88  C   UNL A   1      46.655  27.235  35.052  1.00  0.00     0.198 A 
ATOM     89  C   UNL A   1      45.173  25.417  35.569  1.00  0.00     0.198 A 
ATOM     90  F   UNL A   1      42.935  25.481  34.846  1.00  0.00    -0.203 F 
ATOM     91  F   UNL A   1      47.877  27.783  35.095  1.00  0.00    -0.200 F 
ATOM     92  C   UNL A   1      46.431  25.996  35.637  1.00  0.00     0.200 A 
ATOM     93  F   UNL A   1      44.952  24.226  36.143  1.00  0.00    -0.200 F 
ATOM     94  F   UNL A   1      47.430  25.358  36.261  1.00  0.00    -0.200 F 
ENDBRANCH  61  84
ENDBRANCH  35  36
ENDBRANCH  28  30
ENDBRANCH  27  28
ENDBRANCH  26  27
ENDBRANCH  25  26
ENDBRANCH  24  25
ENDBRANCH   1  24
TORSDOF 18
ENDMDL
