MODEL 1
REMARK VINA RESULT:     -11.6      0.000      0.000
REMARK SMILES Cc1ccc(CSCC(=O)N[C@H]2C=C[C@@H](C(=O)OCCOCCOC(=O)c3ccc(-c4c5nc(c(-c6c(F)c(F)c(F)c(F)c6F)c6ccc([nH]6)c(-c6c(F)c(F)c(F)c(F)c6F)c6nc(c(-c7c(F)c(F)c(F)c(F)c7F)c7ccc4[nH]7)C=C6)C=C5)cc3)C2)cc1
REMARK SMILES IDX 19 1 18 2 16 3 17 4 15 5 12 6 13 7 90 8 14 9 11 10 9 11
REMARK SMILES IDX 10 12 8 14 7 15 6 16 5 17 1 18 2 19 3 20 92 21 4 22 91 23
REMARK SMILES IDX 20 24 21 25 22 26 23 27 24 28 25 29 26 30 27 31 28 32 89 33
REMARK SMILES IDX 29 34 88 35 30 36 31 37 32 38 82 39 33 40 87 41 81 42 83 43
REMARK SMILES IDX 34 44 86 45 80 46 79 47 35 49 67 50 47 51 66 52 48 53 51 54
REMARK SMILES IDX 65 55 84 56 49 57 50 58 64 60 85 61 52 62 36 63 37 64 45 65
REMARK SMILES IDX 38 66 39 67 43 68 46 69 40 70 41 71 44 72 42 73 68 74 69 75
REMARK SMILES IDX 77 76 70 77 71 78 75 79 78 80 72 81 73 82 76 83 74 84 53 85
REMARK SMILES IDX 54 86 62 87 55 88 56 89 60 90 63 91 57 92 58 93 61 94 59 95
REMARK H PARENT 11 13 83 48 51 59
REMARK Flexibility Score: inf
ROOT
ATOM      1  C   UNL A   1      35.533  23.129  24.667  1.00  0.00     0.261 C 
ENDROOT
BRANCH   1   2
ATOM      2  O   UNL A   1      34.866  21.879  24.827  1.00  0.00    -0.463 OA
BRANCH   2   3
ATOM      3  C   UNL A   1      34.017  21.772  25.896  1.00  0.00     0.312 C 
ATOM      4  O   UNL A   1      34.328  21.832  27.065  1.00  0.00    -0.252 OA
BRANCH   3   5
ATOM      5  C   UNL A   1      32.607  21.527  25.387  1.00  0.00     0.124 C 
ATOM      6  C   UNL A   1      31.840  22.375  23.188  1.00  0.00     0.106 C 
ATOM      7  C   UNL A   1      32.286  20.954  23.135  1.00  0.00    -0.006 C 
ATOM      8  C   UNL A   1      32.057  22.769  24.666  1.00  0.00     0.048 C 
ATOM      9  C   UNL A   1      32.640  20.474  24.331  1.00  0.00    -0.014 C 
BRANCH   6  10
ATOM     10  N   UNL A   1      32.576  23.268  22.314  1.00  0.00    -0.349 N 
ATOM     11  C   UNL A   1      32.592  24.624  22.250  1.00  0.00     0.230 C 
ATOM     12  O   UNL A   1      33.659  25.151  21.915  1.00  0.00    -0.274 OA
ATOM     13  H   UNL A   1      33.159  22.817  21.660  1.00  0.00     0.164 HD
BRANCH  11  14
ATOM     14  C   UNL A   1      31.350  25.461  22.473  1.00  0.00     0.169 C 
BRANCH  14  15
ATOM     15  S   UNL A   1      31.757  27.209  22.835  1.00  0.00    -0.147 SA
BRANCH  15  16
ATOM     16  C   UNL A   1      31.858  27.148  24.662  1.00  0.00     0.105 C 
BRANCH  16  17
ATOM     17  C   UNL A   1      32.406  28.382  25.345  1.00  0.00    -0.038 A 
ATOM     18  C   UNL A   1      33.784  31.473  27.997  1.00  0.00     0.044 C 
ATOM     19  C   UNL A   1      33.401  30.463  26.958  1.00  0.00    -0.051 A 
ATOM     20  C   UNL A   1      32.254  30.657  26.183  1.00  0.00     0.004 A 
ATOM     21  C   UNL A   1      34.138  29.289  26.798  1.00  0.00     0.004 A 
ATOM     22  C   UNL A   1      31.758  29.623  25.385  1.00  0.00     0.005 A 
ATOM     23  C   UNL A   1      33.651  28.265  25.987  1.00  0.00     0.005 A 
ENDBRANCH  16  17
ENDBRANCH  15  16
ENDBRANCH  14  15
ENDBRANCH  11  14
ENDBRANCH   6  10
ENDBRANCH   3   5
ENDBRANCH   2   3
ENDBRANCH   1   2
BRANCH   1  24
ATOM     24  C   UNL A   1      37.001  22.918  24.457  1.00  0.00     0.202 C 
BRANCH  24  25
ATOM     25  O   UNL A   1      37.514  22.461  25.700  1.00  0.00    -0.374 OA
BRANCH  25  26
ATOM     26  C   UNL A   1      38.470  21.416  25.603  1.00  0.00     0.202 C 
BRANCH  26  27
ATOM     27  C   UNL A   1      39.773  21.669  26.383  1.00  0.00     0.261 C 
BRANCH  27  28
ATOM     28  O   UNL A   1      39.676  22.931  27.072  1.00  0.00    -0.460 OA
BRANCH  28  29
ATOM     29  C   UNL A   1      40.617  23.861  26.761  1.00  0.00     0.338 C 
ATOM     30  O   UNL A   1      41.789  23.628  26.498  1.00  0.00    -0.246 OA
BRANCH  29  31
ATOM     31  C   UNL A   1      40.097  25.215  27.108  1.00  0.00     0.060 A 
ATOM     32  C   UNL A   1      40.518  26.340  26.375  1.00  0.00     0.016 A 
ATOM     33  C   UNL A   1      39.460  25.391  28.337  1.00  0.00     0.016 A 
ATOM     34  C   UNL A   1      40.433  27.621  26.941  1.00  0.00     0.010 A 
ATOM     35  C   UNL A   1      39.455  26.642  28.921  1.00  0.00     0.010 A 
ATOM     36  C   UNL A   1      39.972  27.760  28.251  1.00  0.00    -0.014 A 
BRANCH  36  37
ATOM     37  C   UNL A   1      40.084  28.978  29.062  1.00  0.00     0.031 A 
ATOM     38  C   UNL A   1      38.973  29.946  29.075  1.00  0.00     0.074 A 
ATOM     39  C   UNL A   1      41.097  29.169  29.940  1.00  0.00     0.049 A 
ATOM     40  N   UNL A   1      39.126  31.203  29.323  1.00  0.00    -0.248 NA
ATOM     41  C   UNL A   1      37.585  29.579  28.808  1.00  0.00     0.031 C 
ATOM     42  C   UNL A   1      41.197  30.136  31.036  1.00  0.00     0.029 A 
ATOM     43  N   UNL A   1      42.354  28.565  29.955  1.00  0.00    -0.354 N 
ATOM     44  C   UNL A   1      37.880  31.706  29.609  1.00  0.00     0.074 A 
ATOM     45  C   UNL A   1      36.950  30.697  29.163  1.00  0.00     0.031 C 
ATOM     46  C   UNL A   1      42.493  30.302  31.361  1.00  0.00     0.029 A 
ATOM     47  C   UNL A   1      43.265  29.528  30.404  1.00  0.00     0.049 A 
ATOM     48  H   UNL A   1      42.561  27.637  29.699  1.00  0.00     0.167 HD
ATOM     49  C   UNL A   1      37.771  32.834  30.369  1.00  0.00     0.037 A 
ATOM     50  C   UNL A   1      44.321  29.920  29.642  1.00  0.00     0.037 A 
ATOM     51  C   UNL A   1      39.084  33.307  30.816  1.00  0.00     0.049 A 
ATOM     52  C   UNL A   1      44.290  31.408  29.525  1.00  0.00     0.074 A 
ATOM     53  C   UNL A   1      39.736  33.234  32.038  1.00  0.00     0.029 A 
ATOM     54  N   UNL A   1      40.059  33.660  29.882  1.00  0.00    -0.354 N 
ATOM     55  N   UNL A   1      43.166  32.070  29.514  1.00  0.00    -0.248 NA
ATOM     56  C   UNL A   1      45.466  32.267  29.520  1.00  0.00     0.031 C 
ATOM     57  C   UNL A   1      41.098  33.570  31.840  1.00  0.00     0.029 A 
ATOM     58  C   UNL A   1      41.284  33.841  30.496  1.00  0.00     0.049 A 
ATOM     59  H   UNL A   1      39.896  33.766  28.917  1.00  0.00     0.167 HD
ATOM     60  C   UNL A   1      43.443  33.401  29.607  1.00  0.00     0.074 A 
ATOM     61  C   UNL A   1      44.892  33.484  29.553  1.00  0.00     0.031 C 
ATOM     62  C   UNL A   1      42.448  34.317  29.762  1.00  0.00     0.037 A 
BRANCH  49  63
ATOM     63  C   UNL A   1      36.454  33.278  30.971  1.00  0.00     0.064 A 
ATOM     64  C   UNL A   1      35.506  34.009  30.224  1.00  0.00     0.173 A 
ATOM     65  C   UNL A   1      36.082  33.033  32.307  1.00  0.00     0.173 A 
ATOM     66  F   UNL A   1      35.645  34.206  28.908  1.00  0.00    -0.203 F 
ATOM     67  C   UNL A   1      34.359  34.562  30.800  1.00  0.00     0.198 A 
ATOM     68  C   UNL A   1      34.969  33.637  32.901  1.00  0.00     0.198 A 
ATOM     69  F   UNL A   1      36.759  32.159  33.065  1.00  0.00    -0.203 F 
ATOM     70  F   UNL A   1      33.500  35.252  30.037  1.00  0.00    -0.200 F 
ATOM     71  C   UNL A   1      34.112  34.412  32.148  1.00  0.00     0.200 A 
ATOM     72  F   UNL A   1      34.732  33.458  34.209  1.00  0.00    -0.200 F 
ATOM     73  F   UNL A   1      33.037  34.981  32.710  1.00  0.00    -0.200 F 
ENDBRANCH  49  63
BRANCH  50  74
ATOM     74  C   UNL A   1      44.697  28.922  28.596  1.00  0.00     0.064 A 
ATOM     75  C   UNL A   1      45.462  27.804  29.000  1.00  0.00     0.173 A 
ATOM     76  C   UNL A   1      44.070  28.831  27.351  1.00  0.00     0.173 A 
ATOM     77  F   UNL A   1      46.027  27.792  30.219  1.00  0.00    -0.203 F 
ATOM     78  C   UNL A   1      45.513  26.625  28.258  1.00  0.00     0.198 A 
ATOM     79  C   UNL A   1      44.132  27.646  26.599  1.00  0.00     0.198 A 
ATOM     80  F   UNL A   1      43.306  29.834  26.901  1.00  0.00    -0.203 F 
ATOM     81  F   UNL A   1      46.111  25.538  28.768  1.00  0.00    -0.200 F 
ATOM     82  C   UNL A   1      44.829  26.540  27.065  1.00  0.00     0.200 A 
ATOM     83  F   UNL A   1      43.423  27.539  25.466  1.00  0.00    -0.200 F 
ATOM     84  F   UNL A   1      44.774  25.373  26.409  1.00  0.00    -0.200 F 
ENDBRANCH  50  74
BRANCH  62  85
ATOM     85  C   UNL A   1      42.520  35.757  29.335  1.00  0.00     0.064 A 
ATOM     86  C   UNL A   1      43.262  36.732  30.021  1.00  0.00     0.173 A 
ATOM     87  C   UNL A   1      42.010  36.153  28.074  1.00  0.00     0.173 A 
ATOM     88  F   UNL A   1      43.884  36.463  31.177  1.00  0.00    -0.203 F 
ATOM     89  C   UNL A   1      43.453  38.012  29.505  1.00  0.00     0.198 A 
ATOM     90  C   UNL A   1      42.257  37.412  27.535  1.00  0.00     0.198 A 
ATOM     91  F   UNL A   1      41.300  35.319  27.301  1.00  0.00    -0.203 F 
ATOM     92  F   UNL A   1      44.148  38.912  30.214  1.00  0.00    -0.200 F 
ATOM     93  C   UNL A   1      42.969  38.346  28.255  1.00  0.00     0.200 A 
ATOM     94  F   UNL A   1      41.828  37.698  26.298  1.00  0.00    -0.200 F 
ATOM     95  F   UNL A   1      43.210  39.557  27.737  1.00  0.00    -0.200 F 
ENDBRANCH  62  85
ENDBRANCH  36  37
ENDBRANCH  29  31
ENDBRANCH  28  29
ENDBRANCH  27  28
ENDBRANCH  26  27
ENDBRANCH  25  26
ENDBRANCH  24  25
ENDBRANCH   1  24
TORSDOF 19
ENDMDL
MODEL 2
REMARK VINA RESULT:     -11.6      1.198      3.649
REMARK SMILES Cc1ccc(CSCC(=O)N[C@H]2C=C[C@@H](C(=O)OCCOCCOC(=O)c3ccc(-c4c5nc(c(-c6c(F)c(F)c(F)c(F)c6F)c6ccc([nH]6)c(-c6c(F)c(F)c(F)c(F)c6F)c6nc(c(-c7c(F)c(F)c(F)c(F)c7F)c7ccc4[nH]7)C=C6)C=C5)cc3)C2)cc1
REMARK SMILES IDX 19 1 18 2 16 3 17 4 15 5 12 6 13 7 90 8 14 9 11 10 9 11
REMARK SMILES IDX 10 12 8 14 7 15 6 16 5 17 1 18 2 19 3 20 92 21 4 22 91 23
REMARK SMILES IDX 20 24 21 25 22 26 23 27 24 28 25 29 26 30 27 31 28 32 89 33
REMARK SMILES IDX 29 34 88 35 30 36 31 37 32 38 82 39 33 40 87 41 81 42 83 43
REMARK SMILES IDX 34 44 86 45 80 46 79 47 35 49 67 50 47 51 66 52 48 53 51 54
REMARK SMILES IDX 65 55 84 56 49 57 50 58 64 60 85 61 52 62 36 63 37 64 45 65
REMARK SMILES IDX 38 66 39 67 43 68 46 69 40 70 41 71 44 72 42 73 68 74 69 75
REMARK SMILES IDX 77 76 70 77 71 78 75 79 78 80 72 81 73 82 76 83 74 84 53 85
REMARK SMILES IDX 54 86 62 87 55 88 56 89 60 90 63 91 57 92 58 93 61 94 59 95
REMARK H PARENT 11 13 83 48 51 59
REMARK Flexibility Score: inf
ROOT
ATOM      1  C   UNL A   1      34.846  24.002  25.896  1.00  0.00     0.261 C 
ENDROOT
BRANCH   1   2
ATOM      2  O   UNL A   1      34.483  25.364  25.683  1.00  0.00    -0.463 OA
BRANCH   2   3
ATOM      3  C   UNL A   1      33.148  25.661  25.763  1.00  0.00     0.312 C 
ATOM      4  O   UNL A   1      32.267  24.905  26.104  1.00  0.00    -0.252 OA
BRANCH   3   5
ATOM      5  C   UNL A   1      32.933  27.097  25.318  1.00  0.00     0.124 C 
ATOM      6  C   UNL A   1      32.992  27.754  22.929  1.00  0.00     0.106 C 
ATOM      7  C   UNL A   1      31.608  27.525  23.430  1.00  0.00    -0.006 C 
ATOM      8  C   UNL A   1      33.877  27.465  24.161  1.00  0.00     0.048 C 
ATOM      9  C   UNL A   1      31.567  27.232  24.733  1.00  0.00    -0.014 C 
BRANCH   6  10
ATOM     10  N   UNL A   1      33.378  26.904  21.819  1.00  0.00    -0.349 N 
ATOM     11  C   UNL A   1      32.831  25.749  21.363  1.00  0.00     0.230 C 
ATOM     12  O   UNL A   1      32.896  25.546  20.145  1.00  0.00    -0.274 OA
ATOM     13  H   UNL A   1      34.164  27.216  21.315  1.00  0.00     0.164 HD
BRANCH  11  14
ATOM     14  C   UNL A   1      32.258  24.700  22.293  1.00  0.00     0.169 C 
BRANCH  14  15
ATOM     15  S   UNL A   1      33.359  23.243  22.445  1.00  0.00    -0.147 SA
BRANCH  15  16
ATOM     16  C   UNL A   1      32.275  22.115  23.396  1.00  0.00     0.105 C 
BRANCH  16  17
ATOM     17  C   UNL A   1      32.749  20.684  23.530  1.00  0.00    -0.038 A 
ATOM     18  C   UNL A   1      33.326  16.481  24.226  1.00  0.00     0.044 C 
ATOM     19  C   UNL A   1      33.247  17.935  23.872  1.00  0.00    -0.051 A 
ATOM     20  C   UNL A   1      33.945  18.880  24.630  1.00  0.00     0.004 A 
ATOM     21  C   UNL A   1      32.425  18.373  22.833  1.00  0.00     0.004 A 
ATOM     22  C   UNL A   1      33.696  20.244  24.463  1.00  0.00     0.005 A 
ATOM     23  C   UNL A   1      32.191  19.735  22.655  1.00  0.00     0.005 A 
ENDBRANCH  16  17
ENDBRANCH  15  16
ENDBRANCH  14  15
ENDBRANCH  11  14
ENDBRANCH   6  10
ENDBRANCH   3   5
ENDBRANCH   2   3
ENDBRANCH   1   2
BRANCH   1  24
ATOM     24  C   UNL A   1      36.078  23.658  25.116  1.00  0.00     0.202 C 
BRANCH  24  25
ATOM     25  O   UNL A   1      36.985  23.088  26.049  1.00  0.00    -0.374 OA
BRANCH  25  26
ATOM     26  C   UNL A   1      37.723  21.977  25.560  1.00  0.00     0.202 C 
BRANCH  26  27
ATOM     27  C   UNL A   1      39.201  21.955  25.987  1.00  0.00     0.261 C 
BRANCH  27  28
ATOM     28  O   UNL A   1      39.419  22.962  26.994  1.00  0.00    -0.460 OA
BRANCH  28  29
ATOM     29  C   UNL A   1      40.439  23.832  26.767  1.00  0.00     0.338 C 
ATOM     30  O   UNL A   1      41.609  23.525  26.589  1.00  0.00    -0.246 OA
BRANCH  29  31
ATOM     31  C   UNL A   1      39.981  25.214  27.090  1.00  0.00     0.060 A 
ATOM     32  C   UNL A   1      40.525  26.314  26.401  1.00  0.00     0.016 A 
ATOM     33  C   UNL A   1      39.270  25.422  28.272  1.00  0.00     0.016 A 
ATOM     34  C   UNL A   1      40.481  27.595  26.973  1.00  0.00     0.010 A 
ATOM     35  C   UNL A   1      39.302  26.668  28.868  1.00  0.00     0.010 A 
ATOM     36  C   UNL A   1      39.936  27.755  28.248  1.00  0.00    -0.014 A 
BRANCH  36  37
ATOM     37  C   UNL A   1      40.066  28.958  29.078  1.00  0.00     0.031 A 
ATOM     38  C   UNL A   1      38.964  29.936  29.116  1.00  0.00     0.074 A 
ATOM     39  C   UNL A   1      41.088  29.125  29.951  1.00  0.00     0.049 A 
ATOM     40  N   UNL A   1      39.131  31.187  29.384  1.00  0.00    -0.248 NA
ATOM     41  C   UNL A   1      37.571  29.587  28.855  1.00  0.00     0.031 C 
ATOM     42  C   UNL A   1      41.205  30.072  31.062  1.00  0.00     0.029 A 
ATOM     43  N   UNL A   1      42.339  28.509  29.945  1.00  0.00    -0.354 N 
ATOM     44  C   UNL A   1      37.893  31.697  29.688  1.00  0.00     0.074 A 
ATOM     45  C   UNL A   1      36.949  30.704  29.234  1.00  0.00     0.031 C 
ATOM     46  C   UNL A   1      42.506  30.221  31.379  1.00  0.00     0.029 A 
ATOM     47  C   UNL A   1      43.263  29.456  30.403  1.00  0.00     0.049 A 
ATOM     48  H   UNL A   1      42.535  27.583  29.673  1.00  0.00     0.167 HD
ATOM     49  C   UNL A   1      37.800  32.813  30.468  1.00  0.00     0.037 A 
ATOM     50  C   UNL A   1      44.316  29.851  29.639  1.00  0.00     0.037 A 
ATOM     51  C   UNL A   1      39.121  33.267  30.911  1.00  0.00     0.049 A 
ATOM     52  C   UNL A   1      44.298  31.341  29.546  1.00  0.00     0.074 A 
ATOM     53  C   UNL A   1      39.783  33.167  32.127  1.00  0.00     0.029 A 
ATOM     54  N   UNL A   1      40.092  33.626  29.976  1.00  0.00    -0.354 N 
ATOM     55  N   UNL A   1      43.181  32.013  29.555  1.00  0.00    -0.248 NA
ATOM     56  C   UNL A   1      45.482  32.188  29.546  1.00  0.00     0.031 C 
ATOM     57  C   UNL A   1      41.146  33.494  31.924  1.00  0.00     0.029 A 
ATOM     58  C   UNL A   1      41.323  33.785  30.582  1.00  0.00     0.049 A 
ATOM     59  H   UNL A   1      39.922  33.749  29.014  1.00  0.00     0.167 HD
ATOM     60  C   UNL A   1      43.471  33.340  29.668  1.00  0.00     0.074 A 
ATOM     61  C   UNL A   1      44.920  33.410  29.604  1.00  0.00     0.031 C 
ATOM     62  C   UNL A   1      42.486  34.262  29.847  1.00  0.00     0.037 A 
BRANCH  49  63
ATOM     63  C   UNL A   1      36.492  33.260  31.088  1.00  0.00     0.064 A 
ATOM     64  C   UNL A   1      35.542  34.006  30.359  1.00  0.00     0.173 A 
ATOM     65  C   UNL A   1      36.132  33.001  32.425  1.00  0.00     0.173 A 
ATOM     66  F   UNL A   1      35.671  34.218  29.044  1.00  0.00    -0.203 F 
ATOM     67  C   UNL A   1      34.406  34.560  30.953  1.00  0.00     0.198 A 
ATOM     68  C   UNL A   1      35.029  33.606  33.036  1.00  0.00     0.198 A 
ATOM     69  F   UNL A   1      36.810  32.113  33.165  1.00  0.00    -0.203 F 
ATOM     70  F   UNL A   1      33.544  35.265  30.206  1.00  0.00    -0.200 F 
ATOM     71  C   UNL A   1      34.171  34.396  32.302  1.00  0.00     0.200 A 
ATOM     72  F   UNL A   1      34.804  33.413  34.344  1.00  0.00    -0.200 F 
ATOM     73  F   UNL A   1      33.105  34.967  32.880  1.00  0.00    -0.200 F 
ENDBRANCH  49  63
BRANCH  50  74
ATOM     74  C   UNL A   1      44.675  28.866  28.573  1.00  0.00     0.064 A 
ATOM     75  C   UNL A   1      45.385  27.708  28.962  1.00  0.00     0.173 A 
ATOM     76  C   UNL A   1      44.071  28.834  27.314  1.00  0.00     0.173 A 
ATOM     77  F   UNL A   1      45.923  27.640  30.191  1.00  0.00    -0.203 F 
ATOM     78  C   UNL A   1      45.404  26.548  28.188  1.00  0.00     0.198 A 
ATOM     79  C   UNL A   1      44.101  27.669  26.531  1.00  0.00     0.198 A 
ATOM     80  F   UNL A   1      43.357  29.879  26.877  1.00  0.00    -0.203 F 
ATOM     81  F   UNL A   1      45.948  25.424  28.681  1.00  0.00    -0.200 F 
ATOM     82  C   UNL A   1      44.744  26.523  26.980  1.00  0.00     0.200 A 
ATOM     83  F   UNL A   1      43.413  27.621  25.382  1.00  0.00    -0.200 F 
ATOM     84  F   UNL A   1      44.656  25.377  26.291  1.00  0.00    -0.200 F 
ENDBRANCH  50  74
BRANCH  62  85
ATOM     85  C   UNL A   1      42.568  35.708  29.443  1.00  0.00     0.064 A 
ATOM     86  C   UNL A   1      43.386  36.648  30.092  1.00  0.00     0.173 A 
ATOM     87  C   UNL A   1      41.980  36.145  28.230  1.00  0.00     0.173 A 
ATOM     88  F   UNL A   1      44.081  36.338  31.194  1.00  0.00    -0.203 F 
ATOM     89  C   UNL A   1      43.575  37.934  29.587  1.00  0.00     0.198 A 
ATOM     90  C   UNL A   1      42.223  37.407  27.698  1.00  0.00     0.198 A 
ATOM     91  F   UNL A   1      41.193  35.347  27.495  1.00  0.00    -0.203 F 
ATOM     92  F   UNL A   1      44.345  38.798  30.261  1.00  0.00    -0.200 F 
ATOM     93  C   UNL A   1      43.012  38.306  28.383  1.00  0.00     0.200 A 
ATOM     94  F   UNL A   1      41.715  37.731  26.502  1.00  0.00    -0.200 F 
ATOM     95  F   UNL A   1      43.250  39.521  27.871  1.00  0.00    -0.200 F 
ENDBRANCH  62  85
ENDBRANCH  36  37
ENDBRANCH  29  31
ENDBRANCH  28  29
ENDBRANCH  27  28
ENDBRANCH  26  27
ENDBRANCH  25  26
ENDBRANCH  24  25
ENDBRANCH   1  24
TORSDOF 19
ENDMDL
MODEL 3
REMARK VINA RESULT:     -11.5      3.651     10.148
REMARK SMILES Cc1ccc(CSCC(=O)N[C@H]2C=C[C@@H](C(=O)OCCOCCOC(=O)c3ccc(-c4c5nc(c(-c6c(F)c(F)c(F)c(F)c6F)c6ccc([nH]6)c(-c6c(F)c(F)c(F)c(F)c6F)c6nc(c(-c7c(F)c(F)c(F)c(F)c7F)c7ccc4[nH]7)C=C6)C=C5)cc3)C2)cc1
REMARK SMILES IDX 19 1 18 2 16 3 17 4 15 5 12 6 13 7 90 8 14 9 11 10 9 11
REMARK SMILES IDX 10 12 8 14 7 15 6 16 5 17 1 18 2 19 3 20 92 21 4 22 91 23
REMARK SMILES IDX 20 24 21 25 22 26 23 27 24 28 25 29 26 30 27 31 28 32 89 33
REMARK SMILES IDX 29 34 88 35 30 36 31 37 32 38 82 39 33 40 87 41 81 42 83 43
REMARK SMILES IDX 34 44 86 45 80 46 79 47 35 49 67 50 47 51 66 52 48 53 51 54
REMARK SMILES IDX 65 55 84 56 49 57 50 58 64 60 85 61 52 62 36 63 37 64 45 65
REMARK SMILES IDX 38 66 39 67 43 68 46 69 40 70 41 71 44 72 42 73 68 74 69 75
REMARK SMILES IDX 77 76 70 77 71 78 75 79 78 80 72 81 73 82 76 83 74 84 53 85
REMARK SMILES IDX 54 86 62 87 55 88 56 89 60 90 63 91 57 92 58 93 61 94 59 95
REMARK H PARENT 11 13 83 48 51 59
REMARK Flexibility Score: inf
ROOT
ATOM      1  C   UNL A   1      31.075  29.605  23.989  1.00  0.00     0.261 C 
ENDROOT
BRANCH   1   2
ATOM      2  O   UNL A   1      31.009  28.185  23.890  1.00  0.00    -0.463 OA
BRANCH   2   3
ATOM      3  C   UNL A   1      29.759  27.640  23.753  1.00  0.00     0.312 C 
ATOM      4  O   UNL A   1      28.828  28.128  23.154  1.00  0.00    -0.252 OA
BRANCH   3   5
ATOM      5  C   UNL A   1      29.708  26.323  24.508  1.00  0.00     0.124 C 
ATOM      6  C   UNL A   1      31.506  24.628  24.314  1.00  0.00     0.106 C 
ATOM      7  C   UNL A   1      31.663  25.501  25.512  1.00  0.00    -0.006 C 
ATOM      8  C   UNL A   1      30.227  25.166  23.637  1.00  0.00     0.048 C 
ATOM      9  C   UNL A   1      30.662  26.375  25.654  1.00  0.00    -0.014 C 
BRANCH   6  10
ATOM     10  N   UNL A   1      32.623  24.670  23.390  1.00  0.00    -0.349 N 
ATOM     11  C   UNL A   1      33.605  23.764  23.153  1.00  0.00     0.230 C 
ATOM     12  O   UNL A   1      34.037  23.703  21.996  1.00  0.00    -0.274 OA
ATOM     13  H   UNL A   1      32.677  25.490  22.846  1.00  0.00     0.164 HD
BRANCH  11  14
ATOM     14  C   UNL A   1      34.226  22.934  24.256  1.00  0.00     0.169 C 
BRANCH  14  15
ATOM     15  S   UNL A   1      33.202  21.474  24.676  1.00  0.00    -0.147 SA
BRANCH  15  16
ATOM     16  C   UNL A   1      34.506  20.202  24.853  1.00  0.00     0.105 C 
BRANCH  16  17
ATOM     17  C   UNL A   1      34.052  18.760  24.771  1.00  0.00    -0.038 A 
ATOM     18  C   UNL A   1      32.860  14.674  25.375  1.00  0.00     0.044 C 
ATOM     19  C   UNL A   1      33.193  16.092  25.022  1.00  0.00    -0.051 A 
ATOM     20  C   UNL A   1      34.394  16.389  24.372  1.00  0.00     0.004 A 
ATOM     21  C   UNL A   1      32.348  17.137  25.397  1.00  0.00     0.004 A 
ATOM     22  C   UNL A   1      34.823  17.713  24.250  1.00  0.00     0.005 A 
ATOM     23  C   UNL A   1      32.769  18.459  25.258  1.00  0.00     0.005 A 
ENDBRANCH  16  17
ENDBRANCH  15  16
ENDBRANCH  14  15
ENDBRANCH  11  14
ENDBRANCH   6  10
ENDBRANCH   3   5
ENDBRANCH   2   3
ENDBRANCH   1   2
BRANCH   1  24
ATOM     24  C   UNL A   1      31.468  30.017  25.375  1.00  0.00     0.202 C 
BRANCH  24  25
ATOM     25  O   UNL A   1      32.648  29.289  25.681  1.00  0.00    -0.374 OA
BRANCH  25  26
ATOM     26  C   UNL A   1      33.177  29.528  26.977  1.00  0.00     0.202 C 
BRANCH  26  27
ATOM     27  C   UNL A   1      33.179  31.007  27.403  1.00  0.00     0.261 C 
BRANCH  27  28
ATOM     28  O   UNL A   1      34.538  31.480  27.466  1.00  0.00    -0.460 OA
BRANCH  28  29
ATOM     29  C   UNL A   1      35.143  31.417  28.682  1.00  0.00     0.338 C 
ATOM     30  O   UNL A   1      35.114  32.291  29.538  1.00  0.00    -0.246 OA
BRANCH  29  31
ATOM     31  C   UNL A   1      36.108  30.279  28.687  1.00  0.00     0.060 A 
ATOM     32  C   UNL A   1      36.416  29.625  29.894  1.00  0.00     0.016 A 
ATOM     33  C   UNL A   1      36.922  30.090  27.571  1.00  0.00     0.016 A 
ATOM     34  C   UNL A   1      37.614  28.904  30.018  1.00  0.00     0.010 A 
ATOM     35  C   UNL A   1      38.137  29.450  27.723  1.00  0.00     0.010 A 
ATOM     36  C   UNL A   1      38.513  28.886  28.950  1.00  0.00    -0.014 A 
BRANCH  36  37
ATOM     37  C   UNL A   1      39.902  28.419  29.023  1.00  0.00     0.031 A 
ATOM     38  C   UNL A   1      40.229  27.045  28.599  1.00  0.00     0.074 A 
ATOM     39  C   UNL A   1      40.931  29.254  29.300  1.00  0.00     0.049 A 
ATOM     40  N   UNL A   1      41.243  26.383  29.047  1.00  0.00    -0.248 NA
ATOM     41  C   UNL A   1      39.438  26.295  27.628  1.00  0.00     0.031 C 
ATOM     42  C   UNL A   1      42.367  29.047  29.100  1.00  0.00     0.029 A 
ATOM     43  N   UNL A   1      40.891  30.487  29.952  1.00  0.00    -0.354 N 
ATOM     44  C   UNL A   1      41.441  25.330  28.188  1.00  0.00     0.074 A 
ATOM     45  C   UNL A   1      40.235  25.250  27.398  1.00  0.00     0.031 C 
ATOM     46  C   UNL A   1      43.050  29.893  29.894  1.00  0.00     0.029 A 
ATOM     47  C   UNL A   1      42.066  30.587  30.707  1.00  0.00     0.049 A 
ATOM     48  H   UNL A   1      40.175  31.159  29.892  1.00  0.00     0.167 HD
ATOM     49  C   UNL A   1      42.677  24.762  28.098  1.00  0.00     0.037 A 
ATOM     50  C   UNL A   1      42.034  30.747  32.057  1.00  0.00     0.037 A 
ATOM     51  C   UNL A   1      43.647  25.454  28.951  1.00  0.00     0.049 A 
ATOM     52  C   UNL A   1      42.876  29.683  32.678  1.00  0.00     0.074 A 
ATOM     53  C   UNL A   1      44.666  26.352  28.668  1.00  0.00     0.029 A 
ATOM     54  N   UNL A   1      43.443  25.529  30.330  1.00  0.00    -0.354 N 
ATOM     55  N   UNL A   1      42.990  28.500  32.141  1.00  0.00    -0.248 NA
ATOM     56  C   UNL A   1      43.723  29.870  33.849  1.00  0.00     0.031 C 
ATOM     57  C   UNL A   1      45.091  26.945  29.882  1.00  0.00     0.029 A 
ATOM     58  C   UNL A   1      44.328  26.418  30.909  1.00  0.00     0.049 A 
ATOM     59  H   UNL A   1      42.762  25.017  30.822  1.00  0.00     0.167 HD
ATOM     60  C   UNL A   1      43.969  27.815  32.797  1.00  0.00     0.074 A 
ATOM     61  C   UNL A   1      44.362  28.686  33.890  1.00  0.00     0.031 C 
ATOM     62  C   UNL A   1      44.397  26.603  32.352  1.00  0.00     0.037 A 
BRANCH  49  63
ATOM     63  C   UNL A   1      43.051  23.811  26.979  1.00  0.00     0.064 A 
ATOM     64  C   UNL A   1      42.741  22.436  27.039  1.00  0.00     0.173 A 
ATOM     65  C   UNL A   1      43.752  24.203  25.822  1.00  0.00     0.173 A 
ATOM     66  F   UNL A   1      41.963  21.930  28.003  1.00  0.00    -0.203 F 
ATOM     67  C   UNL A   1      43.211  21.518  26.098  1.00  0.00     0.198 A 
ATOM     68  C   UNL A   1      44.276  23.279  24.912  1.00  0.00     0.198 A 
ATOM     69  F   UNL A   1      43.905  25.497  25.510  1.00  0.00    -0.203 F 
ATOM     70  F   UNL A   1      42.886  20.222  26.214  1.00  0.00    -0.200 F 
ATOM     71  C   UNL A   1      44.014  21.933  25.057  1.00  0.00     0.200 A 
ATOM     72  F   UNL A   1      45.034  23.705  23.891  1.00  0.00    -0.200 F 
ATOM     73  F   UNL A   1      44.503  21.045  24.180  1.00  0.00    -0.200 F 
ENDBRANCH  49  63
BRANCH  50  74
ATOM     74  C   UNL A   1      40.739  31.304  32.555  1.00  0.00     0.064 A 
ATOM     75  C   UNL A   1      40.523  32.694  32.410  1.00  0.00     0.173 A 
ATOM     76  C   UNL A   1      39.613  30.524  32.824  1.00  0.00     0.173 A 
ATOM     77  F   UNL A   1      41.548  33.493  32.072  1.00  0.00    -0.203 F 
ATOM     78  C   UNL A   1      39.248  33.257  32.427  1.00  0.00     0.198 A 
ATOM     79  C   UNL A   1      38.331  31.095  32.853  1.00  0.00     0.198 A 
ATOM     80  F   UNL A   1      39.723  29.195  32.952  1.00  0.00    -0.203 F 
ATOM     81  F   UNL A   1      39.085  34.552  32.115  1.00  0.00    -0.200 F 
ATOM     82  C   UNL A   1      38.148  32.453  32.628  1.00  0.00     0.200 A 
ATOM     83  F   UNL A   1      37.254  30.309  32.992  1.00  0.00    -0.200 F 
ATOM     84  F   UNL A   1      36.916  32.968  32.525  1.00  0.00    -0.200 F 
ENDBRANCH  50  74
BRANCH  62  85
ATOM     85  C   UNL A   1      45.010  25.531  33.210  1.00  0.00     0.064 A 
ATOM     86  C   UNL A   1      46.396  25.336  33.333  1.00  0.00     0.173 A 
ATOM     87  C   UNL A   1      44.208  24.799  34.119  1.00  0.00     0.173 A 
ATOM     88  F   UNL A   1      47.275  26.037  32.605  1.00  0.00    -0.203 F 
ATOM     89  C   UNL A   1      46.936  24.455  34.268  1.00  0.00     0.198 A 
ATOM     90  C   UNL A   1      44.755  23.969  35.093  1.00  0.00     0.198 A 
ATOM     91  F   UNL A   1      42.871  24.902  34.129  1.00  0.00    -0.203 F 
ATOM     92  F   UNL A   1      48.264  24.288  34.325  1.00  0.00    -0.200 F 
ATOM     93  C   UNL A   1      46.119  23.788  35.160  1.00  0.00     0.200 A 
ATOM     94  F   UNL A   1      43.951  23.374  35.984  1.00  0.00    -0.200 F 
ATOM     95  F   UNL A   1      46.649  22.992  36.097  1.00  0.00    -0.200 F 
ENDBRANCH  62  85
ENDBRANCH  36  37
ENDBRANCH  29  31
ENDBRANCH  28  29
ENDBRANCH  27  28
ENDBRANCH  26  27
ENDBRANCH  25  26
ENDBRANCH  24  25
ENDBRANCH   1  24
TORSDOF 19
ENDMDL
