MODEL 1
REMARK VINA RESULT:     -11.7      0.000      0.000
REMARK SMILES CCOC(=O)C1=C(C)N(c2ccccc2)C(=O)[C@@H]1CC(=O)OCCOCCOC(=O)c1ccc(-c2c3nc(c(-c4c(F)c(F)c(F)c(F)c4F)c4ccc([nH]4)c(-c4c(F)c(F)c(F)c(F)c4F)c4nc(c(-c5c(F)c(F)c(F)c(F)c5F)c5ccc2[nH]5)C=C4)C=C3)cc1
REMARK SMILES IDX 24 1 23 2 22 3 20 4 21 5 19 6 18 7 6 8 7 9 8 10 9 11 16 12
REMARK SMILES IDX 17 13 4 14 5 15 3 16 2 17 1 18 10 19 11 20 15 21 12 22 14 23
REMARK SMILES IDX 13 24 25 25 26 26 27 27 28 28 29 29 30 30 31 31 32 32 93 33
REMARK SMILES IDX 33 34 92 35 34 36 35 37 36 38 86 39 37 40 91 41 85 42 87 43
REMARK SMILES IDX 38 44 90 45 84 46 83 47 39 49 71 50 51 51 70 52 52 53 55 54
REMARK SMILES IDX 69 55 88 56 53 57 54 58 68 60 89 61 56 62 40 63 41 64 49 65
REMARK SMILES IDX 42 66 43 67 47 68 50 69 44 70 45 71 48 72 46 73 72 74 73 75
REMARK SMILES IDX 81 76 74 77 75 78 79 79 82 80 76 81 77 82 80 83 78 84 57 85
REMARK SMILES IDX 58 86 66 87 59 88 60 89 64 90 67 91 61 92 62 93 65 94 63 95
REMARK H PARENT 87 48 55 59
REMARK Flexibility Score: inf
ROOT
ATOM      1  C   UNL A   1      30.944  29.155  24.211  1.00  0.00     0.202 C 
ENDROOT
BRANCH   1   2
ATOM      2  C   UNL A   1      31.712  28.697  22.969  1.00  0.00     0.261 C 
BRANCH   2   3
ATOM      3  O   UNL A   1      33.003  28.171  23.335  1.00  0.00    -0.463 OA
BRANCH   3   4
ATOM      4  C   UNL A   1      33.415  27.023  22.749  1.00  0.00     0.307 C 
ATOM      5  O   UNL A   1      33.692  26.890  21.566  1.00  0.00    -0.252 OA
BRANCH   4   6
ATOM      6  C   UNL A   1      33.485  25.893  23.748  1.00  0.00     0.141 C 
BRANCH   6   7
ATOM      7  C   UNL A   1      32.363  24.869  23.574  1.00  0.00     0.130 C 
ATOM      8  C   UNL A   1      31.679  24.533  24.864  1.00  0.00     0.070 C 
ATOM      9  C   UNL A   1      31.873  23.266  25.254  1.00  0.00     0.034 C 
ATOM     10  C   UNL A   1      31.452  22.657  26.550  1.00  0.00     0.065 C 
ATOM     11  N   UNL A   1      32.649  22.618  24.310  1.00  0.00    -0.284 N 
ATOM     12  C   UNL A   1      32.943  23.494  23.243  1.00  0.00     0.239 C 
ATOM     13  O   UNL A   1      33.533  23.234  22.202  1.00  0.00    -0.273 OA
BRANCH   8  14
ATOM     14  C   UNL A   1      30.938  25.532  25.629  1.00  0.00     0.336 C 
ATOM     15  O   UNL A   1      29.881  26.019  25.258  1.00  0.00    -0.246 OA
BRANCH  14  16
ATOM     16  O   UNL A   1      31.620  25.810  26.763  1.00  0.00    -0.463 OA
BRANCH  16  17
ATOM     17  C   UNL A   1      32.284  27.085  26.781  1.00  0.00     0.230 C 
ATOM     18  C   UNL A   1      31.557  28.059  27.692  1.00  0.00     0.049 C 
ENDBRANCH  16  17
ENDBRANCH  14  16
ENDBRANCH   8  14
BRANCH  11  19
ATOM     19  C   UNL A   1      33.142  21.284  24.329  1.00  0.00     0.049 A 
ATOM     20  C   UNL A   1      32.360  20.203  23.907  1.00  0.00     0.027 A 
ATOM     21  C   UNL A   1      34.440  21.022  24.794  1.00  0.00     0.027 A 
ATOM     22  C   UNL A   1      32.851  18.895  23.968  1.00  0.00     0.002 A 
ATOM     23  C   UNL A   1      34.926  19.715  24.875  1.00  0.00     0.002 A 
ATOM     24  C   UNL A   1      34.129  18.651  24.464  1.00  0.00     0.000 A 
ENDBRANCH  11  19
ENDBRANCH   6   7
ENDBRANCH   4   6
ENDBRANCH   3   4
ENDBRANCH   2   3
ENDBRANCH   1   2
BRANCH   1  25
ATOM     25  O   UNL A   1      31.633  30.123  25.010  1.00  0.00    -0.374 OA
BRANCH  25  26
ATOM     26  C   UNL A   1      30.858  31.236  25.447  1.00  0.00     0.202 C 
BRANCH  26  27
ATOM     27  C   UNL A   1      31.383  31.928  26.709  1.00  0.00     0.261 C 
BRANCH  27  28
ATOM     28  O   UNL A   1      32.735  31.531  27.001  1.00  0.00    -0.460 OA
BRANCH  28  29
ATOM     29  C   UNL A   1      33.459  32.474  27.649  1.00  0.00     0.338 C 
ATOM     30  O   UNL A   1      33.049  33.531  28.104  1.00  0.00    -0.246 OA
BRANCH  29  31
ATOM     31  C   UNL A   1      34.853  32.029  27.863  1.00  0.00     0.060 A 
ATOM     32  C   UNL A   1      35.056  30.650  27.997  1.00  0.00     0.016 A 
ATOM     33  C   UNL A   1      35.918  32.918  28.038  1.00  0.00     0.016 A 
ATOM     34  C   UNL A   1      36.295  30.161  28.400  1.00  0.00     0.010 A 
ATOM     35  C   UNL A   1      37.165  32.425  28.446  1.00  0.00     0.010 A 
ATOM     36  C   UNL A   1      37.340  31.050  28.684  1.00  0.00    -0.014 A 
BRANCH  36  37
ATOM     37  C   UNL A   1      38.519  30.529  29.421  1.00  0.00     0.031 A 
ATOM     38  C   UNL A   1      38.702  30.923  30.863  1.00  0.00     0.074 A 
ATOM     39  C   UNL A   1      39.353  29.639  28.858  1.00  0.00     0.049 A 
ATOM     40  N   UNL A   1      39.589  30.512  31.734  1.00  0.00    -0.248 NA
ATOM     41  C   UNL A   1      37.749  31.909  31.398  1.00  0.00     0.031 C 
ATOM     42  C   UNL A   1      39.266  29.152  27.484  1.00  0.00     0.029 A 
ATOM     43  N   UNL A   1      40.431  28.973  29.387  1.00  0.00    -0.354 N 
ATOM     44  C   UNL A   1      39.297  31.181  32.915  1.00  0.00     0.074 A 
ATOM     45  C   UNL A   1      38.176  32.054  32.643  1.00  0.00     0.031 C 
ATOM     46  C   UNL A   1      40.247  28.255  27.278  1.00  0.00     0.029 A 
ATOM     47  C   UNL A   1      41.036  28.117  28.502  1.00  0.00     0.049 A 
ATOM     48  H   UNL A   1      40.741  29.098  30.313  1.00  0.00     0.167 HD
ATOM     49  C   UNL A   1      39.896  31.069  34.124  1.00  0.00     0.037 A 
ATOM     50  C   UNL A   1      42.102  27.309  28.665  1.00  0.00     0.037 A 
ATOM     51  C   UNL A   1      41.009  30.202  34.404  1.00  0.00     0.049 A 
ATOM     52  C   UNL A   1      42.777  27.230  30.011  1.00  0.00     0.074 A 
ATOM     53  C   UNL A   1      41.688  30.022  35.597  1.00  0.00     0.029 A 
ATOM     54  N   UNL A   1      41.610  29.368  33.472  1.00  0.00    -0.354 N 
ATOM     55  N   UNL A   1      42.475  27.846  31.128  1.00  0.00    -0.248 NA
ATOM     56  C   UNL A   1      43.932  26.328  30.119  1.00  0.00     0.031 C 
ATOM     57  C   UNL A   1      42.723  29.105  35.378  1.00  0.00     0.029 A 
ATOM     58  C   UNL A   1      42.660  28.681  34.061  1.00  0.00     0.049 A 
ATOM     59  H   UNL A   1      41.332  29.279  32.533  1.00  0.00     0.167 HD
ATOM     60  C   UNL A   1      43.379  27.383  32.076  1.00  0.00     0.074 A 
ATOM     61  C   UNL A   1      44.233  26.425  31.406  1.00  0.00     0.031 C 
ATOM     62  C   UNL A   1      43.490  27.719  33.385  1.00  0.00     0.037 A 
BRANCH  49  63
ATOM     63  C   UNL A   1      39.363  31.923  35.237  1.00  0.00     0.064 A 
ATOM     64  C   UNL A   1      39.685  33.285  35.335  1.00  0.00     0.173 A 
ATOM     65  C   UNL A   1      38.506  31.378  36.203  1.00  0.00     0.173 A 
ATOM     66  F   UNL A   1      40.514  33.849  34.444  1.00  0.00    -0.203 F 
ATOM     67  C   UNL A   1      39.186  34.065  36.375  1.00  0.00     0.198 A 
ATOM     68  C   UNL A   1      37.990  32.166  37.228  1.00  0.00     0.198 A 
ATOM     69  F   UNL A   1      38.167  30.081  36.152  1.00  0.00    -0.203 F 
ATOM     70  F   UNL A   1      39.541  35.353  36.474  1.00  0.00    -0.200 F 
ATOM     71  C   UNL A   1      38.335  33.507  37.317  1.00  0.00     0.200 A 
ATOM     72  F   UNL A   1      37.160  31.628  38.132  1.00  0.00    -0.200 F 
ATOM     73  F   UNL A   1      37.853  34.258  38.316  1.00  0.00    -0.200 F 
ENDBRANCH  49  63
BRANCH  50  74
ATOM     74  C   UNL A   1      42.595  26.491  27.528  1.00  0.00     0.064 A 
ATOM     75  C   UNL A   1      42.138  25.182  27.323  1.00  0.00     0.173 A 
ATOM     76  C   UNL A   1      43.555  26.995  26.639  1.00  0.00     0.173 A 
ATOM     77  F   UNL A   1      41.239  24.648  28.163  1.00  0.00    -0.203 F 
ATOM     78  C   UNL A   1      42.639  24.400  26.284  1.00  0.00     0.198 A 
ATOM     79  C   UNL A   1      44.037  26.221  25.586  1.00  0.00     0.198 A 
ATOM     80  F   UNL A   1      44.027  28.241  26.795  1.00  0.00    -0.203 F 
ATOM     81  F   UNL A   1      42.222  23.134  26.141  1.00  0.00    -0.200 F 
ATOM     82  C   UNL A   1      43.585  24.921  25.415  1.00  0.00     0.200 A 
ATOM     83  F   UNL A   1      44.945  26.730  24.743  1.00  0.00    -0.200 F 
ATOM     84  F   UNL A   1      44.067  24.167  24.418  1.00  0.00    -0.200 F 
ENDBRANCH  50  74
BRANCH  62  85
ATOM     85  C   UNL A   1      44.543  27.013  34.190  1.00  0.00     0.064 A 
ATOM     86  C   UNL A   1      44.285  25.794  34.834  1.00  0.00     0.173 A 
ATOM     87  C   UNL A   1      45.833  27.553  34.296  1.00  0.00     0.173 A 
ATOM     88  F   UNL A   1      43.063  25.243  34.773  1.00  0.00    -0.203 F 
ATOM     89  C   UNL A   1      45.273  25.158  35.581  1.00  0.00     0.198 A 
ATOM     90  C   UNL A   1      46.827  26.900  35.021  1.00  0.00     0.198 A 
ATOM     91  F   UNL A   1      46.134  28.712  33.692  1.00  0.00    -0.203 F 
ATOM     92  F   UNL A   1      44.991  24.020  36.230  1.00  0.00    -0.200 F 
ATOM     93  C   UNL A   1      46.543  25.708  35.670  1.00  0.00     0.200 A 
ATOM     94  F   UNL A   1      48.057  27.427  35.096  1.00  0.00    -0.200 F 
ATOM     95  F   UNL A   1      47.492  25.094  36.390  1.00  0.00    -0.200 F 
ENDBRANCH  62  85
ENDBRANCH  36  37
ENDBRANCH  29  31
ENDBRANCH  28  29
ENDBRANCH  27  28
ENDBRANCH  26  27
ENDBRANCH  25  26
ENDBRANCH   1  25
TORSDOF 19
ENDMDL
MODEL 2
REMARK VINA RESULT:     -11.6      0.926      2.003
REMARK SMILES CCOC(=O)C1=C(C)N(c2ccccc2)C(=O)[C@@H]1CC(=O)OCCOCCOC(=O)c1ccc(-c2c3nc(c(-c4c(F)c(F)c(F)c(F)c4F)c4ccc([nH]4)c(-c4c(F)c(F)c(F)c(F)c4F)c4nc(c(-c5c(F)c(F)c(F)c(F)c5F)c5ccc2[nH]5)C=C4)C=C3)cc1
REMARK SMILES IDX 24 1 23 2 22 3 20 4 21 5 19 6 18 7 6 8 7 9 8 10 9 11 16 12
REMARK SMILES IDX 17 13 4 14 5 15 3 16 2 17 1 18 10 19 11 20 15 21 12 22 14 23
REMARK SMILES IDX 13 24 25 25 26 26 27 27 28 28 29 29 30 30 31 31 32 32 93 33
REMARK SMILES IDX 33 34 92 35 34 36 35 37 36 38 86 39 37 40 91 41 85 42 87 43
REMARK SMILES IDX 38 44 90 45 84 46 83 47 39 49 71 50 51 51 70 52 52 53 55 54
REMARK SMILES IDX 69 55 88 56 53 57 54 58 68 60 89 61 56 62 40 63 41 64 49 65
REMARK SMILES IDX 42 66 43 67 47 68 50 69 44 70 45 71 48 72 46 73 72 74 73 75
REMARK SMILES IDX 81 76 74 77 75 78 79 79 82 80 76 81 77 82 80 83 78 84 57 85
REMARK SMILES IDX 58 86 66 87 59 88 60 89 64 90 67 91 61 92 62 93 65 94 63 95
REMARK H PARENT 87 48 55 59
REMARK Flexibility Score: inf
ROOT
ATOM      1  C   UNL A   1      31.697  29.560  24.245  1.00  0.00     0.202 C 
ENDROOT
BRANCH   1   2
ATOM      2  C   UNL A   1      32.906  28.801  23.693  1.00  0.00     0.261 C 
BRANCH   2   3
ATOM      3  O   UNL A   1      32.496  27.858  22.683  1.00  0.00    -0.463 OA
BRANCH   3   4
ATOM      4  C   UNL A   1      33.317  26.818  22.409  1.00  0.00     0.307 C 
ATOM      5  O   UNL A   1      33.607  26.418  21.292  1.00  0.00    -0.252 OA
BRANCH   4   6
ATOM      6  C   UNL A   1      33.839  26.185  23.677  1.00  0.00     0.141 C 
BRANCH   6   7
ATOM      7  C   UNL A   1      33.222  24.816  23.961  1.00  0.00     0.130 C 
ATOM      8  C   UNL A   1      33.022  24.562  25.425  1.00  0.00     0.070 C 
ATOM      9  C   UNL A   1      33.792  23.575  25.903  1.00  0.00     0.034 C 
ATOM     10  C   UNL A   1      33.939  23.171  27.332  1.00  0.00     0.065 C 
ATOM     11  N   UNL A   1      34.546  23.051  24.869  1.00  0.00    -0.284 N 
ATOM     12  C   UNL A   1      34.227  23.705  23.659  1.00  0.00     0.239 C 
ATOM     13  O   UNL A   1      34.637  23.442  22.535  1.00  0.00    -0.273 OA
BRANCH   8  14
ATOM     14  C   UNL A   1      32.119  25.376  26.234  1.00  0.00     0.336 C 
ATOM     15  O   UNL A   1      32.443  26.435  26.748  1.00  0.00    -0.246 OA
BRANCH  14  16
ATOM     16  O   UNL A   1      30.921  24.754  26.314  1.00  0.00    -0.463 OA
BRANCH  16  17
ATOM     17  C   UNL A   1      29.788  25.560  25.953  1.00  0.00     0.230 C 
ATOM     18  C   UNL A   1      29.997  26.208  24.595  1.00  0.00     0.049 C 
ENDBRANCH  16  17
ENDBRANCH  14  16
ENDBRANCH   8  14
BRANCH  11  19
ATOM     19  C   UNL A   1      35.531  22.026  24.918  1.00  0.00     0.049 A 
ATOM     20  C   UNL A   1      36.896  22.321  25.008  1.00  0.00     0.027 A 
ATOM     21  C   UNL A   1      35.145  20.679  24.860  1.00  0.00     0.027 A 
ATOM     22  C   UNL A   1      37.851  21.299  25.018  1.00  0.00     0.002 A 
ATOM     23  C   UNL A   1      36.098  19.657  24.849  1.00  0.00     0.002 A 
ATOM     24  C   UNL A   1      37.451  19.968  24.926  1.00  0.00     0.000 A 
ENDBRANCH  11  19
ENDBRANCH   6   7
ENDBRANCH   4   6
ENDBRANCH   3   4
ENDBRANCH   2   3
ENDBRANCH   1   2
BRANCH   1  25
ATOM     25  O   UNL A   1      31.940  30.244  25.480  1.00  0.00    -0.374 OA
BRANCH  25  26
ATOM     26  C   UNL A   1      31.024  31.284  25.807  1.00  0.00     0.202 C 
BRANCH  26  27
ATOM     27  C   UNL A   1      31.540  32.294  26.837  1.00  0.00     0.261 C 
BRANCH  27  28
ATOM     28  O   UNL A   1      32.757  31.838  27.455  1.00  0.00    -0.460 OA
BRANCH  28  29
ATOM     29  C   UNL A   1      33.605  32.832  27.807  1.00  0.00     0.338 C 
ATOM     30  O   UNL A   1      33.315  33.996  28.040  1.00  0.00    -0.246 OA
BRANCH  29  31
ATOM     31  C   UNL A   1      34.980  32.325  27.999  1.00  0.00     0.060 A 
ATOM     32  C   UNL A   1      35.123  30.936  28.119  1.00  0.00     0.016 A 
ATOM     33  C   UNL A   1      36.085  33.164  28.168  1.00  0.00     0.016 A 
ATOM     34  C   UNL A   1      36.344  30.389  28.502  1.00  0.00     0.010 A 
ATOM     35  C   UNL A   1      37.315  32.612  28.556  1.00  0.00     0.010 A 
ATOM     36  C   UNL A   1      37.431  31.229  28.781  1.00  0.00    -0.014 A 
BRANCH  36  37
ATOM     37  C   UNL A   1      38.594  30.650  29.498  1.00  0.00     0.031 A 
ATOM     38  C   UNL A   1      38.817  31.027  30.939  1.00  0.00     0.074 A 
ATOM     39  C   UNL A   1      39.378  29.724  28.919  1.00  0.00     0.049 A 
ATOM     40  N   UNL A   1      39.696  30.570  31.795  1.00  0.00    -0.248 NA
ATOM     41  C   UNL A   1      37.918  32.054  31.492  1.00  0.00     0.031 C 
ATOM     42  C   UNL A   1      39.248  29.248  27.545  1.00  0.00     0.029 A 
ATOM     43  N   UNL A   1      40.431  29.005  29.430  1.00  0.00    -0.354 N 
ATOM     44  C   UNL A   1      39.453  31.247  32.983  1.00  0.00     0.074 A 
ATOM     45  C   UNL A   1      38.370  32.173  32.731  1.00  0.00     0.031 C 
ATOM     46  C   UNL A   1      40.182  28.307  27.321  1.00  0.00     0.029 A 
ATOM     47  C   UNL A   1      40.982  28.126  28.532  1.00  0.00     0.049 A 
ATOM     48  H   UNL A   1      40.760  29.112  30.351  1.00  0.00     0.167 HD
ATOM     49  C   UNL A   1      40.063  31.101  34.183  1.00  0.00     0.037 A 
ATOM     50  C   UNL A   1      42.011  27.268  28.677  1.00  0.00     0.037 A 
ATOM     51  C   UNL A   1      41.138  30.182  34.443  1.00  0.00     0.049 A 
ATOM     52  C   UNL A   1      42.700  27.151  30.012  1.00  0.00     0.074 A 
ATOM     53  C   UNL A   1      41.824  29.964  35.625  1.00  0.00     0.029 A 
ATOM     54  N   UNL A   1      41.685  29.325  33.499  1.00  0.00    -0.354 N 
ATOM     55  N   UNL A   1      42.444  27.776  31.136  1.00  0.00    -0.248 NA
ATOM     56  C   UNL A   1      43.813  26.195  30.100  1.00  0.00     0.031 C 
ATOM     57  C   UNL A   1      42.812  29.001  35.388  1.00  0.00     0.029 A 
ATOM     58  C   UNL A   1      42.710  28.586  34.069  1.00  0.00     0.049 A 
ATOM     59  H   UNL A   1      41.390  29.254  32.563  1.00  0.00     0.167 HD
ATOM     60  C   UNL A   1      43.339  27.266  32.069  1.00  0.00     0.074 A 
ATOM     61  C   UNL A   1      44.137  26.272  31.382  1.00  0.00     0.031 C 
ATOM     62  C   UNL A   1      43.485  27.590  33.378  1.00  0.00     0.037 A 
BRANCH  49  63
ATOM     63  C   UNL A   1      39.587  31.973  35.307  1.00  0.00     0.064 A 
ATOM     64  C   UNL A   1      38.594  31.543  36.201  1.00  0.00     0.173 A 
ATOM     65  C   UNL A   1      40.144  33.245  35.505  1.00  0.00     0.173 A 
ATOM     66  F   UNL A   1      38.019  30.341  36.043  1.00  0.00    -0.203 F 
ATOM     67  C   UNL A   1      38.159  32.366  37.237  1.00  0.00     0.198 A 
ATOM     68  C   UNL A   1      39.724  34.054  36.557  1.00  0.00     0.198 A 
ATOM     69  F   UNL A   1      41.097  33.701  34.679  1.00  0.00    -0.203 F 
ATOM     70  F   UNL A   1      37.179  31.952  38.051  1.00  0.00    -0.200 F 
ATOM     71  C   UNL A   1      38.728  33.617  37.417  1.00  0.00     0.200 A 
ATOM     72  F   UNL A   1      40.281  35.260  36.736  1.00  0.00    -0.200 F 
ATOM     73  F   UNL A   1      38.311  34.406  38.416  1.00  0.00    -0.200 F 
ENDBRANCH  49  63
BRANCH  50  74
ATOM     74  C   UNL A   1      42.448  26.434  27.529  1.00  0.00     0.064 A 
ATOM     75  C   UNL A   1      41.860  25.188  27.271  1.00  0.00     0.173 A 
ATOM     76  C   UNL A   1      43.485  26.854  26.684  1.00  0.00     0.173 A 
ATOM     77  F   UNL A   1      40.883  24.731  28.069  1.00  0.00    -0.203 F 
ATOM     78  C   UNL A   1      42.306  24.385  26.223  1.00  0.00     0.198 A 
ATOM     79  C   UNL A   1      43.913  26.062  25.621  1.00  0.00     0.198 A 
ATOM     80  F   UNL A   1      44.083  28.037  26.892  1.00  0.00    -0.203 F 
ATOM     81  F   UNL A   1      41.760  23.177  26.029  1.00  0.00    -0.200 F 
ATOM     82  C   UNL A   1      43.329  24.824  25.397  1.00  0.00     0.200 A 
ATOM     83  F   UNL A   1      44.897  26.493  24.821  1.00  0.00    -0.200 F 
ATOM     84  F   UNL A   1      43.759  24.051  24.391  1.00  0.00    -0.200 F 
ENDBRANCH  50  74
BRANCH  62  85
ATOM     85  C   UNL A   1      44.514  26.831  34.164  1.00  0.00     0.064 A 
ATOM     86  C   UNL A   1      45.830  27.299  34.302  1.00  0.00     0.173 A 
ATOM     87  C   UNL A   1      44.171  25.633  34.809  1.00  0.00     0.173 A 
ATOM     88  F   UNL A   1      46.210  28.433  33.694  1.00  0.00    -0.203 F 
ATOM     89  C   UNL A   1      46.772  26.577  35.030  1.00  0.00     0.198 A 
ATOM     90  C   UNL A   1      45.109  24.928  35.559  1.00  0.00     0.198 A 
ATOM     91  F   UNL A   1      42.924  25.148  34.715  1.00  0.00    -0.203 F 
ATOM     92  F   UNL A   1      48.036  27.015  35.107  1.00  0.00    -0.200 F 
ATOM     93  C   UNL A   1      46.410  25.396  35.662  1.00  0.00     0.200 A 
ATOM     94  F   UNL A   1      44.754  23.794  36.179  1.00  0.00    -0.200 F 
ATOM     95  F   UNL A   1      47.318  24.703  36.362  1.00  0.00    -0.200 F 
ENDBRANCH  62  85
ENDBRANCH  36  37
ENDBRANCH  29  31
ENDBRANCH  28  29
ENDBRANCH  27  28
ENDBRANCH  26  27
ENDBRANCH  25  26
ENDBRANCH   1  25
TORSDOF 19
ENDMDL
MODEL 3
REMARK VINA RESULT:     -11.6      1.344      7.291
REMARK SMILES CCOC(=O)C1=C(C)N(c2ccccc2)C(=O)[C@@H]1CC(=O)OCCOCCOC(=O)c1ccc(-c2c3nc(c(-c4c(F)c(F)c(F)c(F)c4F)c4ccc([nH]4)c(-c4c(F)c(F)c(F)c(F)c4F)c4nc(c(-c5c(F)c(F)c(F)c(F)c5F)c5ccc2[nH]5)C=C4)C=C3)cc1
REMARK SMILES IDX 24 1 23 2 22 3 20 4 21 5 19 6 18 7 6 8 7 9 8 10 9 11 16 12
REMARK SMILES IDX 17 13 4 14 5 15 3 16 2 17 1 18 10 19 11 20 15 21 12 22 14 23
REMARK SMILES IDX 13 24 25 25 26 26 27 27 28 28 29 29 30 30 31 31 32 32 93 33
REMARK SMILES IDX 33 34 92 35 34 36 35 37 36 38 86 39 37 40 91 41 85 42 87 43
REMARK SMILES IDX 38 44 90 45 84 46 83 47 39 49 71 50 51 51 70 52 52 53 55 54
REMARK SMILES IDX 69 55 88 56 53 57 54 58 68 60 89 61 56 62 40 63 41 64 49 65
REMARK SMILES IDX 42 66 43 67 47 68 50 69 44 70 45 71 48 72 46 73 72 74 73 75
REMARK SMILES IDX 81 76 74 77 75 78 79 79 82 80 76 81 77 82 80 83 78 84 57 85
REMARK SMILES IDX 58 86 66 87 59 88 60 89 64 90 67 91 61 92 62 93 65 94 63 95
REMARK H PARENT 87 48 55 59
REMARK Flexibility Score: inf
ROOT
ATOM      1  C   UNL A   1      30.341  28.764  22.806  1.00  0.00     0.202 C 
ENDROOT
BRANCH   1   2
ATOM      2  C   UNL A   1      31.139  27.482  23.059  1.00  0.00     0.261 C 
BRANCH   2   3
ATOM      3  O   UNL A   1      32.428  27.552  22.418  1.00  0.00    -0.463 OA
BRANCH   3   4
ATOM      4  C   UNL A   1      33.154  26.414  22.319  1.00  0.00     0.307 C 
ATOM      5  O   UNL A   1      33.424  25.833  21.279  1.00  0.00    -0.252 OA
BRANCH   4   6
ATOM      6  C   UNL A   1      33.597  25.928  23.678  1.00  0.00     0.141 C 
BRANCH   6   7
ATOM      7  C   UNL A   1      33.432  24.418  23.857  1.00  0.00     0.130 C 
ATOM      8  C   UNL A   1      33.074  24.036  25.261  1.00  0.00     0.070 C 
ATOM      9  C   UNL A   1      34.033  23.334  25.881  1.00  0.00     0.034 C 
ATOM     10  C   UNL A   1      34.052  22.926  27.317  1.00  0.00     0.065 C 
ATOM     11  N   UNL A   1      35.088  23.144  25.008  1.00  0.00    -0.284 N 
ATOM     12  C   UNL A   1      34.787  23.719  23.754  1.00  0.00     0.239 C 
ATOM     13  O   UNL A   1      35.453  23.665  22.727  1.00  0.00    -0.273 OA
BRANCH   8  14
ATOM     14  C   UNL A   1      31.825  24.462  25.883  1.00  0.00     0.336 C 
ATOM     15  O   UNL A   1      31.755  25.352  26.717  1.00  0.00    -0.246 OA
BRANCH  14  16
ATOM     16  O   UNL A   1      30.813  23.710  25.395  1.00  0.00    -0.463 OA
BRANCH  16  17
ATOM     17  C   UNL A   1      30.487  22.544  26.169  1.00  0.00     0.230 C 
ATOM     18  C   UNL A   1      29.418  22.863  27.201  1.00  0.00     0.049 C 
ENDBRANCH  16  17
ENDBRANCH  14  16
ENDBRANCH   8  14
BRANCH  11  19
ATOM     19  C   UNL A   1      36.334  22.500  25.246  1.00  0.00     0.049 A 
ATOM     20  C   UNL A   1      37.412  23.175  25.828  1.00  0.00     0.027 A 
ATOM     21  C   UNL A   1      36.511  21.158  24.879  1.00  0.00     0.027 A 
ATOM     22  C   UNL A   1      38.640  22.534  26.020  1.00  0.00     0.002 A 
ATOM     23  C   UNL A   1      37.743  20.521  25.052  1.00  0.00     0.002 A 
ATOM     24  C   UNL A   1      38.808  21.211  25.620  1.00  0.00     0.000 A 
ENDBRANCH  11  19
ENDBRANCH   6   7
ENDBRANCH   4   6
ENDBRANCH   3   4
ENDBRANCH   2   3
ENDBRANCH   1   2
BRANCH   1  25
ATOM     25  O   UNL A   1      30.344  29.689  23.899  1.00  0.00    -0.374 OA
BRANCH  25  26
ATOM     26  C   UNL A   1      31.314  29.450  24.915  1.00  0.00     0.202 C 
BRANCH  26  27
ATOM     27  C   UNL A   1      31.587  30.644  25.834  1.00  0.00     0.261 C 
BRANCH  27  28
ATOM     28  O   UNL A   1      32.630  30.349  26.781  1.00  0.00    -0.460 OA
BRANCH  28  29
ATOM     29  C   UNL A   1      33.294  31.440  27.230  1.00  0.00     0.338 C 
ATOM     30  O   UNL A   1      32.842  32.565  27.377  1.00  0.00    -0.246 OA
BRANCH  29  31
ATOM     31  C   UNL A   1      34.669  31.098  27.654  1.00  0.00     0.060 A 
ATOM     32  C   UNL A   1      34.941  29.738  27.854  1.00  0.00     0.016 A 
ATOM     33  C   UNL A   1      35.635  32.061  27.954  1.00  0.00     0.016 A 
ATOM     34  C   UNL A   1      36.138  29.344  28.443  1.00  0.00     0.010 A 
ATOM     35  C   UNL A   1      36.841  31.664  28.550  1.00  0.00     0.010 A 
ATOM     36  C   UNL A   1      37.070  30.309  28.849  1.00  0.00    -0.014 A 
BRANCH  36  37
ATOM     37  C   UNL A   1      38.162  29.885  29.761  1.00  0.00     0.031 A 
ATOM     38  C   UNL A   1      39.204  28.928  29.245  1.00  0.00     0.074 A 
ATOM     39  C   UNL A   1      38.290  30.419  30.987  1.00  0.00     0.049 A 
ATOM     40  N   UNL A   1      40.302  28.502  29.817  1.00  0.00    -0.248 NA
ATOM     41  C   UNL A   1      38.982  28.385  27.895  1.00  0.00     0.031 C 
ATOM     42  C   UNL A   1      37.370  31.379  31.591  1.00  0.00     0.029 A 
ATOM     43  N   UNL A   1      39.265  30.238  31.938  1.00  0.00    -0.354 N 
ATOM     44  C   UNL A   1      40.901  27.650  28.899  1.00  0.00     0.074 A 
ATOM     45  C   UNL A   1      40.029  27.587  27.746  1.00  0.00     0.031 C 
ATOM     46  C   UNL A   1      37.828  31.711  32.811  1.00  0.00     0.029 A 
ATOM     47  C   UNL A   1      39.065  30.978  33.076  1.00  0.00     0.049 A 
ATOM     48  H   UNL A   1      40.033  29.635  31.815  1.00  0.00     0.167 HD
ATOM     49  C   UNL A   1      42.080  26.991  28.997  1.00  0.00     0.037 A 
ATOM     50  C   UNL A   1      39.803  31.057  34.201  1.00  0.00     0.037 A 
ATOM     51  C   UNL A   1      42.953  27.049  30.137  1.00  0.00     0.049 A 
ATOM     52  C   UNL A   1      41.093  30.283  34.301  1.00  0.00     0.074 A 
ATOM     53  C   UNL A   1      44.167  26.413  30.332  1.00  0.00     0.029 A 
ATOM     54  N   UNL A   1      42.703  27.791  31.282  1.00  0.00    -0.354 N 
ATOM     55  N   UNL A   1      41.663  29.502  33.416  1.00  0.00    -0.248 NA
ATOM     56  C   UNL A   1      41.848  30.416  35.555  1.00  0.00     0.031 C 
ATOM     57  C   UNL A   1      44.634  26.741  31.610  1.00  0.00     0.029 A 
ATOM     58  C   UNL A   1      43.733  27.617  32.193  1.00  0.00     0.049 A 
ATOM     59  H   UNL A   1      41.910  28.355  31.427  1.00  0.00     0.167 HD
ATOM     60  C   UNL A   1      42.856  29.079  33.991  1.00  0.00     0.074 A 
ATOM     61  C   UNL A   1      42.932  29.700  35.297  1.00  0.00     0.031 C 
ATOM     62  C   UNL A   1      43.803  28.254  33.482  1.00  0.00     0.037 A 
BRANCH  49  63
ATOM     63  C   UNL A   1      42.484  26.131  27.835  1.00  0.00     0.064 A 
ATOM     64  C   UNL A   1      43.379  26.592  26.857  1.00  0.00     0.173 A 
ATOM     65  C   UNL A   1      41.988  24.826  27.709  1.00  0.00     0.173 A 
ATOM     66  F   UNL A   1      43.869  27.840  26.925  1.00  0.00    -0.203 F 
ATOM     67  C   UNL A   1      43.742  25.785  25.782  1.00  0.00     0.198 A 
ATOM     68  C   UNL A   1      42.372  24.013  26.647  1.00  0.00     0.198 A 
ATOM     69  F   UNL A   1      41.131  24.339  28.619  1.00  0.00    -0.203 F 
ATOM     70  F   UNL A   1      44.564  26.261  24.837  1.00  0.00    -0.200 F 
ATOM     71  C   UNL A   1      43.244  24.495  25.681  1.00  0.00     0.200 A 
ATOM     72  F   UNL A   1      41.897  22.764  26.555  1.00  0.00    -0.200 F 
ATOM     73  F   UNL A   1      43.596  23.719  24.648  1.00  0.00    -0.200 F 
ENDBRANCH  49  63
BRANCH  50  74
ATOM     74  C   UNL A   1      39.352  31.916  35.325  1.00  0.00     0.064 A 
ATOM     75  C   UNL A   1      38.518  31.413  36.334  1.00  0.00     0.173 A 
ATOM     76  C   UNL A   1      39.724  33.266  35.397  1.00  0.00     0.173 A 
ATOM     77  F   UNL A   1      38.114  30.135  36.292  1.00  0.00    -0.203 F 
ATOM     78  C   UNL A   1      38.056  32.234  37.361  1.00  0.00     0.198 A 
ATOM     79  C   UNL A   1      39.282  34.079  36.438  1.00  0.00     0.198 A 
ATOM     80  F   UNL A   1      40.517  33.795  34.454  1.00  0.00    -0.203 F 
ATOM     81  F   UNL A   1      37.220  31.741  38.284  1.00  0.00    -0.200 F 
ATOM     82  C   UNL A   1      38.441  33.565  37.414  1.00  0.00     0.200 A 
ATOM     83  F   UNL A   1      39.662  35.363  36.491  1.00  0.00    -0.200 F 
ATOM     84  F   UNL A   1      37.995  34.354  38.400  1.00  0.00    -0.200 F 
ENDBRANCH  50  74
BRANCH  62  85
ATOM     85  C   UNL A   1      45.025  28.010  34.319  1.00  0.00     0.064 A 
ATOM     86  C   UNL A   1      45.097  26.944  35.227  1.00  0.00     0.173 A 
ATOM     87  C   UNL A   1      46.148  28.841  34.190  1.00  0.00     0.173 A 
ATOM     88  F   UNL A   1      44.045  26.128  35.396  1.00  0.00    -0.203 F 
ATOM     89  C   UNL A   1      46.238  26.738  36.000  1.00  0.00     0.198 A 
ATOM     90  C   UNL A   1      47.297  28.616  34.944  1.00  0.00     0.198 A 
ATOM     91  F   UNL A   1      46.134  29.870  33.329  1.00  0.00    -0.203 F 
ATOM     92  F   UNL A   1      46.266  25.744  36.898  1.00  0.00    -0.200 F 
ATOM     93  C   UNL A   1      47.337  27.571  35.854  1.00  0.00     0.200 A 
ATOM     94  F   UNL A   1      48.363  29.414  34.794  1.00  0.00    -0.200 F 
ATOM     95  F   UNL A   1      48.434  27.372  36.598  1.00  0.00    -0.200 F 
ENDBRANCH  62  85
ENDBRANCH  36  37
ENDBRANCH  29  31
ENDBRANCH  28  29
ENDBRANCH  27  28
ENDBRANCH  26  27
ENDBRANCH  25  26
ENDBRANCH   1  25
TORSDOF 19
ENDMDL
