MODEL 1
REMARK VINA RESULT:     -11.9      0.000      0.000
REMARK SMILES Cc1nc(C)c(C(=O)N2CCC([C@H](C)C(=O)OCCOCCOC(=O)c3ccc(-c4c5nc(c(-c6c(F)c(F)c(F)c(F)c6F)c6ccc([nH]6)c(-c6c(F)c(F)c(F)c(F)c6F)c6nc(c(-c7c(F)c(F)c(F)c(F)c7F)c7ccc4[nH]7)C=C6)C=C5)cc3)CC2)s1
REMARK SMILES IDX 20 1 19 2 18 3 17 4 15 5 16 6 13 7 14 8 12 9 7 10 8 11 9 12
REMARK SMILES IDX 10 13 90 14 11 15 89 16 6 17 1 18 2 19 3 20 91 21 4 22 5 23
REMARK SMILES IDX 21 24 22 25 23 26 24 27 25 28 26 29 27 30 88 31 28 32 87 33
REMARK SMILES IDX 29 34 30 35 31 36 81 37 32 38 86 39 80 40 82 41 33 42 85 43
REMARK SMILES IDX 79 44 78 45 34 47 66 48 46 49 65 50 47 51 50 52 64 53 83 54
REMARK SMILES IDX 48 55 49 56 63 58 84 59 51 60 35 61 36 62 44 63 37 64 38 65
REMARK SMILES IDX 42 66 45 67 39 68 40 69 43 70 41 71 67 72 68 73 76 74 69 75
REMARK SMILES IDX 70 76 74 77 77 78 71 79 72 80 75 81 73 82 52 83 53 84 61 85
REMARK SMILES IDX 54 86 55 87 59 88 62 89 56 90 57 91 60 92 58 93
REMARK H PARENT 82 46 50 57
REMARK Flexibility Score: inf
ROOT
ATOM      1  O   UNL A   1      42.127  20.889  25.456  1.00  0.00    -0.374 OA
ENDROOT
BRANCH   1   2
ATOM      2  C   UNL A   1      41.313  20.489  26.556  1.00  0.00     0.202 C 
BRANCH   2   3
ATOM      3  C   UNL A   1      40.113  21.384  26.878  1.00  0.00     0.261 C 
BRANCH   3   4
ATOM      4  O   UNL A   1      39.474  21.880  25.688  1.00  0.00    -0.463 OA
BRANCH   4   5
ATOM      5  C   UNL A   1      38.118  21.771  25.645  1.00  0.00     0.309 C 
ATOM      6  O   UNL A   1      37.497  20.857  25.117  1.00  0.00    -0.252 OA
BRANCH   5   7
ATOM      7  C   UNL A   1      37.432  22.972  26.281  1.00  0.00     0.099 C 
ATOM      8  C   UNL A   1      38.322  24.220  26.228  1.00  0.00     0.020 C 
BRANCH   7   9
ATOM      9  C   UNL A   1      35.953  23.140  25.817  1.00  0.00     0.006 C 
ATOM     10  C   UNL A   1      31.936  24.530  26.190  1.00  0.00     0.265 C 
ATOM     11  O   UNL A   1      31.428  24.185  27.259  1.00  0.00    -0.268 OA
ATOM     12  N   UNL A   1      33.168  23.996  25.798  1.00  0.00    -0.338 N 
ATOM     13  C   UNL A   1      33.501  22.644  26.213  1.00  0.00     0.120 C 
ATOM     14  C   UNL A   1      34.120  24.655  24.909  1.00  0.00     0.120 C 
ATOM     15  C   UNL A   1      34.912  22.539  26.778  1.00  0.00     0.026 C 
ATOM     16  C   UNL A   1      35.538  24.588  25.475  1.00  0.00     0.026 C 
BRANCH  10  17
ATOM     17  C   UNL A   1      31.256  25.451  25.296  1.00  0.00     0.115 A 
ATOM     18  C   UNL A   1      30.122  28.795  23.675  1.00  0.00     0.079 C 
ATOM     19  C   UNL A   1      30.460  27.412  24.104  1.00  0.00     0.091 A 
ATOM     20  N   UNL A   1      30.193  26.330  23.406  1.00  0.00    -0.246 NA
ATOM     21  S   UNL A   1      31.293  27.148  25.574  1.00  0.00    -0.113 S 
ATOM     22  C   UNL A   1      30.686  25.204  24.056  1.00  0.00     0.061 A 
ATOM     23  C   UNL A   1      30.572  23.897  23.353  1.00  0.00     0.068 C 
ENDBRANCH  10  17
ENDBRANCH   7   9
ENDBRANCH   5   7
ENDBRANCH   4   5
ENDBRANCH   3   4
ENDBRANCH   2   3
ENDBRANCH   1   2
BRANCH   1  24
ATOM     24  C   UNL A   1      43.541  20.849  25.631  1.00  0.00     0.202 C 
BRANCH  24  25
ATOM     25  C   UNL A   1      44.336  22.013  25.027  1.00  0.00     0.261 C 
BRANCH  25  26
ATOM     26  O   UNL A   1      43.510  23.161  24.755  1.00  0.00    -0.460 OA
BRANCH  26  27
ATOM     27  C   UNL A   1      44.116  24.352  24.963  1.00  0.00     0.338 C 
ATOM     28  O   UNL A   1      45.146  24.763  24.442  1.00  0.00    -0.246 OA
BRANCH  27  29
ATOM     29  C   UNL A   1      43.290  25.218  25.821  1.00  0.00     0.060 A 
ATOM     30  C   UNL A   1      43.697  26.551  25.970  1.00  0.00     0.016 A 
ATOM     31  C   UNL A   1      42.223  24.713  26.568  1.00  0.00     0.016 A 
ATOM     32  C   UNL A   1      43.082  27.366  26.916  1.00  0.00     0.010 A 
ATOM     33  C   UNL A   1      41.611  25.533  27.523  1.00  0.00     0.010 A 
ATOM     34  C   UNL A   1      42.068  26.847  27.731  1.00  0.00    -0.014 A 
BRANCH  34  35
ATOM     35  C   UNL A   1      41.613  27.632  28.904  1.00  0.00     0.031 A 
ATOM     36  C   UNL A   1      42.369  27.515  30.200  1.00  0.00     0.074 A 
ATOM     37  C   UNL A   1      40.569  28.473  28.809  1.00  0.00     0.049 A 
ATOM     38  N   UNL A   1      42.153  28.108  31.347  1.00  0.00    -0.248 NA
ATOM     39  C   UNL A   1      43.526  26.607  30.200  1.00  0.00     0.031 C 
ATOM     40  C   UNL A   1      39.776  28.696  27.604  1.00  0.00     0.029 A 
ATOM     41  N   UNL A   1      39.996  29.291  29.750  1.00  0.00    -0.354 N 
ATOM     42  C   UNL A   1      43.143  27.644  32.203  1.00  0.00     0.074 A 
ATOM     43  C   UNL A   1      43.941  26.696  31.455  1.00  0.00     0.031 C 
ATOM     44  C   UNL A   1      38.803  29.581  27.882  1.00  0.00     0.029 A 
ATOM     45  C   UNL A   1      38.894  29.966  29.290  1.00  0.00     0.049 A 
ATOM     46  H   UNL A   1      40.341  29.384  30.668  1.00  0.00     0.167 HD
ATOM     47  C   UNL A   1      43.373  27.985  33.493  1.00  0.00     0.037 A 
ATOM     48  C   UNL A   1      38.044  30.787  29.938  1.00  0.00     0.037 A 
ATOM     49  C   UNL A   1      42.579  28.926  34.240  1.00  0.00     0.049 A 
ATOM     50  C   UNL A   1      38.286  31.110  31.389  1.00  0.00     0.074 A 
ATOM     51  C   UNL A   1      42.746  29.356  35.544  1.00  0.00     0.029 A 
ATOM     52  N   UNL A   1      41.457  29.575  33.746  1.00  0.00    -0.354 N 
ATOM     53  N   UNL A   1      39.245  30.697  32.182  1.00  0.00    -0.248 NA
ATOM     54  C   UNL A   1      37.330  32.023  32.034  1.00  0.00     0.031 C 
ATOM     55  C   UNL A   1      41.698  30.230  35.854  1.00  0.00     0.029 A 
ATOM     56  C   UNL A   1      40.905  30.381  34.729  1.00  0.00     0.049 A 
ATOM     57  H   UNL A   1      41.104  29.476  32.832  1.00  0.00     0.167 HD
ATOM     58  C   UNL A   1      39.021  31.309  33.408  1.00  0.00     0.074 A 
ATOM     59  C   UNL A   1      37.843  32.135  33.251  1.00  0.00     0.031 C 
ATOM     60  C   UNL A   1      39.729  31.195  34.559  1.00  0.00     0.037 A 
BRANCH  47  61
ATOM     61  C   UNL A   1      44.522  27.314  34.186  1.00  0.00     0.064 A 
ATOM     62  C   UNL A   1      45.807  27.877  34.198  1.00  0.00     0.173 A 
ATOM     63  C   UNL A   1      44.332  26.098  34.860  1.00  0.00     0.173 A 
ATOM     64  F   UNL A   1      46.043  29.031  33.557  1.00  0.00    -0.203 F 
ATOM     65  C   UNL A   1      46.866  27.231  34.831  1.00  0.00     0.198 A 
ATOM     66  C   UNL A   1      45.387  25.468  35.513  1.00  0.00     0.198 A 
ATOM     67  F   UNL A   1      43.122  25.519  34.882  1.00  0.00    -0.203 F 
ATOM     68  F   UNL A   1      48.096  27.762  34.786  1.00  0.00    -0.200 F 
ATOM     69  C   UNL A   1      46.655  26.030  35.492  1.00  0.00     0.200 A 
ATOM     70  F   UNL A   1      45.179  24.312  36.160  1.00  0.00    -0.200 F 
ATOM     71  F   UNL A   1      47.675  25.409  36.100  1.00  0.00    -0.200 F 
ENDBRANCH  47  61
BRANCH  48  72
ATOM     72  C   UNL A   1      36.874  31.346  29.215  1.00  0.00     0.064 A 
ATOM     73  C   UNL A   1      35.762  30.552  28.906  1.00  0.00     0.173 A 
ATOM     74  C   UNL A   1      36.844  32.694  28.826  1.00  0.00     0.173 A 
ATOM     75  F   UNL A   1      35.756  29.252  29.237  1.00  0.00    -0.203 F 
ATOM     76  C   UNL A   1      34.667  31.082  28.227  1.00  0.00     0.198 A 
ATOM     77  C   UNL A   1      35.738  33.230  28.171  1.00  0.00     0.198 A 
ATOM     78  F   UNL A   1      37.885  33.494  29.097  1.00  0.00    -0.203 F 
ATOM     79  F   UNL A   1      33.631  30.294  27.913  1.00  0.00    -0.200 F 
ATOM     80  C   UNL A   1      34.652  32.422  27.868  1.00  0.00     0.200 A 
ATOM     81  F   UNL A   1      35.723  34.528  27.839  1.00  0.00    -0.200 F 
ATOM     82  F   UNL A   1      33.595  32.933  27.223  1.00  0.00    -0.200 F 
ENDBRANCH  48  72
BRANCH  60  83
ATOM     83  C   UNL A   1      39.260  31.998  35.738  1.00  0.00     0.064 A 
ATOM     84  C   UNL A   1      39.676  33.323  35.936  1.00  0.00     0.173 A 
ATOM     85  C   UNL A   1      38.349  31.452  36.654  1.00  0.00     0.173 A 
ATOM     86  F   UNL A   1      40.557  33.886  35.096  1.00  0.00    -0.203 F 
ATOM     87  C   UNL A   1      39.213  34.063  37.020  1.00  0.00     0.198 A 
ATOM     88  C   UNL A   1      37.867  32.204  37.722  1.00  0.00     0.198 A 
ATOM     89  F   UNL A   1      37.914  30.191  36.506  1.00  0.00    -0.203 F 
ATOM     90  F   UNL A   1      39.656  35.314  37.213  1.00  0.00    -0.200 F 
ATOM     91  C   UNL A   1      38.304  33.507  37.907  1.00  0.00     0.200 A 
ATOM     92  F   UNL A   1      36.980  31.668  38.571  1.00  0.00    -0.200 F 
ATOM     93  F   UNL A   1      37.854  34.224  38.947  1.00  0.00    -0.200 F 
ENDBRANCH  60  83
ENDBRANCH  34  35
ENDBRANCH  27  29
ENDBRANCH  26  27
ENDBRANCH  25  26
ENDBRANCH  24  25
ENDBRANCH   1  24
TORSDOF 16
ENDMDL
MODEL 2
REMARK VINA RESULT:     -11.9      1.228      2.029
REMARK SMILES Cc1nc(C)c(C(=O)N2CCC([C@H](C)C(=O)OCCOCCOC(=O)c3ccc(-c4c5nc(c(-c6c(F)c(F)c(F)c(F)c6F)c6ccc([nH]6)c(-c6c(F)c(F)c(F)c(F)c6F)c6nc(c(-c7c(F)c(F)c(F)c(F)c7F)c7ccc4[nH]7)C=C6)C=C5)cc3)CC2)s1
REMARK SMILES IDX 20 1 19 2 18 3 17 4 15 5 16 6 13 7 14 8 12 9 7 10 8 11 9 12
REMARK SMILES IDX 10 13 90 14 11 15 89 16 6 17 1 18 2 19 3 20 91 21 4 22 5 23
REMARK SMILES IDX 21 24 22 25 23 26 24 27 25 28 26 29 27 30 88 31 28 32 87 33
REMARK SMILES IDX 29 34 30 35 31 36 81 37 32 38 86 39 80 40 82 41 33 42 85 43
REMARK SMILES IDX 79 44 78 45 34 47 66 48 46 49 65 50 47 51 50 52 64 53 83 54
REMARK SMILES IDX 48 55 49 56 63 58 84 59 51 60 35 61 36 62 44 63 37 64 38 65
REMARK SMILES IDX 42 66 45 67 39 68 40 69 43 70 41 71 67 72 68 73 76 74 69 75
REMARK SMILES IDX 70 76 74 77 77 78 71 79 72 80 75 81 73 82 52 83 53 84 61 85
REMARK SMILES IDX 54 86 55 87 59 88 62 89 56 90 57 91 60 92 58 93
REMARK H PARENT 82 46 50 57
REMARK Flexibility Score: inf
ROOT
ATOM      1  O   UNL A   1      43.020  20.562  25.425  1.00  0.00    -0.374 OA
ENDROOT
BRANCH   1   2
ATOM      2  C   UNL A   1      42.648  20.775  26.784  1.00  0.00     0.202 C 
BRANCH   2   3
ATOM      3  C   UNL A   1      41.210  20.410  27.164  1.00  0.00     0.261 C 
BRANCH   3   4
ATOM      4  O   UNL A   1      40.322  20.468  26.034  1.00  0.00    -0.463 OA
BRANCH   4   5
ATOM      5  C   UNL A   1      39.374  21.444  26.066  1.00  0.00     0.309 C 
ATOM      6  O   UNL A   1      39.351  22.383  26.851  1.00  0.00    -0.252 OA
BRANCH   5   7
ATOM      7  C   UNL A   1      38.276  21.203  25.040  1.00  0.00     0.099 C 
ATOM      8  C   UNL A   1      37.954  19.709  24.902  1.00  0.00     0.020 C 
BRANCH   7   9
ATOM      9  C   UNL A   1      37.067  22.172  25.208  1.00  0.00     0.006 C 
ATOM     10  C   UNL A   1      33.151  23.629  24.342  1.00  0.00     0.265 C 
ATOM     11  O   UNL A   1      33.000  23.855  23.139  1.00  0.00    -0.268 OA
ATOM     12  N   UNL A   1      34.425  23.347  24.845  1.00  0.00    -0.338 N 
ATOM     13  C   UNL A   1      35.576  23.954  24.198  1.00  0.00     0.120 C 
ATOM     14  C   UNL A   1      34.694  22.562  26.045  1.00  0.00     0.120 C 
ATOM     15  C   UNL A   1      36.692  22.951  23.934  1.00  0.00     0.026 C 
ATOM     16  C   UNL A   1      35.791  21.527  25.792  1.00  0.00     0.026 C 
BRANCH  10  17
ATOM     17  C   UNL A   1      32.033  23.700  25.266  1.00  0.00     0.115 A 
ATOM     18  C   UNL A   1      29.109  22.545  27.549  1.00  0.00     0.079 C 
ATOM     19  C   UNL A   1      30.204  23.197  26.783  1.00  0.00     0.091 A 
ATOM     20  N   UNL A   1      30.596  24.440  26.958  1.00  0.00    -0.246 NA
ATOM     21  S   UNL A   1      31.081  22.309  25.615  1.00  0.00    -0.113 S 
ATOM     22  C   UNL A   1      31.674  24.726  26.127  1.00  0.00     0.061 A 
ATOM     23  C   UNL A   1      32.322  26.058  26.272  1.00  0.00     0.068 C 
ENDBRANCH  10  17
ENDBRANCH   7   9
ENDBRANCH   5   7
ENDBRANCH   4   5
ENDBRANCH   3   4
ENDBRANCH   2   3
ENDBRANCH   1   2
BRANCH   1  24
ATOM     24  C   UNL A   1      44.284  21.066  24.999  1.00  0.00     0.202 C 
BRANCH  24  25
ATOM     25  C   UNL A   1      44.254  22.259  24.036  1.00  0.00     0.261 C 
BRANCH  25  26
ATOM     26  O   UNL A   1      43.430  23.336  24.521  1.00  0.00    -0.460 OA
BRANCH  26  27
ATOM     27  C   UNL A   1      44.117  24.417  24.955  1.00  0.00     0.338 C 
ATOM     28  O   UNL A   1      45.239  24.771  24.613  1.00  0.00    -0.246 OA
BRANCH  27  29
ATOM     29  C   UNL A   1      43.278  25.258  25.825  1.00  0.00     0.060 A 
ATOM     30  C   UNL A   1      43.610  26.615  25.922  1.00  0.00     0.016 A 
ATOM     31  C   UNL A   1      42.275  24.713  26.630  1.00  0.00     0.016 A 
ATOM     32  C   UNL A   1      42.987  27.420  26.872  1.00  0.00     0.010 A 
ATOM     33  C   UNL A   1      41.655  25.522  27.589  1.00  0.00     0.010 A 
ATOM     34  C   UNL A   1      42.041  26.866  27.744  1.00  0.00    -0.014 A 
BRANCH  34  35
ATOM     35  C   UNL A   1      41.590  27.656  28.914  1.00  0.00     0.031 A 
ATOM     36  C   UNL A   1      42.351  27.548  30.207  1.00  0.00     0.074 A 
ATOM     37  C   UNL A   1      40.542  28.494  28.819  1.00  0.00     0.049 A 
ATOM     38  N   UNL A   1      42.139  28.146  31.352  1.00  0.00    -0.248 NA
ATOM     39  C   UNL A   1      43.511  26.643  30.206  1.00  0.00     0.031 C 
ATOM     40  C   UNL A   1      39.743  28.708  27.617  1.00  0.00     0.029 A 
ATOM     41  N   UNL A   1      39.972  29.315  29.759  1.00  0.00    -0.354 N 
ATOM     42  C   UNL A   1      43.135  27.690  32.206  1.00  0.00     0.074 A 
ATOM     43  C   UNL A   1      43.931  26.741  31.459  1.00  0.00     0.031 C 
ATOM     44  C   UNL A   1      38.770  29.592  27.895  1.00  0.00     0.029 A 
ATOM     45  C   UNL A   1      38.866  29.985  29.300  1.00  0.00     0.049 A 
ATOM     46  H   UNL A   1      40.321  29.414  30.674  1.00  0.00     0.167 HD
ATOM     47  C   UNL A   1      43.370  28.039  33.493  1.00  0.00     0.037 A 
ATOM     48  C   UNL A   1      38.016  30.807  29.948  1.00  0.00     0.037 A 
ATOM     49  C   UNL A   1      42.576  28.981  34.238  1.00  0.00     0.049 A 
ATOM     50  C   UNL A   1      38.264  31.139  31.396  1.00  0.00     0.074 A 
ATOM     51  C   UNL A   1      42.748  29.419  35.539  1.00  0.00     0.029 A 
ATOM     52  N   UNL A   1      41.450  29.625  33.746  1.00  0.00    -0.354 N 
ATOM     53  N   UNL A   1      39.228  30.732  32.186  1.00  0.00    -0.248 NA
ATOM     54  C   UNL A   1      37.309  32.052  32.040  1.00  0.00     0.031 C 
ATOM     55  C   UNL A   1      41.699  30.292  35.850  1.00  0.00     0.029 A 
ATOM     56  C   UNL A   1      40.900  30.434  34.727  1.00  0.00     0.049 A 
ATOM     57  H   UNL A   1      41.093  29.520  32.835  1.00  0.00     0.167 HD
ATOM     58  C   UNL A   1      39.008  31.350  33.410  1.00  0.00     0.074 A 
ATOM     59  C   UNL A   1      37.827  32.172  33.254  1.00  0.00     0.031 C 
ATOM     60  C   UNL A   1      39.721  31.245  34.558  1.00  0.00     0.037 A 
BRANCH  47  61
ATOM     61  C   UNL A   1      44.523  27.375  34.185  1.00  0.00     0.064 A 
ATOM     62  C   UNL A   1      44.378  26.145  34.845  1.00  0.00     0.173 A 
ATOM     63  C   UNL A   1      45.794  27.969  34.177  1.00  0.00     0.173 A 
ATOM     64  F   UNL A   1      43.181  25.543  34.893  1.00  0.00    -0.203 F 
ATOM     65  C   UNL A   1      45.455  25.551  35.497  1.00  0.00     0.198 A 
ATOM     66  C   UNL A   1      46.875  27.360  34.808  1.00  0.00     0.198 A 
ATOM     67  F   UNL A   1      45.988  29.143  33.556  1.00  0.00    -0.203 F 
ATOM     68  F   UNL A   1      45.281  24.401  36.165  1.00  0.00    -0.200 F 
ATOM     69  C   UNL A   1      46.703  26.156  35.475  1.00  0.00     0.200 A 
ATOM     70  F   UNL A   1      48.082  27.941  34.777  1.00  0.00    -0.200 F 
ATOM     71  F   UNL A   1      47.739  25.584  36.104  1.00  0.00    -0.200 F 
ENDBRANCH  47  61
BRANCH  48  72
ATOM     72  C   UNL A   1      36.842  31.359  29.226  1.00  0.00     0.064 A 
ATOM     73  C   UNL A   1      35.744  30.553  28.899  1.00  0.00     0.173 A 
ATOM     74  C   UNL A   1      36.792  32.712  28.858  1.00  0.00     0.173 A 
ATOM     75  F   UNL A   1      35.756  29.247  29.210  1.00  0.00    -0.203 F 
ATOM     76  C   UNL A   1      34.644  31.076  28.222  1.00  0.00     0.198 A 
ATOM     77  C   UNL A   1      35.681  33.241  28.207  1.00  0.00     0.198 A 
ATOM     78  F   UNL A   1      37.819  33.524  29.148  1.00  0.00    -0.203 F 
ATOM     79  F   UNL A   1      33.622  30.276  27.890  1.00  0.00    -0.200 F 
ATOM     80  C   UNL A   1      34.610  32.421  27.884  1.00  0.00     0.200 A 
ATOM     81  F   UNL A   1      35.647  34.543  27.894  1.00  0.00    -0.200 F 
ATOM     82  F   UNL A   1      33.548  32.925  27.242  1.00  0.00    -0.200 F 
ENDBRANCH  48  72
BRANCH  60  83
ATOM     83  C   UNL A   1      39.255  32.053  35.735  1.00  0.00     0.064 A 
ATOM     84  C   UNL A   1      39.678  33.376  35.930  1.00  0.00     0.173 A 
ATOM     85  C   UNL A   1      38.341  31.513  36.651  1.00  0.00     0.173 A 
ATOM     86  F   UNL A   1      40.562  33.933  35.089  1.00  0.00    -0.203 F 
ATOM     87  C   UNL A   1      39.218  34.121  37.012  1.00  0.00     0.198 A 
ATOM     88  C   UNL A   1      37.862  32.271  37.717  1.00  0.00     0.198 A 
ATOM     89  F   UNL A   1      37.900  30.254  36.506  1.00  0.00    -0.203 F 
ATOM     90  F   UNL A   1      39.667  35.370  37.202  1.00  0.00    -0.200 F 
ATOM     91  C   UNL A   1      38.306  33.571  37.900  1.00  0.00     0.200 A 
ATOM     92  F   UNL A   1      36.972  31.740  38.568  1.00  0.00    -0.200 F 
ATOM     93  F   UNL A   1      37.858  34.293  38.938  1.00  0.00    -0.200 F 
ENDBRANCH  60  83
ENDBRANCH  34  35
ENDBRANCH  27  29
ENDBRANCH  26  27
ENDBRANCH  25  26
ENDBRANCH  24  25
ENDBRANCH   1  24
TORSDOF 16
ENDMDL
MODEL 3
REMARK VINA RESULT:     -11.5      0.926      2.269
REMARK SMILES Cc1nc(C)c(C(=O)N2CCC([C@H](C)C(=O)OCCOCCOC(=O)c3ccc(-c4c5nc(c(-c6c(F)c(F)c(F)c(F)c6F)c6ccc([nH]6)c(-c6c(F)c(F)c(F)c(F)c6F)c6nc(c(-c7c(F)c(F)c(F)c(F)c7F)c7ccc4[nH]7)C=C6)C=C5)cc3)CC2)s1
REMARK SMILES IDX 20 1 19 2 18 3 17 4 15 5 16 6 13 7 14 8 12 9 7 10 8 11 9 12
REMARK SMILES IDX 10 13 90 14 11 15 89 16 6 17 1 18 2 19 3 20 91 21 4 22 5 23
REMARK SMILES IDX 21 24 22 25 23 26 24 27 25 28 26 29 27 30 88 31 28 32 87 33
REMARK SMILES IDX 29 34 30 35 31 36 81 37 32 38 86 39 80 40 82 41 33 42 85 43
REMARK SMILES IDX 79 44 78 45 34 47 66 48 46 49 65 50 47 51 50 52 64 53 83 54
REMARK SMILES IDX 48 55 49 56 63 58 84 59 51 60 35 61 36 62 44 63 37 64 38 65
REMARK SMILES IDX 42 66 45 67 39 68 40 69 43 70 41 71 67 72 68 73 76 74 69 75
REMARK SMILES IDX 70 76 74 77 77 78 71 79 72 80 75 81 73 82 52 83 53 84 61 85
REMARK SMILES IDX 54 86 55 87 59 88 62 89 56 90 57 91 60 92 58 93
REMARK H PARENT 82 46 50 57
REMARK Flexibility Score: inf
ROOT
ATOM      1  O   UNL A   1      40.895  21.897  25.871  1.00  0.00    -0.374 OA
ENDROOT
BRANCH   1   2
ATOM      2  C   UNL A   1      39.723  21.101  26.026  1.00  0.00     0.202 C 
BRANCH   2   3
ATOM      3  C   UNL A   1      38.382  21.819  25.852  1.00  0.00     0.261 C 
BRANCH   3   4
ATOM      4  O   UNL A   1      37.425  21.012  25.143  1.00  0.00    -0.463 OA
BRANCH   4   5
ATOM      5  C   UNL A   1      36.156  21.503  25.081  1.00  0.00     0.309 C 
ATOM      6  O   UNL A   1      35.151  20.916  25.460  1.00  0.00    -0.252 OA
BRANCH   5   7
ATOM      7  C   UNL A   1      36.108  22.867  24.408  1.00  0.00     0.099 C 
ATOM      8  C   UNL A   1      36.659  22.809  22.978  1.00  0.00     0.020 C 
BRANCH   7   9
ATOM      9  C   UNL A   1      34.743  23.593  24.610  1.00  0.00     0.006 C 
ATOM     10  C   UNL A   1      32.263  26.948  25.504  1.00  0.00     0.265 C 
ATOM     11  O   UNL A   1      32.547  27.453  26.593  1.00  0.00    -0.268 OA
ATOM     12  N   UNL A   1      32.823  25.721  25.136  1.00  0.00    -0.338 N 
ATOM     13  C   UNL A   1      33.134  24.759  26.180  1.00  0.00     0.120 C 
ATOM     14  C   UNL A   1      33.032  25.276  23.762  1.00  0.00     0.120 C 
ATOM     15  C   UNL A   1      34.525  24.160  26.025  1.00  0.00     0.026 C 
ATOM     16  C   UNL A   1      34.435  24.699  23.577  1.00  0.00     0.026 C 
BRANCH  10  17
ATOM     17  C   UNL A   1      31.314  27.582  24.606  1.00  0.00     0.115 A 
ATOM     18  C   UNL A   1      29.915  29.904  21.822  1.00  0.00     0.079 C 
ATOM     19  C   UNL A   1      30.240  28.906  22.875  1.00  0.00     0.091 A 
ATOM     20  N   UNL A   1      29.430  27.947  23.267  1.00  0.00    -0.246 NA
ATOM     21  S   UNL A   1      31.772  28.926  23.634  1.00  0.00    -0.113 S 
ATOM     22  C   UNL A   1      30.051  27.153  24.225  1.00  0.00     0.061 A 
ATOM     23  C   UNL A   1      29.320  25.948  24.701  1.00  0.00     0.068 C 
ENDBRANCH  10  17
ENDBRANCH   7   9
ENDBRANCH   5   7
ENDBRANCH   4   5
ENDBRANCH   3   4
ENDBRANCH   2   3
ENDBRANCH   1   2
BRANCH   1  24
ATOM     24  C   UNL A   1      42.157  21.255  26.043  1.00  0.00     0.202 C 
BRANCH  24  25
ATOM     25  C   UNL A   1      43.357  21.917  25.355  1.00  0.00     0.261 C 
BRANCH  25  26
ATOM     26  O   UNL A   1      42.995  23.123  24.655  1.00  0.00    -0.460 OA
BRANCH  26  27
ATOM     27  C   UNL A   1      43.743  24.203  24.974  1.00  0.00     0.338 C 
ATOM     28  O   UNL A   1      44.860  24.483  24.557  1.00  0.00    -0.246 OA
BRANCH  27  29
ATOM     29  C   UNL A   1      42.978  25.142  25.812  1.00  0.00     0.060 A 
ATOM     30  C   UNL A   1      43.513  26.424  25.994  1.00  0.00     0.016 A 
ATOM     31  C   UNL A   1      41.836  24.743  26.511  1.00  0.00     0.016 A 
ATOM     32  C   UNL A   1      42.948  27.290  26.927  1.00  0.00     0.010 A 
ATOM     33  C   UNL A   1      41.275  25.613  27.454  1.00  0.00     0.010 A 
ATOM     34  C   UNL A   1      41.856  26.870  27.697  1.00  0.00    -0.014 A 
BRANCH  34  35
ATOM     35  C   UNL A   1      41.439  27.687  28.862  1.00  0.00     0.031 A 
ATOM     36  C   UNL A   1      42.224  27.589  30.142  1.00  0.00     0.074 A 
ATOM     37  C   UNL A   1      40.403  28.538  28.773  1.00  0.00     0.049 A 
ATOM     38  N   UNL A   1      42.043  28.209  31.280  1.00  0.00    -0.248 NA
ATOM     39  C   UNL A   1      43.370  26.666  30.134  1.00  0.00     0.031 C 
ATOM     40  C   UNL A   1      39.585  28.745  27.583  1.00  0.00     0.029 A 
ATOM     41  N   UNL A   1      39.863  29.385  29.709  1.00  0.00    -0.354 N 
ATOM     42  C   UNL A   1      43.048  27.752  32.123  1.00  0.00     0.074 A 
ATOM     43  C   UNL A   1      43.816  26.778  31.377  1.00  0.00     0.031 C 
ATOM     44  C   UNL A   1      38.630  29.648  27.864  1.00  0.00     0.029 A 
ATOM     45  C   UNL A   1      38.759  30.063  29.260  1.00  0.00     0.049 A 
ATOM     46  H   UNL A   1      40.232  29.493  30.616  1.00  0.00     0.167 HD
ATOM     47  C   UNL A   1      43.313  28.119  33.399  1.00  0.00     0.037 A 
ATOM     48  C   UNL A   1      37.935  30.909  29.910  1.00  0.00     0.037 A 
ATOM     49  C   UNL A   1      42.549  29.086  34.143  1.00  0.00     0.049 A 
ATOM     50  C   UNL A   1      38.215  31.261  31.347  1.00  0.00     0.074 A 
ATOM     51  C   UNL A   1      42.753  29.543  35.432  1.00  0.00     0.029 A 
ATOM     52  N   UNL A   1      41.423  29.738  33.661  1.00  0.00    -0.354 N 
ATOM     53  N   UNL A   1      39.189  30.853  32.125  1.00  0.00    -0.248 NA
ATOM     54  C   UNL A   1      37.287  32.200  31.993  1.00  0.00     0.031 C 
ATOM     55  C   UNL A   1      41.723  30.437  35.748  1.00  0.00     0.029 A 
ATOM     56  C   UNL A   1      40.905  30.572  34.639  1.00  0.00     0.049 A 
ATOM     57  H   UNL A   1      41.047  29.623  32.759  1.00  0.00     0.167 HD
ATOM     58  C   UNL A   1      39.001  31.495  33.342  1.00  0.00     0.074 A 
ATOM     59  C   UNL A   1      37.830  32.332  33.195  1.00  0.00     0.031 C 
ATOM     60  C   UNL A   1      39.735  31.398  34.479  1.00  0.00     0.037 A 
BRANCH  47  61
ATOM     61  C   UNL A   1      44.470  27.449  34.080  1.00  0.00     0.064 A 
ATOM     62  C   UNL A   1      44.317  26.239  34.773  1.00  0.00     0.173 A 
ATOM     63  C   UNL A   1      45.752  28.017  34.027  1.00  0.00     0.173 A 
ATOM     64  F   UNL A   1      43.109  25.662  34.864  1.00  0.00    -0.203 F 
ATOM     65  C   UNL A   1      45.397  25.639  35.414  1.00  0.00     0.198 A 
ATOM     66  C   UNL A   1      46.835  27.402  34.648  1.00  0.00     0.198 A 
ATOM     67  F   UNL A   1      45.954  29.172  33.374  1.00  0.00    -0.203 F 
ATOM     68  F   UNL A   1      45.217  24.509  36.114  1.00  0.00    -0.200 F 
ATOM     69  C   UNL A   1      46.656  26.218  35.348  1.00  0.00     0.200 A 
ATOM     70  F   UNL A   1      48.053  27.958  34.574  1.00  0.00    -0.200 F 
ATOM     71  F   UNL A   1      47.695  25.641  35.967  1.00  0.00    -0.200 F 
ENDBRANCH  47  61
BRANCH  48  72
ATOM     72  C   UNL A   1      36.755  31.467  29.202  1.00  0.00     0.064 A 
ATOM     73  C   UNL A   1      36.711  32.810  28.806  1.00  0.00     0.173 A 
ATOM     74  C   UNL A   1      35.648  30.659  28.898  1.00  0.00     0.173 A 
ATOM     75  F   UNL A   1      37.736  33.626  29.096  1.00  0.00    -0.203 F 
ATOM     76  C   UNL A   1      35.602  33.328  28.142  1.00  0.00     0.198 A 
ATOM     77  C   UNL A   1      34.551  31.170  28.209  1.00  0.00     0.198 A 
ATOM     78  F   UNL A   1      35.642  29.367  29.257  1.00  0.00    -0.203 F 
ATOM     79  F   UNL A   1      35.570  34.624  27.805  1.00  0.00    -0.200 F 
ATOM     80  C   UNL A   1      34.527  32.505  27.836  1.00  0.00     0.200 A 
ATOM     81  F   UNL A   1      33.521  30.369  27.905  1.00  0.00    -0.200 F 
ATOM     82  F   UNL A   1      33.464  33.003  27.190  1.00  0.00    -0.200 F 
ENDBRANCH  48  72
BRANCH  60  83
ATOM     83  C   UNL A   1      39.304  32.233  35.650  1.00  0.00     0.064 A 
ATOM     84  C   UNL A   1      38.442  31.727  36.634  1.00  0.00     0.173 A 
ATOM     85  C   UNL A   1      39.797  33.536  35.814  1.00  0.00     0.173 A 
ATOM     86  F   UNL A   1      37.933  30.492  36.515  1.00  0.00    -0.203 F 
ATOM     87  C   UNL A   1      38.070  32.505  37.727  1.00  0.00     0.198 A 
ATOM     88  C   UNL A   1      39.445  34.301  36.923  1.00  0.00     0.198 A 
ATOM     89  F   UNL A   1      40.631  34.064  34.905  1.00  0.00    -0.203 F 
ATOM     90  F   UNL A   1      37.212  32.018  38.633  1.00  0.00    -0.200 F 
ATOM     91  C   UNL A   1      38.577  33.788  37.875  1.00  0.00     0.200 A 
ATOM     92  F   UNL A   1      39.945  35.536  37.069  1.00  0.00    -0.200 F 
ATOM     93  F   UNL A   1      38.225  34.532  38.932  1.00  0.00    -0.200 F 
ENDBRANCH  60  83
ENDBRANCH  34  35
ENDBRANCH  27  29
ENDBRANCH  26  27
ENDBRANCH  25  26
ENDBRANCH  24  25
ENDBRANCH   1  24
TORSDOF 16
ENDMDL
