MODEL 1
REMARK VINA RESULT:     -12.3      0.000      0.000
REMARK SMILES O=C(Cn1c(-c2nc(-c3ccc(C(F)(F)F)cc3)no2)cc2ccccc21)OCCOCCOC(=O)c1ccc(-c2c3nc(c(-c4c(F)c(F)c(F)c(F)c4F)c4ccc([nH]4)c(-c4c(F)c(F)c(F)c(F)c4F)c4nc(c(-c5c(F)c(F)c(F)c(F)c5F)c5ccc2[nH]5)C=C4)C=C3)cc1
REMARK SMILES IDX 30 1 29 2 28 3 2 4 1 5 3 6 4 7 5 8 27 9 21 10 22 11 26 12
REMARK SMILES IDX 23 13 25 14 24 15 6 16 7 17 20 18 8 19 19 20 9 21 10 22
REMARK SMILES IDX 18 23 11 24 17 25 12 26 13 27 14 28 15 29 16 30 31 31 32 32
REMARK SMILES IDX 33 33 34 34 35 35 36 36 37 37 38 38 99 39 39 40 98 41 40 42
REMARK SMILES IDX 41 43 42 44 92 45 43 46 97 47 91 48 93 49 44 50 96 51 90 52
REMARK SMILES IDX 89 53 45 55 77 56 57 57 76 58 58 59 61 60 75 61 94 62 59 63
REMARK SMILES IDX 60 64 74 66 95 67 62 68 46 69 47 70 55 71 48 72 49 73 53 74
REMARK SMILES IDX 56 75 50 76 51 77 54 78 52 79 78 80 79 81 87 82 80 83 81 84
REMARK SMILES IDX 85 85 88 86 82 87 83 88 86 89 84 90 63 91 64 92 72 93 65 94
REMARK SMILES IDX 66 95 70 96 73 97 67 98 68 99 71 100 69 101
REMARK H PARENT 93 54 61 65
REMARK Flexibility Score: inf
ROOT
ATOM      1  C   UNL A   1      35.876  29.652  27.481  1.00  0.00     0.202 C 
ENDROOT
BRANCH   1   2
ATOM      2  C   UNL A   1      34.368  29.460  27.625  1.00  0.00     0.261 C 
BRANCH   2   3
ATOM      3  O   UNL A   1      33.697  28.972  26.453  1.00  0.00    -0.462 OA
BRANCH   3   4
ATOM      4  C   UNL A   1      32.411  29.266  26.132  1.00  0.00     0.326 C 
ATOM      5  O   UNL A   1      31.510  29.049  26.942  1.00  0.00    -0.250 OA
BRANCH   4   6
ATOM      6  C   UNL A   1      32.096  29.695  24.734  1.00  0.00     0.245 C 
BRANCH   6   7
ATOM      7  N   UNL A   1      30.968  29.073  24.040  1.00  0.00    -0.325 N 
ATOM      8  C   UNL A   1      30.708  27.737  23.792  1.00  0.00     0.109 A 
ATOM      9  C   UNL A   1      29.838  29.836  23.695  1.00  0.00     0.049 A 
ATOM     10  C   UNL A   1      29.479  27.687  23.149  1.00  0.00     0.042 A 
ATOM     11  C   UNL A   1      28.907  28.971  23.125  1.00  0.00     0.000 A 
ATOM     12  C   UNL A   1      29.532  31.199  23.880  1.00  0.00     0.027 A 
ATOM     13  C   UNL A   1      27.649  29.454  22.722  1.00  0.00     0.010 A 
ATOM     14  C   UNL A   1      28.264  31.656  23.497  1.00  0.00     0.002 A 
ATOM     15  C   UNL A   1      27.333  30.798  22.923  1.00  0.00     0.001 A 
BRANCH   8  16
ATOM     16  C   UNL A   1      31.358  26.545  24.272  1.00  0.00     0.274 A 
ATOM     17  N   UNL A   1      32.535  26.021  23.974  1.00  0.00    -0.185 NA
ATOM     18  O   UNL A   1      30.709  25.818  25.231  1.00  0.00    -0.332 OA
ATOM     19  C   UNL A   1      32.590  24.901  24.806  1.00  0.00     0.202 A 
ATOM     20  N   UNL A   1      31.494  24.752  25.559  1.00  0.00    -0.057 NA
BRANCH  19  21
ATOM     21  C   UNL A   1      33.689  23.941  24.949  1.00  0.00     0.023 A 
ATOM     22  C   UNL A   1      34.351  23.496  23.783  1.00  0.00     0.013 A 
ATOM     23  C   UNL A   1      34.135  23.453  26.179  1.00  0.00     0.013 A 
ATOM     24  C   UNL A   1      35.413  22.594  23.833  1.00  0.00     0.014 A 
ATOM     25  C   UNL A   1      35.226  22.560  26.234  1.00  0.00     0.014 A 
ATOM     26  C   UNL A   1      35.878  22.129  25.064  1.00  0.00     0.056 A 
BRANCH  26  27
ATOM     27  C   UNL A   1      37.049  21.174  25.085  1.00  0.00     0.416 C 
ATOM     28  F   UNL A   1      36.665  19.886  25.308  1.00  0.00    -0.166 F 
ATOM     29  F   UNL A   1      37.726  21.155  23.901  1.00  0.00    -0.166 F 
ATOM     30  F   UNL A   1      37.977  21.461  26.038  1.00  0.00    -0.166 F 
ENDBRANCH  26  27
ENDBRANCH  19  21
ENDBRANCH   8  16
ENDBRANCH   6   7
ENDBRANCH   4   6
ENDBRANCH   3   4
ENDBRANCH   2   3
ENDBRANCH   1   2
BRANCH   1  31
ATOM     31  O   UNL A   1      36.389  30.937  27.800  1.00  0.00    -0.374 OA
BRANCH  31  32
ATOM     32  C   UNL A   1      35.517  32.066  27.646  1.00  0.00     0.202 C 
BRANCH  32  33
ATOM     33  C   UNL A   1      35.033  32.819  28.901  1.00  0.00     0.261 C 
BRANCH  33  34
ATOM     34  O   UNL A   1      34.734  31.909  29.972  1.00  0.00    -0.460 OA
BRANCH  34  35
ATOM     35  C   UNL A   1      35.267  32.219  31.186  1.00  0.00     0.338 C 
ATOM     36  O   UNL A   1      34.742  32.822  32.097  1.00  0.00    -0.246 OA
BRANCH  35  37
ATOM     37  C   UNL A   1      36.467  31.365  31.326  1.00  0.00     0.060 A 
ATOM     38  C   UNL A   1      37.737  31.931  31.383  1.00  0.00     0.016 A 
ATOM     39  C   UNL A   1      36.300  29.982  31.147  1.00  0.00     0.016 A 
ATOM     40  C   UNL A   1      38.837  31.111  31.175  1.00  0.00     0.010 A 
ATOM     41  C   UNL A   1      37.409  29.172  30.899  1.00  0.00     0.010 A 
ATOM     42  C   UNL A   1      38.680  29.747  30.871  1.00  0.00    -0.014 A 
BRANCH  42  43
ATOM     43  C   UNL A   1      39.906  28.974  30.632  1.00  0.00     0.031 A 
ATOM     44  C   UNL A   1      40.758  28.778  31.845  1.00  0.00     0.074 A 
ATOM     45  C   UNL A   1      40.253  28.383  29.467  1.00  0.00     0.049 A 
ATOM     46  N   UNL A   1      42.013  29.046  32.023  1.00  0.00    -0.248 NA
ATOM     47  C   UNL A   1      40.076  28.267  33.047  1.00  0.00     0.031 C 
ATOM     48  C   UNL A   1      39.446  28.203  28.259  1.00  0.00     0.029 A 
ATOM     49  N   UNL A   1      41.419  27.732  29.156  1.00  0.00    -0.354 N 
ATOM     50  C   UNL A   1      42.316  28.626  33.316  1.00  0.00     0.074 A 
ATOM     51  C   UNL A   1      41.072  28.237  33.929  1.00  0.00     0.031 C 
ATOM     52  C   UNL A   1      40.064  27.323  27.436  1.00  0.00     0.029 A 
ATOM     53  C   UNL A   1      41.353  26.963  28.003  1.00  0.00     0.049 A 
ATOM     54  H   UNL A   1      42.232  27.804  29.706  1.00  0.00     0.167 HD
ATOM     55  C   UNL A   1      43.589  28.486  33.775  1.00  0.00     0.037 A 
ATOM     56  C   UNL A   1      42.255  26.036  27.591  1.00  0.00     0.037 A 
ATOM     57  C   UNL A   1      44.537  29.235  33.004  1.00  0.00     0.049 A 
ATOM     58  C   UNL A   1      43.533  26.274  28.304  1.00  0.00     0.074 A 
ATOM     59  C   UNL A   1      44.764  30.578  32.785  1.00  0.00     0.029 A 
ATOM     60  N   UNL A   1      45.314  28.581  32.085  1.00  0.00    -0.354 N 
ATOM     61  N   UNL A   1      44.350  27.261  28.072  1.00  0.00    -0.248 NA
ATOM     62  C   UNL A   1      43.748  25.563  29.554  1.00  0.00     0.031 C 
ATOM     63  C   UNL A   1      45.261  30.661  31.452  1.00  0.00     0.029 A 
ATOM     64  C   UNL A   1      45.340  29.359  30.957  1.00  0.00     0.049 A 
ATOM     65  H   UNL A   1      45.767  27.716  32.212  1.00  0.00     0.167 HD
ATOM     66  C   UNL A   1      44.891  27.565  29.312  1.00  0.00     0.074 A 
ATOM     67  C   UNL A   1      44.573  26.421  30.157  1.00  0.00     0.031 C 
ATOM     68  C   UNL A   1      45.311  28.827  29.612  1.00  0.00     0.037 A 
BRANCH  55  69
ATOM     69  C   UNL A   1      44.001  27.466  34.800  1.00  0.00     0.064 A 
ATOM     70  C   UNL A   1      43.964  26.093  34.488  1.00  0.00     0.173 A 
ATOM     71  C   UNL A   1      44.178  27.780  36.165  1.00  0.00     0.173 A 
ATOM     72  F   UNL A   1      43.761  25.684  33.227  1.00  0.00    -0.203 F 
ATOM     73  C   UNL A   1      44.060  25.111  35.477  1.00  0.00     0.198 A 
ATOM     74  C   UNL A   1      44.327  26.799  37.142  1.00  0.00     0.198 A 
ATOM     75  F   UNL A   1      44.109  29.042  36.610  1.00  0.00    -0.203 F 
ATOM     76  F   UNL A   1      43.918  23.820  35.150  1.00  0.00    -0.200 F 
ATOM     77  C   UNL A   1      44.242  25.464  36.803  1.00  0.00     0.200 A 
ATOM     78  F   UNL A   1      44.482  27.161  38.423  1.00  0.00    -0.200 F 
ATOM     79  F   UNL A   1      44.289  24.526  37.757  1.00  0.00    -0.200 F 
ENDBRANCH  55  69
BRANCH  56  80
ATOM     80  C   UNL A   1      42.015  24.764  26.861  1.00  0.00     0.064 A 
ATOM     81  C   UNL A   1      42.797  24.407  25.748  1.00  0.00     0.173 A 
ATOM     82  C   UNL A   1      41.218  23.745  27.415  1.00  0.00     0.173 A 
ATOM     83  F   UNL A   1      43.621  25.302  25.185  1.00  0.00    -0.203 F 
ATOM     84  C   UNL A   1      42.802  23.103  25.241  1.00  0.00     0.198 A 
ATOM     85  C   UNL A   1      41.215  22.447  26.902  1.00  0.00     0.198 A 
ATOM     86  F   UNL A   1      40.502  23.958  28.528  1.00  0.00    -0.203 F 
ATOM     87  F   UNL A   1      43.612  22.783  24.221  1.00  0.00    -0.200 F 
ATOM     88  C   UNL A   1      42.017  22.122  25.824  1.00  0.00     0.200 A 
ATOM     89  F   UNL A   1      40.479  21.499  27.499  1.00  0.00    -0.200 F 
ATOM     90  F   UNL A   1      42.067  20.859  25.379  1.00  0.00    -0.200 F 
ENDBRANCH  56  80
BRANCH  68  91
ATOM     91  C   UNL A   1      45.476  29.817  28.491  1.00  0.00     0.064 A 
ATOM     92  C   UNL A   1      44.415  30.533  27.916  1.00  0.00     0.173 A 
ATOM     93  C   UNL A   1      46.775  30.165  28.094  1.00  0.00     0.173 A 
ATOM     94  F   UNL A   1      43.145  30.285  28.260  1.00  0.00    -0.203 F 
ATOM     95  C   UNL A   1      44.651  31.553  26.993  1.00  0.00     0.198 A 
ATOM     96  C   UNL A   1      47.006  31.196  27.186  1.00  0.00     0.198 A 
ATOM     97  F   UNL A   1      47.833  29.532  28.625  1.00  0.00    -0.203 F 
ATOM     98  F   UNL A   1      43.627  32.232  26.459  1.00  0.00    -0.200 F 
ATOM     99  C   UNL A   1      45.943  31.890  26.637  1.00  0.00     0.200 A 
ATOM    100  F   UNL A   1      48.262  31.532  26.861  1.00  0.00    -0.200 F 
ATOM    101  F   UNL A   1      46.163  32.891  25.774  1.00  0.00    -0.200 F 
ENDBRANCH  68  91
ENDBRANCH  42  43
ENDBRANCH  35  37
ENDBRANCH  34  35
ENDBRANCH  33  34
ENDBRANCH  32  33
ENDBRANCH  31  32
ENDBRANCH   1  31
TORSDOF 18
ENDMDL
MODEL 2
REMARK VINA RESULT:     -12.2      2.381      4.126
REMARK SMILES O=C(Cn1c(-c2nc(-c3ccc(C(F)(F)F)cc3)no2)cc2ccccc21)OCCOCCOC(=O)c1ccc(-c2c3nc(c(-c4c(F)c(F)c(F)c(F)c4F)c4ccc([nH]4)c(-c4c(F)c(F)c(F)c(F)c4F)c4nc(c(-c5c(F)c(F)c(F)c(F)c5F)c5ccc2[nH]5)C=C4)C=C3)cc1
REMARK SMILES IDX 30 1 29 2 28 3 2 4 1 5 3 6 4 7 5 8 27 9 21 10 22 11 26 12
REMARK SMILES IDX 23 13 25 14 24 15 6 16 7 17 20 18 8 19 19 20 9 21 10 22
REMARK SMILES IDX 18 23 11 24 17 25 12 26 13 27 14 28 15 29 16 30 31 31 32 32
REMARK SMILES IDX 33 33 34 34 35 35 36 36 37 37 38 38 99 39 39 40 98 41 40 42
REMARK SMILES IDX 41 43 42 44 92 45 43 46 97 47 91 48 93 49 44 50 96 51 90 52
REMARK SMILES IDX 89 53 45 55 77 56 57 57 76 58 58 59 61 60 75 61 94 62 59 63
REMARK SMILES IDX 60 64 74 66 95 67 62 68 46 69 47 70 55 71 48 72 49 73 53 74
REMARK SMILES IDX 56 75 50 76 51 77 54 78 52 79 78 80 79 81 87 82 80 83 81 84
REMARK SMILES IDX 85 85 88 86 82 87 83 88 86 89 84 90 63 91 64 92 72 93 65 94
REMARK SMILES IDX 66 95 70 96 73 97 67 98 68 99 71 100 69 101
REMARK H PARENT 93 54 61 65
REMARK Flexibility Score: inf
ROOT
ATOM      1  C   UNL A   1      33.629  29.012  23.565  1.00  0.00     0.202 C 
ENDROOT
BRANCH   1   2
ATOM      2  C   UNL A   1      33.353  28.018  22.439  1.00  0.00     0.261 C 
BRANCH   2   3
ATOM      3  O   UNL A   1      33.653  26.647  22.743  1.00  0.00    -0.462 OA
BRANCH   3   4
ATOM      4  C   UNL A   1      33.421  25.609  21.899  1.00  0.00     0.326 C 
ATOM      5  O   UNL A   1      33.227  25.821  20.702  1.00  0.00    -0.250 OA
BRANCH   4   6
ATOM      6  C   UNL A   1      33.243  24.239  22.472  1.00  0.00     0.245 C 
BRANCH   6   7
ATOM      7  N   UNL A   1      32.865  24.103  23.879  1.00  0.00    -0.325 N 
ATOM      8  C   UNL A   1      33.610  23.663  24.958  1.00  0.00     0.109 A 
ATOM      9  C   UNL A   1      31.651  24.642  24.344  1.00  0.00     0.049 A 
ATOM     10  C   UNL A   1      32.796  23.784  26.076  1.00  0.00     0.042 A 
ATOM     11  C   UNL A   1      31.600  24.433  25.720  1.00  0.00     0.000 A 
ATOM     12  C   UNL A   1      30.619  25.338  23.685  1.00  0.00     0.027 A 
ATOM     13  C   UNL A   1      30.509  24.912  26.467  1.00  0.00     0.010 A 
ATOM     14  C   UNL A   1      29.554  25.832  24.450  1.00  0.00     0.002 A 
ATOM     15  C   UNL A   1      29.495  25.621  25.823  1.00  0.00     0.001 A 
BRANCH   8  16
ATOM     16  C   UNL A   1      35.014  23.365  25.076  1.00  0.00     0.274 A 
ATOM     17  N   UNL A   1      35.901  23.715  25.992  1.00  0.00    -0.185 NA
ATOM     18  O   UNL A   1      35.565  22.551  24.125  1.00  0.00    -0.332 OA
ATOM     19  C   UNL A   1      37.061  23.073  25.558  1.00  0.00     0.202 A 
ATOM     20  N   UNL A   1      36.884  22.380  24.427  1.00  0.00    -0.057 NA
BRANCH  19  21
ATOM     21  C   UNL A   1      38.377  23.059  26.203  1.00  0.00     0.023 A 
ATOM     22  C   UNL A   1      38.771  24.190  26.953  1.00  0.00     0.013 A 
ATOM     23  C   UNL A   1      39.261  21.980  26.137  1.00  0.00     0.013 A 
ATOM     24  C   UNL A   1      40.000  24.253  27.609  1.00  0.00     0.014 A 
ATOM     25  C   UNL A   1      40.494  22.030  26.821  1.00  0.00     0.014 A 
ATOM     26  C   UNL A   1      40.871  23.163  27.567  1.00  0.00     0.056 A 
BRANCH  26  27
ATOM     27  C   UNL A   1      42.183  23.251  28.311  1.00  0.00     0.416 C 
ATOM     28  F   UNL A   1      42.592  24.539  28.491  1.00  0.00    -0.166 F 
ATOM     29  F   UNL A   1      42.108  22.713  29.563  1.00  0.00    -0.166 F 
ATOM     30  F   UNL A   1      43.212  22.612  27.693  1.00  0.00    -0.166 F 
ENDBRANCH  26  27
ENDBRANCH  19  21
ENDBRANCH   8  16
ENDBRANCH   6   7
ENDBRANCH   4   6
ENDBRANCH   3   4
ENDBRANCH   2   3
ENDBRANCH   1   2
BRANCH   1  31
ATOM     31  O   UNL A   1      33.307  28.589  24.882  1.00  0.00    -0.374 OA
BRANCH  31  32
ATOM     32  C   UNL A   1      32.361  29.368  25.627  1.00  0.00     0.202 C 
BRANCH  32  33
ATOM     33  C   UNL A   1      32.868  30.531  26.502  1.00  0.00     0.261 C 
BRANCH  33  34
ATOM     34  O   UNL A   1      34.242  30.342  26.876  1.00  0.00    -0.460 OA
BRANCH  34  35
ATOM     35  C   UNL A   1      34.786  31.309  27.666  1.00  0.00     0.338 C 
ATOM     36  O   UNL A   1      34.254  32.316  28.080  1.00  0.00    -0.246 OA
BRANCH  35  37
ATOM     37  C   UNL A   1      36.020  30.719  28.227  1.00  0.00     0.060 A 
ATOM     38  C   UNL A   1      37.024  31.534  28.743  1.00  0.00     0.016 A 
ATOM     39  C   UNL A   1      36.248  29.352  27.996  1.00  0.00     0.016 A 
ATOM     40  C   UNL A   1      38.283  30.986  28.944  1.00  0.00     0.010 A 
ATOM     41  C   UNL A   1      37.526  28.819  28.164  1.00  0.00     0.010 A 
ATOM     42  C   UNL A   1      38.559  29.650  28.599  1.00  0.00    -0.014 A 
BRANCH  42  43
ATOM     43  C   UNL A   1      39.933  29.177  28.818  1.00  0.00     0.031 A 
ATOM     44  C   UNL A   1      40.251  28.847  30.241  1.00  0.00     0.074 A 
ATOM     45  C   UNL A   1      40.852  28.949  27.855  1.00  0.00     0.049 A 
ATOM     46  N   UNL A   1      41.219  29.276  30.989  1.00  0.00    -0.248 NA
ATOM     47  C   UNL A   1      39.304  27.957  30.934  1.00  0.00     0.031 C 
ATOM     48  C   UNL A   1      40.666  28.925  26.403  1.00  0.00     0.029 A 
ATOM     49  N   UNL A   1      42.169  28.599  28.000  1.00  0.00    -0.354 N 
ATOM     50  C   UNL A   1      41.080  28.618  32.209  1.00  0.00     0.074 A 
ATOM     51  C   UNL A   1      39.840  27.888  32.150  1.00  0.00     0.031 C 
ATOM     52  C   UNL A   1      41.763  28.384  25.820  1.00  0.00     0.029 A 
ATOM     53  C   UNL A   1      42.766  28.127  26.840  1.00  0.00     0.049 A 
ATOM     54  H   UNL A   1      42.650  28.676  28.856  1.00  0.00     0.167 HD
ATOM     55  C   UNL A   1      42.056  28.593  33.157  1.00  0.00     0.037 A 
ATOM     56  C   UNL A   1      43.962  27.492  26.741  1.00  0.00     0.037 A 
ATOM     57  C   UNL A   1      43.005  29.655  32.998  1.00  0.00     0.049 A 
ATOM     58  C   UNL A   1      44.744  27.768  27.969  1.00  0.00     0.074 A 
ATOM     59  C   UNL A   1      42.948  31.030  33.093  1.00  0.00     0.029 A 
ATOM     60  N   UNL A   1      44.222  29.380  32.433  1.00  0.00    -0.354 N 
ATOM     61  N   UNL A   1      45.303  28.906  28.263  1.00  0.00    -0.248 NA
ATOM     62  C   UNL A   1      44.619  26.828  29.072  1.00  0.00     0.031 C 
ATOM     63  C   UNL A   1      43.894  31.510  32.143  1.00  0.00     0.029 A 
ATOM     64  C   UNL A   1      44.494  30.396  31.554  1.00  0.00     0.049 A 
ATOM     65  H   UNL A   1      44.793  28.600  32.622  1.00  0.00     0.167 HD
ATOM     66  C   UNL A   1      45.211  28.995  29.644  1.00  0.00     0.074 A 
ATOM     67  C   UNL A   1      44.888  27.646  30.091  1.00  0.00     0.031 C 
ATOM     68  C   UNL A   1      45.138  30.203  30.274  1.00  0.00     0.037 A 
BRANCH  55  69
ATOM     69  C   UNL A   1      42.273  27.444  34.103  1.00  0.00     0.064 A 
ATOM     70  C   UNL A   1      41.894  27.556  35.454  1.00  0.00     0.173 A 
ATOM     71  C   UNL A   1      43.083  26.333  33.783  1.00  0.00     0.173 A 
ATOM     72  F   UNL A   1      41.157  28.596  35.873  1.00  0.00    -0.203 F 
ATOM     73  C   UNL A   1      42.327  26.642  36.418  1.00  0.00     0.198 A 
ATOM     74  C   UNL A   1      43.469  25.393  34.737  1.00  0.00     0.198 A 
ATOM     75  F   UNL A   1      43.610  26.176  32.561  1.00  0.00    -0.203 F 
ATOM     76  F   UNL A   1      42.028  26.843  37.708  1.00  0.00    -0.200 F 
ATOM     77  C   UNL A   1      43.114  25.561  36.059  1.00  0.00     0.200 A 
ATOM     78  F   UNL A   1      44.247  24.365  34.372  1.00  0.00    -0.200 F 
ATOM     79  F   UNL A   1      43.567  24.710  36.988  1.00  0.00    -0.200 F 
ENDBRANCH  55  69
BRANCH  56  80
ATOM     80  C   UNL A   1      44.366  26.408  25.808  1.00  0.00     0.064 A 
ATOM     81  C   UNL A   1      45.717  26.203  25.473  1.00  0.00     0.173 A 
ATOM     82  C   UNL A   1      43.475  25.375  25.461  1.00  0.00     0.173 A 
ATOM     83  F   UNL A   1      46.641  27.114  25.807  1.00  0.00    -0.203 F 
ATOM     84  C   UNL A   1      46.151  25.024  24.858  1.00  0.00     0.198 A 
ATOM     85  C   UNL A   1      43.908  24.203  24.838  1.00  0.00     0.198 A 
ATOM     86  F   UNL A   1      42.183  25.433  25.811  1.00  0.00    -0.203 F 
ATOM     87  F   UNL A   1      47.457  24.835  24.617  1.00  0.00    -0.200 F 
ATOM     88  C   UNL A   1      45.247  24.021  24.549  1.00  0.00     0.200 A 
ATOM     89  F   UNL A   1      43.028  23.227  24.577  1.00  0.00    -0.200 F 
ATOM     90  F   UNL A   1      45.670  22.867  24.016  1.00  0.00    -0.200 F 
ENDBRANCH  56  80
BRANCH  68  91
ATOM     91  C   UNL A   1      45.476  31.443  29.493  1.00  0.00     0.064 A 
ATOM     92  C   UNL A   1      46.766  31.988  29.408  1.00  0.00     0.173 A 
ATOM     93  C   UNL A   1      44.486  32.008  28.676  1.00  0.00     0.173 A 
ATOM     94  F   UNL A   1      47.777  31.490  30.131  1.00  0.00    -0.203 F 
ATOM     95  C   UNL A   1      47.047  33.043  28.540  1.00  0.00     0.198 A 
ATOM     96  C   UNL A   1      44.775  33.050  27.798  1.00  0.00     0.198 A 
ATOM     97  F   UNL A   1      43.236  31.517  28.695  1.00  0.00    -0.203 F 
ATOM     98  F   UNL A   1      48.286  33.547  28.465  1.00  0.00    -0.200 F 
ATOM     99  C   UNL A   1      46.056  33.566  27.729  1.00  0.00     0.200 A 
ATOM    100  F   UNL A   1      43.816  33.538  27.000  1.00  0.00    -0.200 F 
ATOM    101  F   UNL A   1      46.341  34.558  26.875  1.00  0.00    -0.200 F 
ENDBRANCH  68  91
ENDBRANCH  42  43
ENDBRANCH  35  37
ENDBRANCH  34  35
ENDBRANCH  33  34
ENDBRANCH  32  33
ENDBRANCH  31  32
ENDBRANCH   1  31
TORSDOF 18
ENDMDL
MODEL 3
REMARK VINA RESULT:     -12.1      1.467      2.070
REMARK SMILES O=C(Cn1c(-c2nc(-c3ccc(C(F)(F)F)cc3)no2)cc2ccccc21)OCCOCCOC(=O)c1ccc(-c2c3nc(c(-c4c(F)c(F)c(F)c(F)c4F)c4ccc([nH]4)c(-c4c(F)c(F)c(F)c(F)c4F)c4nc(c(-c5c(F)c(F)c(F)c(F)c5F)c5ccc2[nH]5)C=C4)C=C3)cc1
REMARK SMILES IDX 30 1 29 2 28 3 2 4 1 5 3 6 4 7 5 8 27 9 21 10 22 11 26 12
REMARK SMILES IDX 23 13 25 14 24 15 6 16 7 17 20 18 8 19 19 20 9 21 10 22
REMARK SMILES IDX 18 23 11 24 17 25 12 26 13 27 14 28 15 29 16 30 31 31 32 32
REMARK SMILES IDX 33 33 34 34 35 35 36 36 37 37 38 38 99 39 39 40 98 41 40 42
REMARK SMILES IDX 41 43 42 44 92 45 43 46 97 47 91 48 93 49 44 50 96 51 90 52
REMARK SMILES IDX 89 53 45 55 77 56 57 57 76 58 58 59 61 60 75 61 94 62 59 63
REMARK SMILES IDX 60 64 74 66 95 67 62 68 46 69 47 70 55 71 48 72 49 73 53 74
REMARK SMILES IDX 56 75 50 76 51 77 54 78 52 79 78 80 79 81 87 82 80 83 81 84
REMARK SMILES IDX 85 85 88 86 82 87 83 88 86 89 84 90 63 91 64 92 72 93 65 94
REMARK SMILES IDX 66 95 70 96 73 97 67 98 68 99 71 100 69 101
REMARK H PARENT 93 54 61 65
REMARK Flexibility Score: inf
ROOT
ATOM      1  C   UNL A   1      33.898  31.641  27.836  1.00  0.00     0.202 C 
ENDROOT
BRANCH   1   2
ATOM      2  C   UNL A   1      33.109  30.428  27.349  1.00  0.00     0.261 C 
BRANCH   2   3
ATOM      3  O   UNL A   1      33.734  29.670  26.302  1.00  0.00    -0.462 OA
BRANCH   3   4
ATOM      4  C   UNL A   1      33.086  28.764  25.524  1.00  0.00     0.326 C 
ATOM      5  O   UNL A   1      32.811  27.652  25.975  1.00  0.00    -0.250 OA
BRANCH   4   6
ATOM      6  C   UNL A   1      32.866  29.080  24.079  1.00  0.00     0.245 C 
BRANCH   6   7
ATOM      7  N   UNL A   1      31.631  28.632  23.436  1.00  0.00    -0.325 N 
ATOM      8  C   UNL A   1      31.305  27.395  22.908  1.00  0.00     0.109 A 
ATOM      9  C   UNL A   1      30.479  29.437  23.471  1.00  0.00     0.049 A 
ATOM     10  C   UNL A   1      29.991  27.485  22.472  1.00  0.00     0.042 A 
ATOM     11  C   UNL A   1      29.452  28.725  22.856  1.00  0.00     0.000 A 
ATOM     12  C   UNL A   1      30.236  30.707  24.032  1.00  0.00     0.027 A 
ATOM     13  C   UNL A   1      28.158  29.272  22.785  1.00  0.00     0.010 A 
ATOM     14  C   UNL A   1      28.935  31.223  23.977  1.00  0.00     0.002 A 
ATOM     15  C   UNL A   1      27.907  30.519  23.359  1.00  0.00     0.001 A 
BRANCH   8  16
ATOM     16  C   UNL A   1      31.995  26.132  22.971  1.00  0.00     0.274 A 
ATOM     17  N   UNL A   1      31.630  24.970  23.488  1.00  0.00    -0.185 NA
ATOM     18  O   UNL A   1      33.223  26.056  22.374  1.00  0.00    -0.332 OA
ATOM     19  C   UNL A   1      32.715  24.146  23.185  1.00  0.00     0.202 A 
ATOM     20  N   UNL A   1      33.691  24.784  22.528  1.00  0.00    -0.057 NA
BRANCH  19  21
ATOM     21  C   UNL A   1      32.867  22.717  23.473  1.00  0.00     0.023 A 
ATOM     22  C   UNL A   1      32.091  21.795  22.734  1.00  0.00     0.013 A 
ATOM     23  C   UNL A   1      33.752  22.208  24.426  1.00  0.00     0.013 A 
ATOM     24  C   UNL A   1      32.185  20.419  22.936  1.00  0.00     0.014 A 
ATOM     25  C   UNL A   1      33.867  20.815  24.615  1.00  0.00     0.014 A 
ATOM     26  C   UNL A   1      33.090  19.909  23.869  1.00  0.00     0.056 A 
BRANCH  26  27
ATOM     27  C   UNL A   1      33.187  18.411  24.045  1.00  0.00     0.416 C 
ATOM     28  F   UNL A   1      34.168  18.054  24.921  1.00  0.00    -0.166 F 
ATOM     29  F   UNL A   1      32.037  17.871  24.541  1.00  0.00    -0.166 F 
ATOM     30  F   UNL A   1      33.447  17.737  22.892  1.00  0.00    -0.166 F 
ENDBRANCH  26  27
ENDBRANCH  19  21
ENDBRANCH   8  16
ENDBRANCH   6   7
ENDBRANCH   4   6
ENDBRANCH   3   4
ENDBRANCH   2   3
ENDBRANCH   1   2
BRANCH   1  31
ATOM     31  O   UNL A   1      33.244  32.899  27.765  1.00  0.00    -0.374 OA
BRANCH  31  32
ATOM     32  C   UNL A   1      33.948  34.053  28.244  1.00  0.00     0.202 C 
BRANCH  32  33
ATOM     33  C   UNL A   1      34.030  34.308  29.762  1.00  0.00     0.261 C 
BRANCH  33  34
ATOM     34  O   UNL A   1      35.277  33.843  30.303  1.00  0.00    -0.460 OA
BRANCH  34  35
ATOM     35  C   UNL A   1      35.218  32.707  31.053  1.00  0.00     0.338 C 
ATOM     36  O   UNL A   1      34.297  32.314  31.734  1.00  0.00    -0.246 OA
BRANCH  35  37
ATOM     37  C   UNL A   1      36.340  31.862  30.588  1.00  0.00     0.060 A 
ATOM     38  C   UNL A   1      36.284  30.478  30.716  1.00  0.00     0.016 A 
ATOM     39  C   UNL A   1      37.541  32.509  30.253  1.00  0.00     0.016 A 
ATOM     40  C   UNL A   1      37.462  29.754  30.589  1.00  0.00     0.010 A 
ATOM     41  C   UNL A   1      38.727  31.778  30.166  1.00  0.00     0.010 A 
ATOM     42  C   UNL A   1      38.694  30.400  30.378  1.00  0.00    -0.014 A 
BRANCH  42  43
ATOM     43  C   UNL A   1      39.886  29.545  30.294  1.00  0.00     0.031 A 
ATOM     44  C   UNL A   1      40.595  29.348  31.596  1.00  0.00     0.074 A 
ATOM     45  C   UNL A   1      40.312  28.889  29.193  1.00  0.00     0.049 A 
ATOM     46  N   UNL A   1      41.840  29.547  31.894  1.00  0.00    -0.248 NA
ATOM     47  C   UNL A   1      39.763  28.928  32.736  1.00  0.00     0.031 C 
ATOM     48  C   UNL A   1      39.622  28.709  27.914  1.00  0.00     0.029 A 
ATOM     49  N   UNL A   1      41.459  28.157  29.027  1.00  0.00    -0.354 N 
ATOM     50  C   UNL A   1      41.982  29.162  33.225  1.00  0.00     0.074 A 
ATOM     51  C   UNL A   1      40.660  28.873  33.718  1.00  0.00     0.031 C 
ATOM     52  C   UNL A   1      40.263  27.761  27.190  1.00  0.00     0.029 A 
ATOM     53  C   UNL A   1      41.463  27.348  27.900  1.00  0.00     0.049 A 
ATOM     54  H   UNL A   1      42.215  28.202  29.656  1.00  0.00     0.167 HD
ATOM     55  C   UNL A   1      43.190  28.965  33.819  1.00  0.00     0.037 A 
ATOM     56  C   UNL A   1      42.341  26.353  27.615  1.00  0.00     0.037 A 
ATOM     57  C   UNL A   1      44.257  29.624  33.127  1.00  0.00     0.049 A 
ATOM     58  C   UNL A   1      43.552  26.542  28.450  1.00  0.00     0.074 A 
ATOM     59  C   UNL A   1      44.591  30.941  32.887  1.00  0.00     0.029 A 
ATOM     60  N   UNL A   1      45.081  28.888  32.316  1.00  0.00    -0.354 N 
ATOM     61  N   UNL A   1      44.449  27.468  28.271  1.00  0.00    -0.248 NA
ATOM     62  C   UNL A   1      43.592  25.871  29.739  1.00  0.00     0.031 C 
ATOM     63  C   UNL A   1      45.226  30.940  31.612  1.00  0.00     0.029 A 
ATOM     64  C   UNL A   1      45.272  29.617  31.172  1.00  0.00     0.049 A 
ATOM     65  H   UNL A   1      45.463  28.003  32.519  1.00  0.00     0.167 HD
ATOM     66  C   UNL A   1      44.879  27.788  29.550  1.00  0.00     0.074 A 
ATOM     67  C   UNL A   1      44.404  26.701  30.395  1.00  0.00     0.031 C 
ATOM     68  C   UNL A   1      45.346  29.035  29.850  1.00  0.00     0.037 A 
BRANCH  55  69
ATOM     69  C   UNL A   1      43.429  27.963  34.915  1.00  0.00     0.064 A 
ATOM     70  C   UNL A   1      43.826  28.394  36.195  1.00  0.00     0.173 A 
ATOM     71  C   UNL A   1      43.537  26.576  34.674  1.00  0.00     0.173 A 
ATOM     72  F   UNL A   1      43.801  29.696  36.516  1.00  0.00    -0.203 F 
ATOM     73  C   UNL A   1      44.329  27.504  37.148  1.00  0.00     0.198 A 
ATOM     74  C   UNL A   1      43.988  25.684  35.644  1.00  0.00     0.198 A 
ATOM     75  F   UNL A   1      43.307  26.053  33.462  1.00  0.00    -0.203 F 
ATOM     76  F   UNL A   1      44.790  27.970  38.316  1.00  0.00    -0.200 F 
ATOM     77  C   UNL A   1      44.408  26.150  36.872  1.00  0.00     0.200 A 
ATOM     78  F   UNL A   1      44.077  24.379  35.351  1.00  0.00    -0.200 F 
ATOM     79  F   UNL A   1      44.931  25.303  37.768  1.00  0.00    -0.200 F 
ENDBRANCH  55  69
BRANCH  56  80
ATOM     80  C   UNL A   1      42.096  25.070  26.908  1.00  0.00     0.064 A 
ATOM     81  C   UNL A   1      42.889  24.681  25.813  1.00  0.00     0.173 A 
ATOM     82  C   UNL A   1      41.278  24.071  27.471  1.00  0.00     0.173 A 
ATOM     83  F   UNL A   1      43.732  25.555  25.245  1.00  0.00    -0.203 F 
ATOM     84  C   UNL A   1      42.885  23.367  25.333  1.00  0.00     0.198 A 
ATOM     85  C   UNL A   1      41.267  22.763  26.983  1.00  0.00     0.198 A 
ATOM     86  F   UNL A   1      40.550  24.315  28.568  1.00  0.00    -0.203 F 
ATOM     87  F   UNL A   1      43.706  23.017  24.332  1.00  0.00    -0.200 F 
ATOM     88  C   UNL A   1      42.081  22.407  25.924  1.00  0.00     0.200 A 
ATOM     89  F   UNL A   1      40.511  21.836  27.588  1.00  0.00    -0.200 F 
ATOM     90  F   UNL A   1      42.122  21.135  25.505  1.00  0.00    -0.200 F 
ENDBRANCH  56  80
BRANCH  68  91
ATOM     91  C   UNL A   1      45.688  29.967  28.719  1.00  0.00     0.064 A 
ATOM     92  C   UNL A   1      44.743  30.745  28.033  1.00  0.00     0.173 A 
ATOM     93  C   UNL A   1      47.040  30.195  28.428  1.00  0.00     0.173 A 
ATOM     94  F   UNL A   1      43.432  30.612  28.272  1.00  0.00    -0.203 F 
ATOM     95  C   UNL A   1      45.139  31.708  27.105  1.00  0.00     0.198 A 
ATOM     96  C   UNL A   1      47.432  31.171  27.514  1.00  0.00     0.198 A 
ATOM     97  F   UNL A   1      47.993  29.498  29.067  1.00  0.00    -0.203 F 
ATOM     98  F   UNL A   1      44.225  32.448  26.463  1.00  0.00    -0.200 F 
ATOM     99  C   UNL A   1      46.481  31.928  26.854  1.00  0.00     0.200 A 
ATOM    100  F   UNL A   1      48.734  31.393  27.290  1.00  0.00    -0.200 F 
ATOM    101  F   UNL A   1      46.856  32.877  25.985  1.00  0.00    -0.200 F 
ENDBRANCH  68  91
ENDBRANCH  42  43
ENDBRANCH  35  37
ENDBRANCH  34  35
ENDBRANCH  33  34
ENDBRANCH  32  33
ENDBRANCH  31  32
ENDBRANCH   1  31
TORSDOF 18
ENDMDL
