MODEL 1
REMARK VINA RESULT:     -12.0      0.000      0.000
REMARK SMILES Cc1cc(Cl)cc2c1O[C@H](C(F)(F)F)C(C(=O)OCCOCCOC(=O)c1ccc(-c3c4nc(c(-c5c(F)c(F)c(F)c(F)c5F)c5ccc([nH]5)c(-c5c(F)c(F)c(F)c(F)c5F)c5nc(c(-c6c(F)c(F)c(F)c(F)c6F)c6ccc3[nH]6)C=C5)C=C4)cc1)=C2
REMARK SMILES IDX 22 1 21 2 20 3 19 4 18 5 16 6 17 7 15 8 1 9 2 10 3 11 8 12
REMARK SMILES IDX 4 13 7 14 9 15 5 16 6 17 90 18 10 19 11 20 12 21 13 22 14 23
REMARK SMILES IDX 23 24 24 25 25 26 26 27 27 28 28 29 89 30 29 31 88 32 30 33
REMARK SMILES IDX 31 34 32 35 82 36 33 37 87 38 81 39 83 40 34 41 86 42 80 43
REMARK SMILES IDX 79 44 35 46 67 47 47 48 66 49 48 50 51 51 65 52 84 53 49 54
REMARK SMILES IDX 50 55 64 57 85 58 52 59 36 60 37 61 45 62 38 63 39 64 43 65
REMARK SMILES IDX 46 66 40 67 41 68 44 69 42 70 68 71 69 72 77 73 70 74 71 75
REMARK SMILES IDX 75 76 78 77 72 78 73 79 76 80 74 81 53 82 54 83 62 84 55 85
REMARK SMILES IDX 56 86 60 87 63 88 57 89 58 90 61 91 59 92
REMARK H PARENT 83 45 51 56
REMARK Flexibility Score: inf
ROOT
ATOM      1  C   UNL A   1      31.781  30.764  26.599  1.00  0.00     0.202 C 
ENDROOT
BRANCH   1   2
ATOM      2  O   UNL A   1      32.568  30.097  25.610  1.00  0.00    -0.374 OA
BRANCH   2   3
ATOM      3  C   UNL A   1      33.676  29.320  26.059  1.00  0.00     0.202 C 
BRANCH   3   4
ATOM      4  C   UNL A   1      33.697  27.855  25.616  1.00  0.00     0.261 C 
BRANCH   4   5
ATOM      5  O   UNL A   1      33.664  27.740  24.185  1.00  0.00    -0.460 OA
BRANCH   5   6
ATOM      6  C   UNL A   1      32.941  26.697  23.718  1.00  0.00     0.338 C 
ATOM      7  O   UNL A   1      33.319  25.539  23.597  1.00  0.00    -0.246 OA
BRANCH   6   8
ATOM      8  C   UNL A   1      31.551  27.119  23.468  1.00  0.00     0.087 C 
ATOM      9  C   UNL A   1      26.505  28.044  23.715  1.00  0.00     0.048 C 
ATOM     10  C   UNL A   1      27.690  28.663  23.029  1.00  0.00    -0.007 A 
ATOM     11  C   UNL A   1      27.528  29.890  22.365  1.00  0.00     0.027 A 
ATOM     12  C   UNL A   1      28.974  28.098  23.116  1.00  0.00     0.131 A 
ATOM     13  C   UNL A   1      28.620  30.523  21.776  1.00  0.00     0.042 A 
ATOM     14  C   UNL A   1      30.071  28.758  22.551  1.00  0.00     0.019 A 
ATOM     15  O   UNL A   1      29.084  26.901  23.768  1.00  0.00    -0.475 OA
ATOM     16  Cl  UNL A   1      28.405  32.024  20.962  1.00  0.00    -0.084 Cl
ATOM     17  C   UNL A   1      29.890  29.963  21.864  1.00  0.00     0.032 A 
ATOM     18  C   UNL A   1      31.410  28.232  22.739  1.00  0.00     0.027 C 
ATOM     19  C   UNL A   1      30.399  26.337  24.031  1.00  0.00     0.316 C 
BRANCH  19  20
ATOM     20  C   UNL A   1      30.518  26.104  25.545  1.00  0.00     0.430 C 
ATOM     21  F   UNL A   1      30.800  27.260  26.195  1.00  0.00    -0.167 F 
ATOM     22  F   UNL A   1      29.364  25.638  26.077  1.00  0.00    -0.167 F 
ATOM     23  F   UNL A   1      31.493  25.218  25.848  1.00  0.00    -0.167 F 
ENDBRANCH  19  20
ENDBRANCH   6   8
ENDBRANCH   5   6
ENDBRANCH   4   5
ENDBRANCH   3   4
ENDBRANCH   2   3
ENDBRANCH   1   2
BRANCH   1  24
ATOM     24  C   UNL A   1      32.038  32.264  26.784  1.00  0.00     0.261 C 
BRANCH  24  25
ATOM     25  O   UNL A   1      32.746  32.539  28.008  1.00  0.00    -0.460 OA
BRANCH  25  26
ATOM     26  C   UNL A   1      33.791  33.389  27.882  1.00  0.00     0.338 C 
ATOM     27  O   UNL A   1      33.750  34.594  27.663  1.00  0.00    -0.246 OA
BRANCH  26  28
ATOM     28  C   UNL A   1      35.046  32.701  28.229  1.00  0.00     0.060 A 
ATOM     29  C   UNL A   1      34.963  31.358  28.618  1.00  0.00     0.016 A 
ATOM     30  C   UNL A   1      36.265  33.379  28.266  1.00  0.00     0.016 A 
ATOM     31  C   UNL A   1      36.093  30.699  29.091  1.00  0.00     0.010 A 
ATOM     32  C   UNL A   1      37.398  32.720  28.756  1.00  0.00     0.010 A 
ATOM     33  C   UNL A   1      37.308  31.389  29.204  1.00  0.00    -0.014 A 
BRANCH  33  34
ATOM     34  C   UNL A   1      38.431  30.760  29.938  1.00  0.00     0.031 A 
ATOM     35  C   UNL A   1      38.651  31.123  31.380  1.00  0.00     0.074 A 
ATOM     36  C   UNL A   1      39.209  29.838  29.346  1.00  0.00     0.049 A 
ATOM     37  N   UNL A   1      39.560  30.690  32.216  1.00  0.00    -0.248 NA
ATOM     38  C   UNL A   1      37.715  32.099  31.961  1.00  0.00     0.031 C 
ATOM     39  C   UNL A   1      39.060  29.368  27.972  1.00  0.00     0.029 A 
ATOM     40  N   UNL A   1      40.276  29.125  29.835  1.00  0.00    -0.354 N 
ATOM     41  C   UNL A   1      39.300  31.331  33.420  1.00  0.00     0.074 A 
ATOM     42  C   UNL A   1      38.173  32.211  33.199  1.00  0.00     0.031 C 
ATOM     43  C   UNL A   1      40.001  28.439  27.725  1.00  0.00     0.029 A 
ATOM     44  C   UNL A   1      40.834  28.272  28.915  1.00  0.00     0.049 A 
ATOM     45  H   UNL A   1      40.609  29.218  30.756  1.00  0.00     0.167 HD
ATOM     46  C   UNL A   1      39.935  31.188  34.606  1.00  0.00     0.037 A 
ATOM     47  C   UNL A   1      41.902  27.458  29.022  1.00  0.00     0.037 A 
ATOM     48  C   UNL A   1      41.059  30.315  34.824  1.00  0.00     0.049 A 
ATOM     49  C   UNL A   1      42.652  27.388  30.327  1.00  0.00     0.074 A 
ATOM     50  C   UNL A   1      41.769  30.100  35.992  1.00  0.00     0.029 A 
ATOM     51  N   UNL A   1      41.638  29.518  33.848  1.00  0.00    -0.354 N 
ATOM     52  N   UNL A   1      42.395  27.990  31.462  1.00  0.00    -0.248 NA
ATOM     53  C   UNL A   1      43.845  26.528  30.363  1.00  0.00     0.031 C 
ATOM     54  C   UNL A   1      42.806  29.206  35.712  1.00  0.00     0.029 A 
ATOM     55  C   UNL A   1      42.715  28.828  34.383  1.00  0.00     0.049 A 
ATOM     56  H   UNL A   1      41.331  29.451  32.916  1.00  0.00     0.167 HD
ATOM     57  C   UNL A   1      43.375  27.568  32.351  1.00  0.00     0.074 A 
ATOM     58  C   UNL A   1      44.227  26.648  31.627  1.00  0.00     0.031 C 
ATOM     59  C   UNL A   1      43.552  27.913  33.650  1.00  0.00     0.037 A 
BRANCH  46  60
ATOM     60  C   UNL A   1      39.438  31.998  35.765  1.00  0.00     0.064 A 
ATOM     61  C   UNL A   1      38.457  31.502  36.637  1.00  0.00     0.173 A 
ATOM     62  C   UNL A   1      39.986  33.259  36.040  1.00  0.00     0.173 A 
ATOM     63  F   UNL A   1      37.893  30.306  36.407  1.00  0.00    -0.203 F 
ATOM     64  C   UNL A   1      38.035  32.245  37.735  1.00  0.00     0.198 A 
ATOM     65  C   UNL A   1      39.579  33.989  37.154  1.00  0.00     0.198 A 
ATOM     66  F   UNL A   1      40.928  33.776  35.238  1.00  0.00    -0.203 F 
ATOM     67  F   UNL A   1      37.074  31.765  38.538  1.00  0.00    -0.200 F 
ATOM     68  C   UNL A   1      38.601  33.483  37.998  1.00  0.00     0.200 A 
ATOM     69  F   UNL A   1      40.135  35.180  37.412  1.00  0.00    -0.200 F 
ATOM     70  F   UNL A   1      38.203  34.192  39.063  1.00  0.00    -0.200 F 
ENDBRANCH  46  60
BRANCH  47  71
ATOM     71  C   UNL A   1      42.323  26.638  27.858  1.00  0.00     0.064 A 
ATOM     72  C   UNL A   1      41.773  25.369  27.633  1.00  0.00     0.173 A 
ATOM     73  C   UNL A   1      43.278  27.107  26.943  1.00  0.00     0.173 A 
ATOM     74  F   UNL A   1      40.876  24.867  28.495  1.00  0.00    -0.203 F 
ATOM     75  C   UNL A   1      42.166  24.597  26.542  1.00  0.00     0.198 A 
ATOM     76  C   UNL A   1      43.651  26.345  25.838  1.00  0.00     0.198 A 
ATOM     77  F   UNL A   1      43.837  28.313  27.117  1.00  0.00    -0.203 F 
ATOM     78  F   UNL A   1      41.648  23.373  26.368  1.00  0.00    -0.200 F 
ATOM     79  C   UNL A   1      43.099  25.089  25.641  1.00  0.00     0.200 A 
ATOM     80  F   UNL A   1      44.547  26.828  24.966  1.00  0.00    -0.200 F 
ATOM     81  F   UNL A   1      43.470  24.350  24.587  1.00  0.00    -0.200 F 
ENDBRANCH  47  71
BRANCH  59  82
ATOM     82  C   UNL A   1      44.699  27.289  34.388  1.00  0.00     0.064 A 
ATOM     83  C   UNL A   1      45.948  27.924  34.468  1.00  0.00     0.173 A 
ATOM     84  C   UNL A   1      44.525  26.088  35.092  1.00  0.00     0.173 A 
ATOM     85  F   UNL A   1      46.167  29.068  33.802  1.00  0.00    -0.203 F 
ATOM     86  C   UNL A   1      46.982  27.373  35.219  1.00  0.00     0.198 A 
ATOM     87  C   UNL A   1      45.553  25.555  35.864  1.00  0.00     0.198 A 
ATOM     88  F   UNL A   1      43.347  25.448  35.055  1.00  0.00    -0.203 F 
ATOM     89  F   UNL A   1      48.175  27.982  35.260  1.00  0.00    -0.200 F 
ATOM     90  C   UNL A   1      46.780  26.196  35.925  1.00  0.00     0.200 A 
ATOM     91  F   UNL A   1      45.352  24.425  36.558  1.00  0.00    -0.200 F 
ATOM     92  F   UNL A   1      47.772  25.677  36.663  1.00  0.00    -0.200 F 
ENDBRANCH  59  82
ENDBRANCH  33  34
ENDBRANCH  26  28
ENDBRANCH  25  26
ENDBRANCH  24  25
ENDBRANCH   1  24
TORSDOF 15
ENDMDL
MODEL 2
REMARK VINA RESULT:     -11.9      0.670      1.726
REMARK SMILES Cc1cc(Cl)cc2c1O[C@H](C(F)(F)F)C(C(=O)OCCOCCOC(=O)c1ccc(-c3c4nc(c(-c5c(F)c(F)c(F)c(F)c5F)c5ccc([nH]5)c(-c5c(F)c(F)c(F)c(F)c5F)c5nc(c(-c6c(F)c(F)c(F)c(F)c6F)c6ccc3[nH]6)C=C5)C=C4)cc1)=C2
REMARK SMILES IDX 22 1 21 2 20 3 19 4 18 5 16 6 17 7 15 8 1 9 2 10 3 11 8 12
REMARK SMILES IDX 4 13 7 14 9 15 5 16 6 17 90 18 10 19 11 20 12 21 13 22 14 23
REMARK SMILES IDX 23 24 24 25 25 26 26 27 27 28 28 29 89 30 29 31 88 32 30 33
REMARK SMILES IDX 31 34 32 35 82 36 33 37 87 38 81 39 83 40 34 41 86 42 80 43
REMARK SMILES IDX 79 44 35 46 67 47 47 48 66 49 48 50 51 51 65 52 84 53 49 54
REMARK SMILES IDX 50 55 64 57 85 58 52 59 36 60 37 61 45 62 38 63 39 64 43 65
REMARK SMILES IDX 46 66 40 67 41 68 44 69 42 70 68 71 69 72 77 73 70 74 71 75
REMARK SMILES IDX 75 76 78 77 72 78 73 79 76 80 74 81 53 82 54 83 62 84 55 85
REMARK SMILES IDX 56 86 60 87 63 88 57 89 58 90 61 91 59 92
REMARK H PARENT 83 45 51 56
REMARK Flexibility Score: inf
ROOT
ATOM      1  C   UNL A   1      32.049  29.880  25.711  1.00  0.00     0.202 C 
ENDROOT
BRANCH   1   2
ATOM      2  O   UNL A   1      33.340  29.303  25.504  1.00  0.00    -0.374 OA
BRANCH   2   3
ATOM      3  C   UNL A   1      33.701  28.184  26.311  1.00  0.00     0.202 C 
BRANCH   3   4
ATOM      4  C   UNL A   1      33.709  26.823  25.612  1.00  0.00     0.261 C 
BRANCH   4   5
ATOM      5  O   UNL A   1      33.496  26.958  24.198  1.00  0.00    -0.460 OA
BRANCH   5   6
ATOM      6  C   UNL A   1      32.660  26.040  23.662  1.00  0.00     0.338 C 
ATOM      7  O   UNL A   1      32.905  24.858  23.456  1.00  0.00    -0.246 OA
BRANCH   6   8
ATOM      8  C   UNL A   1      31.328  26.634  23.449  1.00  0.00     0.087 C 
ATOM      9  C   UNL A   1      26.435  28.152  23.817  1.00  0.00     0.048 C 
ATOM     10  C   UNL A   1      27.675  28.644  23.127  1.00  0.00    -0.007 A 
ATOM     11  C   UNL A   1      27.653  29.902  22.502  1.00  0.00     0.027 A 
ATOM     12  C   UNL A   1      28.883  27.927  23.174  1.00  0.00     0.131 A 
ATOM     13  C   UNL A   1      28.805  30.417  21.911  1.00  0.00     0.042 A 
ATOM     14  C   UNL A   1      30.043  28.467  22.609  1.00  0.00     0.019 A 
ATOM     15  O   UNL A   1      28.858  26.706  23.789  1.00  0.00    -0.475 OA
ATOM     16  Cl  UNL A   1      28.761  31.957  21.146  1.00  0.00    -0.084 Cl
ATOM     17  C   UNL A   1      29.999  29.705  21.959  1.00  0.00     0.032 A 
ATOM     18  C   UNL A   1      31.312  27.778  22.756  1.00  0.00     0.027 C 
ATOM     19  C   UNL A   1      30.098  25.979  24.012  1.00  0.00     0.316 C 
BRANCH  19  20
ATOM     20  C   UNL A   1      30.211  25.687  25.515  1.00  0.00     0.430 C 
ATOM     21  F   UNL A   1      30.699  26.760  26.186  1.00  0.00    -0.167 F 
ATOM     22  F   UNL A   1      29.007  25.407  26.068  1.00  0.00    -0.167 F 
ATOM     23  F   UNL A   1      31.028  24.641  25.770  1.00  0.00    -0.167 F 
ENDBRANCH  19  20
ENDBRANCH   6   8
ENDBRANCH   5   6
ENDBRANCH   4   5
ENDBRANCH   3   4
ENDBRANCH   2   3
ENDBRANCH   1   2
BRANCH   1  24
ATOM     24  C   UNL A   1      32.007  31.212  26.472  1.00  0.00     0.261 C 
BRANCH  24  25
ATOM     25  O   UNL A   1      32.853  31.189  27.638  1.00  0.00    -0.460 OA
BRANCH  25  26
ATOM     26  C   UNL A   1      33.757  32.193  27.704  1.00  0.00     0.338 C 
ATOM     27  O   UNL A   1      33.542  33.397  27.628  1.00  0.00    -0.246 OA
BRANCH  26  28
ATOM     28  C   UNL A   1      35.079  31.658  28.071  1.00  0.00     0.060 A 
ATOM     29  C   UNL A   1      35.165  30.293  28.374  1.00  0.00     0.016 A 
ATOM     30  C   UNL A   1      36.192  32.489  28.209  1.00  0.00     0.016 A 
ATOM     31  C   UNL A   1      36.354  29.762  28.863  1.00  0.00     0.010 A 
ATOM     32  C   UNL A   1      37.383  31.957  28.715  1.00  0.00     0.010 A 
ATOM     33  C   UNL A   1      37.457  30.600  29.078  1.00  0.00    -0.014 A 
BRANCH  33  34
ATOM     34  C   UNL A   1      38.624  30.080  29.828  1.00  0.00     0.031 A 
ATOM     35  C   UNL A   1      38.853  30.553  31.235  1.00  0.00     0.074 A 
ATOM     36  C   UNL A   1      39.437  29.157  29.283  1.00  0.00     0.049 A 
ATOM     37  N   UNL A   1      39.799  30.225  32.079  1.00  0.00    -0.248 NA
ATOM     38  C   UNL A   1      37.881  31.521  31.769  1.00  0.00     0.031 C 
ATOM     39  C   UNL A   1      39.285  28.585  27.949  1.00  0.00     0.029 A 
ATOM     40  N   UNL A   1      40.548  28.534  29.796  1.00  0.00    -0.354 N 
ATOM     41  C   UNL A   1      39.530  30.936  33.240  1.00  0.00     0.074 A 
ATOM     42  C   UNL A   1      38.356  31.742  32.985  1.00  0.00     0.031 C 
ATOM     43  C   UNL A   1      40.267  27.689  27.746  1.00  0.00     0.029 A 
ATOM     44  C   UNL A   1      41.130  27.647  28.926  1.00  0.00     0.049 A 
ATOM     45  H   UNL A   1      40.893  28.707  30.701  1.00  0.00     0.167 HD
ATOM     46  C   UNL A   1      40.195  30.908  34.419  1.00  0.00     0.037 A 
ATOM     47  C   UNL A   1      42.240  26.895  29.064  1.00  0.00     0.037 A 
ATOM     48  C   UNL A   1      41.365  30.109  34.672  1.00  0.00     0.049 A 
ATOM     49  C   UNL A   1      43.017  26.955  30.353  1.00  0.00     0.074 A 
ATOM     50  C   UNL A   1      42.107  30.012  35.835  1.00  0.00     0.029 A 
ATOM     51  N   UNL A   1      41.965  29.275  33.741  1.00  0.00    -0.354 N 
ATOM     52  N   UNL A   1      42.752  27.622  31.449  1.00  0.00    -0.248 NA
ATOM     53  C   UNL A   1      44.253  26.158  30.422  1.00  0.00     0.031 C 
ATOM     54  C   UNL A   1      43.183  29.152  35.595  1.00  0.00     0.029 A 
ATOM     55  C   UNL A   1      43.085  28.678  34.297  1.00  0.00     0.049 A 
ATOM     56  H   UNL A   1      41.643  29.128  32.823  1.00  0.00     0.167 HD
ATOM     57  C   UNL A   1      43.769  27.312  32.343  1.00  0.00     0.074 A 
ATOM     58  C   UNL A   1      44.652  26.386  31.666  1.00  0.00     0.031 C 
ATOM     59  C   UNL A   1      43.953  27.756  33.611  1.00  0.00     0.037 A 
BRANCH  46  60
ATOM     60  C   UNL A   1      39.680  31.772  35.530  1.00  0.00     0.064 A 
ATOM     61  C   UNL A   1      40.161  33.076  35.725  1.00  0.00     0.173 A 
ATOM     62  C   UNL A   1      38.657  31.316  36.373  1.00  0.00     0.173 A 
ATOM     63  F   UNL A   1      41.149  33.553  34.953  1.00  0.00    -0.203 F 
ATOM     64  C   UNL A   1      39.644  33.886  36.732  1.00  0.00     0.198 A 
ATOM     65  C   UNL A   1      38.125  32.137  37.364  1.00  0.00     0.198 A 
ATOM     66  F   UNL A   1      38.162  30.078  36.226  1.00  0.00    -0.203 F 
ATOM     67  F   UNL A   1      40.140  35.117  36.921  1.00  0.00    -0.200 F 
ATOM     68  C   UNL A   1      38.622  33.419  37.545  1.00  0.00     0.200 A 
ATOM     69  F   UNL A   1      37.130  31.689  38.141  1.00  0.00    -0.200 F 
ATOM     70  F   UNL A   1      38.116  34.205  38.506  1.00  0.00    -0.200 F 
ENDBRANCH  46  60
BRANCH  47  71
ATOM     71  C   UNL A   1      42.679  26.018  27.950  1.00  0.00     0.064 A 
ATOM     72  C   UNL A   1      42.193  24.709  27.829  1.00  0.00     0.173 A 
ATOM     73  C   UNL A   1      43.588  26.469  26.981  1.00  0.00     0.173 A 
ATOM     74  F   UNL A   1      41.342  24.224  28.746  1.00  0.00    -0.203 F 
ATOM     75  C   UNL A   1      42.603  23.882  26.785  1.00  0.00     0.198 A 
ATOM     76  C   UNL A   1      43.979  25.650  25.924  1.00  0.00     0.198 A 
ATOM     77  F   UNL A   1      44.086  27.711  27.057  1.00  0.00    -0.203 F 
ATOM     78  F   UNL A   1      42.148  22.624  26.711  1.00  0.00    -0.200 F 
ATOM     79  C   UNL A   1      43.490  24.356  25.830  1.00  0.00     0.200 A 
ATOM     80  F   UNL A   1      44.829  26.115  24.998  1.00  0.00    -0.200 F 
ATOM     81  F   UNL A   1      43.877  23.564  24.821  1.00  0.00    -0.200 F 
ENDBRANCH  47  71
BRANCH  59  82
ATOM     82  C   UNL A   1      45.145  27.242  34.364  1.00  0.00     0.064 A 
ATOM     83  C   UNL A   1      45.086  26.049  35.099  1.00  0.00     0.173 A 
ATOM     84  C   UNL A   1      46.380  27.904  34.280  1.00  0.00     0.173 A 
ATOM     85  F   UNL A   1      43.925  25.388  35.219  1.00  0.00    -0.203 F 
ATOM     86  C   UNL A   1      46.218  25.542  35.731  1.00  0.00     0.198 A 
ATOM     87  C   UNL A   1      47.516  27.380  34.890  1.00  0.00     0.198 A 
ATOM     88  F   UNL A   1      46.490  29.043  33.580  1.00  0.00    -0.203 F 
ATOM     89  F   UNL A   1      46.133  24.416  36.451  1.00  0.00    -0.200 F 
ATOM     90  C   UNL A   1      47.433  26.202  35.616  1.00  0.00     0.200 A 
ATOM     91  F   UNL A   1      48.692  28.010  34.766  1.00  0.00    -0.200 F 
ATOM     92  F   UNL A   1      48.527  25.702  36.209  1.00  0.00    -0.200 F 
ENDBRANCH  59  82
ENDBRANCH  33  34
ENDBRANCH  26  28
ENDBRANCH  25  26
ENDBRANCH  24  25
ENDBRANCH   1  24
TORSDOF 15
ENDMDL
MODEL 3
REMARK VINA RESULT:     -11.9      2.539      8.217
REMARK SMILES Cc1cc(Cl)cc2c1O[C@H](C(F)(F)F)C(C(=O)OCCOCCOC(=O)c1ccc(-c3c4nc(c(-c5c(F)c(F)c(F)c(F)c5F)c5ccc([nH]5)c(-c5c(F)c(F)c(F)c(F)c5F)c5nc(c(-c6c(F)c(F)c(F)c(F)c6F)c6ccc3[nH]6)C=C5)C=C4)cc1)=C2
REMARK SMILES IDX 22 1 21 2 20 3 19 4 18 5 16 6 17 7 15 8 1 9 2 10 3 11 8 12
REMARK SMILES IDX 4 13 7 14 9 15 5 16 6 17 90 18 10 19 11 20 12 21 13 22 14 23
REMARK SMILES IDX 23 24 24 25 25 26 26 27 27 28 28 29 89 30 29 31 88 32 30 33
REMARK SMILES IDX 31 34 32 35 82 36 33 37 87 38 81 39 83 40 34 41 86 42 80 43
REMARK SMILES IDX 79 44 35 46 67 47 47 48 66 49 48 50 51 51 65 52 84 53 49 54
REMARK SMILES IDX 50 55 64 57 85 58 52 59 36 60 37 61 45 62 38 63 39 64 43 65
REMARK SMILES IDX 46 66 40 67 41 68 44 69 42 70 68 71 69 72 77 73 70 74 71 75
REMARK SMILES IDX 75 76 78 77 72 78 73 79 76 80 74 81 53 82 54 83 62 84 55 85
REMARK SMILES IDX 56 86 60 87 63 88 57 89 58 90 61 91 59 92
REMARK H PARENT 83 45 51 56
REMARK Flexibility Score: inf
ROOT
ATOM      1  C   UNL A   1      31.800  29.155  25.389  1.00  0.00     0.202 C 
ENDROOT
BRANCH   1   2
ATOM      2  O   UNL A   1      31.308  28.899  24.073  1.00  0.00    -0.374 OA
BRANCH   2   3
ATOM      3  C   UNL A   1      30.548  27.709  23.871  1.00  0.00     0.202 C 
BRANCH   3   4
ATOM      4  C   UNL A   1      30.672  27.054  22.493  1.00  0.00     0.261 C 
BRANCH   4   5
ATOM      5  O   UNL A   1      31.151  25.703  22.595  1.00  0.00    -0.460 OA
BRANCH   5   6
ATOM      6  C   UNL A   1      32.379  25.497  22.068  1.00  0.00     0.338 C 
ATOM      7  O   UNL A   1      32.926  26.167  21.202  1.00  0.00    -0.246 OA
BRANCH   6   8
ATOM      8  C   UNL A   1      33.050  24.389  22.771  1.00  0.00     0.087 C 
ATOM      9  C   UNL A   1      35.663  21.431  26.059  1.00  0.00     0.048 C 
ATOM     10  C   UNL A   1      34.590  21.223  25.027  1.00  0.00    -0.007 A 
ATOM     11  C   UNL A   1      33.964  19.968  24.940  1.00  0.00     0.027 A 
ATOM     12  C   UNL A   1      34.127  22.274  24.218  1.00  0.00     0.131 A 
ATOM     13  C   UNL A   1      32.920  19.761  24.041  1.00  0.00     0.042 A 
ATOM     14  C   UNL A   1      33.056  22.067  23.342  1.00  0.00     0.019 A 
ATOM     15  O   UNL A   1      34.767  23.477  24.333  1.00  0.00    -0.475 OA
ATOM     16  Cl  UNL A   1      32.167  18.218  23.942  1.00  0.00    -0.084 Cl
ATOM     17  C   UNL A   1      32.464  20.803  23.240  1.00  0.00     0.032 A 
ATOM     18  C   UNL A   1      32.506  23.180  22.590  1.00  0.00     0.027 C 
ATOM     19  C   UNL A   1      34.245  24.647  23.643  1.00  0.00     0.316 C 
BRANCH  19  20
ATOM     20  C   UNL A   1      33.997  25.741  24.692  1.00  0.00     0.430 C 
ATOM     21  F   UNL A   1      34.900  25.664  25.700  1.00  0.00    -0.167 F 
ATOM     22  F   UNL A   1      34.116  26.982  24.166  1.00  0.00    -0.167 F 
ATOM     23  F   UNL A   1      32.765  25.648  25.240  1.00  0.00    -0.167 F 
ENDBRANCH  19  20
ENDBRANCH   6   8
ENDBRANCH   5   6
ENDBRANCH   4   5
ENDBRANCH   3   4
ENDBRANCH   2   3
ENDBRANCH   1   2
BRANCH   1  24
ATOM     24  C   UNL A   1      31.805  30.619  25.847  1.00  0.00     0.261 C 
BRANCH  24  25
ATOM     25  O   UNL A   1      32.364  30.765  27.167  1.00  0.00    -0.460 OA
BRANCH  25  26
ATOM     26  C   UNL A   1      33.140  31.859  27.338  1.00  0.00     0.338 C 
ATOM     27  O   UNL A   1      32.800  33.034  27.265  1.00  0.00    -0.246 OA
BRANCH  26  28
ATOM     28  C   UNL A   1      34.474  31.462  27.819  1.00  0.00     0.060 A 
ATOM     29  C   UNL A   1      34.685  30.107  28.101  1.00  0.00     0.016 A 
ATOM     30  C   UNL A   1      35.469  32.407  28.079  1.00  0.00     0.016 A 
ATOM     31  C   UNL A   1      35.876  29.695  28.691  1.00  0.00     0.010 A 
ATOM     32  C   UNL A   1      36.661  31.993  28.685  1.00  0.00     0.010 A 
ATOM     33  C   UNL A   1      36.853  30.643  29.026  1.00  0.00    -0.014 A 
BRANCH  33  34
ATOM     34  C   UNL A   1      37.997  30.232  29.874  1.00  0.00     0.031 A 
ATOM     35  C   UNL A   1      39.027  29.300  29.301  1.00  0.00     0.074 A 
ATOM     36  C   UNL A   1      38.146  30.725  31.115  1.00  0.00     0.049 A 
ATOM     37  N   UNL A   1      40.111  28.819  29.855  1.00  0.00    -0.248 NA
ATOM     38  C   UNL A   1      38.813  28.855  27.915  1.00  0.00     0.031 C 
ATOM     39  C   UNL A   1      37.241  31.674  31.758  1.00  0.00     0.029 A 
ATOM     40  N   UNL A   1      39.122  30.498  32.053  1.00  0.00    -0.354 N 
ATOM     41  C   UNL A   1      40.710  28.026  28.885  1.00  0.00     0.074 A 
ATOM     42  C   UNL A   1      39.853  28.059  27.720  1.00  0.00     0.031 C 
ATOM     43  C   UNL A   1      37.706  31.954  32.988  1.00  0.00     0.029 A 
ATOM     44  C   UNL A   1      38.925  31.182  33.227  1.00  0.00     0.049 A 
ATOM     45  H   UNL A   1      39.891  29.903  31.898  1.00  0.00     0.167 HD
ATOM     46  C   UNL A   1      41.877  27.345  28.955  1.00  0.00     0.037 A 
ATOM     47  C   UNL A   1      39.643  31.174  34.368  1.00  0.00     0.037 A 
ATOM     48  C   UNL A   1      42.727  27.309  30.115  1.00  0.00     0.049 A 
ATOM     49  C   UNL A   1      40.888  30.331  34.453  1.00  0.00     0.074 A 
ATOM     50  C   UNL A   1      43.932  26.649  30.282  1.00  0.00     0.029 A 
ATOM     51  N   UNL A   1      42.457  27.960  31.310  1.00  0.00    -0.354 N 
ATOM     52  N   UNL A   1      41.452  29.592  33.529  1.00  0.00    -0.248 NA
ATOM     53  C   UNL A   1      41.594  30.317  35.744  1.00  0.00     0.031 C 
ATOM     54  C   UNL A   1      44.369  26.863  31.592  1.00  0.00     0.029 A 
ATOM     55  C   UNL A   1      43.461  27.694  32.227  1.00  0.00     0.049 A 
ATOM     56  H   UNL A   1      41.671  28.526  31.480  1.00  0.00     0.167 HD
ATOM     57  C   UNL A   1      42.586  29.045  34.114  1.00  0.00     0.074 A 
ATOM     58  C   UNL A   1      42.639  29.546  35.472  1.00  0.00     0.031 C 
ATOM     59  C   UNL A   1      43.501  28.203  33.575  1.00  0.00     0.037 A 
BRANCH  46  60
ATOM     60  C   UNL A   1      42.305  26.571  27.745  1.00  0.00     0.064 A 
ATOM     61  C   UNL A   1      43.218  27.104  26.821  1.00  0.00     0.173 A 
ATOM     62  C   UNL A   1      41.844  25.264  27.535  1.00  0.00     0.173 A 
ATOM     63  F   UNL A   1      43.676  28.356  26.972  1.00  0.00    -0.203 F 
ATOM     64  C   UNL A   1      43.642  26.359  25.724  1.00  0.00     0.198 A 
ATOM     65  C   UNL A   1      42.290  24.512  26.450  1.00  0.00     0.198 A 
ATOM     66  F   UNL A   1      40.974  24.708  28.390  1.00  0.00    -0.203 F 
ATOM     67  F   UNL A   1      44.490  26.900  24.838  1.00  0.00    -0.200 F 
ATOM     68  C   UNL A   1      43.185  25.063  25.544  1.00  0.00     0.200 A 
ATOM     69  F   UNL A   1      41.856  23.256  26.283  1.00  0.00    -0.200 F 
ATOM     70  F   UNL A   1      43.605  24.342  24.494  1.00  0.00    -0.200 F 
ENDBRANCH  46  60
BRANCH  47  71
ATOM     71  C   UNL A   1      39.201  31.998  35.521  1.00  0.00     0.064 A 
ATOM     72  C   UNL A   1      39.603  33.335  35.648  1.00  0.00     0.173 A 
ATOM     73  C   UNL A   1      38.366  31.471  36.517  1.00  0.00     0.173 A 
ATOM     74  F   UNL A   1      40.422  33.876  34.734  1.00  0.00    -0.203 F 
ATOM     75  C   UNL A   1      39.190  34.112  36.729  1.00  0.00     0.198 A 
ATOM     76  C   UNL A   1      37.934  32.255  37.585  1.00  0.00     0.198 A 
ATOM     77  F   UNL A   1      37.959  30.195  36.444  1.00  0.00    -0.203 F 
ATOM     78  F   UNL A   1      39.615  35.378  36.842  1.00  0.00    -0.200 F 
ATOM     79  C   UNL A   1      38.351  33.573  37.692  1.00  0.00     0.200 A 
ATOM     80  F   UNL A   1      37.116  31.733  38.509  1.00  0.00    -0.200 F 
ATOM     81  F   UNL A   1      37.947  34.322  38.727  1.00  0.00    -0.200 F 
ENDBRANCH  47  71
BRANCH  59  82
ATOM     82  C   UNL A   1      44.649  27.773  34.439  1.00  0.00     0.064 A 
ATOM     83  C   UNL A   1      45.819  28.542  34.536  1.00  0.00     0.173 A 
ATOM     84  C   UNL A   1      44.546  26.627  35.242  1.00  0.00     0.173 A 
ATOM     85  F   UNL A   1      45.969  29.639  33.778  1.00  0.00    -0.203 F 
ATOM     86  C   UNL A   1      46.847  28.173  35.399  1.00  0.00     0.198 A 
ATOM     87  C   UNL A   1      45.565  26.277  36.124  1.00  0.00     0.198 A 
ATOM     88  F   UNL A   1      43.444  25.864  35.194  1.00  0.00    -0.203 F 
ATOM     89  F   UNL A   1      47.966  28.907  35.456  1.00  0.00    -0.200 F 
ATOM     90  C   UNL A   1      46.714  27.048  36.200  1.00  0.00     0.200 A 
ATOM     91  F   UNL A   1      45.429  25.198  36.909  1.00  0.00    -0.200 F 
ATOM     92  F   UNL A   1      47.697  26.706  37.045  1.00  0.00    -0.200 F 
ENDBRANCH  59  82
ENDBRANCH  33  34
ENDBRANCH  26  28
ENDBRANCH  25  26
ENDBRANCH  24  25
ENDBRANCH   1  24
TORSDOF 15
ENDMDL
