MODEL 1
REMARK VINA RESULT:     -11.9      0.000      0.000
REMARK SMILES O=C(C[N@@H+]1C[C@@]2([N+](=O)[O-])CC=C(Cl)[C@@]([N+](=O)[O-])(C1)C2)OCCOCCOC(=O)c1ccc(-c2c3nc(c(-c4c(F)c(F)c(F)c(F)c4F)c4ccc([nH]4)c(-c4c(F)c(F)c(F)c(F)c4F)c4nc(c(-c5c(F)c(F)c(F)c(F)c5F)c5ccc2[nH]5)C=C4)C=C3)cc1
REMARK SMILES IDX 23 1 22 2 21 3 20 4 2 5 1 6 3 7 4 8 5 9 18 10 6 12 14 13
REMARK SMILES IDX 10 14 19 15 12 16 11 17 13 18 7 19 8 20 9 21 15 22 16 23
REMARK SMILES IDX 17 24 24 25 25 26 26 27 27 28 28 29 29 30 30 31 91 32 31 33
REMARK SMILES IDX 90 34 32 35 33 36 34 37 84 38 35 39 89 40 83 41 85 42 36 43
REMARK SMILES IDX 88 44 82 45 81 46 37 48 69 49 49 50 68 51 50 52 53 53 67 54
REMARK SMILES IDX 86 55 51 56 52 57 66 59 87 60 54 61 38 62 39 63 47 64 40 65
REMARK SMILES IDX 41 66 45 67 48 68 42 69 43 70 46 71 44 72 70 73 71 74 79 75
REMARK SMILES IDX 72 76 73 77 77 78 80 79 74 80 75 81 78 82 76 83 55 84 56 85
REMARK SMILES IDX 64 86 57 87 58 88 62 89 65 90 59 91 60 92 63 93 61 94
REMARK H PARENT 4 11 85 47 53 58
REMARK Flexibility Score: inf
ROOT
ATOM      1  O   UNL A   1      42.627  20.569  26.462  1.00  0.00    -0.374 OA
ENDROOT
BRANCH   1   2
ATOM      2  C   UNL A   1      41.386  20.956  27.038  1.00  0.00     0.202 C 
BRANCH   2   3
ATOM      3  C   UNL A   1      40.171  21.072  26.125  1.00  0.00     0.261 C 
BRANCH   3   4
ATOM      4  O   UNL A   1      39.159  21.995  26.550  1.00  0.00    -0.459 OA
BRANCH   4   5
ATOM      5  C   UNL A   1      38.128  22.426  25.778  1.00  0.00     0.361 C 
ATOM      6  O   UNL A   1      37.767  23.600  25.847  1.00  0.00    -0.245 OA
BRANCH   5   7
ATOM      7  C   UNL A   1      37.391  21.433  24.876  1.00  0.00     0.386 C 
BRANCH   7   8
ATOM      8  N   UNL A   1      35.938  21.605  24.967  1.00  0.00    -0.313 N 
ATOM      9  C   UNL A   1      35.221  20.327  24.962  1.00  0.00     0.350 C 
ATOM     10  C   UNL A   1      35.395  22.601  24.018  1.00  0.00     0.356 C 
ATOM     11  H   UNL A   1      35.761  22.016  25.884  1.00  0.00     0.349 HD
ATOM     12  C   UNL A   1      33.717  20.534  25.221  1.00  0.00     0.280 C 
ATOM     13  C   UNL A   1      33.872  22.826  24.249  1.00  0.00     0.311 C 
ATOM     14  C   UNL A   1      33.400  21.124  26.626  1.00  0.00     0.121 C 
ATOM     15  C   UNL A   1      33.149  21.461  24.131  1.00  0.00     0.191 C 
ATOM     16  C   UNL A   1      33.604  23.420  25.627  1.00  0.00     0.097 C 
ATOM     17  C   UNL A   1      33.380  22.636  26.697  1.00  0.00     0.004 C 
ATOM     18  Cl  UNL A   1      33.694  25.132  25.855  1.00  0.00    -0.081 Cl
BRANCH  12  19
ATOM     19  N   UNL A   1      33.108  19.147  25.120  1.00  0.00     0.032 N 
ATOM     20  O   UNL A   1      32.527  18.704  26.119  1.00  0.00    -0.264 OA
ATOM     21  O   UNL A   1      33.292  18.521  24.070  1.00  0.00    -0.264 OA
ENDBRANCH  12  19
BRANCH  13  22
ATOM     22  N   UNL A   1      33.318  23.750  23.170  1.00  0.00     0.038 N 
ATOM     23  O   UNL A   1      34.115  24.247  22.363  1.00  0.00    -0.263 OA
ATOM     24  O   UNL A   1      32.093  23.937  23.158  1.00  0.00    -0.263 OA
ENDBRANCH  13  22
ENDBRANCH   7   8
ENDBRANCH   5   7
ENDBRANCH   4   5
ENDBRANCH   3   4
ENDBRANCH   2   3
ENDBRANCH   1   2
BRANCH   1  25
ATOM     25  C   UNL A   1      43.617  21.589  26.294  1.00  0.00     0.202 C 
BRANCH  25  26
ATOM     26  C   UNL A   1      43.787  22.177  24.891  1.00  0.00     0.261 C 
BRANCH  26  27
ATOM     27  O   UNL A   1      43.022  23.378  24.727  1.00  0.00    -0.460 OA
BRANCH  27  28
ATOM     28  C   UNL A   1      43.693  24.510  25.032  1.00  0.00     0.338 C 
ATOM     29  O   UNL A   1      44.797  24.850  24.627  1.00  0.00    -0.246 OA
BRANCH  28  30
ATOM     30  C   UNL A   1      42.813  25.419  25.786  1.00  0.00     0.060 A 
ATOM     31  C   UNL A   1      43.235  26.749  25.925  1.00  0.00     0.016 A 
ATOM     32  C   UNL A   1      41.635  24.974  26.390  1.00  0.00     0.016 A 
ATOM     33  C   UNL A   1      42.551  27.604  26.776  1.00  0.00     0.010 A 
ATOM     34  C   UNL A   1      40.948  25.833  27.247  1.00  0.00     0.010 A 
ATOM     35  C   UNL A   1      41.455  27.120  27.499  1.00  0.00    -0.014 A 
BRANCH  35  36
ATOM     36  C   UNL A   1      41.029  27.861  28.704  1.00  0.00     0.031 A 
ATOM     37  C   UNL A   1      41.844  27.695  29.959  1.00  0.00     0.074 A 
ATOM     38  C   UNL A   1      39.993  28.713  28.658  1.00  0.00     0.049 A 
ATOM     39  N   UNL A   1      41.688  28.247  31.134  1.00  0.00    -0.248 NA
ATOM     40  C   UNL A   1      42.993  26.777  29.878  1.00  0.00     0.031 C 
ATOM     41  C   UNL A   1      39.171  28.980  27.480  1.00  0.00     0.029 A 
ATOM     42  N   UNL A   1      39.462  29.516  29.632  1.00  0.00    -0.354 N 
ATOM     43  C   UNL A   1      42.704  27.730  31.929  1.00  0.00     0.074 A 
ATOM     44  C   UNL A   1      43.449  26.794  31.120  1.00  0.00     0.031 C 
ATOM     45  C   UNL A   1      38.237  29.891  27.800  1.00  0.00     0.029 A 
ATOM     46  C   UNL A   1      38.379  30.245  29.210  1.00  0.00     0.049 A 
ATOM     47  H   UNL A   1      39.824  29.566  30.547  1.00  0.00     0.167 HD
ATOM     48  C   UNL A   1      42.996  28.023  33.219  1.00  0.00     0.037 A 
ATOM     49  C   UNL A   1      37.592  31.090  29.899  1.00  0.00     0.037 A 
ATOM     50  C   UNL A   1      42.252  28.967  34.008  1.00  0.00     0.049 A 
ATOM     51  C   UNL A   1      37.906  31.358  31.349  1.00  0.00     0.074 A 
ATOM     52  C   UNL A   1      42.468  29.360  35.316  1.00  0.00     0.029 A 
ATOM     53  N   UNL A   1      41.139  29.664  33.558  1.00  0.00    -0.354 N 
ATOM     54  N   UNL A   1      38.882  30.888  32.089  1.00  0.00    -0.248 NA
ATOM     55  C   UNL A   1      37.014  32.286  32.054  1.00  0.00     0.031 C 
ATOM     56  C   UNL A   1      41.447  30.247  35.677  1.00  0.00     0.029 A 
ATOM     57  C   UNL A   1      40.640  30.463  34.571  1.00  0.00     0.049 A 
ATOM     58  H   UNL A   1      40.760  29.598  32.651  1.00  0.00     0.167 HD
ATOM     59  C   UNL A   1      38.747  31.493  33.332  1.00  0.00     0.074 A 
ATOM     60  C   UNL A   1      37.600  32.373  33.239  1.00  0.00     0.031 C 
ATOM     61  C   UNL A   1      39.502  31.341  34.449  1.00  0.00     0.037 A 
BRANCH  48  62
ATOM     62  C   UNL A   1      44.139  27.287  33.859  1.00  0.00     0.064 A 
ATOM     63  C   UNL A   1      45.450  27.785  33.845  1.00  0.00     0.173 A 
ATOM     64  C   UNL A   1      43.911  26.066  34.514  1.00  0.00     0.173 A 
ATOM     65  F   UNL A   1      45.729  28.937  33.216  1.00  0.00    -0.203 F 
ATOM     66  C   UNL A   1      46.494  27.076  34.434  1.00  0.00     0.198 A 
ATOM     67  C   UNL A   1      44.950  25.377  35.132  1.00  0.00     0.198 A 
ATOM     68  F   UNL A   1      42.677  25.541  34.558  1.00  0.00    -0.203 F 
ATOM     69  F   UNL A   1      47.748  27.543  34.358  1.00  0.00    -0.200 F 
ATOM     70  C   UNL A   1      46.243  25.876  35.085  1.00  0.00     0.200 A 
ATOM     71  F   UNL A   1      44.702  24.226  35.771  1.00  0.00    -0.200 F 
ATOM     72  F   UNL A   1      47.247  25.199  35.658  1.00  0.00    -0.200 F 
ENDBRANCH  48  62
BRANCH  49  73
ATOM     73  C   UNL A   1      36.443  31.752  29.228  1.00  0.00     0.064 A 
ATOM     74  C   UNL A   1      36.440  33.134  28.992  1.00  0.00     0.173 A 
ATOM     75  C   UNL A   1      35.318  31.020  28.819  1.00  0.00     0.173 A 
ATOM     76  F   UNL A   1      37.484  33.881  29.380  1.00  0.00    -0.203 F 
ATOM     77  C   UNL A   1      35.347  33.762  28.398  1.00  0.00     0.198 A 
ATOM     78  C   UNL A   1      34.240  31.644  28.195  1.00  0.00     0.198 A 
ATOM     79  F   UNL A   1      35.272  29.694  29.015  1.00  0.00    -0.203 F 
ATOM     80  F   UNL A   1      35.350  35.091  28.234  1.00  0.00    -0.200 F 
ATOM     81  C   UNL A   1      34.250  33.015  27.995  1.00  0.00     0.200 A 
ATOM     82  F   UNL A   1      33.190  30.916  27.792  1.00  0.00    -0.200 F 
ATOM     83  F   UNL A   1      33.201  33.619  27.421  1.00  0.00    -0.200 F 
ENDBRANCH  49  73
BRANCH  61  84
ATOM     84  C   UNL A   1      39.148  32.190  35.637  1.00  0.00     0.064 A 
ATOM     85  C   UNL A   1      39.632  33.497  35.790  1.00  0.00     0.173 A 
ATOM     86  C   UNL A   1      38.292  31.688  36.631  1.00  0.00     0.173 A 
ATOM     87  F   UNL A   1      40.462  34.021  34.875  1.00  0.00    -0.203 F 
ATOM     88  C   UNL A   1      39.309  34.253  36.914  1.00  0.00     0.198 A 
ATOM     89  C   UNL A   1      37.938  32.461  37.732  1.00  0.00     0.198 A 
ATOM     90  F   UNL A   1      37.790  30.447  36.528  1.00  0.00    -0.203 F 
ATOM     91  F   UNL A   1      39.839  35.473  37.072  1.00  0.00    -0.200 F 
ATOM     92  C   UNL A   1      38.457  33.737  37.879  1.00  0.00     0.200 A 
ATOM     93  F   UNL A   1      37.099  31.967  38.653  1.00  0.00    -0.200 F 
ATOM     94  F   UNL A   1      38.146  34.467  38.960  1.00  0.00    -0.200 F 
ENDBRANCH  61  84
ENDBRANCH  35  36
ENDBRANCH  28  30
ENDBRANCH  27  28
ENDBRANCH  26  27
ENDBRANCH  25  26
ENDBRANCH   1  25
TORSDOF 17
ENDMDL
MODEL 2
REMARK VINA RESULT:     -11.7      3.504      8.506
REMARK SMILES O=C(C[N@@H+]1C[C@@]2([N+](=O)[O-])CC=C(Cl)[C@@]([N+](=O)[O-])(C1)C2)OCCOCCOC(=O)c1ccc(-c2c3nc(c(-c4c(F)c(F)c(F)c(F)c4F)c4ccc([nH]4)c(-c4c(F)c(F)c(F)c(F)c4F)c4nc(c(-c5c(F)c(F)c(F)c(F)c5F)c5ccc2[nH]5)C=C4)C=C3)cc1
REMARK SMILES IDX 23 1 22 2 21 3 20 4 2 5 1 6 3 7 4 8 5 9 18 10 6 12 14 13
REMARK SMILES IDX 10 14 19 15 12 16 11 17 13 18 7 19 8 20 9 21 15 22 16 23
REMARK SMILES IDX 17 24 24 25 25 26 26 27 27 28 28 29 29 30 30 31 91 32 31 33
REMARK SMILES IDX 90 34 32 35 33 36 34 37 84 38 35 39 89 40 83 41 85 42 36 43
REMARK SMILES IDX 88 44 82 45 81 46 37 48 69 49 49 50 68 51 50 52 53 53 67 54
REMARK SMILES IDX 86 55 51 56 52 57 66 59 87 60 54 61 38 62 39 63 47 64 40 65
REMARK SMILES IDX 41 66 45 67 48 68 42 69 43 70 46 71 44 72 70 73 71 74 79 75
REMARK SMILES IDX 72 76 73 77 77 78 80 79 74 80 75 81 78 82 76 83 55 84 56 85
REMARK SMILES IDX 64 86 57 87 58 88 62 89 65 90 59 91 60 92 63 93 61 94
REMARK H PARENT 4 11 85 47 53 58
REMARK Flexibility Score: inf
ROOT
ATOM      1  O   UNL A   1      33.795  30.823  27.899  1.00  0.00    -0.374 OA
ENDROOT
BRANCH   1   2
ATOM      2  C   UNL A   1      34.573  29.780  27.324  1.00  0.00     0.202 C 
BRANCH   2   3
ATOM      3  C   UNL A   1      33.901  28.841  26.329  1.00  0.00     0.261 C 
BRANCH   3   4
ATOM      4  O   UNL A   1      33.206  27.724  26.902  1.00  0.00    -0.459 OA
BRANCH   4   5
ATOM      5  C   UNL A   1      31.855  27.609  26.976  1.00  0.00     0.361 C 
ATOM      6  O   UNL A   1      31.258  28.074  27.946  1.00  0.00    -0.245 OA
BRANCH   5   7
ATOM      7  C   UNL A   1      31.097  26.850  25.883  1.00  0.00     0.386 C 
BRANCH   7   8
ATOM      8  N   UNL A   1      31.832  25.656  25.454  1.00  0.00    -0.313 N 
ATOM      9  C   UNL A   1      32.286  25.748  24.065  1.00  0.00     0.350 C 
ATOM     10  C   UNL A   1      31.147  24.386  25.780  1.00  0.00     0.356 C 
ATOM     11  H   UNL A   1      32.680  25.630  26.021  1.00  0.00     0.349 HD
ATOM     12  C   UNL A   1      33.190  24.555  23.698  1.00  0.00     0.280 C 
ATOM     13  C   UNL A   1      32.032  23.160  25.411  1.00  0.00     0.311 C 
ATOM     14  C   UNL A   1      34.515  24.500  24.511  1.00  0.00     0.121 C 
ATOM     15  C   UNL A   1      32.399  23.250  23.908  1.00  0.00     0.191 C 
ATOM     16  C   UNL A   1      33.312  23.132  26.240  1.00  0.00     0.097 C 
ATOM     17  C   UNL A   1      34.436  23.735  25.815  1.00  0.00     0.004 C 
ATOM     18  Cl  UNL A   1      33.300  22.406  27.809  1.00  0.00    -0.081 Cl
BRANCH  12  19
ATOM     19  N   UNL A   1      33.521  24.752  22.228  1.00  0.00     0.032 N 
ATOM     20  O   UNL A   1      33.813  25.895  21.858  1.00  0.00    -0.264 OA
ATOM     21  O   UNL A   1      33.406  23.772  21.484  1.00  0.00    -0.264 OA
ENDBRANCH  12  19
BRANCH  13  22
ATOM     22  N   UNL A   1      31.246  21.872  25.629  1.00  0.00     0.038 N 
ATOM     23  O   UNL A   1      30.151  21.948  26.202  1.00  0.00    -0.263 OA
ATOM     24  O   UNL A   1      31.748  20.821  25.203  1.00  0.00    -0.263 OA
ENDBRANCH  13  22
ENDBRANCH   7   8
ENDBRANCH   5   7
ENDBRANCH   4   5
ENDBRANCH   3   4
ENDBRANCH   2   3
ENDBRANCH   1   2
BRANCH   1  25
ATOM     25  C   UNL A   1      32.619  31.228  27.192  1.00  0.00     0.202 C 
BRANCH  25  26
ATOM     26  C   UNL A   1      32.230  32.706  27.264  1.00  0.00     0.261 C 
BRANCH  26  27
ATOM     27  O   UNL A   1      33.380  33.547  27.419  1.00  0.00    -0.460 OA
BRANCH  27  28
ATOM     28  C   UNL A   1      33.310  34.394  28.469  1.00  0.00     0.338 C 
ATOM     29  O   UNL A   1      32.403  35.172  28.735  1.00  0.00    -0.246 OA
BRANCH  28  30
ATOM     30  C   UNL A   1      34.412  34.114  29.406  1.00  0.00     0.060 A 
ATOM     31  C   UNL A   1      35.695  34.536  29.030  1.00  0.00     0.016 A 
ATOM     32  C   UNL A   1      34.207  33.408  30.594  1.00  0.00     0.016 A 
ATOM     33  C   UNL A   1      36.796  34.140  29.774  1.00  0.00     0.010 A 
ATOM     34  C   UNL A   1      35.315  33.009  31.342  1.00  0.00     0.010 A 
ATOM     35  C   UNL A   1      36.610  33.308  30.885  1.00  0.00    -0.014 A 
BRANCH  35  36
ATOM     36  C   UNL A   1      37.768  32.536  31.383  1.00  0.00     0.031 A 
ATOM     37  C   UNL A   1      38.300  32.868  32.752  1.00  0.00     0.074 A 
ATOM     38  C   UNL A   1      38.279  31.522  30.668  1.00  0.00     0.049 A 
ATOM     39  N   UNL A   1      39.289  32.328  33.416  1.00  0.00    -0.248 NA
ATOM     40  C   UNL A   1      37.626  33.964  33.469  1.00  0.00     0.031 C 
ATOM     41  C   UNL A   1      37.803  31.092  29.355  1.00  0.00     0.029 A 
ATOM     42  N   UNL A   1      39.309  30.667  30.954  1.00  0.00    -0.354 N 
ATOM     43  C   UNL A   1      39.362  33.027  34.614  1.00  0.00     0.074 A 
ATOM     44  C   UNL A   1      38.347  34.054  34.575  1.00  0.00     0.031 C 
ATOM     45  C   UNL A   1      38.541  30.045  28.948  1.00  0.00     0.029 A 
ATOM     46  C   UNL A   1      39.556  29.756  29.958  1.00  0.00     0.049 A 
ATOM     47  H   UNL A   1      39.821  30.701  31.794  1.00  0.00     0.167 HD
ATOM     48  C   UNL A   1      40.196  32.820  35.661  1.00  0.00     0.037 A 
ATOM     49  C   UNL A   1      40.508  28.809  29.878  1.00  0.00     0.037 A 
ATOM     50  C   UNL A   1      41.194  31.785  35.690  1.00  0.00     0.049 A 
ATOM     51  C   UNL A   1      41.459  28.634  31.034  1.00  0.00     0.074 A 
ATOM     52  C   UNL A   1      42.080  31.467  36.702  1.00  0.00     0.029 A 
ATOM     53  N   UNL A   1      41.439  30.901  34.648  1.00  0.00    -0.354 N 
ATOM     54  N   UNL A   1      41.508  29.279  32.175  1.00  0.00    -0.248 NA
ATOM     55  C   UNL A   1      42.479  27.588  30.894  1.00  0.00     0.031 C 
ATOM     56  C   UNL A   1      42.904  30.431  36.248  1.00  0.00     0.029 A 
ATOM     57  C   UNL A   1      42.483  30.055  34.982  1.00  0.00     0.049 A 
ATOM     58  H   UNL A   1      40.945  30.880  33.797  1.00  0.00     0.167 HD
ATOM     59  C   UNL A   1      42.534  28.691  32.904  1.00  0.00     0.074 A 
ATOM     60  C   UNL A   1      43.071  27.630  32.078  1.00  0.00     0.031 C 
ATOM     61  C   UNL A   1      42.991  28.996  34.145  1.00  0.00     0.037 A 
BRANCH  48  62
ATOM     62  C   UNL A   1      40.088  33.753  36.834  1.00  0.00     0.064 A 
ATOM     63  C   UNL A   1      39.202  33.519  37.896  1.00  0.00     0.173 A 
ATOM     64  C   UNL A   1      40.900  34.896  36.902  1.00  0.00     0.173 A 
ATOM     65  F   UNL A   1      38.388  32.452  37.875  1.00  0.00    -0.203 F 
ATOM     66  C   UNL A   1      39.112  34.407  38.965  1.00  0.00     0.198 A 
ATOM     67  C   UNL A   1      40.832  35.764  37.988  1.00  0.00     0.198 A 
ATOM     68  F   UNL A   1      41.765  35.172  35.913  1.00  0.00    -0.203 F 
ATOM     69  F   UNL A   1      38.217  34.192  39.940  1.00  0.00    -0.200 F 
ATOM     70  C   UNL A   1      39.933  35.524  39.015  1.00  0.00     0.200 A 
ATOM     71  F   UNL A   1      41.636  36.835  38.039  1.00  0.00    -0.200 F 
ATOM     72  F   UNL A   1      39.850  36.374  40.047  1.00  0.00    -0.200 F 
ENDBRANCH  48  62
BRANCH  49  73
ATOM     73  C   UNL A   1      40.601  27.947  28.671  1.00  0.00     0.064 A 
ATOM     74  C   UNL A   1      41.354  28.339  27.556  1.00  0.00     0.173 A 
ATOM     75  C   UNL A   1      39.927  26.718  28.601  1.00  0.00     0.173 A 
ATOM     76  F   UNL A   1      42.002  29.513  27.566  1.00  0.00    -0.203 F 
ATOM     77  C   UNL A   1      41.410  27.549  26.409  1.00  0.00     0.198 A 
ATOM     78  C   UNL A   1      40.010  25.914  27.467  1.00  0.00     0.198 A 
ATOM     79  F   UNL A   1      39.196  26.292  29.642  1.00  0.00    -0.203 F 
ATOM     80  F   UNL A   1      42.095  27.975  25.340  1.00  0.00    -0.200 F 
ATOM     81  C   UNL A   1      40.742  26.334  26.368  1.00  0.00     0.200 A 
ATOM     82  F   UNL A   1      39.378  24.733  27.438  1.00  0.00    -0.200 F 
ATOM     83  F   UNL A   1      40.799  25.574  25.266  1.00  0.00    -0.200 F 
ENDBRANCH  49  73
BRANCH  61  84
ATOM     84  C   UNL A   1      44.084  28.130  34.706  1.00  0.00     0.064 A 
ATOM     85  C   UNL A   1      45.440  28.455  34.560  1.00  0.00     0.173 A 
ATOM     86  C   UNL A   1      43.762  26.964  35.420  1.00  0.00     0.173 A 
ATOM     87  F   UNL A   1      45.802  29.552  33.878  1.00  0.00    -0.203 F 
ATOM     88  C   UNL A   1      46.433  27.621  35.067  1.00  0.00     0.198 A 
ATOM     89  C   UNL A   1      44.756  26.156  35.961  1.00  0.00     0.198 A 
ATOM     90  F   UNL A   1      42.479  26.613  35.600  1.00  0.00    -0.203 F 
ATOM     91  F   UNL A   1      47.723  27.916  34.855  1.00  0.00    -0.200 F 
ATOM     92  C   UNL A   1      46.091  26.477  35.773  1.00  0.00     0.200 A 
ATOM     93  F   UNL A   1      44.421  25.062  36.658  1.00  0.00    -0.200 F 
ATOM     94  F   UNL A   1      47.049  25.678  36.261  1.00  0.00    -0.200 F 
ENDBRANCH  61  84
ENDBRANCH  35  36
ENDBRANCH  28  30
ENDBRANCH  27  28
ENDBRANCH  26  27
ENDBRANCH  25  26
ENDBRANCH   1  25
TORSDOF 17
ENDMDL
MODEL 3
REMARK VINA RESULT:     -11.6      4.483      9.005
REMARK SMILES O=C(C[N@@H+]1C[C@@]2([N+](=O)[O-])CC=C(Cl)[C@@]([N+](=O)[O-])(C1)C2)OCCOCCOC(=O)c1ccc(-c2c3nc(c(-c4c(F)c(F)c(F)c(F)c4F)c4ccc([nH]4)c(-c4c(F)c(F)c(F)c(F)c4F)c4nc(c(-c5c(F)c(F)c(F)c(F)c5F)c5ccc2[nH]5)C=C4)C=C3)cc1
REMARK SMILES IDX 23 1 22 2 21 3 20 4 2 5 1 6 3 7 4 8 5 9 18 10 6 12 14 13
REMARK SMILES IDX 10 14 19 15 12 16 11 17 13 18 7 19 8 20 9 21 15 22 16 23
REMARK SMILES IDX 17 24 24 25 25 26 26 27 27 28 28 29 29 30 30 31 91 32 31 33
REMARK SMILES IDX 90 34 32 35 33 36 34 37 84 38 35 39 89 40 83 41 85 42 36 43
REMARK SMILES IDX 88 44 82 45 81 46 37 48 69 49 49 50 68 51 50 52 53 53 67 54
REMARK SMILES IDX 86 55 51 56 52 57 66 59 87 60 54 61 38 62 39 63 47 64 40 65
REMARK SMILES IDX 41 66 45 67 48 68 42 69 43 70 46 71 44 72 70 73 71 74 79 75
REMARK SMILES IDX 72 76 73 77 77 78 80 79 74 80 75 81 78 82 76 83 55 84 56 85
REMARK SMILES IDX 64 86 57 87 58 88 62 89 65 90 59 91 60 92 63 93 61 94
REMARK H PARENT 4 11 85 47 53 58
REMARK Flexibility Score: inf
ROOT
ATOM      1  O   UNL A   1      34.280  20.771  24.679  1.00  0.00    -0.374 OA
ENDROOT
BRANCH   1   2
ATOM      2  C   UNL A   1      33.057  20.720  25.404  1.00  0.00     0.202 C 
BRANCH   2   3
ATOM      3  C   UNL A   1      32.571  21.991  26.093  1.00  0.00     0.261 C 
BRANCH   3   4
ATOM      4  O   UNL A   1      31.217  22.370  25.813  1.00  0.00    -0.459 OA
BRANCH   4   5
ATOM      5  C   UNL A   1      30.502  23.275  26.531  1.00  0.00     0.361 C 
ATOM      6  O   UNL A   1      30.043  22.954  27.626  1.00  0.00    -0.245 OA
BRANCH   5   7
ATOM      7  C   UNL A   1      30.225  24.661  25.943  1.00  0.00     0.386 C 
BRANCH   7   8
ATOM      8  N   UNL A   1      31.402  25.193  25.250  1.00  0.00    -0.313 N 
ATOM      9  C   UNL A   1      31.915  26.414  25.877  1.00  0.00     0.350 C 
ATOM     10  C   UNL A   1      31.236  25.295  23.785  1.00  0.00     0.356 C 
ATOM     11  H   UNL A   1      32.135  24.494  25.367  1.00  0.00     0.349 HD
ATOM     12  C   UNL A   1      33.241  26.854  25.228  1.00  0.00     0.280 C 
ATOM     13  C   UNL A   1      32.558  25.748  23.099  1.00  0.00     0.311 C 
ATOM     14  C   UNL A   1      34.400  25.833  25.416  1.00  0.00     0.121 C 
ATOM     15  C   UNL A   1      33.002  27.094  23.725  1.00  0.00     0.191 C 
ATOM     16  C   UNL A   1      33.663  24.715  23.291  1.00  0.00     0.097 C 
ATOM     17  C   UNL A   1      34.500  24.771  24.343  1.00  0.00     0.004 C 
ATOM     18  Cl  UNL A   1      33.784  23.377  22.202  1.00  0.00    -0.081 Cl
BRANCH  12  19
ATOM     19  N   UNL A   1      33.607  28.152  25.928  1.00  0.00     0.032 N 
ATOM     20  O   UNL A   1      33.902  29.120  25.217  1.00  0.00    -0.264 OA
ATOM     21  O   UNL A   1      33.657  28.135  27.163  1.00  0.00    -0.264 OA
ENDBRANCH  12  19
BRANCH  13  22
ATOM     22  N   UNL A   1      32.315  25.976  21.611  1.00  0.00     0.038 N 
ATOM     23  O   UNL A   1      31.182  26.324  21.252  1.00  0.00    -0.263 OA
ATOM     24  O   UNL A   1      33.278  25.812  20.848  1.00  0.00    -0.263 OA
ENDBRANCH  13  22
ENDBRANCH   7   8
ENDBRANCH   5   7
ENDBRANCH   4   5
ENDBRANCH   3   4
ENDBRANCH   2   3
ENDBRANCH   1   2
BRANCH   1  25
ATOM     25  C   UNL A   1      35.414  21.334  25.347  1.00  0.00     0.202 C 
BRANCH  25  26
ATOM     26  C   UNL A   1      36.791  20.774  24.985  1.00  0.00     0.261 C 
BRANCH  26  27
ATOM     27  O   UNL A   1      37.805  21.785  25.049  1.00  0.00    -0.460 OA
BRANCH  27  28
ATOM     28  C   UNL A   1      38.870  21.456  25.811  1.00  0.00     0.338 C 
ATOM     29  O   UNL A   1      39.501  20.407  25.790  1.00  0.00    -0.246 OA
BRANCH  28  30
ATOM     30  C   UNL A   1      39.325  22.637  26.564  1.00  0.00     0.060 A 
ATOM     31  C   UNL A   1      38.668  23.849  26.312  1.00  0.00     0.016 A 
ATOM     32  C   UNL A   1      40.403  22.576  27.451  1.00  0.00     0.016 A 
ATOM     33  C   UNL A   1      39.168  25.029  26.844  1.00  0.00     0.010 A 
ATOM     34  C   UNL A   1      40.907  23.762  27.985  1.00  0.00     0.010 A 
ATOM     35  C   UNL A   1      40.336  24.992  27.615  1.00  0.00    -0.014 A 
BRANCH  35  36
ATOM     36  C   UNL A   1      41.101  26.245  27.787  1.00  0.00     0.031 A 
ATOM     37  C   UNL A   1      40.441  27.377  28.529  1.00  0.00     0.074 A 
ATOM     38  C   UNL A   1      42.369  26.342  27.361  1.00  0.00     0.049 A 
ATOM     39  N   UNL A   1      40.904  28.563  28.824  1.00  0.00    -0.248 NA
ATOM     40  C   UNL A   1      39.065  27.139  29.000  1.00  0.00     0.031 C 
ATOM     41  C   UNL A   1      43.112  25.286  26.675  1.00  0.00     0.029 A 
ATOM     42  N   UNL A   1      43.257  27.380  27.451  1.00  0.00    -0.354 N 
ATOM     43  C   UNL A   1      39.876  29.212  29.497  1.00  0.00     0.074 A 
ATOM     44  C   UNL A   1      38.751  28.308  29.535  1.00  0.00     0.031 C 
ATOM     45  C   UNL A   1      44.351  25.732  26.408  1.00  0.00     0.029 A 
ATOM     46  C   UNL A   1      44.474  27.110  26.877  1.00  0.00     0.049 A 
ATOM     47  H   UNL A   1      43.044  28.237  27.887  1.00  0.00     0.167 HD
ATOM     48  C   UNL A   1      39.877  30.450  30.045  1.00  0.00     0.037 A 
ATOM     49  C   UNL A   1      45.553  27.901  26.740  1.00  0.00     0.037 A 
ATOM     50  C   UNL A   1      41.011  31.335  30.010  1.00  0.00     0.049 A 
ATOM     51  C   UNL A   1      45.510  29.295  27.313  1.00  0.00     0.074 A 
ATOM     52  C   UNL A   1      41.136  32.601  30.549  1.00  0.00     0.029 A 
ATOM     53  N   UNL A   1      42.218  31.041  29.390  1.00  0.00    -0.354 N 
ATOM     54  N   UNL A   1      44.546  29.894  27.970  1.00  0.00    -0.248 NA
ATOM     55  C   UNL A   1      46.714  30.117  27.134  1.00  0.00     0.031 C 
ATOM     56  C   UNL A   1      42.396  33.099  30.201  1.00  0.00     0.029 A 
ATOM     57  C   UNL A   1      43.084  32.114  29.509  1.00  0.00     0.049 A 
ATOM     58  H   UNL A   1      42.426  30.194  28.932  1.00  0.00     0.167 HD
ATOM     59  C   UNL A   1      45.040  31.145  28.320  1.00  0.00     0.074 A 
ATOM     60  C   UNL A   1      46.394  31.210  27.809  1.00  0.00     0.031 C 
ATOM     61  C   UNL A   1      44.434  32.149  29.003  1.00  0.00     0.037 A 
BRANCH  48  62
ATOM     62  C   UNL A   1      38.607  30.928  30.691  1.00  0.00     0.064 A 
ATOM     63  C   UNL A   1      38.409  30.876  32.079  1.00  0.00     0.173 A 
ATOM     64  C   UNL A   1      37.576  31.464  29.904  1.00  0.00     0.173 A 
ATOM     65  F   UNL A   1      39.353  30.355  32.878  1.00  0.00    -0.203 F 
ATOM     66  C   UNL A   1      37.216  31.313  32.650  1.00  0.00     0.198 A 
ATOM     67  C   UNL A   1      36.399  31.932  30.481  1.00  0.00     0.198 A 
ATOM     68  F   UNL A   1      37.710  31.537  28.571  1.00  0.00    -0.203 F 
ATOM     69  F   UNL A   1      37.027  31.200  33.973  1.00  0.00    -0.200 F 
ATOM     70  C   UNL A   1      36.215  31.848  31.853  1.00  0.00     0.200 A 
ATOM     71  F   UNL A   1      35.440  32.460  29.709  1.00  0.00    -0.200 F 
ATOM     72  F   UNL A   1      35.072  32.275  32.405  1.00  0.00    -0.200 F 
ENDBRANCH  48  62
BRANCH  49  73
ATOM     73  C   UNL A   1      46.766  27.393  26.048  1.00  0.00     0.064 A 
ATOM     74  C   UNL A   1      46.954  27.595  24.673  1.00  0.00     0.173 A 
ATOM     75  C   UNL A   1      47.757  26.684  26.743  1.00  0.00     0.173 A 
ATOM     76  F   UNL A   1      46.026  28.252  23.961  1.00  0.00    -0.203 F 
ATOM     77  C   UNL A   1      48.071  27.086  24.016  1.00  0.00     0.198 A 
ATOM     78  C   UNL A   1      48.891  26.204  26.090  1.00  0.00     0.198 A 
ATOM     79  F   UNL A   1      47.631  26.467  28.060  1.00  0.00    -0.203 F 
ATOM     80  F   UNL A   1      48.198  27.249  22.692  1.00  0.00    -0.200 F 
ATOM     81  C   UNL A   1      49.042  26.395  24.726  1.00  0.00     0.200 A 
ATOM     82  F   UNL A   1      49.834  25.552  26.784  1.00  0.00    -0.200 F 
ATOM     83  F   UNL A   1      50.118  25.909  24.094  1.00  0.00    -0.200 F 
ENDBRANCH  49  73
BRANCH  61  84
ATOM     84  C   UNL A   1      45.253  33.376  29.290  1.00  0.00     0.064 A 
ATOM     85  C   UNL A   1      46.044  33.489  30.442  1.00  0.00     0.173 A 
ATOM     86  C   UNL A   1      45.257  34.447  28.383  1.00  0.00     0.173 A 
ATOM     87  F   UNL A   1      46.068  32.499  31.347  1.00  0.00    -0.203 F 
ATOM     88  C   UNL A   1      46.773  34.648  30.696  1.00  0.00     0.198 A 
ATOM     89  C   UNL A   1      46.019  35.586  28.620  1.00  0.00     0.198 A 
ATOM     90  F   UNL A   1      44.526  34.386  27.258  1.00  0.00    -0.203 F 
ATOM     91  F   UNL A   1      47.468  34.762  31.837  1.00  0.00    -0.200 F 
ATOM     92  C   UNL A   1      46.766  35.692  29.783  1.00  0.00     0.200 A 
ATOM     93  F   UNL A   1      46.025  36.584  27.727  1.00  0.00    -0.200 F 
ATOM     94  F   UNL A   1      47.470  36.805  30.030  1.00  0.00    -0.200 F 
ENDBRANCH  61  84
ENDBRANCH  35  36
ENDBRANCH  28  30
ENDBRANCH  27  28
ENDBRANCH  26  27
ENDBRANCH  25  26
ENDBRANCH   1  25
TORSDOF 17
ENDMDL
