MODEL 1
REMARK VINA RESULT:     -12.1      0.000      0.000
REMARK SMILES Cc1cccc(CN(C)c2ccc(C(=O)OCCOCCOC(=O)c3ccc(-c4c5nc(c(-c6c(F)c(F)c(F)c(F)c6F)c6ccc([nH]6)c(-c6c(F)c(F)c(F)c(F)c6F)c6nc(c(-c7c(F)c(F)c(F)c(F)c7F)c7ccc4[nH]7)C=C6)C=C5)cc3)cc2C)n1
REMARK SMILES IDX 18 1 17 2 16 3 14 4 15 5 13 6 10 7 11 8 89 9 12 10 88 11
REMARK SMILES IDX 90 12 8 13 9 14 7 15 6 16 1 17 2 18 3 19 91 20 4 21 5 22
REMARK SMILES IDX 19 23 20 24 21 25 22 26 23 27 24 28 25 29 26 30 87 31 27 32
REMARK SMILES IDX 86 33 28 34 29 35 30 36 80 37 31 38 85 39 79 40 81 41 32 42
REMARK SMILES IDX 84 43 78 44 77 45 33 47 65 48 45 49 64 50 46 51 49 52 63 53
REMARK SMILES IDX 82 54 47 55 48 56 62 58 83 59 50 60 34 61 35 62 43 63 36 64
REMARK SMILES IDX 37 65 41 66 44 67 38 68 39 69 42 70 40 71 66 72 67 73 75 74
REMARK SMILES IDX 68 75 69 76 73 77 76 78 70 79 71 80 74 81 72 82 51 83 52 84
REMARK SMILES IDX 60 85 53 86 54 87 58 88 61 89 55 90 56 91 59 92 57 93
REMARK H PARENT 81 46 49 57
REMARK Flexibility Score: inf
ROOT
ATOM      1  C   UNL A   1      43.877  18.188  26.172  1.00  0.00     0.202 C 
ENDROOT
BRANCH   1   2
ATOM      2  C   UNL A   1      42.988  19.087  25.382  1.00  0.00     0.261 C 
BRANCH   2   3
ATOM      3  O   UNL A   1      41.696  19.222  25.979  1.00  0.00    -0.460 OA
BRANCH   3   4
ATOM      4  C   UNL A   1      41.450  20.231  26.867  1.00  0.00     0.338 C 
ATOM      5  O   UNL A   1      42.162  20.660  27.742  1.00  0.00    -0.246 OA
BRANCH   4   6
ATOM      6  C   UNL A   1      40.153  20.800  26.455  1.00  0.00     0.060 A 
ATOM      7  C   UNL A   1      37.797  21.900  25.385  1.00  0.00     0.040 A 
ATOM      8  C   UNL A   1      38.244  20.621  25.060  1.00  0.00     0.027 A 
ATOM      9  C   UNL A   1      38.656  22.701  26.166  1.00  0.00    -0.027 A 
ATOM     10  C   UNL A   1      39.328  20.034  25.652  1.00  0.00     0.018 A 
ATOM     11  C   UNL A   1      39.842  22.138  26.694  1.00  0.00     0.021 A 
ATOM     12  C   UNL A   1      38.435  24.172  26.382  1.00  0.00     0.046 C 
BRANCH   7  13
ATOM     13  N   UNL A   1      36.548  22.291  24.917  1.00  0.00    -0.368 N 
ATOM     14  C   UNL A   1      36.467  22.716  23.531  1.00  0.00     0.144 C 
BRANCH  13  15
ATOM     15  C   UNL A   1      35.318  21.762  25.576  1.00  0.00     0.172 C 
BRANCH  15  16
ATOM     16  C   UNL A   1      34.482  20.737  24.791  1.00  0.00     0.060 A 
ATOM     17  C   UNL A   1      34.372  17.054  24.546  1.00  0.00     0.067 C 
ATOM     18  C   UNL A   1      33.997  18.493  24.340  1.00  0.00     0.038 A 
ATOM     19  C   UNL A   1      32.745  18.819  23.826  1.00  0.00     0.023 A 
ATOM     20  N   UNL A   1      34.875  19.429  24.796  1.00  0.00    -0.256 NA
ATOM     21  C   UNL A   1      32.377  20.157  23.765  1.00  0.00     0.004 A 
ATOM     22  C   UNL A   1      33.248  21.128  24.254  1.00  0.00     0.026 A 
ENDBRANCH  15  16
ENDBRANCH  13  15
ENDBRANCH   7  13
ENDBRANCH   4   6
ENDBRANCH   3   4
ENDBRANCH   2   3
ENDBRANCH   1   2
BRANCH   1  23
ATOM     23  O   UNL A   1      45.063  18.083  25.407  1.00  0.00    -0.374 OA
BRANCH  23  24
ATOM     24  C   UNL A   1      45.245  19.086  24.431  1.00  0.00     0.202 C 
BRANCH  24  25
ATOM     25  C   UNL A   1      46.423  20.014  24.761  1.00  0.00     0.261 C 
BRANCH  25  26
ATOM     26  O   UNL A   1      45.917  21.274  25.263  1.00  0.00    -0.460 OA
BRANCH  26  27
ATOM     27  C   UNL A   1      44.889  21.846  24.571  1.00  0.00     0.338 C 
ATOM     28  O   UNL A   1      44.750  21.813  23.360  1.00  0.00    -0.246 OA
BRANCH  27  29
ATOM     29  C   UNL A   1      44.122  22.766  25.469  1.00  0.00     0.060 A 
ATOM     30  C   UNL A   1      43.201  23.693  24.933  1.00  0.00     0.016 A 
ATOM     31  C   UNL A   1      44.583  22.936  26.770  1.00  0.00     0.016 A 
ATOM     32  C   UNL A   1      42.883  24.873  25.635  1.00  0.00     0.010 A 
ATOM     33  C   UNL A   1      44.364  24.146  27.393  1.00  0.00     0.010 A 
ATOM     34  C   UNL A   1      43.547  25.145  26.828  1.00  0.00    -0.014 A 
BRANCH  34  35
ATOM     35  C   UNL A   1      43.611  26.438  27.532  1.00  0.00     0.031 A 
ATOM     36  C   UNL A   1      42.339  27.161  27.744  1.00  0.00     0.074 A 
ATOM     37  C   UNL A   1      44.691  26.810  28.268  1.00  0.00     0.049 A 
ATOM     38  N   UNL A   1      42.259  28.345  28.238  1.00  0.00    -0.248 NA
ATOM     39  C   UNL A   1      41.035  26.625  27.374  1.00  0.00     0.031 C 
ATOM     40  C   UNL A   1      44.709  27.645  29.478  1.00  0.00     0.029 A 
ATOM     41  N   UNL A   1      46.040  26.448  28.144  1.00  0.00    -0.354 N 
ATOM     42  C   UNL A   1      40.947  28.571  28.583  1.00  0.00     0.074 A 
ATOM     43  C   UNL A   1      40.216  27.536  27.901  1.00  0.00     0.031 C 
ATOM     44  C   UNL A   1      45.979  27.946  29.807  1.00  0.00     0.029 A 
ATOM     45  C   UNL A   1      46.827  27.452  28.742  1.00  0.00     0.049 A 
ATOM     46  H   UNL A   1      46.379  25.631  27.712  1.00  0.00     0.167 HD
ATOM     47  C   UNL A   1      40.688  29.540  29.509  1.00  0.00     0.037 A 
ATOM     48  C   UNL A   1      47.748  28.123  28.000  1.00  0.00     0.037 A 
ATOM     49  C   UNL A   1      41.939  30.234  29.893  1.00  0.00     0.049 A 
ATOM     50  C   UNL A   1      47.292  29.546  27.818  1.00  0.00     0.074 A 
ATOM     51  C   UNL A   1      42.754  30.247  31.013  1.00  0.00     0.029 A 
ATOM     52  N   UNL A   1      42.698  30.828  28.892  1.00  0.00    -0.354 N 
ATOM     53  N   UNL A   1      46.232  30.022  28.409  1.00  0.00    -0.248 NA
ATOM     54  C   UNL A   1      47.906  30.522  26.931  1.00  0.00     0.031 C 
ATOM     55  C   UNL A   1      43.998  30.866  30.658  1.00  0.00     0.029 A 
ATOM     56  C   UNL A   1      43.934  31.261  29.332  1.00  0.00     0.049 A 
ATOM     57  H   UNL A   1      42.385  30.932  27.964  1.00  0.00     0.167 HD
ATOM     58  C   UNL A   1      45.944  31.265  27.959  1.00  0.00     0.074 A 
ATOM     59  C   UNL A   1      47.026  31.540  27.020  1.00  0.00     0.031 C 
ATOM     60  C   UNL A   1      44.827  31.933  28.383  1.00  0.00     0.037 A 
BRANCH  47  61
ATOM     61  C   UNL A   1      39.355  29.776  30.211  1.00  0.00     0.064 A 
ATOM     62  C   UNL A   1      38.272  30.339  29.499  1.00  0.00     0.173 A 
ATOM     63  C   UNL A   1      39.059  29.506  31.566  1.00  0.00     0.173 A 
ATOM     64  F   UNL A   1      38.359  30.601  28.189  1.00  0.00    -0.203 F 
ATOM     65  C   UNL A   1      37.044  30.650  30.100  1.00  0.00     0.198 A 
ATOM     66  C   UNL A   1      37.839  29.827  32.169  1.00  0.00     0.198 A 
ATOM     67  F   UNL A   1      39.907  28.885  32.383  1.00  0.00    -0.203 F 
ATOM     68  F   UNL A   1      36.064  31.192  29.363  1.00  0.00    -0.200 F 
ATOM     69  C   UNL A   1      36.831  30.405  31.438  1.00  0.00     0.200 A 
ATOM     70  F   UNL A   1      37.655  29.557  33.472  1.00  0.00    -0.200 F 
ATOM     71  F   UNL A   1      35.660  30.704  32.016  1.00  0.00    -0.200 F 
ENDBRANCH  47  61
BRANCH  48  72
ATOM     72  C   UNL A   1      48.396  27.193  27.018  1.00  0.00     0.064 A 
ATOM     73  C   UNL A   1      47.965  27.301  25.673  1.00  0.00     0.173 A 
ATOM     74  C   UNL A   1      49.700  26.720  27.232  1.00  0.00     0.173 A 
ATOM     75  F   UNL A   1      46.736  27.770  25.400  1.00  0.00    -0.203 F 
ATOM     76  C   UNL A   1      48.848  27.120  24.608  1.00  0.00     0.198 A 
ATOM     77  C   UNL A   1      50.580  26.540  26.158  1.00  0.00     0.198 A 
ATOM     78  F   UNL A   1      50.178  26.604  28.479  1.00  0.00    -0.203 F 
ATOM     79  F   UNL A   1      48.461  27.421  23.358  1.00  0.00    -0.200 F 
ATOM     80  C   UNL A   1      50.167  26.786  24.856  1.00  0.00     0.200 A 
ATOM     81  F   UNL A   1      51.867  26.246  26.392  1.00  0.00    -0.200 F 
ATOM     82  F   UNL A   1      51.059  26.789  23.853  1.00  0.00    -0.200 F 
ENDBRANCH  48  72
BRANCH  60  83
ATOM     83  C   UNL A   1      44.475  33.300  27.874  1.00  0.00     0.064 A 
ATOM     84  C   UNL A   1      43.940  33.498  26.593  1.00  0.00     0.173 A 
ATOM     85  C   UNL A   1      44.706  34.469  28.630  1.00  0.00     0.173 A 
ATOM     86  F   UNL A   1      43.842  32.483  25.722  1.00  0.00    -0.203 F 
ATOM     87  C   UNL A   1      43.510  34.753  26.168  1.00  0.00     0.198 A 
ATOM     88  C   UNL A   1      44.349  35.731  28.172  1.00  0.00     0.198 A 
ATOM     89  F   UNL A   1      45.256  34.441  29.850  1.00  0.00    -0.203 F 
ATOM     90  F   UNL A   1      42.893  34.874  24.986  1.00  0.00    -0.200 F 
ATOM     91  C   UNL A   1      43.710  35.868  26.960  1.00  0.00     0.200 A 
ATOM     92  F   UNL A   1      44.608  36.807  28.929  1.00  0.00    -0.200 F 
ATOM     93  F   UNL A   1      43.291  37.073  26.554  1.00  0.00    -0.200 F 
ENDBRANCH  60  83
ENDBRANCH  34  35
ENDBRANCH  27  29
ENDBRANCH  26  27
ENDBRANCH  25  26
ENDBRANCH  24  25
ENDBRANCH  23  24
ENDBRANCH   1  23
TORSDOF 17
ENDMDL
MODEL 2
REMARK VINA RESULT:     -12.1      6.250     11.858
REMARK SMILES Cc1cccc(CN(C)c2ccc(C(=O)OCCOCCOC(=O)c3ccc(-c4c5nc(c(-c6c(F)c(F)c(F)c(F)c6F)c6ccc([nH]6)c(-c6c(F)c(F)c(F)c(F)c6F)c6nc(c(-c7c(F)c(F)c(F)c(F)c7F)c7ccc4[nH]7)C=C6)C=C5)cc3)cc2C)n1
REMARK SMILES IDX 18 1 17 2 16 3 14 4 15 5 13 6 10 7 11 8 89 9 12 10 88 11
REMARK SMILES IDX 90 12 8 13 9 14 7 15 6 16 1 17 2 18 3 19 91 20 4 21 5 22
REMARK SMILES IDX 19 23 20 24 21 25 22 26 23 27 24 28 25 29 26 30 87 31 27 32
REMARK SMILES IDX 86 33 28 34 29 35 30 36 80 37 31 38 85 39 79 40 81 41 32 42
REMARK SMILES IDX 84 43 78 44 77 45 33 47 65 48 45 49 64 50 46 51 49 52 63 53
REMARK SMILES IDX 82 54 47 55 48 56 62 58 83 59 50 60 34 61 35 62 43 63 36 64
REMARK SMILES IDX 37 65 41 66 44 67 38 68 39 69 42 70 40 71 66 72 67 73 75 74
REMARK SMILES IDX 68 75 69 76 73 77 76 78 70 79 71 80 74 81 72 82 51 83 52 84
REMARK SMILES IDX 60 85 53 86 54 87 58 88 61 89 55 90 56 91 59 92 57 93
REMARK H PARENT 81 46 49 57
REMARK Flexibility Score: inf
ROOT
ATOM      1  C   UNL A   1      32.965  33.696  27.899  1.00  0.00     0.202 C 
ENDROOT
BRANCH   1   2
ATOM      2  C   UNL A   1      33.920  32.579  28.155  1.00  0.00     0.261 C 
BRANCH   2   3
ATOM      3  O   UNL A   1      33.512  31.369  27.514  1.00  0.00    -0.460 OA
BRANCH   3   4
ATOM      4  C   UNL A   1      34.361  30.300  27.456  1.00  0.00     0.338 C 
ATOM      5  O   UNL A   1      35.473  30.191  27.912  1.00  0.00    -0.246 OA
BRANCH   4   6
ATOM      6  C   UNL A   1      33.583  29.222  26.818  1.00  0.00     0.060 A 
ATOM      7  C   UNL A   1      32.021  27.078  25.887  1.00  0.00     0.040 A 
ATOM      8  C   UNL A   1      31.469  28.188  26.523  1.00  0.00     0.027 A 
ATOM      9  C   UNL A   1      33.428  26.989  25.856  1.00  0.00    -0.027 A 
ATOM     10  C   UNL A   1      32.203  29.283  26.887  1.00  0.00     0.018 A 
ATOM     11  C   UNL A   1      34.204  28.071  26.333  1.00  0.00     0.021 A 
ATOM     12  C   UNL A   1      34.163  25.745  25.439  1.00  0.00     0.046 C 
BRANCH   7  13
ATOM     13  N   UNL A   1      31.151  26.145  25.335  1.00  0.00    -0.368 N 
ATOM     14  C   UNL A   1      30.067  25.675  26.179  1.00  0.00     0.144 C 
BRANCH  13  15
ATOM     15  C   UNL A   1      30.980  26.085  23.853  1.00  0.00     0.172 C 
BRANCH  15  16
ATOM     16  C   UNL A   1      30.282  27.275  23.174  1.00  0.00     0.060 A 
ATOM     17  C   UNL A   1      26.913  28.781  23.304  1.00  0.00     0.067 C 
ATOM     18  C   UNL A   1      28.360  28.591  22.953  1.00  0.00     0.038 A 
ATOM     19  C   UNL A   1      29.088  29.644  22.407  1.00  0.00     0.023 A 
ATOM     20  N   UNL A   1      28.930  27.407  23.313  1.00  0.00    -0.256 NA
ATOM     21  C   UNL A   1      30.453  29.480  22.210  1.00  0.00     0.004 A 
ATOM     22  C   UNL A   1      31.061  28.288  22.599  1.00  0.00     0.026 A 
ENDBRANCH  15  16
ENDBRANCH  13  15
ENDBRANCH   7  13
ENDBRANCH   4   6
ENDBRANCH   3   4
ENDBRANCH   2   3
ENDBRANCH   1   2
BRANCH   1  23
ATOM     23  O   UNL A   1      33.650  34.864  28.313  1.00  0.00    -0.374 OA
BRANCH  23  24
ATOM     24  C   UNL A   1      32.847  35.854  28.918  1.00  0.00     0.202 C 
BRANCH  24  25
ATOM     25  C   UNL A   1      32.986  35.864  30.447  1.00  0.00     0.261 C 
BRANCH  25  26
ATOM     26  O   UNL A   1      34.285  35.344  30.817  1.00  0.00    -0.460 OA
BRANCH  26  27
ATOM     27  C   UNL A   1      34.312  34.381  31.783  1.00  0.00     0.338 C 
ATOM     28  O   UNL A   1      33.903  34.514  32.924  1.00  0.00    -0.246 OA
BRANCH  27  29
ATOM     29  C   UNL A   1      35.178  33.243  31.341  1.00  0.00     0.060 A 
ATOM     30  C   UNL A   1      35.129  31.999  32.009  1.00  0.00     0.016 A 
ATOM     31  C   UNL A   1      36.259  33.532  30.516  1.00  0.00     0.016 A 
ATOM     32  C   UNL A   1      36.238  31.130  31.986  1.00  0.00     0.010 A 
ATOM     33  C   UNL A   1      37.382  32.738  30.599  1.00  0.00     0.010 A 
ATOM     34  C   UNL A   1      37.408  31.550  31.357  1.00  0.00    -0.014 A 
BRANCH  34  35
ATOM     35  C   UNL A   1      38.751  30.960  31.498  1.00  0.00     0.031 A 
ATOM     36  C   UNL A   1      39.051  29.753  30.698  1.00  0.00     0.074 A 
ATOM     37  C   UNL A   1      39.791  31.646  32.039  1.00  0.00     0.049 A 
ATOM     38  N   UNL A   1      40.134  29.070  30.806  1.00  0.00    -0.248 NA
ATOM     39  C   UNL A   1      38.128  29.180  29.726  1.00  0.00     0.031 C 
ATOM     40  C   UNL A   1      41.217  31.534  31.696  1.00  0.00     0.029 A 
ATOM     41  N   UNL A   1      39.800  32.683  32.982  1.00  0.00    -0.354 N 
ATOM     42  C   UNL A   1      40.216  28.233  29.718  1.00  0.00     0.074 A 
ATOM     43  C   UNL A   1      38.888  28.241  29.162  1.00  0.00     0.031 C 
ATOM     44  C   UNL A   1      41.955  32.233  32.577  1.00  0.00     0.029 A 
ATOM     45  C   UNL A   1      41.059  32.701  33.614  1.00  0.00     0.049 A 
ATOM     46  H   UNL A   1      39.053  33.296  33.170  1.00  0.00     0.167 HD
ATOM     47  C   UNL A   1      41.445  27.750  29.374  1.00  0.00     0.037 A 
ATOM     48  C   UNL A   1      41.143  32.528  34.960  1.00  0.00     0.037 A 
ATOM     49  C   UNL A   1      42.465  28.188  30.356  1.00  0.00     0.049 A 
ATOM     50  C   UNL A   1      41.780  31.194  35.248  1.00  0.00     0.074 A 
ATOM     51  C   UNL A   1      43.505  29.102  30.354  1.00  0.00     0.029 A 
ATOM     52  N   UNL A   1      42.269  27.871  31.695  1.00  0.00    -0.354 N 
ATOM     53  N   UNL A   1      42.261  30.432  34.305  1.00  0.00    -0.248 NA
ATOM     54  C   UNL A   1      41.872  30.567  36.557  1.00  0.00     0.031 C 
ATOM     55  C   UNL A   1      43.924  29.310  31.710  1.00  0.00     0.029 A 
ATOM     56  C   UNL A   1      43.164  28.501  32.539  1.00  0.00     0.049 A 
ATOM     57  H   UNL A   1      41.566  27.259  32.010  1.00  0.00     0.167 HD
ATOM     58  C   UNL A   1      42.627  29.226  34.799  1.00  0.00     0.074 A 
ATOM     59  C   UNL A   1      42.357  29.353  36.227  1.00  0.00     0.031 C 
ATOM     60  C   UNL A   1      43.089  28.233  33.978  1.00  0.00     0.037 A 
BRANCH  47  61
ATOM     61  C   UNL A   1      41.795  27.026  28.078  1.00  0.00     0.064 A 
ATOM     62  C   UNL A   1      41.329  25.710  27.858  1.00  0.00     0.173 A 
ATOM     63  C   UNL A   1      42.587  27.528  27.022  1.00  0.00     0.173 A 
ATOM     64  F   UNL A   1      40.515  25.102  28.729  1.00  0.00    -0.203 F 
ATOM     65  C   UNL A   1      41.672  24.960  26.724  1.00  0.00     0.198 A 
ATOM     66  C   UNL A   1      42.939  26.777  25.896  1.00  0.00     0.198 A 
ATOM     67  F   UNL A   1      43.039  28.780  26.986  1.00  0.00    -0.203 F 
ATOM     68  F   UNL A   1      41.201  23.713  26.586  1.00  0.00    -0.200 F 
ATOM     69  C   UNL A   1      42.487  25.490  25.748  1.00  0.00     0.200 A 
ATOM     70  F   UNL A   1      43.719  27.328  24.952  1.00  0.00    -0.200 F 
ATOM     71  F   UNL A   1      42.819  24.775  24.664  1.00  0.00    -0.200 F 
ENDBRANCH  47  61
BRANCH  48  72
ATOM     72  C   UNL A   1      39.990  33.203  35.640  1.00  0.00     0.064 A 
ATOM     73  C   UNL A   1      38.965  32.356  36.127  1.00  0.00     0.173 A 
ATOM     74  C   UNL A   1      40.164  34.432  36.296  1.00  0.00     0.173 A 
ATOM     75  F   UNL A   1      38.762  31.155  35.558  1.00  0.00    -0.203 F 
ATOM     76  C   UNL A   1      38.281  32.643  37.310  1.00  0.00     0.198 A 
ATOM     77  C   UNL A   1      39.474  34.714  37.482  1.00  0.00     0.198 A 
ATOM     78  F   UNL A   1      41.124  35.278  35.896  1.00  0.00    -0.203 F 
ATOM     79  F   UNL A   1      37.459  31.729  37.847  1.00  0.00    -0.200 F 
ATOM     80  C   UNL A   1      38.572  33.800  38.010  1.00  0.00     0.200 A 
ATOM     81  F   UNL A   1      39.772  35.818  38.181  1.00  0.00    -0.200 F 
ATOM     82  F   UNL A   1      38.053  33.992  39.232  1.00  0.00    -0.200 F 
ENDBRANCH  48  72
BRANCH  60  83
ATOM     83  C   UNL A   1      43.471  26.880  34.502  1.00  0.00     0.064 A 
ATOM     84  C   UNL A   1      44.809  26.473  34.596  1.00  0.00     0.173 A 
ATOM     85  C   UNL A   1      42.509  25.919  34.883  1.00  0.00     0.173 A 
ATOM     86  F   UNL A   1      45.798  27.232  34.101  1.00  0.00    -0.203 F 
ATOM     87  C   UNL A   1      45.164  25.263  35.188  1.00  0.00     0.198 A 
ATOM     88  C   UNL A   1      42.864  24.680  35.399  1.00  0.00     0.198 A 
ATOM     89  F   UNL A   1      41.193  26.147  34.801  1.00  0.00    -0.203 F 
ATOM     90  F   UNL A   1      46.458  24.971  35.369  1.00  0.00    -0.200 F 
ATOM     91  C   UNL A   1      44.191  24.369  35.594  1.00  0.00     0.200 A 
ATOM     92  F   UNL A   1      41.905  23.803  35.729  1.00  0.00    -0.200 F 
ATOM     93  F   UNL A   1      44.532  23.209  36.168  1.00  0.00    -0.200 F 
ENDBRANCH  60  83
ENDBRANCH  34  35
ENDBRANCH  27  29
ENDBRANCH  26  27
ENDBRANCH  25  26
ENDBRANCH  24  25
ENDBRANCH  23  24
ENDBRANCH   1  23
TORSDOF 17
ENDMDL
MODEL 3
REMARK VINA RESULT:     -12.0      4.842      9.897
REMARK SMILES Cc1cccc(CN(C)c2ccc(C(=O)OCCOCCOC(=O)c3ccc(-c4c5nc(c(-c6c(F)c(F)c(F)c(F)c6F)c6ccc([nH]6)c(-c6c(F)c(F)c(F)c(F)c6F)c6nc(c(-c7c(F)c(F)c(F)c(F)c7F)c7ccc4[nH]7)C=C6)C=C5)cc3)cc2C)n1
REMARK SMILES IDX 18 1 17 2 16 3 14 4 15 5 13 6 10 7 11 8 89 9 12 10 88 11
REMARK SMILES IDX 90 12 8 13 9 14 7 15 6 16 1 17 2 18 3 19 91 20 4 21 5 22
REMARK SMILES IDX 19 23 20 24 21 25 22 26 23 27 24 28 25 29 26 30 87 31 27 32
REMARK SMILES IDX 86 33 28 34 29 35 30 36 80 37 31 38 85 39 79 40 81 41 32 42
REMARK SMILES IDX 84 43 78 44 77 45 33 47 65 48 45 49 64 50 46 51 49 52 63 53
REMARK SMILES IDX 82 54 47 55 48 56 62 58 83 59 50 60 34 61 35 62 43 63 36 64
REMARK SMILES IDX 37 65 41 66 44 67 38 68 39 69 42 70 40 71 66 72 67 73 75 74
REMARK SMILES IDX 68 75 69 76 73 77 76 78 70 79 71 80 74 81 72 82 51 83 52 84
REMARK SMILES IDX 60 85 53 86 54 87 58 88 61 89 55 90 56 91 59 92 57 93
REMARK H PARENT 81 46 49 57
REMARK Flexibility Score: inf
ROOT
ATOM      1  C   UNL A   1      31.053  29.132  24.876  1.00  0.00     0.202 C 
ENDROOT
BRANCH   1   2
ATOM      2  C   UNL A   1      31.428  28.892  23.453  1.00  0.00     0.261 C 
BRANCH   2   3
ATOM      3  O   UNL A   1      32.064  27.625  23.273  1.00  0.00    -0.460 OA
BRANCH   3   4
ATOM      4  C   UNL A   1      33.329  27.415  23.743  1.00  0.00     0.338 C 
ATOM      5  O   UNL A   1      34.238  28.203  23.846  1.00  0.00    -0.246 OA
BRANCH   4   6
ATOM      6  C   UNL A   1      33.334  26.025  24.235  1.00  0.00     0.060 A 
ATOM      7  C   UNL A   1      33.546  23.469  25.387  1.00  0.00     0.040 A 
ATOM      8  C   UNL A   1      32.964  24.547  26.052  1.00  0.00     0.027 A 
ATOM      9  C   UNL A   1      34.174  23.739  24.153  1.00  0.00    -0.027 A 
ATOM     10  C   UNL A   1      32.760  25.765  25.466  1.00  0.00     0.018 A 
ATOM     11  C   UNL A   1      34.066  25.031  23.586  1.00  0.00     0.021 A 
ATOM     12  C   UNL A   1      35.057  22.748  23.448  1.00  0.00     0.046 C 
BRANCH   7  13
ATOM     13  N   UNL A   1      33.469  22.217  25.985  1.00  0.00    -0.368 N 
ATOM     14  C   UNL A   1      34.199  22.034  27.227  1.00  0.00     0.144 C 
BRANCH  13  15
ATOM     15  C   UNL A   1      32.288  21.345  25.714  1.00  0.00     0.172 C 
BRANCH  15  16
ATOM     16  C   UNL A   1      32.534  20.053  24.917  1.00  0.00     0.060 A 
ATOM     17  C   UNL A   1      32.612  16.445  25.698  1.00  0.00     0.067 C 
ATOM     18  C   UNL A   1      32.635  17.715  24.900  1.00  0.00     0.038 A 
ATOM     19  C   UNL A   1      32.468  17.672  23.519  1.00  0.00     0.023 A 
ATOM     20  N   UNL A   1      32.696  18.882  25.600  1.00  0.00    -0.256 NA
ATOM     21  C   UNL A   1      32.367  18.869  22.821  1.00  0.00     0.004 A 
ATOM     22  C   UNL A   1      32.396  20.073  23.522  1.00  0.00     0.026 A 
ENDBRANCH  15  16
ENDBRANCH  13  15
ENDBRANCH   7  13
ENDBRANCH   4   6
ENDBRANCH   3   4
ENDBRANCH   2   3
ENDBRANCH   1   2
BRANCH   1  23
ATOM     23  O   UNL A   1      31.860  30.220  25.288  1.00  0.00    -0.374 OA
BRANCH  23  24
ATOM     24  C   UNL A   1      32.029  30.354  26.682  1.00  0.00     0.202 C 
BRANCH  24  25
ATOM     25  C   UNL A   1      33.319  31.103  27.044  1.00  0.00     0.261 C 
BRANCH  25  26
ATOM     26  O   UNL A   1      34.048  30.353  28.044  1.00  0.00    -0.460 OA
BRANCH  26  27
ATOM     27  C   UNL A   1      34.858  29.350  27.594  1.00  0.00     0.338 C 
ATOM     28  O   UNL A   1      34.477  28.274  27.167  1.00  0.00    -0.246 OA
BRANCH  27  29
ATOM     29  C   UNL A   1      36.278  29.637  27.972  1.00  0.00     0.060 A 
ATOM     30  C   UNL A   1      37.254  29.872  26.979  1.00  0.00     0.016 A 
ATOM     31  C   UNL A   1      36.682  29.321  29.265  1.00  0.00     0.016 A 
ATOM     32  C   UNL A   1      38.616  29.620  27.240  1.00  0.00     0.010 A 
ATOM     33  C   UNL A   1      37.995  28.960  29.474  1.00  0.00     0.010 A 
ATOM     34  C   UNL A   1      38.973  29.066  28.465  1.00  0.00    -0.014 A 
BRANCH  34  35
ATOM     35  C   UNL A   1      40.258  28.431  28.811  1.00  0.00     0.031 A 
ATOM     36  C   UNL A   1      40.374  26.972  28.601  1.00  0.00     0.074 A 
ATOM     37  C   UNL A   1      41.400  29.149  28.978  1.00  0.00     0.049 A 
ATOM     38  N   UNL A   1      41.389  26.272  28.964  1.00  0.00    -0.248 NA
ATOM     39  C   UNL A   1      39.327  26.159  27.994  1.00  0.00     0.031 C 
ATOM     40  C   UNL A   1      42.777  28.727  28.681  1.00  0.00     0.029 A 
ATOM     41  N   UNL A   1      41.584  30.478  29.383  1.00  0.00    -0.354 N 
ATOM     42  C   UNL A   1      41.303  25.049  28.340  1.00  0.00     0.074 A 
ATOM     43  C   UNL A   1      39.945  24.984  27.869  1.00  0.00     0.031 C 
ATOM     44  C   UNL A   1      43.646  29.638  29.156  1.00  0.00     0.029 A 
ATOM     45  C   UNL A   1      42.882  30.607  29.914  1.00  0.00     0.049 A 
ATOM     46  H   UNL A   1      40.918  31.199  29.308  1.00  0.00     0.167 HD
ATOM     47  C   UNL A   1      42.449  24.319  28.206  1.00  0.00     0.037 A 
ATOM     48  C   UNL A   1      43.051  31.013  31.200  1.00  0.00     0.037 A 
ATOM     49  C   UNL A   1      43.579  25.003  28.878  1.00  0.00     0.049 A 
ATOM     50  C   UNL A   1      43.571  29.859  32.017  1.00  0.00     0.074 A 
ATOM     51  C   UNL A   1      44.702  25.695  28.456  1.00  0.00     0.029 A 
ATOM     52  N   UNL A   1      43.454  25.311  30.228  1.00  0.00    -0.354 N 
ATOM     53  N   UNL A   1      43.900  28.717  31.482  1.00  0.00    -0.248 NA
ATOM     54  C   UNL A   1      43.699  29.841  33.466  1.00  0.00     0.031 C 
ATOM     55  C   UNL A   1      45.242  26.405  29.580  1.00  0.00     0.029 A 
ATOM     56  C   UNL A   1      44.469  26.124  30.695  1.00  0.00     0.049 A 
ATOM     57  H   UNL A   1      42.719  24.982  30.793  1.00  0.00     0.167 HD
ATOM     58  C   UNL A   1      44.180  27.799  32.436  1.00  0.00     0.074 A 
ATOM     59  C   UNL A   1      44.034  28.552  33.677  1.00  0.00     0.031 C 
ATOM     60  C   UNL A   1      44.477  26.503  32.111  1.00  0.00     0.037 A 
BRANCH  47  61
ATOM     61  C   UNL A   1      42.625  23.077  27.339  1.00  0.00     0.064 A 
ATOM     62  C   UNL A   1      41.965  21.877  27.684  1.00  0.00     0.173 A 
ATOM     63  C   UNL A   1      43.427  22.967  26.181  1.00  0.00     0.173 A 
ATOM     64  F   UNL A   1      41.117  21.818  28.718  1.00  0.00    -0.203 F 
ATOM     65  C   UNL A   1      42.139  20.680  26.974  1.00  0.00     0.198 A 
ATOM     66  C   UNL A   1      43.611  21.771  25.479  1.00  0.00     0.198 A 
ATOM     67  F   UNL A   1      44.052  24.005  25.630  1.00  0.00    -0.203 F 
ATOM     68  F   UNL A   1      41.487  19.576  27.366  1.00  0.00    -0.200 F 
ATOM     69  C   UNL A   1      42.971  20.624  25.878  1.00  0.00     0.200 A 
ATOM     70  F   UNL A   1      44.413  21.753  24.403  1.00  0.00    -0.200 F 
ATOM     71  F   UNL A   1      43.142  19.481  25.200  1.00  0.00    -0.200 F 
ENDBRANCH  47  61
BRANCH  48  72
ATOM     72  C   UNL A   1      42.026  32.048  31.553  1.00  0.00     0.064 A 
ATOM     73  C   UNL A   1      42.171  33.312  30.931  1.00  0.00     0.173 A 
ATOM     74  C   UNL A   1      40.728  31.673  31.934  1.00  0.00     0.173 A 
ATOM     75  F   UNL A   1      43.383  33.722  30.521  1.00  0.00    -0.203 F 
ATOM     76  C   UNL A   1      41.062  34.070  30.550  1.00  0.00     0.198 A 
ATOM     77  C   UNL A   1      39.620  32.438  31.549  1.00  0.00     0.198 A 
ATOM     78  F   UNL A   1      40.516  30.485  32.518  1.00  0.00    -0.203 F 
ATOM     79  F   UNL A   1      41.227  35.163  29.790  1.00  0.00    -0.200 F 
ATOM     80  C   UNL A   1      39.787  33.606  30.818  1.00  0.00     0.200 A 
ATOM     81  F   UNL A   1      38.381  31.980  31.779  1.00  0.00    -0.200 F 
ATOM     82  F   UNL A   1      38.722  34.235  30.298  1.00  0.00    -0.200 F 
ENDBRANCH  48  72
BRANCH  60  83
ATOM     83  C   UNL A   1      44.761  25.464  33.156  1.00  0.00     0.064 A 
ATOM     84  C   UNL A   1      43.783  25.044  34.068  1.00  0.00     0.173 A 
ATOM     85  C   UNL A   1      46.039  24.885  33.316  1.00  0.00     0.173 A 
ATOM     86  F   UNL A   1      42.587  25.649  34.125  1.00  0.00    -0.203 F 
ATOM     87  C   UNL A   1      44.017  24.000  34.960  1.00  0.00     0.198 A 
ATOM     88  C   UNL A   1      46.293  23.900  34.261  1.00  0.00     0.198 A 
ATOM     89  F   UNL A   1      47.083  25.224  32.551  1.00  0.00    -0.203 F 
ATOM     90  F   UNL A   1      43.016  23.550  35.727  1.00  0.00    -0.200 F 
ATOM     91  C   UNL A   1      45.270  23.425  35.052  1.00  0.00     0.200 A 
ATOM     92  F   UNL A   1      47.531  23.398  34.376  1.00  0.00    -0.200 F 
ATOM     93  F   UNL A   1      45.495  22.418  35.905  1.00  0.00    -0.200 F 
ENDBRANCH  60  83
ENDBRANCH  34  35
ENDBRANCH  27  29
ENDBRANCH  26  27
ENDBRANCH  25  26
ENDBRANCH  24  25
ENDBRANCH  23  24
ENDBRANCH   1  23
TORSDOF 17
ENDMDL
