MODEL 1
REMARK VINA RESULT:     -12.0      0.000      0.000
REMARK SMILES CC(=O)Nc1ccc(/C=N/c2ccccc2C(=O)OCCOCCOC(=O)c2ccc(-c3c4nc(c(-c5c(F)c(F)c(F)c(F)c5F)c5ccc([nH]5)c(-c5c(F)c(F)c(F)c(F)c5F)c5nc(c(-c6c(F)c(F)c(F)c(F)c6F)c6ccc3[nH]6)C=C5)C=C4)cc2)cc1
REMARK SMILES IDX 21 1 20 2 19 3 17 4 18 5 16 6 11 7 12 8 13 9 15 10 14 11
REMARK SMILES IDX 10 12 9 13 8 14 5 15 6 16 92 17 7 18 91 19 4 20 1 21 2 22
REMARK SMILES IDX 3 23 22 25 23 26 24 27 25 28 26 29 27 30 28 31 29 32 90 33
REMARK SMILES IDX 30 34 89 35 31 36 32 37 33 38 83 39 34 40 88 41 82 42 84 43
REMARK SMILES IDX 35 44 87 45 81 46 80 47 36 49 68 50 48 51 67 52 49 53 52 54
REMARK SMILES IDX 66 55 85 56 50 57 51 58 65 60 86 61 53 62 37 63 38 64 46 65
REMARK SMILES IDX 39 66 40 67 44 68 47 69 41 70 42 71 45 72 43 73 69 74 70 75
REMARK SMILES IDX 78 76 71 77 72 78 76 79 79 80 73 81 74 82 77 83 75 84 54 85
REMARK SMILES IDX 55 86 63 87 56 88 57 89 61 90 64 91 58 92 59 93 62 94 60 95
REMARK H PARENT 4 24 84 48 52 59
REMARK Flexibility Score: inf
ROOT
ATOM      1  C   UNL A   1      32.957  29.689  25.930  1.00  0.00     0.202 C 
ENDROOT
BRANCH   1   2
ATOM      2  C   UNL A   1      33.703  28.481  26.498  1.00  0.00     0.261 C 
BRANCH   2   3
ATOM      3  O   UNL A   1      33.228  27.278  25.874  1.00  0.00    -0.460 OA
BRANCH   3   4
ATOM      4  C   UNL A   1      32.182  26.660  26.461  1.00  0.00     0.340 C 
ATOM      5  O   UNL A   1      31.508  27.129  27.375  1.00  0.00    -0.246 OA
BRANCH   4   6
ATOM      6  C   UNL A   1      31.856  25.353  25.828  1.00  0.00     0.085 A 
ATOM      7  C   UNL A   1      31.285  25.174  24.552  1.00  0.00     0.077 A 
ATOM      8  C   UNL A   1      31.092  23.866  24.076  1.00  0.00     0.029 A 
ATOM      9  C   UNL A   1      31.421  22.753  24.844  1.00  0.00     0.002 A 
ATOM     10  C   UNL A   1      32.170  24.219  26.601  1.00  0.00     0.018 A 
ATOM     11  C   UNL A   1      31.944  22.931  26.118  1.00  0.00     0.001 A 
BRANCH   7  12
ATOM     12  N   UNL A   1      30.784  26.177  23.714  1.00  0.00    -0.255 NA
ATOM     13  C   UNL A   1      29.794  26.896  24.120  1.00  0.00     0.119 C 
BRANCH  13  14
ATOM     14  C   UNL A   1      29.229  27.924  23.246  1.00  0.00    -0.007 A 
ATOM     15  C   UNL A   1      28.193  30.079  21.873  1.00  0.00     0.041 A 
ATOM     16  C   UNL A   1      29.535  29.738  21.703  1.00  0.00     0.027 A 
ATOM     17  C   UNL A   1      27.341  29.241  22.596  1.00  0.00     0.027 A 
ATOM     18  C   UNL A   1      30.061  28.663  22.405  1.00  0.00     0.012 A 
ATOM     19  C   UNL A   1      27.861  28.167  23.306  1.00  0.00     0.012 A 
BRANCH  15  20
ATOM     20  N   UNL A   1      27.805  31.316  21.361  1.00  0.00    -0.326 N 
ATOM     21  C   UNL A   1      28.788  32.768  23.146  1.00  0.00     0.114 C 
ATOM     22  C   UNL A   1      28.080  32.561  21.834  1.00  0.00     0.221 C 
ATOM     23  O   UNL A   1      27.785  33.521  21.124  1.00  0.00    -0.275 OA
ATOM     24  H   UNL A   1      27.258  31.283  20.543  1.00  0.00     0.169 HD
ENDBRANCH  15  20
ENDBRANCH  13  14
ENDBRANCH   7  12
ENDBRANCH   4   6
ENDBRANCH   3   4
ENDBRANCH   2   3
ENDBRANCH   1   2
BRANCH   1  25
ATOM     25  O   UNL A   1      32.170  30.413  26.876  1.00  0.00    -0.374 OA
BRANCH  25  26
ATOM     26  C   UNL A   1      31.396  31.504  26.373  1.00  0.00     0.202 C 
BRANCH  26  27
ATOM     27  C   UNL A   1      31.709  32.881  26.970  1.00  0.00     0.261 C 
BRANCH  27  28
ATOM     28  O   UNL A   1      33.057  32.995  27.469  1.00  0.00    -0.460 OA
BRANCH  28  29
ATOM     29  C   UNL A   1      33.265  34.029  28.312  1.00  0.00     0.338 C 
ATOM     30  O   UNL A   1      32.567  35.034  28.440  1.00  0.00    -0.246 OA
BRANCH  29  31
ATOM     31  C   UNL A   1      34.421  33.782  29.193  1.00  0.00     0.060 A 
ATOM     32  C   UNL A   1      35.678  34.238  28.771  1.00  0.00     0.016 A 
ATOM     33  C   UNL A   1      34.312  32.994  30.339  1.00  0.00     0.016 A 
ATOM     34  C   UNL A   1      36.837  33.859  29.454  1.00  0.00     0.010 A 
ATOM     35  C   UNL A   1      35.476  32.613  31.021  1.00  0.00     0.010 A 
ATOM     36  C   UNL A   1      36.752  33.010  30.564  1.00  0.00    -0.014 A 
BRANCH  36  37
ATOM     37  C   UNL A   1      37.971  32.386  31.156  1.00  0.00     0.031 A 
ATOM     38  C   UNL A   1      38.586  31.200  30.455  1.00  0.00     0.074 A 
ATOM     39  C   UNL A   1      38.541  32.841  32.289  1.00  0.00     0.049 A 
ATOM     40  N   UNL A   1      39.549  30.407  30.852  1.00  0.00    -0.248 NA
ATOM     41  C   UNL A   1      38.065  30.882  29.114  1.00  0.00     0.031 C 
ATOM     42  C   UNL A   1      38.164  34.054  33.009  1.00  0.00     0.029 A 
ATOM     43  N   UNL A   1      39.538  32.294  33.066  1.00  0.00    -0.354 N 
ATOM     44  C   UNL A   1      39.780  29.534  29.797  1.00  0.00     0.074 A 
ATOM     45  C   UNL A   1      38.802  29.833  28.775  1.00  0.00     0.031 C 
ATOM     46  C   UNL A   1      38.837  34.099  34.174  1.00  0.00     0.029 A 
ATOM     47  C   UNL A   1      39.665  32.904  34.296  1.00  0.00     0.049 A 
ATOM     48  H   UNL A   1      40.105  31.543  32.774  1.00  0.00     0.167 HD
ATOM     49  C   UNL A   1      40.757  28.605  29.672  1.00  0.00     0.037 A 
ATOM     50  C   UNL A   1      40.314  32.499  35.409  1.00  0.00     0.037 A 
ATOM     51  C   UNL A   1      41.741  28.317  30.682  1.00  0.00     0.049 A 
ATOM     52  C   UNL A   1      41.196  31.288  35.343  1.00  0.00     0.074 A 
ATOM     53  C   UNL A   1      42.832  27.468  30.610  1.00  0.00     0.029 A 
ATOM     54  N   UNL A   1      41.741  28.860  31.956  1.00  0.00    -0.354 N 
ATOM     55  N   UNL A   1      41.421  30.481  34.339  1.00  0.00    -0.248 NA
ATOM     56  C   UNL A   1      41.977  30.984  36.551  1.00  0.00     0.031 C 
ATOM     57  C   UNL A   1      43.462  27.456  31.859  1.00  0.00     0.029 A 
ATOM     58  C   UNL A   1      42.791  28.334  32.692  1.00  0.00     0.049 A 
ATOM     59  H   UNL A   1      41.092  29.520  32.289  1.00  0.00     0.167 HD
ATOM     60  C   UNL A   1      42.416  29.617  34.770  1.00  0.00     0.074 A 
ATOM     61  C   UNL A   1      42.712  29.962  36.144  1.00  0.00     0.031 C 
ATOM     62  C   UNL A   1      43.071  28.667  34.061  1.00  0.00     0.037 A 
BRANCH  49  63
ATOM     63  C   UNL A   1      40.845  27.849  28.380  1.00  0.00     0.064 A 
ATOM     64  C   UNL A   1      41.635  28.315  27.318  1.00  0.00     0.173 A 
ATOM     65  C   UNL A   1      40.213  26.606  28.235  1.00  0.00     0.173 A 
ATOM     66  F   UNL A   1      42.255  29.503  27.408  1.00  0.00    -0.203 F 
ATOM     67  C   UNL A   1      41.781  27.568  26.153  1.00  0.00     0.198 A 
ATOM     68  C   UNL A   1      40.380  25.851  27.077  1.00  0.00     0.198 A 
ATOM     69  F   UNL A   1      39.453  26.115  29.224  1.00  0.00    -0.203 F 
ATOM     70  F   UNL A   1      42.524  28.043  25.143  1.00  0.00    -0.200 F 
ATOM     71  C   UNL A   1      41.163  26.332  26.038  1.00  0.00     0.200 A 
ATOM     72  F   UNL A   1      39.793  24.651  26.972  1.00  0.00    -0.200 F 
ATOM     73  F   UNL A   1      41.320  25.605  24.923  1.00  0.00    -0.200 F 
ENDBRANCH  49  63
BRANCH  50  74
ATOM     74  C   UNL A   1      40.147  33.202  36.710  1.00  0.00     0.064 A 
ATOM     75  C   UNL A   1      39.101  32.896  37.585  1.00  0.00     0.173 A 
ATOM     76  C   UNL A   1      40.998  34.264  37.064  1.00  0.00     0.173 A 
ATOM     77  F   UNL A   1      38.206  31.955  37.256  1.00  0.00    -0.203 F 
ATOM     78  C   UNL A   1      38.947  33.586  38.788  1.00  0.00     0.198 A 
ATOM     79  C   UNL A   1      40.871  34.923  38.283  1.00  0.00     0.198 A 
ATOM     80  F   UNL A   1      41.904  34.722  36.189  1.00  0.00    -0.203 F 
ATOM     81  F   UNL A   1      37.916  33.299  39.594  1.00  0.00    -0.200 F 
ATOM     82  C   UNL A   1      39.845  34.582  39.147  1.00  0.00     0.200 A 
ATOM     83  F   UNL A   1      41.724  35.904  38.610  1.00  0.00    -0.200 F 
ATOM     84  F   UNL A   1      39.703  35.230  40.310  1.00  0.00    -0.200 F 
ENDBRANCH  50  74
BRANCH  62  85
ATOM     85  C   UNL A   1      44.233  28.005  34.735  1.00  0.00     0.064 A 
ATOM     86  C   UNL A   1      45.518  28.564  34.721  1.00  0.00     0.173 A 
ATOM     87  C   UNL A   1      44.051  26.777  35.387  1.00  0.00     0.173 A 
ATOM     88  F   UNL A   1      45.745  29.720  34.082  1.00  0.00    -0.203 F 
ATOM     89  C   UNL A   1      46.587  27.899  35.317  1.00  0.00     0.198 A 
ATOM     90  C   UNL A   1      45.115  26.130  36.006  1.00  0.00     0.198 A 
ATOM     91  F   UNL A   1      42.839  26.200  35.419  1.00  0.00    -0.203 F 
ATOM     92  F   UNL A   1      47.820  28.419  35.244  1.00  0.00    -0.200 F 
ATOM     93  C   UNL A   1      46.384  26.688  35.963  1.00  0.00     0.200 A 
ATOM     94  F   UNL A   1      44.916  24.963  36.633  1.00  0.00    -0.200 F 
ATOM     95  F   UNL A   1      47.416  26.049  36.531  1.00  0.00    -0.200 F 
ENDBRANCH  62  85
ENDBRANCH  36  37
ENDBRANCH  29  31
ENDBRANCH  28  29
ENDBRANCH  27  28
ENDBRANCH  26  27
ENDBRANCH  25  26
ENDBRANCH   1  25
TORSDOF 17
ENDMDL
MODEL 2
REMARK VINA RESULT:     -12.0      5.394      9.489
REMARK SMILES CC(=O)Nc1ccc(/C=N/c2ccccc2C(=O)OCCOCCOC(=O)c2ccc(-c3c4nc(c(-c5c(F)c(F)c(F)c(F)c5F)c5ccc([nH]5)c(-c5c(F)c(F)c(F)c(F)c5F)c5nc(c(-c6c(F)c(F)c(F)c(F)c6F)c6ccc3[nH]6)C=C5)C=C4)cc2)cc1
REMARK SMILES IDX 21 1 20 2 19 3 17 4 18 5 16 6 11 7 12 8 13 9 15 10 14 11
REMARK SMILES IDX 10 12 9 13 8 14 5 15 6 16 92 17 7 18 91 19 4 20 1 21 2 22
REMARK SMILES IDX 3 23 22 25 23 26 24 27 25 28 26 29 27 30 28 31 29 32 90 33
REMARK SMILES IDX 30 34 89 35 31 36 32 37 33 38 83 39 34 40 88 41 82 42 84 43
REMARK SMILES IDX 35 44 87 45 81 46 80 47 36 49 68 50 48 51 67 52 49 53 52 54
REMARK SMILES IDX 66 55 85 56 50 57 51 58 65 60 86 61 53 62 37 63 38 64 46 65
REMARK SMILES IDX 39 66 40 67 44 68 47 69 41 70 42 71 45 72 43 73 69 74 70 75
REMARK SMILES IDX 78 76 71 77 72 78 76 79 79 80 73 81 74 82 77 83 75 84 54 85
REMARK SMILES IDX 55 86 63 87 56 88 57 89 61 90 64 91 58 92 59 93 62 94 60 95
REMARK H PARENT 4 24 84 48 52 59
REMARK Flexibility Score: inf
ROOT
ATOM      1  C   UNL A   1      37.167  22.123  25.029  1.00  0.00     0.202 C 
ENDROOT
BRANCH   1   2
ATOM      2  C   UNL A   1      36.273  23.056  25.845  1.00  0.00     0.261 C 
BRANCH   2   3
ATOM      3  O   UNL A   1      35.905  24.194  25.051  1.00  0.00    -0.460 OA
BRANCH   3   4
ATOM      4  C   UNL A   1      34.625  24.613  25.143  1.00  0.00     0.340 C 
ATOM      5  O   UNL A   1      34.029  24.830  26.195  1.00  0.00    -0.246 OA
BRANCH   4   6
ATOM      6  C   UNL A   1      34.008  24.875  23.814  1.00  0.00     0.085 A 
ATOM      7  C   UNL A   1      33.403  23.913  22.982  1.00  0.00     0.077 A 
ATOM      8  C   UNL A   1      32.814  24.335  21.778  1.00  0.00     0.029 A 
ATOM      9  C   UNL A   1      32.844  25.669  21.379  1.00  0.00     0.002 A 
ATOM     10  C   UNL A   1      34.045  26.218  23.392  1.00  0.00     0.018 A 
ATOM     11  C   UNL A   1      33.478  26.609  22.180  1.00  0.00     0.001 A 
BRANCH   7  12
ATOM     12  N   UNL A   1      33.401  22.526  23.173  1.00  0.00    -0.255 NA
ATOM     13  C   UNL A   1      32.303  21.942  23.511  1.00  0.00     0.119 C 
BRANCH  13  14
ATOM     14  C   UNL A   1      32.285  20.500  23.754  1.00  0.00    -0.007 A 
ATOM     15  C   UNL A   1      32.601  17.792  24.169  1.00  0.00     0.041 A 
ATOM     16  C   UNL A   1      32.480  18.645  25.267  1.00  0.00     0.027 A 
ATOM     17  C   UNL A   1      32.396  18.277  22.876  1.00  0.00     0.027 A 
ATOM     18  C   UNL A   1      32.336  20.009  25.060  1.00  0.00     0.012 A 
ATOM     19  C   UNL A   1      32.257  19.642  22.660  1.00  0.00     0.012 A 
BRANCH  15  20
ATOM     20  N   UNL A   1      33.014  16.490  24.448  1.00  0.00    -0.326 N 
ATOM     21  C   UNL A   1      35.417  16.975  24.951  1.00  0.00     0.114 C 
ATOM     22  C   UNL A   1      34.233  16.049  24.860  1.00  0.00     0.221 C 
ATOM     23  O   UNL A   1      34.327  14.876  25.217  1.00  0.00    -0.275 OA
ATOM     24  H   UNL A   1      32.328  15.794  24.332  1.00  0.00     0.169 HD
ENDBRANCH  15  20
ENDBRANCH  13  14
ENDBRANCH   7  12
ENDBRANCH   4   6
ENDBRANCH   3   4
ENDBRANCH   2   3
ENDBRANCH   1   2
BRANCH   1  25
ATOM     25  O   UNL A   1      37.071  20.740  25.373  1.00  0.00    -0.374 OA
BRANCH  25  26
ATOM     26  C   UNL A   1      38.042  19.862  24.799  1.00  0.00     0.202 C 
BRANCH  26  27
ATOM     27  C   UNL A   1      39.143  19.368  25.744  1.00  0.00     0.261 C 
BRANCH  27  28
ATOM     28  O   UNL A   1      40.265  20.268  25.834  1.00  0.00    -0.460 OA
BRANCH  28  29
ATOM     29  C   UNL A   1      40.793  20.397  27.070  1.00  0.00     0.338 C 
ATOM     30  O   UNL A   1      41.221  19.497  27.792  1.00  0.00    -0.246 OA
BRANCH  29  31
ATOM     31  C   UNL A   1      40.908  21.814  27.463  1.00  0.00     0.060 A 
ATOM     32  C   UNL A   1      40.168  22.759  26.739  1.00  0.00     0.016 A 
ATOM     33  C   UNL A   1      41.830  22.233  28.422  1.00  0.00     0.016 A 
ATOM     34  C   UNL A   1      40.389  24.127  26.923  1.00  0.00     0.010 A 
ATOM     35  C   UNL A   1      42.052  23.606  28.603  1.00  0.00     0.010 A 
ATOM     36  C   UNL A   1      41.362  24.564  27.830  1.00  0.00    -0.014 A 
BRANCH  36  37
ATOM     37  C   UNL A   1      41.799  25.991  27.866  1.00  0.00     0.031 A 
ATOM     38  C   UNL A   1      43.200  26.327  27.416  1.00  0.00     0.074 A 
ATOM     39  C   UNL A   1      40.992  26.986  28.284  1.00  0.00     0.049 A 
ATOM     40  N   UNL A   1      43.848  27.461  27.496  1.00  0.00    -0.248 NA
ATOM     41  C   UNL A   1      43.961  25.247  26.764  1.00  0.00     0.031 C 
ATOM     42  C   UNL A   1      39.576  26.857  28.613  1.00  0.00     0.029 A 
ATOM     43  N   UNL A   1      41.274  28.307  28.554  1.00  0.00    -0.354 N 
ATOM     44  C   UNL A   1      45.067  27.246  26.865  1.00  0.00     0.074 A 
ATOM     45  C   UNL A   1      45.107  25.851  26.482  1.00  0.00     0.031 C 
ATOM     46  C   UNL A   1      39.143  28.015  29.146  1.00  0.00     0.029 A 
ATOM     47  C   UNL A   1      40.258  28.953  29.225  1.00  0.00     0.049 A 
ATOM     48  H   UNL A   1      42.116  28.748  28.294  1.00  0.00     0.167 HD
ATOM     49  C   UNL A   1      46.037  28.145  26.580  1.00  0.00     0.037 A 
ATOM     50  C   UNL A   1      40.259  30.129  29.888  1.00  0.00     0.037 A 
ATOM     51  C   UNL A   1      45.992  29.536  26.946  1.00  0.00     0.049 A 
ATOM     52  C   UNL A   1      41.463  31.019  29.799  1.00  0.00     0.074 A 
ATOM     53  C   UNL A   1      46.877  30.548  26.615  1.00  0.00     0.029 A 
ATOM     54  N   UNL A   1      45.013  30.107  27.742  1.00  0.00    -0.354 N 
ATOM     55  N   UNL A   1      42.600  30.816  29.186  1.00  0.00    -0.248 NA
ATOM     56  C   UNL A   1      41.344  32.342  30.430  1.00  0.00     0.031 C 
ATOM     57  C   UNL A   1      46.463  31.720  27.255  1.00  0.00     0.029 A 
ATOM     58  C   UNL A   1      45.294  31.448  27.945  1.00  0.00     0.049 A 
ATOM     59  H   UNL A   1      44.234  29.631  28.110  1.00  0.00     0.167 HD
ATOM     60  C   UNL A   1      43.305  32.004  29.300  1.00  0.00     0.074 A 
ATOM     61  C   UNL A   1      42.491  32.906  30.087  1.00  0.00     0.031 C 
ATOM     62  C   UNL A   1      44.492  32.336  28.741  1.00  0.00     0.037 A 
BRANCH  49  63
ATOM     63  C   UNL A   1      47.226  27.670  25.799  1.00  0.00     0.064 A 
ATOM     64  C   UNL A   1      47.229  27.692  24.396  1.00  0.00     0.173 A 
ATOM     65  C   UNL A   1      48.403  27.280  26.454  1.00  0.00     0.173 A 
ATOM     66  F   UNL A   1      46.124  28.053  23.723  1.00  0.00    -0.203 F 
ATOM     67  C   UNL A   1      48.365  27.331  23.677  1.00  0.00     0.198 A 
ATOM     68  C   UNL A   1      49.543  26.942  25.732  1.00  0.00     0.198 A 
ATOM     69  F   UNL A   1      48.452  27.249  27.794  1.00  0.00    -0.203 F 
ATOM     70  F   UNL A   1      48.338  27.340  22.337  1.00  0.00    -0.200 F 
ATOM     71  C   UNL A   1      49.524  26.967  24.345  1.00  0.00     0.200 A 
ATOM     72  F   UNL A   1      50.667  26.602  26.378  1.00  0.00    -0.200 F 
ATOM     73  F   UNL A   1      50.623  26.639  23.652  1.00  0.00    -0.200 F 
ENDBRANCH  49  63
BRANCH  50  74
ATOM     74  C   UNL A   1      39.111  30.550  30.736  1.00  0.00     0.064 A 
ATOM     75  C   UNL A   1      39.033  30.214  32.091  1.00  0.00     0.173 A 
ATOM     76  C   UNL A   1      38.018  31.234  30.175  1.00  0.00     0.173 A 
ATOM     77  F   UNL A   1      40.003  29.484  32.657  1.00  0.00    -0.203 F 
ATOM     78  C   UNL A   1      37.934  30.595  32.862  1.00  0.00     0.198 A 
ATOM     79  C   UNL A   1      36.943  31.652  30.953  1.00  0.00     0.198 A 
ATOM     80  F   UNL A   1      37.952  31.424  28.849  1.00  0.00    -0.203 F 
ATOM     81  F   UNL A   1      37.865  30.231  34.150  1.00  0.00    -0.200 F 
ATOM     82  C   UNL A   1      36.902  31.333  32.299  1.00  0.00     0.200 A 
ATOM     83  F   UNL A   1      35.935  32.338  30.395  1.00  0.00    -0.200 F 
ATOM     84  F   UNL A   1      35.857  31.710  33.047  1.00  0.00    -0.200 F 
ENDBRANCH  50  74
BRANCH  62  85
ATOM     85  C   UNL A   1      44.930  33.761  28.884  1.00  0.00     0.064 A 
ATOM     86  C   UNL A   1      45.767  34.182  29.925  1.00  0.00     0.173 A 
ATOM     87  C   UNL A   1      44.481  34.722  27.965  1.00  0.00     0.173 A 
ATOM     88  F   UNL A   1      46.194  33.304  30.845  1.00  0.00    -0.203 F 
ATOM     89  C   UNL A   1      46.117  35.523  30.057  1.00  0.00     0.198 A 
ATOM     90  C   UNL A   1      44.856  36.055  28.083  1.00  0.00     0.198 A 
ATOM     91  F   UNL A   1      43.671  34.366  26.955  1.00  0.00    -0.203 F 
ATOM     92  F   UNL A   1      46.871  35.918  31.092  1.00  0.00    -0.200 F 
ATOM     93  C   UNL A   1      45.667  36.456  29.134  1.00  0.00     0.200 A 
ATOM     94  F   UNL A   1      44.423  36.953  27.187  1.00  0.00    -0.200 F 
ATOM     95  F   UNL A   1      46.002  37.747  29.266  1.00  0.00    -0.200 F 
ENDBRANCH  62  85
ENDBRANCH  36  37
ENDBRANCH  29  31
ENDBRANCH  28  29
ENDBRANCH  27  28
ENDBRANCH  26  27
ENDBRANCH  25  26
ENDBRANCH   1  25
TORSDOF 17
ENDMDL
MODEL 3
REMARK VINA RESULT:     -11.9      5.688     11.228
REMARK SMILES CC(=O)Nc1ccc(/C=N/c2ccccc2C(=O)OCCOCCOC(=O)c2ccc(-c3c4nc(c(-c5c(F)c(F)c(F)c(F)c5F)c5ccc([nH]5)c(-c5c(F)c(F)c(F)c(F)c5F)c5nc(c(-c6c(F)c(F)c(F)c(F)c6F)c6ccc3[nH]6)C=C5)C=C4)cc2)cc1
REMARK SMILES IDX 21 1 20 2 19 3 17 4 18 5 16 6 11 7 12 8 13 9 15 10 14 11
REMARK SMILES IDX 10 12 9 13 8 14 5 15 6 16 92 17 7 18 91 19 4 20 1 21 2 22
REMARK SMILES IDX 3 23 22 25 23 26 24 27 25 28 26 29 27 30 28 31 29 32 90 33
REMARK SMILES IDX 30 34 89 35 31 36 32 37 33 38 83 39 34 40 88 41 82 42 84 43
REMARK SMILES IDX 35 44 87 45 81 46 80 47 36 49 68 50 48 51 67 52 49 53 52 54
REMARK SMILES IDX 66 55 85 56 50 57 51 58 65 60 86 61 53 62 37 63 38 64 46 65
REMARK SMILES IDX 39 66 40 67 44 68 47 69 41 70 42 71 45 72 43 73 69 74 70 75
REMARK SMILES IDX 78 76 71 77 72 78 76 79 79 80 73 81 74 82 77 83 75 84 54 85
REMARK SMILES IDX 55 86 63 87 56 88 57 89 61 90 64 91 58 92 59 93 62 94 60 95
REMARK H PARENT 4 24 84 48 52 59
REMARK Flexibility Score: inf
ROOT
ATOM      1  C   UNL A   1      35.853  22.331  24.845  1.00  0.00     0.202 C 
ENDROOT
BRANCH   1   2
ATOM      2  C   UNL A   1      36.197  23.783  24.514  1.00  0.00     0.261 C 
BRANCH   2   3
ATOM      3  O   UNL A   1      35.101  24.638  24.875  1.00  0.00    -0.460 OA
BRANCH   3   4
ATOM      4  C   UNL A   1      34.171  24.870  23.925  1.00  0.00     0.340 C 
ATOM      5  O   UNL A   1      34.378  24.839  22.715  1.00  0.00    -0.246 OA
BRANCH   4   6
ATOM      6  C   UNL A   1      32.813  25.095  24.491  1.00  0.00     0.085 A 
ATOM      7  C   UNL A   1      32.027  24.132  25.156  1.00  0.00     0.077 A 
ATOM      8  C   UNL A   1      30.784  24.522  25.682  1.00  0.00     0.029 A 
ATOM      9  C   UNL A   1      30.303  25.820  25.535  1.00  0.00     0.002 A 
ATOM     10  C   UNL A   1      32.308  26.400  24.335  1.00  0.00     0.018 A 
ATOM     11  C   UNL A   1      31.059  26.756  24.842  1.00  0.00     0.001 A 
BRANCH   7  12
ATOM     12  N   UNL A   1      32.306  22.765  25.276  1.00  0.00    -0.255 NA
ATOM     13  C   UNL A   1      32.202  22.011  24.236  1.00  0.00     0.119 C 
BRANCH  13  14
ATOM     14  C   UNL A   1      32.450  20.575  24.345  1.00  0.00    -0.007 A 
ATOM     15  C   UNL A   1      32.580  17.836  24.645  1.00  0.00     0.041 A 
ATOM     16  C   UNL A   1      32.423  18.380  23.370  1.00  0.00     0.027 A 
ATOM     17  C   UNL A   1      32.838  18.668  25.737  1.00  0.00     0.027 A 
ATOM     18  C   UNL A   1      32.342  19.757  23.219  1.00  0.00     0.012 A 
ATOM     19  C   UNL A   1      32.754  20.046  25.596  1.00  0.00     0.012 A 
BRANCH  15  20
ATOM     20  N   UNL A   1      32.378  16.461  24.754  1.00  0.00    -0.326 N 
ATOM     21  C   UNL A   1      34.735  15.792  25.262  1.00  0.00     0.114 C 
ATOM     22  C   UNL A   1      33.271  15.490  25.084  1.00  0.00     0.221 C 
ATOM     23  O   UNL A   1      32.835  14.359  25.293  1.00  0.00    -0.275 OA
ATOM     24  H   UNL A   1      31.462  16.151  24.569  1.00  0.00     0.169 HD
ENDBRANCH  15  20
ENDBRANCH  13  14
ENDBRANCH   7  12
ENDBRANCH   4   6
ENDBRANCH   3   4
ENDBRANCH   2   3
ENDBRANCH   1   2
BRANCH   1  25
ATOM     25  O   UNL A   1      36.757  21.685  25.743  1.00  0.00    -0.374 OA
BRANCH  25  26
ATOM     26  C   UNL A   1      38.135  21.663  25.367  1.00  0.00     0.202 C 
BRANCH  26  27
ATOM     27  C   UNL A   1      38.808  20.286  25.362  1.00  0.00     0.261 C 
BRANCH  27  28
ATOM     28  O   UNL A   1      39.650  20.057  26.509  1.00  0.00    -0.460 OA
BRANCH  28  29
ATOM     29  C   UNL A   1      40.940  19.781  26.221  1.00  0.00     0.338 C 
ATOM     30  O   UNL A   1      41.382  18.759  25.697  1.00  0.00    -0.246 OA
BRANCH  29  31
ATOM     31  C   UNL A   1      41.817  20.929  26.517  1.00  0.00     0.060 A 
ATOM     32  C   UNL A   1      42.080  21.225  27.862  1.00  0.00     0.016 A 
ATOM     33  C   UNL A   1      42.257  21.791  25.513  1.00  0.00     0.016 A 
ATOM     34  C   UNL A   1      42.727  22.413  28.214  1.00  0.00     0.010 A 
ATOM     35  C   UNL A   1      42.905  22.983  25.869  1.00  0.00     0.010 A 
ATOM     36  C   UNL A   1      43.112  23.323  27.223  1.00  0.00    -0.014 A 
BRANCH  36  37
ATOM     37  C   UNL A   1      43.570  24.700  27.573  1.00  0.00     0.031 A 
ATOM     38  C   UNL A   1      42.539  25.716  27.997  1.00  0.00     0.074 A 
ATOM     39  C   UNL A   1      44.866  25.067  27.524  1.00  0.00     0.049 A 
ATOM     40  N   UNL A   1      42.675  27.001  28.205  1.00  0.00    -0.248 NA
ATOM     41  C   UNL A   1      41.178  25.211  28.249  1.00  0.00     0.031 C 
ATOM     42  C   UNL A   1      45.998  24.179  27.276  1.00  0.00     0.029 A 
ATOM     43  N   UNL A   1      45.443  26.314  27.632  1.00  0.00    -0.354 N 
ATOM     44  C   UNL A   1      41.439  27.446  28.655  1.00  0.00     0.074 A 
ATOM     45  C   UNL A   1      40.538  26.315  28.610  1.00  0.00     0.031 C 
ATOM     46  C   UNL A   1      47.113  24.919  27.138  1.00  0.00     0.029 A 
ATOM     47  C   UNL A   1      46.769  26.333  27.254  1.00  0.00     0.049 A 
ATOM     48  H   UNL A   1      44.959  27.111  27.947  1.00  0.00     0.167 HD
ATOM     49  C   UNL A   1      41.102  28.672  29.118  1.00  0.00     0.037 A 
ATOM     50  C   UNL A   1      47.579  27.373  26.966  1.00  0.00     0.037 A 
ATOM     51  C   UNL A   1      42.001  29.795  29.178  1.00  0.00     0.049 A 
ATOM     52  C   UNL A   1      47.098  28.770  27.223  1.00  0.00     0.074 A 
ATOM     53  C   UNL A   1      41.785  31.048  29.725  1.00  0.00     0.029 A 
ATOM     54  N   UNL A   1      43.284  29.802  28.658  1.00  0.00    -0.354 N 
ATOM     55  N   UNL A   1      45.936  29.178  27.664  1.00  0.00    -0.248 NA
ATOM     56  C   UNL A   1      48.079  29.846  27.016  1.00  0.00     0.031 C 
ATOM     57  C   UNL A   1      42.919  31.832  29.487  1.00  0.00     0.029 A 
ATOM     58  C   UNL A   1      43.858  31.050  28.835  1.00  0.00     0.049 A 
ATOM     59  H   UNL A   1      43.723  29.035  28.225  1.00  0.00     0.167 HD
ATOM     60  C   UNL A   1      46.067  30.546  27.851  1.00  0.00     0.074 A 
ATOM     61  C   UNL A   1      47.402  30.907  27.423  1.00  0.00     0.031 C 
ATOM     62  C   UNL A   1      45.177  31.410  28.394  1.00  0.00     0.037 A 
BRANCH  49  63
ATOM     63  C   UNL A   1      39.709  28.869  29.638  1.00  0.00     0.064 A 
ATOM     64  C   UNL A   1      39.393  28.616  30.981  1.00  0.00     0.173 A 
ATOM     65  C   UNL A   1      38.708  29.402  28.814  1.00  0.00     0.173 A 
ATOM     66  F   UNL A   1      40.317  28.100  31.807  1.00  0.00    -0.203 F 
ATOM     67  C   UNL A   1      38.120  28.881  31.478  1.00  0.00     0.198 A 
ATOM     68  C   UNL A   1      37.443  29.686  29.320  1.00  0.00     0.198 A 
ATOM     69  F   UNL A   1      38.963  29.666  27.524  1.00  0.00    -0.203 F 
ATOM     70  F   UNL A   1      37.834  28.612  32.760  1.00  0.00    -0.200 F 
ATOM     71  C   UNL A   1      37.150  29.426  30.651  1.00  0.00     0.200 A 
ATOM     72  F   UNL A   1      36.510  30.225  28.523  1.00  0.00    -0.200 F 
ATOM     73  F   UNL A   1      35.931  29.698  31.136  1.00  0.00    -0.200 F 
ENDBRANCH  49  63
BRANCH  50  74
ATOM     74  C   UNL A   1      48.925  27.172  26.364  1.00  0.00     0.064 A 
ATOM     75  C   UNL A   1      49.115  27.125  24.980  1.00  0.00     0.173 A 
ATOM     76  C   UNL A   1      50.047  26.936  27.179  1.00  0.00     0.173 A 
ATOM     77  F   UNL A   1      48.066  27.252  24.155  1.00  0.00    -0.203 F 
ATOM     78  C   UNL A   1      50.381  26.908  24.436  1.00  0.00     0.198 A 
ATOM     79  C   UNL A   1      51.317  26.763  26.638  1.00  0.00     0.198 A 
ATOM     80  F   UNL A   1      49.897  26.789  28.503  1.00  0.00    -0.203 F 
ATOM     81  F   UNL A   1      50.532  26.833  23.107  1.00  0.00    -0.200 F 
ATOM     82  C   UNL A   1      51.484  26.751  25.264  1.00  0.00     0.200 A 
ATOM     83  F   UNL A   1      52.372  26.582  27.443  1.00  0.00    -0.200 F 
ATOM     84  F   UNL A   1      52.700  26.559  24.737  1.00  0.00    -0.200 F 
ENDBRANCH  50  74
BRANCH  62  85
ATOM     85  C   UNL A   1      45.659  32.805  28.642  1.00  0.00     0.064 A 
ATOM     86  C   UNL A   1      46.370  33.154  29.798  1.00  0.00     0.173 A 
ATOM     87  C   UNL A   1      45.380  33.814  27.707  1.00  0.00     0.173 A 
ATOM     88  F   UNL A   1      46.631  32.230  30.734  1.00  0.00    -0.203 F 
ATOM     89  C   UNL A   1      46.762  34.472  30.020  1.00  0.00     0.198 A 
ATOM     90  C   UNL A   1      45.799  35.122  27.918  1.00  0.00     0.198 A 
ATOM     91  F   UNL A   1      44.695  33.528  26.588  1.00  0.00    -0.203 F 
ATOM     92  F   UNL A   1      47.391  34.798  31.158  1.00  0.00    -0.200 F 
ATOM     93  C   UNL A   1      46.482  35.452  29.079  1.00  0.00     0.200 A 
ATOM     94  F   UNL A   1      45.531  36.066  27.005  1.00  0.00    -0.200 F 
ATOM     95  F   UNL A   1      46.857  36.719  29.298  1.00  0.00    -0.200 F 
ENDBRANCH  62  85
ENDBRANCH  36  37
ENDBRANCH  29  31
ENDBRANCH  28  29
ENDBRANCH  27  28
ENDBRANCH  26  27
ENDBRANCH  25  26
ENDBRANCH   1  25
TORSDOF 17
ENDMDL
