MODEL 1
REMARK VINA RESULT:     -12.1      0.000      0.000
REMARK SMILES CC1(C)CCCC[C@H]1NC(=O)Nc1ccccc1C(=O)OCCOCCOC(=O)c1ccc(-c2c3nc(c(-c4c(F)c(F)c(F)c(F)c4F)c4ccc([nH]4)c(-c4c(F)c(F)c(F)c(F)c4F)c4nc(c(-c5c(F)c(F)c(F)c(F)c5F)c5ccc2[nH]5)C=C4)C=C3)cc1
REMARK SMILES IDX 24 1 23 2 22 3 21 4 19 5 20 6 18 7 13 8 14 9 15 10 17 11
REMARK SMILES IDX 16 12 12 13 9 14 10 15 11 17 8 19 1 20 2 21 3 22 4 23 5 24
REMARK SMILES IDX 7 25 6 26 25 27 26 28 27 29 28 30 29 31 30 32 31 33 92 34
REMARK SMILES IDX 32 35 91 36 33 37 34 38 35 39 85 40 36 41 90 42 84 43 86 44
REMARK SMILES IDX 37 45 89 46 83 47 82 48 38 50 70 51 50 52 69 53 51 54 54 55
REMARK SMILES IDX 68 56 87 57 52 58 53 59 67 61 88 62 55 63 39 64 40 65 48 66
REMARK SMILES IDX 41 67 42 68 46 69 49 70 43 71 44 72 47 73 45 74 71 75 72 76
REMARK SMILES IDX 80 77 73 78 74 79 78 80 81 81 75 82 76 83 79 84 77 85 56 86
REMARK SMILES IDX 57 87 65 88 58 89 59 90 63 91 66 92 60 93 61 94 64 95 62 96
REMARK H PARENT 9 16 12 18 86 49 54 60
REMARK Flexibility Score: inf
ROOT
ATOM      1  O   UNL A   1      35.338  19.095  24.618  1.00  0.00    -0.374 OA
ENDROOT
BRANCH   1   2
ATOM      2  C   UNL A   1      33.951  19.002  24.850  1.00  0.00     0.202 C 
BRANCH   2   3
ATOM      3  C   UNL A   1      32.903  19.798  24.061  1.00  0.00     0.261 C 
BRANCH   3   4
ATOM      4  O   UNL A   1      32.004  20.689  24.726  1.00  0.00    -0.460 OA
BRANCH   4   5
ATOM      5  C   UNL A   1      32.110  21.982  24.350  1.00  0.00     0.340 C 
ATOM      6  O   UNL A   1      31.326  22.596  23.641  1.00  0.00    -0.246 OA
BRANCH   5   7
ATOM      7  C   UNL A   1      33.292  22.642  24.935  1.00  0.00     0.083 A 
ATOM      8  C   UNL A   1      34.181  23.469  24.229  1.00  0.00     0.057 A 
ATOM      9  C   UNL A   1      35.320  23.949  24.901  1.00  0.00     0.027 A 
ATOM     10  C   UNL A   1      35.493  23.741  26.272  1.00  0.00     0.002 A 
ATOM     11  C   UNL A   1      33.468  22.447  26.319  1.00  0.00     0.018 A 
ATOM     12  C   UNL A   1      34.552  23.012  26.987  1.00  0.00     0.001 A 
BRANCH   8  13
ATOM     13  N   UNL A   1      34.062  23.902  22.897  1.00  0.00    -0.307 N 
ATOM     14  N   UNL A   1      32.723  25.869  22.824  1.00  0.00    -0.335 N 
ATOM     15  C   UNL A   1      33.280  24.787  22.251  1.00  0.00     0.319 C 
ATOM     16  H   UNL A   1      32.072  26.318  22.236  1.00  0.00     0.165 HD
ATOM     17  O   UNL A   1      33.143  24.662  21.030  1.00  0.00    -0.248 OA
ATOM     18  H   UNL A   1      34.699  23.452  22.296  1.00  0.00     0.171 HD
BRANCH  14  19
ATOM     19  C   UNL A   1      32.867  26.530  24.122  1.00  0.00     0.089 C 
ATOM     20  C   UNL A   1      31.525  28.642  23.518  1.00  0.00     0.013 C 
ATOM     21  C   UNL A   1      32.860  28.087  24.063  1.00  0.00    -0.015 C 
ATOM     22  C   UNL A   1      34.002  28.599  23.164  1.00  0.00     0.013 C 
ATOM     23  C   UNL A   1      33.112  28.608  25.511  1.00  0.00     0.008 C 
ATOM     24  C   UNL A   1      32.190  28.009  26.583  1.00  0.00     0.001 C 
ATOM     25  C   UNL A   1      31.770  26.047  25.087  1.00  0.00     0.025 C 
ATOM     26  C   UNL A   1      32.103  26.491  26.504  1.00  0.00     0.002 C 
ENDBRANCH  14  19
ENDBRANCH   8  13
ENDBRANCH   5   7
ENDBRANCH   4   5
ENDBRANCH   3   4
ENDBRANCH   2   3
ENDBRANCH   1   2
BRANCH   1  27
ATOM     27  C   UNL A   1      36.084  20.239  24.983  1.00  0.00     0.202 C 
BRANCH  27  28
ATOM     28  C   UNL A   1      37.619  20.286  24.948  1.00  0.00     0.261 C 
BRANCH  28  29
ATOM     29  O   UNL A   1      38.240  21.481  25.424  1.00  0.00    -0.460 OA
BRANCH  29  30
ATOM     30  C   UNL A   1      39.392  21.280  26.098  1.00  0.00     0.338 C 
ATOM     31  O   UNL A   1      40.113  20.288  26.061  1.00  0.00    -0.246 OA
BRANCH  30  32
ATOM     32  C   UNL A   1      39.771  22.509  26.810  1.00  0.00     0.060 A 
ATOM     33  C   UNL A   1      39.127  23.698  26.448  1.00  0.00     0.016 A 
ATOM     34  C   UNL A   1      40.800  22.513  27.756  1.00  0.00     0.016 A 
ATOM     35  C   UNL A   1      39.552  24.907  26.984  1.00  0.00     0.010 A 
ATOM     36  C   UNL A   1      41.238  23.731  28.283  1.00  0.00     0.010 A 
ATOM     37  C   UNL A   1      40.644  24.933  27.862  1.00  0.00    -0.014 A 
BRANCH  37  38
ATOM     38  C   UNL A   1      41.254  26.241  28.184  1.00  0.00     0.031 A 
ATOM     39  C   UNL A   1      42.647  26.528  27.702  1.00  0.00     0.074 A 
ATOM     40  C   UNL A   1      40.545  27.184  28.824  1.00  0.00     0.049 A 
ATOM     41  N   UNL A   1      43.347  27.631  27.787  1.00  0.00    -0.248 NA
ATOM     42  C   UNL A   1      43.348  25.422  27.031  1.00  0.00     0.031 C 
ATOM     43  C   UNL A   1      39.180  27.021  29.318  1.00  0.00     0.029 A 
ATOM     44  N   UNL A   1      40.877  28.472  29.157  1.00  0.00    -0.354 N 
ATOM     45  C   UNL A   1      44.564  27.352  27.180  1.00  0.00     0.074 A 
ATOM     46  C   UNL A   1      44.524  25.968  26.763  1.00  0.00     0.031 C 
ATOM     47  C   UNL A   1      38.788  28.169  29.894  1.00  0.00     0.029 A 
ATOM     48  C   UNL A   1      39.881  29.138  29.824  1.00  0.00     0.049 A 
ATOM     49  H   UNL A   1      41.747  28.879  28.941  1.00  0.00     0.167 HD
ATOM     50  C   UNL A   1      45.616  28.182  26.980  1.00  0.00     0.037 A 
ATOM     51  C   UNL A   1      39.860  30.388  30.324  1.00  0.00     0.037 A 
ATOM     52  C   UNL A   1      45.650  29.557  27.403  1.00  0.00     0.049 A 
ATOM     53  C   UNL A   1      41.055  31.281  30.122  1.00  0.00     0.074 A 
ATOM     54  C   UNL A   1      46.653  30.493  27.220  1.00  0.00     0.029 A 
ATOM     55  N   UNL A   1      44.637  30.190  28.109  1.00  0.00    -0.354 N 
ATOM     56  N   UNL A   1      42.184  31.027  29.506  1.00  0.00    -0.248 NA
ATOM     57  C   UNL A   1      40.965  32.638  30.676  1.00  0.00     0.031 C 
ATOM     58  C   UNL A   1      46.269  31.676  27.864  1.00  0.00     0.029 A 
ATOM     59  C   UNL A   1      45.003  31.494  28.400  1.00  0.00     0.049 A 
ATOM     60  H   UNL A   1      43.783  29.772  28.365  1.00  0.00     0.167 HD
ATOM     61  C   UNL A   1      42.935  32.192  29.587  1.00  0.00     0.074 A 
ATOM     62  C   UNL A   1      42.121  33.161  30.291  1.00  0.00     0.031 C 
ATOM     63  C   UNL A   1      44.187  32.438  29.122  1.00  0.00     0.037 A 
BRANCH  50  64
ATOM     64  C   UNL A   1      46.828  27.605  26.307  1.00  0.00     0.064 A 
ATOM     65  C   UNL A   1      46.993  27.648  24.914  1.00  0.00     0.173 A 
ATOM     66  C   UNL A   1      47.840  27.002  27.068  1.00  0.00     0.173 A 
ATOM     67  F   UNL A   1      46.048  28.199  24.138  1.00  0.00    -0.203 F 
ATOM     68  C   UNL A   1      48.110  27.079  24.306  1.00  0.00     0.198 A 
ATOM     69  C   UNL A   1      48.969  26.460  26.461  1.00  0.00     0.198 A 
ATOM     70  F   UNL A   1      47.733  26.936  28.404  1.00  0.00    -0.203 F 
ATOM     71  F   UNL A   1      48.220  27.082  22.971  1.00  0.00    -0.200 F 
ATOM     72  C   UNL A   1      49.099  26.490  25.080  1.00  0.00     0.200 A 
ATOM     73  F   UNL A   1      49.929  25.901  27.211  1.00  0.00    -0.200 F 
ATOM     74  F   UNL A   1      50.173  25.942  24.495  1.00  0.00    -0.200 F 
ENDBRANCH  50  64
BRANCH  51  75
ATOM     75  C   UNL A   1      38.659  30.858  31.059  1.00  0.00     0.064 A 
ATOM     76  C   UNL A   1      38.583  30.780  32.455  1.00  0.00     0.173 A 
ATOM     77  C   UNL A   1      37.569  31.418  30.374  1.00  0.00     0.173 A 
ATOM     78  F   UNL A   1      39.589  30.229  33.151  1.00  0.00    -0.203 F 
ATOM     79  C   UNL A   1      37.460  31.238  33.140  1.00  0.00     0.198 A 
ATOM     80  C   UNL A   1      36.459  31.900  31.062  1.00  0.00     0.198 A 
ATOM     81  F   UNL A   1      37.593  31.511  29.037  1.00  0.00    -0.203 F 
ATOM     82  F   UNL A   1      37.396  31.122  34.474  1.00  0.00    -0.200 F 
ATOM     83  C   UNL A   1      36.403  31.807  32.444  1.00  0.00     0.200 A 
ATOM     84  F   UNL A   1      35.445  32.457  30.386  1.00  0.00    -0.200 F 
ATOM     85  F   UNL A   1      35.328  32.259  33.104  1.00  0.00    -0.200 F 
ENDBRANCH  51  75
BRANCH  63  86
ATOM     86  C   UNL A   1      44.745  33.813  29.361  1.00  0.00     0.064 A 
ATOM     87  C   UNL A   1      45.511  34.105  30.500  1.00  0.00     0.173 A 
ATOM     88  C   UNL A   1      44.526  34.842  28.434  1.00  0.00     0.173 A 
ATOM     89  F   UNL A   1      45.736  33.158  31.423  1.00  0.00    -0.203 F 
ATOM     90  C   UNL A   1      46.008  35.387  30.718  1.00  0.00     0.198 A 
ATOM     91  C   UNL A   1      45.052  36.115  28.640  1.00  0.00     0.198 A 
ATOM     92  F   UNL A   1      43.808  34.614  27.325  1.00  0.00    -0.203 F 
ATOM     93  F   UNL A   1      46.688  35.658  31.840  1.00  0.00    -0.200 F 
ATOM     94  C   UNL A   1      45.782  36.389  29.787  1.00  0.00     0.200 A 
ATOM     95  F   UNL A   1      44.844  37.079  27.733  1.00  0.00    -0.200 F 
ATOM     96  F   UNL A   1      46.260  37.623  29.998  1.00  0.00    -0.200 F 
ENDBRANCH  63  86
ENDBRANCH  37  38
ENDBRANCH  30  32
ENDBRANCH  29  30
ENDBRANCH  28  29
ENDBRANCH  27  28
ENDBRANCH   1  27
TORSDOF 16
ENDMDL
MODEL 2
REMARK VINA RESULT:     -11.9      1.172      2.015
REMARK SMILES CC1(C)CCCC[C@H]1NC(=O)Nc1ccccc1C(=O)OCCOCCOC(=O)c1ccc(-c2c3nc(c(-c4c(F)c(F)c(F)c(F)c4F)c4ccc([nH]4)c(-c4c(F)c(F)c(F)c(F)c4F)c4nc(c(-c5c(F)c(F)c(F)c(F)c5F)c5ccc2[nH]5)C=C4)C=C3)cc1
REMARK SMILES IDX 24 1 23 2 22 3 21 4 19 5 20 6 18 7 13 8 14 9 15 10 17 11
REMARK SMILES IDX 16 12 12 13 9 14 10 15 11 17 8 19 1 20 2 21 3 22 4 23 5 24
REMARK SMILES IDX 7 25 6 26 25 27 26 28 27 29 28 30 29 31 30 32 31 33 92 34
REMARK SMILES IDX 32 35 91 36 33 37 34 38 35 39 85 40 36 41 90 42 84 43 86 44
REMARK SMILES IDX 37 45 89 46 83 47 82 48 38 50 70 51 50 52 69 53 51 54 54 55
REMARK SMILES IDX 68 56 87 57 52 58 53 59 67 61 88 62 55 63 39 64 40 65 48 66
REMARK SMILES IDX 41 67 42 68 46 69 49 70 43 71 44 72 47 73 45 74 71 75 72 76
REMARK SMILES IDX 80 77 73 78 74 79 78 80 81 81 75 82 76 83 79 84 77 85 56 86
REMARK SMILES IDX 57 87 65 88 58 89 59 90 63 91 66 92 60 93 61 94 64 95 62 96
REMARK H PARENT 9 16 12 18 86 49 54 60
REMARK Flexibility Score: inf
ROOT
ATOM      1  O   UNL A   1      35.326  19.130  24.826  1.00  0.00    -0.374 OA
ENDROOT
BRANCH   1   2
ATOM      2  C   UNL A   1      33.932  19.110  24.620  1.00  0.00     0.202 C 
BRANCH   2   3
ATOM      3  C   UNL A   1      32.916  19.651  25.634  1.00  0.00     0.261 C 
BRANCH   3   4
ATOM      4  O   UNL A   1      31.944  20.627  25.249  1.00  0.00    -0.460 OA
BRANCH   4   5
ATOM      5  C   UNL A   1      32.270  21.901  25.555  1.00  0.00     0.340 C 
ATOM      6  O   UNL A   1      32.528  22.334  26.669  1.00  0.00    -0.246 OA
BRANCH   5   7
ATOM      7  C   UNL A   1      32.339  22.765  24.362  1.00  0.00     0.083 A 
ATOM      8  C   UNL A   1      31.439  23.803  24.071  1.00  0.00     0.057 A 
ATOM      9  C   UNL A   1      31.576  24.478  22.844  1.00  0.00     0.027 A 
ATOM     10  C   UNL A   1      32.664  24.234  22.002  1.00  0.00     0.002 A 
ATOM     11  C   UNL A   1      33.439  22.534  23.514  1.00  0.00     0.018 A 
ATOM     12  C   UNL A   1      33.611  23.281  22.350  1.00  0.00     0.001 A 
BRANCH   8  13
ATOM     13  N   UNL A   1      30.394  24.275  24.885  1.00  0.00    -0.307 N 
ATOM     14  N   UNL A   1      30.832  26.532  25.499  1.00  0.00    -0.335 N 
ATOM     15  C   UNL A   1      30.216  25.350  25.674  1.00  0.00     0.319 C 
ATOM     16  H   UNL A   1      30.690  27.151  26.252  1.00  0.00     0.165 HD
ATOM     17  O   UNL A   1      29.355  25.289  26.558  1.00  0.00    -0.248 OA
ATOM     18  H   UNL A   1      29.610  23.679  24.874  1.00  0.00     0.171 HD
BRANCH  14  19
ATOM     19  C   UNL A   1      31.667  27.107  24.443  1.00  0.00     0.089 C 
ATOM     20  C   UNL A   1      31.396  29.563  25.167  1.00  0.00     0.013 C 
ATOM     21  C   UNL A   1      31.265  28.548  24.008  1.00  0.00    -0.015 C 
ATOM     22  C   UNL A   1      29.811  28.574  23.501  1.00  0.00     0.013 C 
ATOM     23  C   UNL A   1      32.198  28.954  22.826  1.00  0.00     0.008 C 
ATOM     24  C   UNL A   1      33.699  28.766  23.093  1.00  0.00     0.001 C 
ATOM     25  C   UNL A   1      33.146  27.092  24.868  1.00  0.00     0.025 C 
ATOM     26  C   UNL A   1      34.028  27.395  23.666  1.00  0.00     0.002 C 
ENDBRANCH  14  19
ENDBRANCH   8  13
ENDBRANCH   5   7
ENDBRANCH   4   5
ENDBRANCH   3   4
ENDBRANCH   2   3
ENDBRANCH   1   2
BRANCH   1  27
ATOM     27  C   UNL A   1      36.040  20.339  25.001  1.00  0.00     0.202 C 
BRANCH  27  28
ATOM     28  C   UNL A   1      37.572  20.428  24.923  1.00  0.00     0.261 C 
BRANCH  28  29
ATOM     29  O   UNL A   1      38.177  21.608  25.451  1.00  0.00    -0.460 OA
BRANCH  29  30
ATOM     30  C   UNL A   1      39.317  21.389  26.141  1.00  0.00     0.338 C 
ATOM     31  O   UNL A   1      40.015  20.380  26.124  1.00  0.00    -0.246 OA
BRANCH  30  32
ATOM     32  C   UNL A   1      39.718  22.618  26.841  1.00  0.00     0.060 A 
ATOM     33  C   UNL A   1      39.060  23.807  26.501  1.00  0.00     0.016 A 
ATOM     34  C   UNL A   1      40.777  22.622  27.753  1.00  0.00     0.016 A 
ATOM     35  C   UNL A   1      39.502  25.015  27.024  1.00  0.00     0.010 A 
ATOM     36  C   UNL A   1      41.230  23.840  28.267  1.00  0.00     0.010 A 
ATOM     37  C   UNL A   1      40.622  25.042  27.867  1.00  0.00    -0.014 A 
BRANCH  37  38
ATOM     38  C   UNL A   1      41.240  26.350  28.170  1.00  0.00     0.031 A 
ATOM     39  C   UNL A   1      42.634  26.622  27.682  1.00  0.00     0.074 A 
ATOM     40  C   UNL A   1      40.538  27.306  28.798  1.00  0.00     0.049 A 
ATOM     41  N   UNL A   1      43.340  27.722  27.751  1.00  0.00    -0.248 NA
ATOM     42  C   UNL A   1      43.327  25.503  27.025  1.00  0.00     0.031 C 
ATOM     43  C   UNL A   1      39.173  27.158  29.297  1.00  0.00     0.029 A 
ATOM     44  N   UNL A   1      40.879  28.596  29.114  1.00  0.00    -0.354 N 
ATOM     45  C   UNL A   1      44.555  27.427  27.145  1.00  0.00     0.074 A 
ATOM     46  C   UNL A   1      44.506  26.038  26.747  1.00  0.00     0.031 C 
ATOM     47  C   UNL A   1      38.789  28.316  29.859  1.00  0.00     0.029 A 
ATOM     48  C   UNL A   1      39.888  29.277  29.774  1.00  0.00     0.049 A 
ATOM     49  H   UNL A   1      41.750  28.995  28.891  1.00  0.00     0.167 HD
ATOM     50  C   UNL A   1      45.612  28.248  26.933  1.00  0.00     0.037 A 
ATOM     51  C   UNL A   1      39.875  30.534  30.257  1.00  0.00     0.037 A 
ATOM     52  C   UNL A   1      45.655  29.628  27.337  1.00  0.00     0.049 A 
ATOM     53  C   UNL A   1      41.076  31.416  30.041  1.00  0.00     0.074 A 
ATOM     54  C   UNL A   1      46.663  30.556  27.140  1.00  0.00     0.029 A 
ATOM     55  N   UNL A   1      44.647  30.277  28.036  1.00  0.00    -0.354 N 
ATOM     56  N   UNL A   1      42.202  31.148  29.427  1.00  0.00    -0.248 NA
ATOM     57  C   UNL A   1      40.995  32.782  30.577  1.00  0.00     0.031 C 
ATOM     58  C   UNL A   1      46.287  31.750  27.769  1.00  0.00     0.029 A 
ATOM     59  C   UNL A   1      45.022  31.583  28.309  1.00  0.00     0.049 A 
ATOM     60  H   UNL A   1      43.791  29.868  28.300  1.00  0.00     0.167 HD
ATOM     61  C   UNL A   1      42.960  32.309  29.491  1.00  0.00     0.074 A 
ATOM     62  C   UNL A   1      42.153  33.293  30.183  1.00  0.00     0.031 C 
ATOM     63  C   UNL A   1      44.212  32.541  29.020  1.00  0.00     0.037 A 
BRANCH  50  64
ATOM     64  C   UNL A   1      46.819  27.655  26.265  1.00  0.00     0.064 A 
ATOM     65  C   UNL A   1      46.976  27.668  24.870  1.00  0.00     0.173 A 
ATOM     66  C   UNL A   1      47.834  27.066  27.033  1.00  0.00     0.173 A 
ATOM     67  F   UNL A   1      46.028  28.204  24.088  1.00  0.00    -0.203 F 
ATOM     68  C   UNL A   1      48.089  27.085  24.269  1.00  0.00     0.198 A 
ATOM     69  C   UNL A   1      48.958  26.509  26.431  1.00  0.00     0.198 A 
ATOM     70  F   UNL A   1      47.734  27.028  28.370  1.00  0.00    -0.203 F 
ATOM     71  F   UNL A   1      48.191  27.059  22.933  1.00  0.00    -0.200 F 
ATOM     72  C   UNL A   1      49.081  26.510  25.050  1.00  0.00     0.200 A 
ATOM     73  F   UNL A   1      49.921  25.964  27.187  1.00  0.00    -0.200 F 
ATOM     74  F   UNL A   1      50.150  25.948  24.470  1.00  0.00    -0.200 F 
ENDBRANCH  50  64
BRANCH  51  75
ATOM     75  C   UNL A   1      38.679  31.021  30.988  1.00  0.00     0.064 A 
ATOM     76  C   UNL A   1      37.586  31.574  30.311  1.00  0.00     0.173 A 
ATOM     77  C   UNL A   1      38.601  30.921  32.386  1.00  0.00     0.173 A 
ATOM     78  F   UNL A   1      37.626  31.715  28.977  1.00  0.00    -0.203 F 
ATOM     79  C   UNL A   1      36.460  32.015  31.003  1.00  0.00     0.198 A 
ATOM     80  C   UNL A   1      37.464  31.337  33.075  1.00  0.00     0.198 A 
ATOM     81  F   UNL A   1      39.624  30.402  33.081  1.00  0.00    -0.203 F 
ATOM     82  F   UNL A   1      35.440  32.571  30.335  1.00  0.00    -0.200 F 
ATOM     83  C   UNL A   1      36.396  31.887  32.383  1.00  0.00     0.200 A 
ATOM     84  F   UNL A   1      37.403  31.203  34.406  1.00  0.00    -0.200 F 
ATOM     85  F   UNL A   1      35.308  32.299  33.047  1.00  0.00    -0.200 F 
ENDBRANCH  51  75
BRANCH  63  86
ATOM     86  C   UNL A   1      44.779  33.915  29.240  1.00  0.00     0.064 A 
ATOM     87  C   UNL A   1      45.542  34.221  30.378  1.00  0.00     0.173 A 
ATOM     88  C   UNL A   1      44.573  34.932  28.295  1.00  0.00     0.173 A 
ATOM     89  F   UNL A   1      45.756  33.287  31.317  1.00  0.00    -0.203 F 
ATOM     90  C   UNL A   1      46.047  35.502  30.577  1.00  0.00     0.198 A 
ATOM     91  C   UNL A   1      45.106  36.204  28.484  1.00  0.00     0.198 A 
ATOM     92  F   UNL A   1      43.858  34.691  27.187  1.00  0.00    -0.203 F 
ATOM     93  F   UNL A   1      46.724  35.786  31.699  1.00  0.00    -0.200 F 
ATOM     94  C   UNL A   1      45.833  36.491  29.629  1.00  0.00     0.200 A 
ATOM     95  F   UNL A   1      44.910  37.154  27.560  1.00  0.00    -0.200 F 
ATOM     96  F   UNL A   1      46.319  37.724  29.824  1.00  0.00    -0.200 F 
ENDBRANCH  63  86
ENDBRANCH  37  38
ENDBRANCH  30  32
ENDBRANCH  29  30
ENDBRANCH  28  29
ENDBRANCH  27  28
ENDBRANCH   1  27
TORSDOF 16
ENDMDL
MODEL 3
REMARK VINA RESULT:     -11.9      0.424      1.964
REMARK SMILES CC1(C)CCCC[C@H]1NC(=O)Nc1ccccc1C(=O)OCCOCCOC(=O)c1ccc(-c2c3nc(c(-c4c(F)c(F)c(F)c(F)c4F)c4ccc([nH]4)c(-c4c(F)c(F)c(F)c(F)c4F)c4nc(c(-c5c(F)c(F)c(F)c(F)c5F)c5ccc2[nH]5)C=C4)C=C3)cc1
REMARK SMILES IDX 24 1 23 2 22 3 21 4 19 5 20 6 18 7 13 8 14 9 15 10 17 11
REMARK SMILES IDX 16 12 12 13 9 14 10 15 11 17 8 19 1 20 2 21 3 22 4 23 5 24
REMARK SMILES IDX 7 25 6 26 25 27 26 28 27 29 28 30 29 31 30 32 31 33 92 34
REMARK SMILES IDX 32 35 91 36 33 37 34 38 35 39 85 40 36 41 90 42 84 43 86 44
REMARK SMILES IDX 37 45 89 46 83 47 82 48 38 50 70 51 50 52 69 53 51 54 54 55
REMARK SMILES IDX 68 56 87 57 52 58 53 59 67 61 88 62 55 63 39 64 40 65 48 66
REMARK SMILES IDX 41 67 42 68 46 69 49 70 43 71 44 72 47 73 45 74 71 75 72 76
REMARK SMILES IDX 80 77 73 78 74 79 78 80 81 81 75 82 76 83 79 84 77 85 56 86
REMARK SMILES IDX 57 87 65 88 58 89 59 90 63 91 66 92 60 93 61 94 64 95 62 96
REMARK H PARENT 9 16 12 18 86 49 54 60
REMARK Flexibility Score: inf
ROOT
ATOM      1  O   UNL A   1      35.170  19.207  24.674  1.00  0.00    -0.374 OA
ENDROOT
BRANCH   1   2
ATOM      2  C   UNL A   1      33.774  19.303  24.848  1.00  0.00     0.202 C 
BRANCH   2   3
ATOM      3  C   UNL A   1      32.806  19.714  23.731  1.00  0.00     0.261 C 
BRANCH   3   4
ATOM      4  O   UNL A   1      32.546  21.093  23.455  1.00  0.00    -0.460 OA
BRANCH   4   5
ATOM      5  C   UNL A   1      32.288  21.847  24.545  1.00  0.00     0.340 C 
ATOM      6  O   UNL A   1      31.237  21.880  25.170  1.00  0.00    -0.246 OA
BRANCH   5   7
ATOM      7  C   UNL A   1      33.457  22.638  24.971  1.00  0.00     0.083 A 
ATOM      8  C   UNL A   1      34.251  23.421  24.116  1.00  0.00     0.057 A 
ATOM      9  C   UNL A   1      35.394  24.042  24.652  1.00  0.00     0.027 A 
ATOM     10  C   UNL A   1      35.656  24.014  26.024  1.00  0.00     0.002 A 
ATOM     11  C   UNL A   1      33.722  22.626  26.354  1.00  0.00     0.018 A 
ATOM     12  C   UNL A   1      34.804  23.328  26.879  1.00  0.00     0.001 A 
BRANCH   8  13
ATOM     13  N   UNL A   1      34.030  23.679  22.752  1.00  0.00    -0.307 N 
ATOM     14  N   UNL A   1      32.750  25.672  22.523  1.00  0.00    -0.335 N 
ATOM     15  C   UNL A   1      33.223  24.502  22.058  1.00  0.00     0.319 C 
ATOM     16  H   UNL A   1      32.064  26.066  21.936  1.00  0.00     0.165 HD
ATOM     17  O   UNL A   1      32.978  24.223  20.880  1.00  0.00    -0.248 OA
ATOM     18  H   UNL A   1      34.600  23.127  22.167  1.00  0.00     0.171 HD
BRANCH  14  19
ATOM     19  C   UNL A   1      33.024  26.492  23.705  1.00  0.00     0.089 C 
ATOM     20  C   UNL A   1      31.605  28.516  22.985  1.00  0.00     0.013 C 
ATOM     21  C   UNL A   1      32.996  28.029  23.450  1.00  0.00    -0.015 C 
ATOM     22  C   UNL A   1      34.031  28.418  22.377  1.00  0.00     0.013 C 
ATOM     23  C   UNL A   1      33.396  28.728  24.786  1.00  0.00     0.008 C 
ATOM     24  C   UNL A   1      32.598  28.274  26.016  1.00  0.00     0.001 C 
ATOM     25  C   UNL A   1      32.041  26.140  24.835  1.00  0.00     0.025 C 
ATOM     26  C   UNL A   1      32.518  26.759  26.140  1.00  0.00     0.002 C 
ENDBRANCH  14  19
ENDBRANCH   8  13
ENDBRANCH   5   7
ENDBRANCH   4   5
ENDBRANCH   3   4
ENDBRANCH   2   3
ENDBRANCH   1   2
BRANCH   1  27
ATOM     27  C   UNL A   1      36.030  20.307  24.899  1.00  0.00     0.202 C 
BRANCH  27  28
ATOM     28  C   UNL A   1      37.556  20.169  25.019  1.00  0.00     0.261 C 
BRANCH  28  29
ATOM     29  O   UNL A   1      38.285  21.344  25.371  1.00  0.00    -0.460 OA
BRANCH  29  30
ATOM     30  C   UNL A   1      39.397  21.113  26.100  1.00  0.00     0.338 C 
ATOM     31  O   UNL A   1      40.069  20.087  26.127  1.00  0.00    -0.246 OA
BRANCH  30  32
ATOM     32  C   UNL A   1      39.807  22.347  26.785  1.00  0.00     0.060 A 
ATOM     33  C   UNL A   1      39.125  23.527  26.468  1.00  0.00     0.016 A 
ATOM     34  C   UNL A   1      40.898  22.364  27.659  1.00  0.00     0.016 A 
ATOM     35  C   UNL A   1      39.570  24.742  26.975  1.00  0.00     0.010 A 
ATOM     36  C   UNL A   1      41.355  23.588  28.157  1.00  0.00     0.010 A 
ATOM     37  C   UNL A   1      40.718  24.782  27.777  1.00  0.00    -0.014 A 
BRANCH  37  38
ATOM     38  C   UNL A   1      41.331  26.099  28.058  1.00  0.00     0.031 A 
ATOM     39  C   UNL A   1      42.707  26.384  27.528  1.00  0.00     0.074 A 
ATOM     40  C   UNL A   1      40.637  27.050  28.703  1.00  0.00     0.049 A 
ATOM     41  N   UNL A   1      43.404  27.491  27.573  1.00  0.00    -0.248 NA
ATOM     42  C   UNL A   1      43.392  25.269  26.855  1.00  0.00     0.031 C 
ATOM     43  C   UNL A   1      39.289  26.888  29.242  1.00  0.00     0.029 A 
ATOM     44  N   UNL A   1      40.974  28.344  29.005  1.00  0.00    -0.354 N 
ATOM     45  C   UNL A   1      44.603  27.207  26.934  1.00  0.00     0.074 A 
ATOM     46  C   UNL A   1      44.557  25.815  26.541  1.00  0.00     0.031 C 
ATOM     47  C   UNL A   1      38.909  28.044  29.811  1.00  0.00     0.029 A 
ATOM     48  C   UNL A   1      39.995  29.017  29.691  1.00  0.00     0.049 A 
ATOM     49  H   UNL A   1      41.834  28.751  28.755  1.00  0.00     0.167 HD
ATOM     50  C   UNL A   1      45.645  28.038  26.688  1.00  0.00     0.037 A 
ATOM     51  C   UNL A   1      39.983  30.275  30.169  1.00  0.00     0.037 A 
ATOM     52  C   UNL A   1      45.685  29.420  27.086  1.00  0.00     0.049 A 
ATOM     53  C   UNL A   1      41.167  31.170  29.916  1.00  0.00     0.074 A 
ATOM     54  C   UNL A   1      46.677  30.357  26.856  1.00  0.00     0.029 A 
ATOM     55  N   UNL A   1      44.691  30.060  27.812  1.00  0.00    -0.354 N 
ATOM     56  N   UNL A   1      42.278  30.911  29.270  1.00  0.00    -0.248 NA
ATOM     57  C   UNL A   1      41.088  32.536  30.450  1.00  0.00     0.031 C 
ATOM     58  C   UNL A   1      46.307  31.549  27.492  1.00  0.00     0.029 A 
ATOM     59  C   UNL A   1      45.059  31.371  28.069  1.00  0.00     0.049 A 
ATOM     60  H   UNL A   1      43.847  29.643  28.101  1.00  0.00     0.167 HD
ATOM     61  C   UNL A   1      43.026  32.079  29.308  1.00  0.00     0.074 A 
ATOM     62  C   UNL A   1      42.228  33.057  30.020  1.00  0.00     0.031 C 
ATOM     63  C   UNL A   1      44.261  32.323  28.801  1.00  0.00     0.037 A 
BRANCH  50  64
ATOM     64  C   UNL A   1      46.838  27.455  25.987  1.00  0.00     0.064 A 
ATOM     65  C   UNL A   1      47.852  26.782  26.687  1.00  0.00     0.173 A 
ATOM     66  C   UNL A   1      46.968  27.571  24.596  1.00  0.00     0.173 A 
ATOM     67  F   UNL A   1      47.786  26.656  28.020  1.00  0.00    -0.203 F 
ATOM     68  C   UNL A   1      48.967  26.275  26.021  1.00  0.00     0.198 A 
ATOM     69  C   UNL A   1      48.068  27.039  23.931  1.00  0.00     0.198 A 
ATOM     70  F   UNL A   1      46.026  28.204  23.880  1.00  0.00    -0.203 F 
ATOM     71  F   UNL A   1      49.949  25.685  26.715  1.00  0.00    -0.200 F 
ATOM     72  C   UNL A   1      49.071  26.400  24.644  1.00  0.00     0.200 A 
ATOM     73  F   UNL A   1      48.163  27.151  22.598  1.00  0.00    -0.200 F 
ATOM     74  F   UNL A   1      50.144  25.915  24.005  1.00  0.00    -0.200 F 
ENDBRANCH  50  64
BRANCH  51  75
ATOM     75  C   UNL A   1      38.804  30.753  30.934  1.00  0.00     0.064 A 
ATOM     76  C   UNL A   1      37.710  31.345  30.291  1.00  0.00     0.173 A 
ATOM     77  C   UNL A   1      38.742  30.603  32.328  1.00  0.00     0.173 A 
ATOM     78  F   UNL A   1      37.735  31.533  28.963  1.00  0.00    -0.203 F 
ATOM     79  C   UNL A   1      36.599  31.776  31.014  1.00  0.00     0.198 A 
ATOM     80  C   UNL A   1      37.620  31.010  33.046  1.00  0.00     0.198 A 
ATOM     81  F   UNL A   1      39.766  30.046  32.990  1.00  0.00    -0.203 F 
ATOM     82  F   UNL A   1      35.579  32.370  30.380  1.00  0.00    -0.200 F 
ATOM     83  C   UNL A   1      36.551  31.599  32.389  1.00  0.00     0.200 A 
ATOM     84  F   UNL A   1      37.574  30.829  34.373  1.00  0.00    -0.200 F 
ATOM     85  F   UNL A   1      35.478  32.003  33.082  1.00  0.00    -0.200 F 
ENDBRANCH  51  75
BRANCH  63  86
ATOM     86  C   UNL A   1      44.819  33.704  28.999  1.00  0.00     0.064 A 
ATOM     87  C   UNL A   1      44.618  34.720  28.051  1.00  0.00     0.173 A 
ATOM     88  C   UNL A   1      45.547  34.020  30.156  1.00  0.00     0.173 A 
ATOM     89  F   UNL A   1      43.940  34.465  26.922  1.00  0.00    -0.203 F 
ATOM     90  C   UNL A   1      45.154  35.990  28.240  1.00  0.00     0.198 A 
ATOM     91  C   UNL A   1      46.056  35.301  30.354  1.00  0.00     0.198 A 
ATOM     92  F   UNL A   1      45.762  33.089  31.097  1.00  0.00    -0.203 F 
ATOM     93  F   UNL A   1      44.999  36.927  27.295  1.00  0.00    -0.200 F 
ATOM     94  C   UNL A   1      45.869  36.281  29.392  1.00  0.00     0.200 A 
ATOM     95  F   UNL A   1      46.734  35.584  31.475  1.00  0.00    -0.200 F 
ATOM     96  F   UNL A   1      46.386  37.504  29.571  1.00  0.00    -0.200 F 
ENDBRANCH  63  86
ENDBRANCH  37  38
ENDBRANCH  30  32
ENDBRANCH  29  30
ENDBRANCH  28  29
ENDBRANCH  27  28
ENDBRANCH   1  27
TORSDOF 16
ENDMDL
