MODEL 1
REMARK VINA RESULT:     -11.1      0.000      0.000
REMARK SMILES Cc1nc(C[C@@H](C(=O)OCCOCCOC(=O)c2ccc(-c3c4nc(c(-c5c(F)c(F)c(F)c(F)c5F)c5ccc([nH]5)c(-c5c(F)c(F)c(F)c(F)c5F)c5nc(c(-c6c(F)c(F)c(F)c(F)c6F)c6ccc3[nH]6)C=C5)C=C4)cc2)[C@@H]2CCS(=O)(=O)C2)sc1C
REMARK SMILES IDX 12 1 11 2 10 3 9 4 7 5 8 6 6 7 5 8 4 9 1 10 2 11 3 12 89 13
REMARK SMILES IDX 88 14 90 15 81 16 82 17 87 18 83 19 84 20 85 21 86 22 13 23
REMARK SMILES IDX 14 24 15 25 16 26 17 27 18 28 19 29 80 30 20 31 79 32 21 33
REMARK SMILES IDX 22 34 23 35 73 36 24 37 78 38 72 39 74 40 25 41 77 42 71 43
REMARK SMILES IDX 70 44 26 46 58 47 38 48 57 49 39 50 42 51 56 52 75 53 40 54
REMARK SMILES IDX 41 55 55 57 76 58 43 59 27 60 28 61 36 62 29 63 30 64 34 65
REMARK SMILES IDX 37 66 31 67 32 68 35 69 33 70 59 71 60 72 68 73 61 74 62 75
REMARK SMILES IDX 66 76 69 77 63 78 64 79 67 80 65 81 44 82 45 83 53 84 46 85
REMARK SMILES IDX 47 86 51 87 54 88 48 89 49 90 52 91 50 92
REMARK H PARENT 74 45 42 56
REMARK Flexibility Score: inf
ROOT
ATOM      1  O   UNL A   1      30.957  27.942  25.010  1.00  0.00    -0.374 OA
ENDROOT
BRANCH   1   2
ATOM      2  C   UNL A   1      31.495  26.797  24.339  1.00  0.00     0.202 C 
BRANCH   2   3
ATOM      3  C   UNL A   1      32.950  26.475  24.695  1.00  0.00     0.261 C 
BRANCH   3   4
ATOM      4  O   UNL A   1      33.677  26.063  23.523  1.00  0.00    -0.463 OA
BRANCH   4   5
ATOM      5  C   UNL A   1      33.550  24.782  23.149  1.00  0.00     0.309 C 
ATOM      6  O   UNL A   1      32.919  24.445  22.157  1.00  0.00    -0.252 OA
BRANCH   5   7
ATOM      7  C   UNL A   1      34.200  23.769  24.094  1.00  0.00     0.110 C 
BRANCH   7   8
ATOM      8  C   UNL A   1      35.444  22.994  23.570  1.00  0.00     0.083 C 
BRANCH   8   9
ATOM      9  C   UNL A   1      36.607  22.869  24.515  1.00  0.00     0.094 A 
ATOM     10  C   UNL A   1      38.672  24.440  26.978  1.00  0.00     0.068 C 
ATOM     11  C   UNL A   1      38.140  23.459  26.003  1.00  0.00     0.051 A 
ATOM     12  N   UNL A   1      37.139  23.882  25.157  1.00  0.00    -0.246 NA
ATOM     13  C   UNL A   1      38.510  22.138  25.840  1.00  0.00     0.024 A 
ATOM     14  S   UNL A   1      37.447  21.381  24.724  1.00  0.00    -0.124 S 
ATOM     15  C   UNL A   1      39.611  21.392  26.506  1.00  0.00     0.058 C 
ENDBRANCH   8   9
ENDBRANCH   7   8
BRANCH   7  16
ATOM     16  C   UNL A   1      33.120  22.722  24.575  1.00  0.00     0.020 C 
ATOM     17  C   UNL A   1      33.083  22.415  26.096  1.00  0.00     0.021 C 
ATOM     18  C   UNL A   1      33.138  21.373  23.816  1.00  0.00     0.141 C 
ATOM     19  C   UNL A   1      33.810  21.108  26.392  1.00  0.00     0.137 C 
ATOM     20  S   UNL A   1      33.440  20.063  25.002  1.00  0.00     0.150 S 
ATOM     21  O   UNL A   1      34.609  19.300  24.622  1.00  0.00    -0.229 OA
ATOM     22  O   UNL A   1      32.172  19.413  25.275  1.00  0.00    -0.229 OA
ENDBRANCH   7  16
ENDBRANCH   5   7
ENDBRANCH   4   5
ENDBRANCH   3   4
ENDBRANCH   2   3
ENDBRANCH   1   2
BRANCH   1  23
ATOM     23  C   UNL A   1      31.507  29.194  24.608  1.00  0.00     0.202 C 
BRANCH  23  24
ATOM     24  C   UNL A   1      31.700  30.217  25.729  1.00  0.00     0.261 C 
BRANCH  24  25
ATOM     25  O   UNL A   1      33.069  30.246  26.159  1.00  0.00    -0.460 OA
BRANCH  25  26
ATOM     26  C   UNL A   1      33.371  31.268  26.991  1.00  0.00     0.338 C 
ATOM     27  O   UNL A   1      32.650  32.198  27.317  1.00  0.00    -0.246 OA
BRANCH  26  28
ATOM     28  C   UNL A   1      34.683  31.016  27.620  1.00  0.00     0.060 A 
ATOM     29  C   UNL A   1      35.019  29.683  27.890  1.00  0.00     0.016 A 
ATOM     30  C   UNL A   1      35.568  32.048  27.940  1.00  0.00     0.016 A 
ATOM     31  C   UNL A   1      36.220  29.379  28.526  1.00  0.00     0.010 A 
ATOM     32  C   UNL A   1      36.773  31.743  28.580  1.00  0.00     0.010 A 
ATOM     33  C   UNL A   1      37.090  30.410  28.904  1.00  0.00    -0.014 A 
BRANCH  33  34
ATOM     34  C   UNL A   1      38.235  30.110  29.797  1.00  0.00     0.031 A 
ATOM     35  C   UNL A   1      39.312  29.195  29.284  1.00  0.00     0.074 A 
ATOM     36  C   UNL A   1      38.334  30.656  31.022  1.00  0.00     0.049 A 
ATOM     37  N   UNL A   1      40.393  28.767  29.882  1.00  0.00    -0.248 NA
ATOM     38  C   UNL A   1      39.145  28.695  27.909  1.00  0.00     0.031 C 
ATOM     39  C   UNL A   1      37.381  31.591  31.614  1.00  0.00     0.029 A 
ATOM     40  N   UNL A   1      39.290  30.494  31.993  1.00  0.00    -0.354 N 
ATOM     41  C   UNL A   1      41.031  27.948  28.959  1.00  0.00     0.074 A 
ATOM     42  C   UNL A   1      40.194  27.898  27.781  1.00  0.00     0.031 C 
ATOM     43  C   UNL A   1      37.784  31.899  32.860  1.00  0.00     0.029 A 
ATOM     44  C   UNL A   1      39.022  31.180  33.153  1.00  0.00     0.049 A 
ATOM     45  H   UNL A   1      40.093  29.937  31.871  1.00  0.00     0.167 HD
ATOM     46  C   UNL A   1      42.220  27.313  29.074  1.00  0.00     0.037 A 
ATOM     47  C   UNL A   1      39.699  31.216  34.316  1.00  0.00     0.037 A 
ATOM     48  C   UNL A   1      43.061  27.376  30.238  1.00  0.00     0.049 A 
ATOM     49  C   UNL A   1      40.991  30.448  34.440  1.00  0.00     0.074 A 
ATOM     50  C   UNL A   1      44.296  26.791  30.442  1.00  0.00     0.029 A 
ATOM     51  N   UNL A   1      42.746  28.069  31.397  1.00  0.00    -0.354 N 
ATOM     52  N   UNL A   1      41.607  29.711  33.548  1.00  0.00    -0.248 NA
ATOM     53  C   UNL A   1      41.691  30.531  35.731  1.00  0.00     0.031 C 
ATOM     54  C   UNL A   1      44.710  27.091  31.744  1.00  0.00     0.029 A 
ATOM     55  C   UNL A   1      43.756  27.907  32.331  1.00  0.00     0.049 A 
ATOM     56  H   UNL A   1      41.927  28.599  31.535  1.00  0.00     0.167 HD
ATOM     57  C   UNL A   1      42.781  29.279  34.152  1.00  0.00     0.074 A 
ATOM     58  C   UNL A   1      42.795  29.840  35.486  1.00  0.00     0.031 C 
ATOM     59  C   UNL A   1      43.761  28.491  33.647  1.00  0.00     0.037 A 
BRANCH  46  60
ATOM     60  C   UNL A   1      42.674  26.487  27.909  1.00  0.00     0.064 A 
ATOM     61  C   UNL A   1      42.315  25.135  27.781  1.00  0.00     0.173 A 
ATOM     62  C   UNL A   1      43.461  27.056  26.898  1.00  0.00     0.173 A 
ATOM     63  F   UNL A   1      41.581  24.540  28.732  1.00  0.00    -0.203 F 
ATOM     64  C   UNL A   1      42.749  24.380  26.695  1.00  0.00     0.198 A 
ATOM     65  C   UNL A   1      43.867  26.305  25.799  1.00  0.00     0.198 A 
ATOM     66  F   UNL A   1      43.831  28.343  26.974  1.00  0.00    -0.203 F 
ATOM     67  F   UNL A   1      42.435  23.079  26.618  1.00  0.00    -0.200 F 
ATOM     68  C   UNL A   1      43.517  24.967  25.702  1.00  0.00     0.200 A 
ATOM     69  F   UNL A   1      44.603  26.876  24.834  1.00  0.00    -0.200 F 
ATOM     70  F   UNL A   1      43.930  24.239  24.654  1.00  0.00    -0.200 F 
ENDBRANCH  46  60
BRANCH  47  71
ATOM     71  C   UNL A   1      39.181  32.009  35.463  1.00  0.00     0.064 A 
ATOM     72  C   UNL A   1      39.507  33.364  35.613  1.00  0.00     0.173 A 
ATOM     73  C   UNL A   1      38.384  31.417  36.453  1.00  0.00     0.173 A 
ATOM     74  F   UNL A   1      40.287  33.968  34.705  1.00  0.00    -0.203 F 
ATOM     75  C   UNL A   1      39.083  34.088  36.725  1.00  0.00     0.198 A 
ATOM     76  C   UNL A   1      37.937  32.150  37.551  1.00  0.00     0.198 A 
ATOM     77  F   UNL A   1      38.041  30.124  36.357  1.00  0.00    -0.203 F 
ATOM     78  F   UNL A   1      39.458  35.366  36.873  1.00  0.00    -0.200 F 
ATOM     79  C   UNL A   1      38.296  33.482  37.692  1.00  0.00     0.200 A 
ATOM     80  F   UNL A   1      37.168  31.561  38.477  1.00  0.00    -0.200 F 
ATOM     81  F   UNL A   1      37.894  34.176  38.764  1.00  0.00    -0.200 F 
ENDBRANCH  47  71
BRANCH  59  82
ATOM     82  C   UNL A   1      44.956  28.226  34.517  1.00  0.00     0.064 A 
ATOM     83  C   UNL A   1      45.030  27.096  35.344  1.00  0.00     0.173 A 
ATOM     84  C   UNL A   1      46.064  29.086  34.478  1.00  0.00     0.173 A 
ATOM     85  F   UNL A   1      43.992  26.251  35.426  1.00  0.00    -0.203 F 
ATOM     86  C   UNL A   1      46.163  26.849  36.116  1.00  0.00     0.198 A 
ATOM     87  C   UNL A   1      47.205  28.820  35.227  1.00  0.00     0.198 A 
ATOM     88  F   UNL A   1      46.046  30.177  33.695  1.00  0.00    -0.203 F 
ATOM     89  F   UNL A   1      46.195  25.787  36.932  1.00  0.00    -0.200 F 
ATOM     90  C   UNL A   1      47.252  27.706  36.050  1.00  0.00     0.200 A 
ATOM     91  F   UNL A   1      48.262  29.641  35.150  1.00  0.00    -0.200 F 
ATOM     92  F   UNL A   1      48.344  27.459  36.786  1.00  0.00    -0.200 F 
ENDBRANCH  59  82
ENDBRANCH  33  34
ENDBRANCH  26  28
ENDBRANCH  25  26
ENDBRANCH  24  25
ENDBRANCH  23  24
ENDBRANCH   1  23
TORSDOF 17
ENDMDL
MODEL 2
REMARK VINA RESULT:     -11.1      4.135      7.115
REMARK SMILES Cc1nc(C[C@@H](C(=O)OCCOCCOC(=O)c2ccc(-c3c4nc(c(-c5c(F)c(F)c(F)c(F)c5F)c5ccc([nH]5)c(-c5c(F)c(F)c(F)c(F)c5F)c5nc(c(-c6c(F)c(F)c(F)c(F)c6F)c6ccc3[nH]6)C=C5)C=C4)cc2)[C@@H]2CCS(=O)(=O)C2)sc1C
REMARK SMILES IDX 12 1 11 2 10 3 9 4 7 5 8 6 6 7 5 8 4 9 1 10 2 11 3 12 89 13
REMARK SMILES IDX 88 14 90 15 81 16 82 17 87 18 83 19 84 20 85 21 86 22 13 23
REMARK SMILES IDX 14 24 15 25 16 26 17 27 18 28 19 29 80 30 20 31 79 32 21 33
REMARK SMILES IDX 22 34 23 35 73 36 24 37 78 38 72 39 74 40 25 41 77 42 71 43
REMARK SMILES IDX 70 44 26 46 58 47 38 48 57 49 39 50 42 51 56 52 75 53 40 54
REMARK SMILES IDX 41 55 55 57 76 58 43 59 27 60 28 61 36 62 29 63 30 64 34 65
REMARK SMILES IDX 37 66 31 67 32 68 35 69 33 70 59 71 60 72 68 73 61 74 62 75
REMARK SMILES IDX 66 76 69 77 63 78 64 79 67 80 65 81 44 82 45 83 53 84 46 85
REMARK SMILES IDX 47 86 51 87 54 88 48 89 49 90 52 91 50 92
REMARK H PARENT 74 45 42 56
REMARK Flexibility Score: inf
ROOT
ATOM      1  O   UNL A   1      35.736  21.639  26.129  1.00  0.00    -0.374 OA
ENDROOT
BRANCH   1   2
ATOM      2  C   UNL A   1      34.807  22.682  25.814  1.00  0.00     0.202 C 
BRANCH   2   3
ATOM      3  C   UNL A   1      33.589  22.751  26.741  1.00  0.00     0.261 C 
BRANCH   3   4
ATOM      4  O   UNL A   1      32.419  23.157  26.006  1.00  0.00    -0.463 OA
BRANCH   4   5
ATOM      5  C   UNL A   1      31.813  24.284  26.403  1.00  0.00     0.309 C 
ATOM      6  O   UNL A   1      30.905  24.291  27.221  1.00  0.00    -0.252 OA
BRANCH   5   7
ATOM      7  C   UNL A   1      32.304  25.556  25.707  1.00  0.00     0.110 C 
BRANCH   7   8
ATOM      8  C   UNL A   1      31.375  26.805  25.755  1.00  0.00     0.083 C 
BRANCH   8   9
ATOM      9  C   UNL A   1      32.009  28.099  26.184  1.00  0.00     0.094 A 
ATOM     10  C   UNL A   1      31.628  31.621  26.687  1.00  0.00     0.068 C 
ATOM     11  C   UNL A   1      32.228  30.271  26.570  1.00  0.00     0.051 A 
ATOM     12  N   UNL A   1      31.452  29.276  26.019  1.00  0.00    -0.246 NA
ATOM     13  C   UNL A   1      33.486  29.864  26.969  1.00  0.00     0.024 A 
ATOM     14  S   UNL A   1      33.612  28.159  26.807  1.00  0.00    -0.124 S 
ATOM     15  C   UNL A   1      34.604  30.687  27.504  1.00  0.00     0.058 C 
ENDBRANCH   8   9
ENDBRANCH   7   8
BRANCH   7  16
ATOM     16  C   UNL A   1      32.640  25.238  24.196  1.00  0.00     0.020 C 
ATOM     17  C   UNL A   1      33.760  26.090  23.543  1.00  0.00     0.021 C 
ATOM     18  C   UNL A   1      31.421  25.240  23.243  1.00  0.00     0.141 C 
ATOM     19  C   UNL A   1      33.154  27.202  22.693  1.00  0.00     0.137 C 
ATOM     20  S   UNL A   1      31.700  26.475  21.974  1.00  0.00     0.150 S 
ATOM     21  O   UNL A   1      30.615  27.434  21.959  1.00  0.00    -0.229 OA
ATOM     22  O   UNL A   1      32.112  25.784  20.767  1.00  0.00    -0.229 OA
ENDBRANCH   7  16
ENDBRANCH   5   7
ENDBRANCH   4   5
ENDBRANCH   3   4
ENDBRANCH   2   3
ENDBRANCH   1   2
BRANCH   1  23
ATOM     23  C   UNL A   1      36.116  20.813  25.031  1.00  0.00     0.202 C 
BRANCH  23  24
ATOM     24  C   UNL A   1      37.557  20.299  25.062  1.00  0.00     0.261 C 
BRANCH  24  25
ATOM     25  O   UNL A   1      38.479  21.385  25.235  1.00  0.00    -0.460 OA
BRANCH  25  26
ATOM     26  C   UNL A   1      39.438  21.161  26.161  1.00  0.00     0.338 C 
ATOM     27  O   UNL A   1      39.998  20.105  26.408  1.00  0.00    -0.246 OA
BRANCH  26  28
ATOM     28  C   UNL A   1      39.864  22.447  26.748  1.00  0.00     0.060 A 
ATOM     29  C   UNL A   1      39.198  23.601  26.314  1.00  0.00     0.016 A 
ATOM     30  C   UNL A   1      40.887  22.534  27.696  1.00  0.00     0.016 A 
ATOM     31  C   UNL A   1      39.583  24.851  26.789  1.00  0.00     0.010 A 
ATOM     32  C   UNL A   1      41.274  23.790  28.171  1.00  0.00     0.010 A 
ATOM     33  C   UNL A   1      40.645  24.957  27.696  1.00  0.00    -0.014 A 
BRANCH  33  34
ATOM     34  C   UNL A   1      41.214  26.290  28.005  1.00  0.00     0.031 A 
ATOM     35  C   UNL A   1      42.630  26.571  27.584  1.00  0.00     0.074 A 
ATOM     36  C   UNL A   1      40.488  27.242  28.618  1.00  0.00     0.049 A 
ATOM     37  N   UNL A   1      43.354  27.646  27.762  1.00  0.00    -0.248 NA
ATOM     38  C   UNL A   1      43.325  25.489  26.866  1.00  0.00     0.031 C 
ATOM     39  C   UNL A   1      39.094  27.108  29.034  1.00  0.00     0.029 A 
ATOM     40  N   UNL A   1      40.832  28.513  29.004  1.00  0.00    -0.354 N 
ATOM     41  C   UNL A   1      44.584  27.368  27.181  1.00  0.00     0.074 A 
ATOM     42  C   UNL A   1      44.529  26.010  26.690  1.00  0.00     0.031 C 
ATOM     43  C   UNL A   1      38.707  28.244  29.643  1.00  0.00     0.029 A 
ATOM     44  C   UNL A   1      39.828  29.181  29.663  1.00  0.00     0.049 A 
ATOM     45  H   UNL A   1      41.715  28.910  28.825  1.00  0.00     0.167 HD
ATOM     46  C   UNL A   1      45.657  28.182  27.046  1.00  0.00     0.037 A 
ATOM     47  C   UNL A   1      39.822  30.407  30.221  1.00  0.00     0.037 A 
ATOM     48  C   UNL A   1      45.706  29.538  27.519  1.00  0.00     0.049 A 
ATOM     49  C   UNL A   1      41.053  31.271  30.113  1.00  0.00     0.074 A 
ATOM     50  C   UNL A   1      46.736  30.453  27.409  1.00  0.00     0.029 A 
ATOM     51  N   UNL A   1      44.675  30.172  28.196  1.00  0.00    -0.354 N 
ATOM     52  N   UNL A   1      42.197  31.015  29.525  1.00  0.00    -0.248 NA
ATOM     53  C   UNL A   1      40.986  32.602  30.734  1.00  0.00     0.031 C 
ATOM     54  C   UNL A   1      46.347  31.628  28.059  1.00  0.00     0.029 A 
ATOM     55  C   UNL A   1      45.054  31.462  28.529  1.00  0.00     0.049 A 
ATOM     56  H   UNL A   1      43.803  29.766  28.407  1.00  0.00     0.167 HD
ATOM     57  C   UNL A   1      42.966  32.163  29.668  1.00  0.00     0.074 A 
ATOM     58  C   UNL A   1      42.157  33.120  30.394  1.00  0.00     0.031 C 
ATOM     59  C   UNL A   1      44.227  32.406  29.235  1.00  0.00     0.037 A 
BRANCH  46  60
ATOM     60  C   UNL A   1      46.868  27.617  26.369  1.00  0.00     0.064 A 
ATOM     61  C   UNL A   1      47.056  27.731  24.982  1.00  0.00     0.173 A 
ATOM     62  C   UNL A   1      47.864  26.973  27.116  1.00  0.00     0.173 A 
ATOM     63  F   UNL A   1      46.123  28.322  24.221  1.00  0.00    -0.203 F 
ATOM     64  C   UNL A   1      48.186  27.198  24.367  1.00  0.00     0.198 A 
ATOM     65  C   UNL A   1      49.006  26.467  26.501  1.00  0.00     0.198 A 
ATOM     66  F   UNL A   1      47.732  26.838  28.444  1.00  0.00    -0.203 F 
ATOM     67  F   UNL A   1      48.320  27.274  23.036  1.00  0.00    -0.200 F 
ATOM     68  C   UNL A   1      49.162  26.574  25.128  1.00  0.00     0.200 A 
ATOM     69  F   UNL A   1      49.954  25.871  27.239  1.00  0.00    -0.200 F 
ATOM     70  F   UNL A   1      50.251  26.064  24.534  1.00  0.00    -0.200 F 
ENDBRANCH  46  60
BRANCH  47  71
ATOM     71  C   UNL A   1      38.613  30.903  30.930  1.00  0.00     0.064 A 
ATOM     72  C   UNL A   1      37.560  31.509  30.230  1.00  0.00     0.173 A 
ATOM     73  C   UNL A   1      38.504  30.820  32.325  1.00  0.00     0.173 A 
ATOM     74  F   UNL A   1      37.629  31.633  28.896  1.00  0.00    -0.203 F 
ATOM     75  C   UNL A   1      36.461  32.041  30.900  1.00  0.00     0.198 A 
ATOM     76  C   UNL A   1      37.391  31.328  32.993  1.00  0.00     0.198 A 
ATOM     77  F   UNL A   1      39.483  30.249  33.043  1.00  0.00    -0.203 F 
ATOM     78  F   UNL A   1      35.496  32.665  30.211  1.00  0.00    -0.200 F 
ATOM     79  C   UNL A   1      36.375  31.947  32.281  1.00  0.00     0.200 A 
ATOM     80  F   UNL A   1      37.309  31.226  34.327  1.00  0.00    -0.200 F 
ATOM     81  F   UNL A   1      35.321  32.464  32.926  1.00  0.00    -0.200 F 
ENDBRANCH  47  71
BRANCH  59  82
ATOM     82  C   UNL A   1      44.797  33.772  29.487  1.00  0.00     0.064 A 
ATOM     83  C   UNL A   1      45.559  34.053  30.631  1.00  0.00     0.173 A 
ATOM     84  C   UNL A   1      44.626  34.795  28.543  1.00  0.00     0.173 A 
ATOM     85  F   UNL A   1      45.739  33.113  31.570  1.00  0.00    -0.203 F 
ATOM     86  C   UNL A   1      46.109  35.317  30.830  1.00  0.00     0.198 A 
ATOM     87  C   UNL A   1      45.203  36.047  28.730  1.00  0.00     0.198 A 
ATOM     88  F   UNL A   1      43.913  34.574  27.427  1.00  0.00    -0.203 F 
ATOM     89  F   UNL A   1      46.796  35.577  31.950  1.00  0.00    -0.200 F 
ATOM     90  C   UNL A   1      45.939  36.310  29.875  1.00  0.00     0.200 A 
ATOM     91  F   UNL A   1      45.050  37.000  27.799  1.00  0.00    -0.200 F 
ATOM     92  F   UNL A   1      46.479  37.521  30.064  1.00  0.00    -0.200 F 
ENDBRANCH  59  82
ENDBRANCH  33  34
ENDBRANCH  26  28
ENDBRANCH  25  26
ENDBRANCH  24  25
ENDBRANCH  23  24
ENDBRANCH   1  23
TORSDOF 17
ENDMDL
MODEL 3
REMARK VINA RESULT:     -11.1      4.102      7.024
REMARK SMILES Cc1nc(C[C@@H](C(=O)OCCOCCOC(=O)c2ccc(-c3c4nc(c(-c5c(F)c(F)c(F)c(F)c5F)c5ccc([nH]5)c(-c5c(F)c(F)c(F)c(F)c5F)c5nc(c(-c6c(F)c(F)c(F)c(F)c6F)c6ccc3[nH]6)C=C5)C=C4)cc2)[C@@H]2CCS(=O)(=O)C2)sc1C
REMARK SMILES IDX 12 1 11 2 10 3 9 4 7 5 8 6 6 7 5 8 4 9 1 10 2 11 3 12 89 13
REMARK SMILES IDX 88 14 90 15 81 16 82 17 87 18 83 19 84 20 85 21 86 22 13 23
REMARK SMILES IDX 14 24 15 25 16 26 17 27 18 28 19 29 80 30 20 31 79 32 21 33
REMARK SMILES IDX 22 34 23 35 73 36 24 37 78 38 72 39 74 40 25 41 77 42 71 43
REMARK SMILES IDX 70 44 26 46 58 47 38 48 57 49 39 50 42 51 56 52 75 53 40 54
REMARK SMILES IDX 41 55 55 57 76 58 43 59 27 60 28 61 36 62 29 63 30 64 34 65
REMARK SMILES IDX 37 66 31 67 32 68 35 69 33 70 59 71 60 72 68 73 61 74 62 75
REMARK SMILES IDX 66 76 69 77 63 78 64 79 67 80 65 81 44 82 45 83 53 84 46 85
REMARK SMILES IDX 47 86 51 87 54 88 48 89 49 90 52 91 50 92
REMARK H PARENT 74 45 42 56
REMARK Flexibility Score: inf
ROOT
ATOM      1  O   UNL A   1      35.369  21.938  25.072  1.00  0.00    -0.374 OA
ENDROOT
BRANCH   1   2
ATOM      2  C   UNL A   1      33.944  22.068  25.137  1.00  0.00     0.202 C 
BRANCH   2   3
ATOM      3  C   UNL A   1      33.419  22.661  26.449  1.00  0.00     0.261 C 
BRANCH   3   4
ATOM      4  O   UNL A   1      33.461  24.099  26.404  1.00  0.00    -0.463 OA
BRANCH   4   5
ATOM      5  C   UNL A   1      32.289  24.744  26.488  1.00  0.00     0.309 C 
ATOM      6  O   UNL A   1      31.312  24.265  27.044  1.00  0.00    -0.252 OA
BRANCH   5   7
ATOM      7  C   UNL A   1      32.250  26.100  25.778  1.00  0.00     0.110 C 
BRANCH   7   8
ATOM      8  C   UNL A   1      31.638  27.301  26.557  1.00  0.00     0.083 C 
BRANCH   8   9
ATOM      9  C   UNL A   1      32.569  28.437  26.881  1.00  0.00     0.094 A 
ATOM     10  C   UNL A   1      35.923  29.492  27.541  1.00  0.00     0.068 C 
ATOM     11  C   UNL A   1      34.449  29.494  27.393  1.00  0.00     0.051 A 
ATOM     12  N   UNL A   1      33.825  28.278  27.226  1.00  0.00    -0.246 NA
ATOM     13  C   UNL A   1      33.599  30.582  27.382  1.00  0.00     0.024 A 
ATOM     14  S   UNL A   1      32.014  30.063  26.971  1.00  0.00    -0.124 S 
ATOM     15  C   UNL A   1      33.917  32.013  27.632  1.00  0.00     0.058 C 
ENDBRANCH   8   9
ENDBRANCH   7   8
BRANCH   7  16
ATOM     16  C   UNL A   1      31.492  25.955  24.399  1.00  0.00     0.020 C 
ATOM     17  C   UNL A   1      31.535  24.557  23.730  1.00  0.00     0.021 C 
ATOM     18  C   UNL A   1      31.876  27.008  23.332  1.00  0.00     0.141 C 
ATOM     19  C   UNL A   1      32.587  24.527  22.627  1.00  0.00     0.137 C 
ATOM     20  S   UNL A   1      32.517  26.146  21.896  1.00  0.00     0.150 S 
ATOM     21  O   UNL A   1      33.850  26.613  21.583  1.00  0.00    -0.229 OA
ATOM     22  O   UNL A   1      31.471  26.123  20.891  1.00  0.00    -0.229 OA
ENDBRANCH   7  16
ENDBRANCH   5   7
ENDBRANCH   4   5
ENDBRANCH   3   4
ENDBRANCH   2   3
ENDBRANCH   1   2
BRANCH   1  23
ATOM     23  C   UNL A   1      35.854  20.599  25.009  1.00  0.00     0.202 C 
BRANCH  23  24
ATOM     24  C   UNL A   1      37.376  20.451  24.984  1.00  0.00     0.261 C 
BRANCH  24  25
ATOM     25  O   UNL A   1      38.009  21.632  25.497  1.00  0.00    -0.460 OA
BRANCH  25  26
ATOM     26  C   UNL A   1      39.192  21.410  26.112  1.00  0.00     0.338 C 
ATOM     27  O   UNL A   1      39.864  20.391  26.081  1.00  0.00    -0.246 OA
BRANCH  26  28
ATOM     28  C   UNL A   1      39.675  22.668  26.716  1.00  0.00     0.060 A 
ATOM     29  C   UNL A   1      39.024  23.850  26.340  1.00  0.00     0.016 A 
ATOM     30  C   UNL A   1      40.736  22.702  27.624  1.00  0.00     0.016 A 
ATOM     31  C   UNL A   1      39.461  25.076  26.834  1.00  0.00     0.010 A 
ATOM     32  C   UNL A   1      41.176  23.933  28.118  1.00  0.00     0.010 A 
ATOM     33  C   UNL A   1      40.560  25.129  27.700  1.00  0.00    -0.014 A 
BRANCH  33  34
ATOM     34  C   UNL A   1      41.177  26.438  28.021  1.00  0.00     0.031 A 
ATOM     35  C   UNL A   1      42.594  26.680  27.583  1.00  0.00     0.074 A 
ATOM     36  C   UNL A   1      40.491  27.401  28.662  1.00  0.00     0.049 A 
ATOM     37  N   UNL A   1      43.354  27.728  27.767  1.00  0.00    -0.248 NA
ATOM     38  C   UNL A   1      43.243  25.589  26.835  1.00  0.00     0.031 C 
ATOM     39  C   UNL A   1      39.100  27.305  29.099  1.00  0.00     0.029 A 
ATOM     40  N   UNL A   1      40.882  28.654  29.064  1.00  0.00    -0.354 N 
ATOM     41  C   UNL A   1      44.566  27.421  27.161  1.00  0.00     0.074 A 
ATOM     42  C   UNL A   1      44.460  26.074  26.649  1.00  0.00     0.031 C 
ATOM     43  C   UNL A   1      38.760  28.441  29.733  1.00  0.00     0.029 A 
ATOM     44  C   UNL A   1      39.910  29.342  29.750  1.00  0.00     0.049 A 
ATOM     45  H   UNL A   1      41.774  29.026  28.877  1.00  0.00     0.167 HD
ATOM     46  C   UNL A   1      45.663  28.203  27.023  1.00  0.00     0.037 A 
ATOM     47  C   UNL A   1      39.953  30.557  30.329  1.00  0.00     0.037 A 
ATOM     48  C   UNL A   1      45.763  29.548  27.518  1.00  0.00     0.049 A 
ATOM     49  C   UNL A   1      41.209  31.384  30.215  1.00  0.00     0.074 A 
ATOM     50  C   UNL A   1      46.820  30.432  27.406  1.00  0.00     0.029 A 
ATOM     51  N   UNL A   1      44.763  30.204  28.221  1.00  0.00    -0.354 N 
ATOM     52  N   UNL A   1      42.334  31.102  29.605  1.00  0.00    -0.248 NA
ATOM     53  C   UNL A   1      41.194  32.706  30.860  1.00  0.00     0.031 C 
ATOM     54  C   UNL A   1      46.479  31.607  28.082  1.00  0.00     0.029 A 
ATOM     55  C   UNL A   1      45.189  31.474  28.570  1.00  0.00     0.049 A 
ATOM     56  H   UNL A   1      43.882  29.822  28.439  1.00  0.00     0.167 HD
ATOM     57  C   UNL A   1      43.142  32.222  29.755  1.00  0.00     0.074 A 
ATOM     58  C   UNL A   1      42.376  33.192  30.509  1.00  0.00     0.031 C 
ATOM     59  C   UNL A   1      44.404  32.432  29.305  1.00  0.00     0.037 A 
BRANCH  46  60
ATOM     60  C   UNL A   1      46.844  27.612  26.317  1.00  0.00     0.064 A 
ATOM     61  C   UNL A   1      46.994  27.710  24.924  1.00  0.00     0.173 A 
ATOM     62  C   UNL A   1      47.850  26.957  27.042  1.00  0.00     0.173 A 
ATOM     63  F   UNL A   1      46.050  28.310  24.185  1.00  0.00    -0.203 F 
ATOM     64  C   UNL A   1      48.097  27.152  24.282  1.00  0.00     0.198 A 
ATOM     65  C   UNL A   1      48.965  26.426  26.399  1.00  0.00     0.198 A 
ATOM     66  F   UNL A   1      47.753  26.836  28.374  1.00  0.00    -0.203 F 
ATOM     67  F   UNL A   1      48.195  27.215  22.947  1.00  0.00    -0.200 F 
ATOM     68  C   UNL A   1      49.084  26.518  25.021  1.00  0.00     0.200 A 
ATOM     69  F   UNL A   1      49.923  25.820  27.115  1.00  0.00    -0.200 F 
ATOM     70  F   UNL A   1      50.147  25.985  24.401  1.00  0.00    -0.200 F 
ENDBRANCH  46  60
BRANCH  47  71
ATOM     71  C   UNL A   1      38.771  31.080  31.065  1.00  0.00     0.064 A 
ATOM     72  C   UNL A   1      38.654  30.920  32.453  1.00  0.00     0.173 A 
ATOM     73  C   UNL A   1      37.717  31.713  30.391  1.00  0.00     0.173 A 
ATOM     74  F   UNL A   1      39.625  30.299  33.139  1.00  0.00    -0.203 F 
ATOM     75  C   UNL A   1      37.514  31.343  33.134  1.00  0.00     0.198 A 
ATOM     76  C   UNL A   1      36.589  32.161  31.077  1.00  0.00     0.198 A 
ATOM     77  F   UNL A   1      37.779  31.893  29.064  1.00  0.00    -0.203 F 
ATOM     78  F   UNL A   1      37.403  31.126  34.451  1.00  0.00    -0.200 F 
ATOM     79  C   UNL A   1      36.484  31.967  32.446  1.00  0.00     0.200 A 
ATOM     80  F   UNL A   1      35.601  32.771  30.408  1.00  0.00    -0.200 F 
ATOM     81  F   UNL A   1      35.385  32.368  33.098  1.00  0.00    -0.200 F 
ENDBRANCH  47  71
BRANCH  59  82
ATOM     82  C   UNL A   1      45.021  33.774  29.571  1.00  0.00     0.064 A 
ATOM     83  C   UNL A   1      44.792  34.872  28.730  1.00  0.00     0.173 A 
ATOM     84  C   UNL A   1      45.807  33.976  30.716  1.00  0.00     0.173 A 
ATOM     85  F   UNL A   1      44.060  34.727  27.615  1.00  0.00    -0.203 F 
ATOM     86  C   UNL A   1      45.345  36.118  29.014  1.00  0.00     0.198 A 
ATOM     87  C   UNL A   1      46.332  35.230  31.014  1.00  0.00     0.198 A 
ATOM     88  F   UNL A   1      46.049  32.959  31.559  1.00  0.00    -0.203 F 
ATOM     89  F   UNL A   1      45.149  37.143  28.173  1.00  0.00    -0.200 F 
ATOM     90  C   UNL A   1      46.107  36.298  30.159  1.00  0.00     0.200 A 
ATOM     91  F   UNL A   1      47.055  35.405  32.129  1.00  0.00    -0.200 F 
ATOM     92  F   UNL A   1      46.628  37.501  30.436  1.00  0.00    -0.200 F 
ENDBRANCH  59  82
ENDBRANCH  33  34
ENDBRANCH  26  28
ENDBRANCH  25  26
ENDBRANCH  24  25
ENDBRANCH  23  24
ENDBRANCH   1  23
TORSDOF 17
ENDMDL
