MODEL 1
REMARK VINA RESULT:     -11.4      0.000      0.000
REMARK SMILES Cc1cccc(O[C@H]2CC[C@@]([NH2+]C(C)C)(C(=O)OCCOCCOC(=O)c3ccc(-c4c5nc(c(-c6c(F)c(F)c(F)c(F)c6F)c6ccc([nH]6)c(-c6c(F)c(F)c(F)c(F)c6F)c6nc(c(-c7c(F)c(F)c(F)c(F)c7F)c7ccc4[nH]7)C=C6)C=C5)cc3)C2)c1
REMARK SMILES IDX 21 1 20 2 19 3 18 4 16 5 17 6 11 7 8 8 9 9 90 10 10 11 7 12
REMARK SMILES IDX 6 13 1 14 2 15 3 16 91 17 4 18 5 19 12 20 13 23 14 24 15 25
REMARK SMILES IDX 22 26 23 27 24 28 25 29 26 30 27 31 28 32 89 33 29 34 88 35
REMARK SMILES IDX 30 36 31 37 32 38 82 39 33 40 87 41 81 42 83 43 34 44 86 45
REMARK SMILES IDX 80 46 79 47 35 49 67 50 47 51 66 52 48 53 51 54 65 55 84 56
REMARK SMILES IDX 49 57 50 58 64 60 85 61 52 62 36 63 37 64 45 65 38 66 39 67
REMARK SMILES IDX 43 68 46 69 40 70 41 71 44 72 42 73 68 74 69 75 77 76 70 77
REMARK SMILES IDX 71 78 75 79 78 80 72 81 73 82 76 83 74 84 53 85 54 86 62 87
REMARK SMILES IDX 55 88 56 89 60 90 63 91 57 92 58 93 61 94 59 95
REMARK H PARENT 12 21 12 22 83 48 51 59
REMARK Flexibility Score: inf
ROOT
ATOM      1  O   UNL A   1      33.237  30.081  25.881  1.00  0.00    -0.374 OA
ENDROOT
BRANCH   1   2
ATOM      2  C   UNL A   1      32.812  28.816  25.431  1.00  0.00     0.202 C 
BRANCH   2   3
ATOM      3  C   UNL A   1      33.635  27.883  26.265  1.00  0.00     0.261 C 
BRANCH   3   4
ATOM      4  O   UNL A   1      33.549  26.511  25.816  1.00  0.00    -0.459 OA
BRANCH   4   5
ATOM      5  C   UNL A   1      32.347  25.845  25.771  1.00  0.00     0.368 C 
ATOM      6  O   UNL A   1      31.508  25.832  26.661  1.00  0.00    -0.245 OA
BRANCH   5   7
ATOM      7  C   UNL A   1      32.227  25.025  24.454  1.00  0.00     0.198 C 
ATOM      8  C   UNL A   1      33.146  22.714  24.707  1.00  0.00     0.180 C 
ATOM      9  C   UNL A   1      31.624  22.632  24.759  1.00  0.00     0.052 C 
ATOM     10  C   UNL A   1      33.443  24.114  24.167  1.00  0.00     0.126 C 
ATOM     11  C   UNL A   1      31.053  24.033  24.618  1.00  0.00     0.085 C 
BRANCH   8  12
ATOM     12  O   UNL A   1      33.811  22.550  25.961  1.00  0.00    -0.490 OA
BRANCH  12  13
ATOM     13  C   UNL A   1      35.184  22.536  25.999  1.00  0.00     0.119 A 
ATOM     14  C   UNL A   1      37.705  19.956  24.761  1.00  0.00     0.044 C 
ATOM     15  C   UNL A   1      37.127  21.222  25.323  1.00  0.00    -0.047 A 
ATOM     16  C   UNL A   1      37.930  22.354  25.477  1.00  0.00     0.003 A 
ATOM     17  C   UNL A   1      35.771  21.310  25.657  1.00  0.00     0.049 A 
ATOM     18  C   UNL A   1      37.378  23.545  25.947  1.00  0.00     0.004 A 
ATOM     19  C   UNL A   1      36.008  23.638  26.208  1.00  0.00     0.046 A 
ENDBRANCH  12  13
ENDBRANCH   8  12
BRANCH   7  20
ATOM     20  N   UNL A   1      31.944  25.936  23.303  1.00  0.00    -0.330 N 
ATOM     21  H   UNL A   1      31.874  26.884  23.675  1.00  0.00     0.347 HD
ATOM     22  H   UNL A   1      31.090  25.567  22.884  1.00  0.00     0.347 HD
BRANCH  20  23
ATOM     23  C   UNL A   1      32.919  25.968  22.199  1.00  0.00     0.176 C 
ATOM     24  C   UNL A   1      32.350  25.782  20.791  1.00  0.00     0.075 C 
ATOM     25  C   UNL A   1      33.645  27.318  22.252  1.00  0.00     0.075 C 
ENDBRANCH  20  23
ENDBRANCH   7  20
ENDBRANCH   5   7
ENDBRANCH   4   5
ENDBRANCH   3   4
ENDBRANCH   2   3
ENDBRANCH   1   2
BRANCH   1  26
ATOM     26  C   UNL A   1      32.865  30.436  27.183  1.00  0.00     0.202 C 
BRANCH  26  27
ATOM     27  C   UNL A   1      33.923  31.273  27.889  1.00  0.00     0.261 C 
BRANCH  27  28
ATOM     28  O   UNL A   1      35.236  30.819  27.494  1.00  0.00    -0.460 OA
BRANCH  28  29
ATOM     29  C   UNL A   1      36.213  31.040  28.420  1.00  0.00     0.338 C 
ATOM     30  O   UNL A   1      36.417  32.101  28.970  1.00  0.00    -0.246 OA
BRANCH  29  31
ATOM     31  C   UNL A   1      37.136  29.867  28.485  1.00  0.00     0.060 A 
ATOM     32  C   UNL A   1      37.212  29.110  29.667  1.00  0.00     0.016 A 
ATOM     33  C   UNL A   1      38.119  29.727  27.513  1.00  0.00     0.016 A 
ATOM     34  C   UNL A   1      38.363  28.356  29.951  1.00  0.00     0.010 A 
ATOM     35  C   UNL A   1      39.295  29.091  27.857  1.00  0.00     0.010 A 
ATOM     36  C   UNL A   1      39.451  28.432  29.088  1.00  0.00    -0.014 A 
BRANCH  36  37
ATOM     37  C   UNL A   1      40.798  27.894  29.341  1.00  0.00     0.031 A 
ATOM     38  C   UNL A   1      41.065  26.506  28.878  1.00  0.00     0.074 A 
ATOM     39  C   UNL A   1      41.845  28.660  29.754  1.00  0.00     0.049 A 
ATOM     40  N   UNL A   1      42.150  25.865  29.129  1.00  0.00    -0.248 NA
ATOM     41  C   UNL A   1      40.121  25.691  28.113  1.00  0.00     0.031 C 
ATOM     42  C   UNL A   1      43.276  28.360  29.641  1.00  0.00     0.029 A 
ATOM     43  N   UNL A   1      41.881  29.927  30.366  1.00  0.00    -0.354 N 
ATOM     44  C   UNL A   1      42.209  24.768  28.309  1.00  0.00     0.074 A 
ATOM     45  C   UNL A   1      40.872  24.630  27.800  1.00  0.00     0.031 C 
ATOM     46  C   UNL A   1      43.989  29.193  30.419  1.00  0.00     0.029 A 
ATOM     47  C   UNL A   1      43.032  29.977  31.170  1.00  0.00     0.049 A 
ATOM     48  H   UNL A   1      41.219  30.648  30.252  1.00  0.00     0.167 HD
ATOM     49  C   UNL A   1      43.435  24.209  28.097  1.00  0.00     0.037 A 
ATOM     50  C   UNL A   1      42.962  30.112  32.519  1.00  0.00     0.037 A 
ATOM     51  C   UNL A   1      44.424  24.799  29.022  1.00  0.00     0.049 A 
ATOM     52  C   UNL A   1      43.589  28.890  33.119  1.00  0.00     0.074 A 
ATOM     53  C   UNL A   1      45.517  25.635  28.865  1.00  0.00     0.029 A 
ATOM     54  N   UNL A   1      44.147  24.787  30.396  1.00  0.00    -0.354 N 
ATOM     55  N   UNL A   1      43.552  27.722  32.529  1.00  0.00    -0.248 NA
ATOM     56  C   UNL A   1      44.470  28.921  34.279  1.00  0.00     0.031 C 
ATOM     57  C   UNL A   1      45.843  26.176  30.146  1.00  0.00     0.029 A 
ATOM     58  C   UNL A   1      44.970  25.652  31.090  1.00  0.00     0.049 A 
ATOM     59  H   UNL A   1      43.451  24.230  30.815  1.00  0.00     0.167 HD
ATOM     60  C   UNL A   1      44.503  26.925  33.092  1.00  0.00     0.074 A 
ATOM     61  C   UNL A   1      45.000  27.687  34.227  1.00  0.00     0.031 C 
ATOM     62  C   UNL A   1      44.915  25.743  32.549  1.00  0.00     0.037 A 
BRANCH  49  63
ATOM     63  C   UNL A   1      43.804  23.252  26.967  1.00  0.00     0.064 A 
ATOM     64  C   UNL A   1      44.625  23.693  25.903  1.00  0.00     0.173 A 
ATOM     65  C   UNL A   1      43.339  21.927  26.814  1.00  0.00     0.173 A 
ATOM     66  F   UNL A   1      45.144  24.928  25.889  1.00  0.00    -0.203 F 
ATOM     67  C   UNL A   1      44.939  22.888  24.798  1.00  0.00     0.198 A 
ATOM     68  C   UNL A   1      43.680  21.112  25.728  1.00  0.00     0.198 A 
ATOM     69  F   UNL A   1      42.502  21.352  27.677  1.00  0.00    -0.203 F 
ATOM     70  F   UNL A   1      45.693  23.384  23.806  1.00  0.00    -0.200 F 
ATOM     71  C   UNL A   1      44.474  21.593  24.715  1.00  0.00     0.200 A 
ATOM     72  F   UNL A   1      43.212  19.856  25.671  1.00  0.00    -0.200 F 
ATOM     73  F   UNL A   1      44.777  20.820  23.664  1.00  0.00    -0.200 F 
ENDBRANCH  49  63
BRANCH  50  74
ATOM     74  C   UNL A   1      41.773  30.904  32.941  1.00  0.00     0.064 A 
ATOM     75  C   UNL A   1      41.887  32.310  32.831  1.00  0.00     0.173 A 
ATOM     76  C   UNL A   1      40.480  30.368  32.918  1.00  0.00     0.173 A 
ATOM     77  F   UNL A   1      43.101  32.885  32.840  1.00  0.00    -0.203 F 
ATOM     78  C   UNL A   1      40.783  33.112  32.537  1.00  0.00     0.198 A 
ATOM     79  C   UNL A   1      39.374  31.179  32.632  1.00  0.00     0.198 A 
ATOM     80  F   UNL A   1      40.295  29.045  33.021  1.00  0.00    -0.203 F 
ATOM     81  F   UNL A   1      40.954  34.414  32.258  1.00  0.00    -0.200 F 
ATOM     82  C   UNL A   1      39.535  32.536  32.387  1.00  0.00     0.200 A 
ATOM     83  F   UNL A   1      38.161  30.628  32.481  1.00  0.00    -0.200 F 
ATOM     84  F   UNL A   1      38.507  33.272  31.940  1.00  0.00    -0.200 F 
ENDBRANCH  50  74
BRANCH  62  85
ATOM     85  C   UNL A   1      45.386  24.584  33.387  1.00  0.00     0.064 A 
ATOM     86  C   UNL A   1      44.595  23.452  33.652  1.00  0.00     0.173 A 
ATOM     87  C   UNL A   1      46.740  24.486  33.785  1.00  0.00     0.173 A 
ATOM     88  F   UNL A   1      43.332  23.353  33.217  1.00  0.00    -0.203 F 
ATOM     89  C   UNL A   1      45.096  22.342  34.328  1.00  0.00     0.198 A 
ATOM     90  C   UNL A   1      47.255  23.345  34.391  1.00  0.00     0.198 A 
ATOM     91  F   UNL A   1      47.622  25.470  33.559  1.00  0.00    -0.203 F 
ATOM     92  F   UNL A   1      44.282  21.313  34.600  1.00  0.00    -0.200 F 
ATOM     93  C   UNL A   1      46.429  22.282  34.684  1.00  0.00     0.200 A 
ATOM     94  F   UNL A   1      48.566  23.275  34.665  1.00  0.00    -0.200 F 
ATOM     95  F   UNL A   1      46.919  21.191  35.285  1.00  0.00    -0.200 F 
ENDBRANCH  62  85
ENDBRANCH  36  37
ENDBRANCH  29  31
ENDBRANCH  28  29
ENDBRANCH  27  28
ENDBRANCH  26  27
ENDBRANCH   1  26
TORSDOF 18
ENDMDL
MODEL 2
REMARK VINA RESULT:     -11.3      1.330      2.258
REMARK SMILES Cc1cccc(O[C@H]2CC[C@@]([NH2+]C(C)C)(C(=O)OCCOCCOC(=O)c3ccc(-c4c5nc(c(-c6c(F)c(F)c(F)c(F)c6F)c6ccc([nH]6)c(-c6c(F)c(F)c(F)c(F)c6F)c6nc(c(-c7c(F)c(F)c(F)c(F)c7F)c7ccc4[nH]7)C=C6)C=C5)cc3)C2)c1
REMARK SMILES IDX 21 1 20 2 19 3 18 4 16 5 17 6 11 7 8 8 9 9 90 10 10 11 7 12
REMARK SMILES IDX 6 13 1 14 2 15 3 16 91 17 4 18 5 19 12 20 13 23 14 24 15 25
REMARK SMILES IDX 22 26 23 27 24 28 25 29 26 30 27 31 28 32 89 33 29 34 88 35
REMARK SMILES IDX 30 36 31 37 32 38 82 39 33 40 87 41 81 42 83 43 34 44 86 45
REMARK SMILES IDX 80 46 79 47 35 49 67 50 47 51 66 52 48 53 51 54 65 55 84 56
REMARK SMILES IDX 49 57 50 58 64 60 85 61 52 62 36 63 37 64 45 65 38 66 39 67
REMARK SMILES IDX 43 68 46 69 40 70 41 71 44 72 42 73 68 74 69 75 77 76 70 77
REMARK SMILES IDX 71 78 75 79 78 80 72 81 73 82 76 83 74 84 53 85 54 86 62 87
REMARK SMILES IDX 55 88 56 89 60 90 63 91 57 92 58 93 61 94 59 95
REMARK H PARENT 12 21 12 22 83 48 51 59
REMARK Flexibility Score: inf
ROOT
ATOM      1  O   UNL A   1      32.292  29.276  27.147  1.00  0.00    -0.374 OA
ENDROOT
BRANCH   1   2
ATOM      2  C   UNL A   1      33.247  28.264  27.361  1.00  0.00     0.202 C 
BRANCH   2   3
ATOM      3  C   UNL A   1      33.947  28.197  26.039  1.00  0.00     0.261 C 
BRANCH   3   4
ATOM      4  O   UNL A   1      33.827  26.899  25.410  1.00  0.00    -0.459 OA
BRANCH   4   5
ATOM      5  C   UNL A   1      33.261  26.756  24.165  1.00  0.00     0.368 C 
ATOM      6  O   UNL A   1      33.735  27.171  23.117  1.00  0.00    -0.245 OA
BRANCH   5   7
ATOM      7  C   UNL A   1      31.873  26.060  24.274  1.00  0.00     0.198 C 
ATOM      8  C   UNL A   1      31.974  23.661  23.576  1.00  0.00     0.180 C 
ATOM      9  C   UNL A   1      31.937  23.715  25.099  1.00  0.00     0.052 C 
ATOM     10  C   UNL A   1      31.574  25.068  23.126  1.00  0.00     0.126 C 
ATOM     11  C   UNL A   1      31.887  25.170  25.537  1.00  0.00     0.085 C 
BRANCH   8  12
ATOM     12  O   UNL A   1      33.244  23.336  23.005  1.00  0.00    -0.490 OA
BRANCH  12  13
ATOM     13  C   UNL A   1      34.147  22.612  23.743  1.00  0.00     0.119 A 
ATOM     14  C   UNL A   1      37.346  23.665  25.534  1.00  0.00     0.044 C 
ATOM     15  C   UNL A   1      36.190  22.832  25.061  1.00  0.00    -0.047 A 
ATOM     16  C   UNL A   1      35.924  21.597  25.657  1.00  0.00     0.003 A 
ATOM     17  C   UNL A   1      35.332  23.292  24.055  1.00  0.00     0.049 A 
ATOM     18  C   UNL A   1      34.817  20.850  25.253  1.00  0.00     0.004 A 
ATOM     19  C   UNL A   1      33.930  21.355  24.299  1.00  0.00     0.046 A 
ENDBRANCH  12  13
ENDBRANCH   8  12
BRANCH   7  20
ATOM     20  N   UNL A   1      30.792  27.084  24.405  1.00  0.00    -0.330 N 
ATOM     21  H   UNL A   1      31.230  28.002  24.327  1.00  0.00     0.347 HD
ATOM     22  H   UNL A   1      30.354  26.884  25.305  1.00  0.00     0.347 HD
BRANCH  20  23
ATOM     23  C   UNL A   1      29.686  27.041  23.433  1.00  0.00     0.176 C 
ATOM     24  C   UNL A   1      28.339  26.549  23.965  1.00  0.00     0.075 C 
ATOM     25  C   UNL A   1      29.496  28.456  22.874  1.00  0.00     0.075 C 
ENDBRANCH  20  23
ENDBRANCH   7  20
ENDBRANCH   5   7
ENDBRANCH   4   5
ENDBRANCH   3   4
ENDBRANCH   2   3
ENDBRANCH   1   2
BRANCH   1  26
ATOM     26  C   UNL A   1      32.730  30.410  26.453  1.00  0.00     0.202 C 
BRANCH  26  27
ATOM     27  C   UNL A   1      33.336  31.462  27.371  1.00  0.00     0.261 C 
BRANCH  27  28
ATOM     28  O   UNL A   1      34.769  31.290  27.420  1.00  0.00    -0.460 OA
BRANCH  28  29
ATOM     29  C   UNL A   1      35.285  31.193  28.679  1.00  0.00     0.338 C 
ATOM     30  O   UNL A   1      35.105  32.003  29.563  1.00  0.00    -0.246 OA
BRANCH  29  31
ATOM     31  C   UNL A   1      36.283  30.083  28.743  1.00  0.00     0.060 A 
ATOM     32  C   UNL A   1      36.484  29.401  29.956  1.00  0.00     0.016 A 
ATOM     33  C   UNL A   1      37.208  29.947  27.714  1.00  0.00     0.016 A 
ATOM     34  C   UNL A   1      37.697  28.735  30.199  1.00  0.00     0.010 A 
ATOM     35  C   UNL A   1      38.442  29.404  28.010  1.00  0.00     0.010 A 
ATOM     36  C   UNL A   1      38.720  28.827  29.261  1.00  0.00    -0.014 A 
BRANCH  36  37
ATOM     37  C   UNL A   1      40.111  28.387  29.449  1.00  0.00     0.031 A 
ATOM     38  C   UNL A   1      40.445  27.006  29.008  1.00  0.00     0.074 A 
ATOM     39  C   UNL A   1      41.126  29.231  29.782  1.00  0.00     0.049 A 
ATOM     40  N   UNL A   1      41.583  26.445  29.211  1.00  0.00    -0.248 NA
ATOM     41  C   UNL A   1      39.516  26.109  28.319  1.00  0.00     0.031 C 
ATOM     42  C   UNL A   1      42.565  29.023  29.593  1.00  0.00     0.029 A 
ATOM     43  N   UNL A   1      41.111  30.516  30.357  1.00  0.00    -0.354 N 
ATOM     44  C   UNL A   1      41.670  25.331  28.417  1.00  0.00     0.074 A 
ATOM     45  C   UNL A   1      40.318  25.091  27.991  1.00  0.00     0.031 C 
ATOM     46  C   UNL A   1      43.263  29.924  30.308  1.00  0.00     0.029 A 
ATOM     47  C   UNL A   1      42.299  30.665  31.092  1.00  0.00     0.049 A 
ATOM     48  H   UNL A   1      40.397  31.188  30.263  1.00  0.00     0.167 HD
ATOM     49  C   UNL A   1      42.917  24.848  28.149  1.00  0.00     0.037 A 
ATOM     50  C   UNL A   1      42.296  30.834  32.439  1.00  0.00     0.037 A 
ATOM     51  C   UNL A   1      43.914  25.529  29.001  1.00  0.00     0.049 A 
ATOM     52  C   UNL A   1      43.037  29.674  33.033  1.00  0.00     0.074 A 
ATOM     53  C   UNL A   1      44.938  26.430  28.759  1.00  0.00     0.029 A 
ATOM     54  N   UNL A   1      43.715  25.539  30.388  1.00  0.00    -0.354 N 
ATOM     55  N   UNL A   1      43.046  28.490  32.476  1.00  0.00    -0.248 NA
ATOM     56  C   UNL A   1      43.977  29.798  34.139  1.00  0.00     0.031 C 
ATOM     57  C   UNL A   1      45.298  27.029  30.005  1.00  0.00     0.029 A 
ATOM     58  C   UNL A   1      44.517  26.476  31.011  1.00  0.00     0.049 A 
ATOM     59  H   UNL A   1      43.084  24.950  30.860  1.00  0.00     0.167 HD
ATOM     60  C   UNL A   1      44.077  27.774  33.003  1.00  0.00     0.074 A 
ATOM     61  C   UNL A   1      44.585  28.600  34.088  1.00  0.00     0.031 C 
ATOM     62  C   UNL A   1      44.537  26.606  32.467  1.00  0.00     0.037 A 
BRANCH  49  63
ATOM     63  C   UNL A   1      43.285  23.885  27.025  1.00  0.00     0.064 A 
ATOM     64  C   UNL A   1      42.907  22.523  27.104  1.00  0.00     0.173 A 
ATOM     65  C   UNL A   1      44.062  24.194  25.886  1.00  0.00     0.173 A 
ATOM     66  F   UNL A   1      42.173  22.062  28.125  1.00  0.00    -0.203 F 
ATOM     67  C   UNL A   1      43.278  21.573  26.142  1.00  0.00     0.198 A 
ATOM     68  C   UNL A   1      44.404  23.251  24.908  1.00  0.00     0.198 A 
ATOM     69  F   UNL A   1      44.568  25.406  25.666  1.00  0.00    -0.203 F 
ATOM     70  F   UNL A   1      42.917  20.291  26.299  1.00  0.00    -0.200 F 
ATOM     71  C   UNL A   1      44.019  21.939  25.038  1.00  0.00     0.200 A 
ATOM     72  F   UNL A   1      45.128  23.634  23.846  1.00  0.00    -0.200 F 
ATOM     73  F   UNL A   1      44.371  21.034  24.115  1.00  0.00    -0.200 F 
ENDBRANCH  49  63
BRANCH  50  74
ATOM     74  C   UNL A   1      41.082  31.559  32.909  1.00  0.00     0.064 A 
ATOM     75  C   UNL A   1      41.010  32.935  32.587  1.00  0.00     0.173 A 
ATOM     76  C   UNL A   1      39.871  30.898  33.145  1.00  0.00     0.173 A 
ATOM     77  F   UNL A   1      42.137  33.624  32.342  1.00  0.00    -0.203 F 
ATOM     78  C   UNL A   1      39.789  33.565  32.342  1.00  0.00     0.198 A 
ATOM     79  C   UNL A   1      38.648  31.538  32.906  1.00  0.00     0.198 A 
ATOM     80  F   UNL A   1      39.861  29.595  33.459  1.00  0.00    -0.203 F 
ATOM     81  F   UNL A   1      39.765  34.818  31.860  1.00  0.00    -0.200 F 
ATOM     82  C   UNL A   1      38.611  32.849  32.452  1.00  0.00     0.200 A 
ATOM     83  F   UNL A   1      37.501  30.851  33.009  1.00  0.00    -0.200 F 
ATOM     84  F   UNL A   1      37.454  33.400  32.055  1.00  0.00    -0.200 F 
ENDBRANCH  50  74
BRANCH  62  85
ATOM     85  C   UNL A   1      45.132  25.506  33.306  1.00  0.00     0.064 A 
ATOM     86  C   UNL A   1      46.505  25.205  33.320  1.00  0.00     0.173 A 
ATOM     87  C   UNL A   1      44.355  24.848  34.288  1.00  0.00     0.173 A 
ATOM     88  F   UNL A   1      47.380  25.848  32.537  1.00  0.00    -0.203 F 
ATOM     89  C   UNL A   1      47.046  24.264  34.195  1.00  0.00     0.198 A 
ATOM     90  C   UNL A   1      44.912  23.967  35.208  1.00  0.00     0.198 A 
ATOM     91  F   UNL A   1      43.039  25.069  34.421  1.00  0.00    -0.203 F 
ATOM     92  F   UNL A   1      48.353  23.978  34.128  1.00  0.00    -0.200 F 
ATOM     93  C   UNL A   1      46.254  23.657  35.148  1.00  0.00     0.200 A 
ATOM     94  F   UNL A   1      44.142  23.441  36.172  1.00  0.00    -0.200 F 
ATOM     95  F   UNL A   1      46.787  22.794  36.021  1.00  0.00    -0.200 F 
ENDBRANCH  62  85
ENDBRANCH  36  37
ENDBRANCH  29  31
ENDBRANCH  28  29
ENDBRANCH  27  28
ENDBRANCH  26  27
ENDBRANCH   1  26
TORSDOF 18
ENDMDL
MODEL 3
REMARK VINA RESULT:     -11.1      1.471      2.121
REMARK SMILES Cc1cccc(O[C@H]2CC[C@@]([NH2+]C(C)C)(C(=O)OCCOCCOC(=O)c3ccc(-c4c5nc(c(-c6c(F)c(F)c(F)c(F)c6F)c6ccc([nH]6)c(-c6c(F)c(F)c(F)c(F)c6F)c6nc(c(-c7c(F)c(F)c(F)c(F)c7F)c7ccc4[nH]7)C=C6)C=C5)cc3)C2)c1
REMARK SMILES IDX 21 1 20 2 19 3 18 4 16 5 17 6 11 7 8 8 9 9 90 10 10 11 7 12
REMARK SMILES IDX 6 13 1 14 2 15 3 16 91 17 4 18 5 19 12 20 13 23 14 24 15 25
REMARK SMILES IDX 22 26 23 27 24 28 25 29 26 30 27 31 28 32 89 33 29 34 88 35
REMARK SMILES IDX 30 36 31 37 32 38 82 39 33 40 87 41 81 42 83 43 34 44 86 45
REMARK SMILES IDX 80 46 79 47 35 49 67 50 47 51 66 52 48 53 51 54 65 55 84 56
REMARK SMILES IDX 49 57 50 58 64 60 85 61 52 62 36 63 37 64 45 65 38 66 39 67
REMARK SMILES IDX 43 68 46 69 40 70 41 71 44 72 42 73 68 74 69 75 77 76 70 77
REMARK SMILES IDX 71 78 75 79 78 80 72 81 73 82 76 83 74 84 53 85 54 86 62 87
REMARK SMILES IDX 55 88 56 89 60 90 63 91 57 92 58 93 61 94 59 95
REMARK H PARENT 12 21 12 22 83 48 51 59
REMARK Flexibility Score: inf
ROOT
ATOM      1  O   UNL A   1      31.589  28.990  26.123  1.00  0.00    -0.374 OA
ENDROOT
BRANCH   1   2
ATOM      2  C   UNL A   1      31.810  28.031  27.130  1.00  0.00     0.202 C 
BRANCH   2   3
ATOM      3  C   UNL A   1      30.971  26.880  26.667  1.00  0.00     0.261 C 
BRANCH   3   4
ATOM      4  O   UNL A   1      31.765  25.744  26.251  1.00  0.00    -0.459 OA
BRANCH   4   5
ATOM      5  C   UNL A   1      31.833  25.362  24.931  1.00  0.00     0.368 C 
ATOM      6  O   UNL A   1      30.923  24.854  24.291  1.00  0.00    -0.245 OA
BRANCH   5   7
ATOM      7  C   UNL A   1      33.269  25.583  24.373  1.00  0.00     0.198 C 
ATOM      8  C   UNL A   1      34.688  23.538  24.612  1.00  0.00     0.180 C 
ATOM      9  C   UNL A   1      34.234  23.639  23.160  1.00  0.00     0.052 C 
ATOM     10  C   UNL A   1      34.380  24.912  25.213  1.00  0.00     0.126 C 
ATOM     11  C   UNL A   1      33.359  24.873  23.004  1.00  0.00     0.085 C 
BRANCH   8  12
ATOM     12  O   UNL A   1      34.033  22.535  25.390  1.00  0.00    -0.490 OA
BRANCH  12  13
ATOM     13  C   UNL A   1      34.444  21.229  25.289  1.00  0.00     0.119 A 
ATOM     14  C   UNL A   1      32.535  18.057  24.371  1.00  0.00     0.044 C 
ATOM     15  C   UNL A   1      33.661  18.990  24.710  1.00  0.00    -0.047 A 
ATOM     16  C   UNL A   1      34.986  18.585  24.539  1.00  0.00     0.003 A 
ATOM     17  C   UNL A   1      33.409  20.294  25.155  1.00  0.00     0.049 A 
ATOM     18  C   UNL A   1      36.029  19.473  24.802  1.00  0.00     0.004 A 
ATOM     19  C   UNL A   1      35.760  20.792  25.177  1.00  0.00     0.046 A 
ENDBRANCH  12  13
ENDBRANCH   8  12
BRANCH   7  20
ATOM     20  N   UNL A   1      33.530  27.043  24.189  1.00  0.00    -0.330 N 
ATOM     21  H   UNL A   1      34.525  27.198  24.357  1.00  0.00     0.347 HD
ATOM     22  H   UNL A   1      32.899  27.504  24.844  1.00  0.00     0.347 HD
BRANCH  20  23
ATOM     23  C   UNL A   1      33.209  27.636  22.879  1.00  0.00     0.176 C 
ATOM     24  C   UNL A   1      31.818  28.260  22.744  1.00  0.00     0.075 C 
ATOM     25  C   UNL A   1      34.254  28.720  22.584  1.00  0.00     0.075 C 
ENDBRANCH  20  23
ENDBRANCH   7  20
ENDBRANCH   5   7
ENDBRANCH   4   5
ENDBRANCH   3   4
ENDBRANCH   2   3
ENDBRANCH   1   2
BRANCH   1  26
ATOM     26  C   UNL A   1      32.489  30.061  26.074  1.00  0.00     0.202 C 
BRANCH  26  27
ATOM     27  C   UNL A   1      33.804  29.755  26.779  1.00  0.00     0.261 C 
BRANCH  27  28
ATOM     28  O   UNL A   1      34.030  30.730  27.819  1.00  0.00    -0.460 OA
BRANCH  28  29
ATOM     29  C   UNL A   1      35.299  31.232  27.858  1.00  0.00     0.338 C 
ATOM     30  O   UNL A   1      35.601  32.369  27.568  1.00  0.00    -0.246 OA
BRANCH  29  31
ATOM     31  C   UNL A   1      36.282  30.129  28.080  1.00  0.00     0.060 A 
ATOM     32  C   UNL A   1      36.422  29.572  29.363  1.00  0.00     0.016 A 
ATOM     33  C   UNL A   1      37.251  29.884  27.113  1.00  0.00     0.016 A 
ATOM     34  C   UNL A   1      37.615  28.927  29.727  1.00  0.00     0.010 A 
ATOM     35  C   UNL A   1      38.465  29.367  27.518  1.00  0.00     0.010 A 
ATOM     36  C   UNL A   1      38.680  28.919  28.832  1.00  0.00    -0.014 A 
BRANCH  36  37
ATOM     37  C   UNL A   1      40.058  28.492  29.128  1.00  0.00     0.031 A 
ATOM     38  C   UNL A   1      40.411  27.086  28.797  1.00  0.00     0.074 A 
ATOM     39  C   UNL A   1      41.054  29.357  29.460  1.00  0.00     0.049 A 
ATOM     40  N   UNL A   1      41.534  26.540  29.101  1.00  0.00    -0.248 NA
ATOM     41  C   UNL A   1      39.520  26.144  28.118  1.00  0.00     0.031 C 
ATOM     42  C   UNL A   1      42.502  29.138  29.368  1.00  0.00     0.029 A 
ATOM     43  N   UNL A   1      41.012  30.677  29.949  1.00  0.00    -0.354 N 
ATOM     44  C   UNL A   1      41.662  25.376  28.389  1.00  0.00     0.074 A 
ATOM     45  C   UNL A   1      40.336  25.107  27.903  1.00  0.00     0.031 C 
ATOM     46  C   UNL A   1      43.161  30.084  30.060  1.00  0.00     0.029 A 
ATOM     47  C   UNL A   1      42.157  30.875  30.738  1.00  0.00     0.049 A 
ATOM     48  H   UNL A   1      40.306  31.341  29.770  1.00  0.00     0.167 HD
ATOM     49  C   UNL A   1      42.920  24.876  28.224  1.00  0.00     0.037 A 
ATOM     50  C   UNL A   1      42.078  31.132  32.069  1.00  0.00     0.037 A 
ATOM     51  C   UNL A   1      43.870  25.613  29.084  1.00  0.00     0.049 A 
ATOM     52  C   UNL A   1      42.780  30.014  32.779  1.00  0.00     0.074 A 
ATOM     53  C   UNL A   1      44.909  26.496  28.842  1.00  0.00     0.029 A 
ATOM     54  N   UNL A   1      43.594  25.714  30.454  1.00  0.00    -0.354 N 
ATOM     55  N   UNL A   1      42.816  28.796  32.302  1.00  0.00    -0.248 NA
ATOM     56  C   UNL A   1      43.657  30.211  33.925  1.00  0.00     0.031 C 
ATOM     57  C   UNL A   1      45.200  27.176  30.064  1.00  0.00     0.029 A 
ATOM     58  C   UNL A   1      44.362  26.690  31.059  1.00  0.00     0.049 A 
ATOM     59  H   UNL A   1      42.934  25.157  30.928  1.00  0.00     0.167 HD
ATOM     60  C   UNL A   1      43.815  28.117  32.933  1.00  0.00     0.074 A 
ATOM     61  C   UNL A   1      44.263  29.012  33.988  1.00  0.00     0.031 C 
ATOM     62  C   UNL A   1      44.300  26.917  32.502  1.00  0.00     0.037 A 
BRANCH  49  63
ATOM     63  C   UNL A   1      43.348  23.842  27.189  1.00  0.00     0.064 A 
ATOM     64  C   UNL A   1      44.097  24.239  26.055  1.00  0.00     0.173 A 
ATOM     65  C   UNL A   1      43.007  22.471  27.192  1.00  0.00     0.173 A 
ATOM     66  F   UNL A   1      44.496  25.507  25.893  1.00  0.00    -0.203 F 
ATOM     67  C   UNL A   1      44.457  23.352  25.030  1.00  0.00     0.198 A 
ATOM     68  C   UNL A   1      43.396  21.578  26.185  1.00  0.00     0.198 A 
ATOM     69  F   UNL A   1      42.251  21.918  28.140  1.00  0.00    -0.203 F 
ATOM     70  F   UNL A   1      45.134  23.805  23.965  1.00  0.00    -0.200 F 
ATOM     71  C   UNL A   1      44.114  22.018  25.100  1.00  0.00     0.200 A 
ATOM     72  F   UNL A   1      43.047  20.286  26.277  1.00  0.00    -0.200 F 
ATOM     73  F   UNL A   1      44.461  21.168  24.125  1.00  0.00    -0.200 F 
ENDBRANCH  49  63
BRANCH  50  74
ATOM     74  C   UNL A   1      40.842  31.886  32.420  1.00  0.00     0.064 A 
ATOM     75  C   UNL A   1      40.757  33.212  31.934  1.00  0.00     0.173 A 
ATOM     76  C   UNL A   1      39.635  31.236  32.706  1.00  0.00     0.173 A 
ATOM     77  F   UNL A   1      41.879  33.887  31.635  1.00  0.00    -0.203 F 
ATOM     78  C   UNL A   1      39.533  33.786  31.587  1.00  0.00     0.198 A 
ATOM     79  C   UNL A   1      38.409  31.821  32.364  1.00  0.00     0.198 A 
ATOM     80  F   UNL A   1      39.638  29.980  33.173  1.00  0.00    -0.203 F 
ATOM     81  F   UNL A   1      39.502  34.972  30.959  1.00  0.00    -0.200 F 
ATOM     82  C   UNL A   1      38.364  33.068  31.756  1.00  0.00     0.200 A 
ATOM     83  F   UNL A   1      37.270  31.130  32.522  1.00  0.00    -0.200 F 
ATOM     84  F   UNL A   1      37.208  33.546  31.269  1.00  0.00    -0.200 F 
ENDBRANCH  50  74
BRANCH  62  85
ATOM     85  C   UNL A   1      44.843  25.874  33.444  1.00  0.00     0.064 A 
ATOM     86  C   UNL A   1      46.204  25.526  33.506  1.00  0.00     0.173 A 
ATOM     87  C   UNL A   1      44.029  25.334  34.467  1.00  0.00     0.173 A 
ATOM     88  F   UNL A   1      47.112  26.065  32.683  1.00  0.00    -0.203 F 
ATOM     89  C   UNL A   1      46.698  24.648  34.468  1.00  0.00     0.198 A 
ATOM     90  C   UNL A   1      44.542  24.519  35.470  1.00  0.00     0.198 A 
ATOM     91  F   UNL A   1      42.722  25.613  34.560  1.00  0.00    -0.203 F 
ATOM     92  F   UNL A   1      47.994  24.310  34.448  1.00  0.00    -0.200 F 
ATOM     93  C   UNL A   1      45.872  24.156  35.459  1.00  0.00     0.200 A 
ATOM     94  F   UNL A   1      43.741  24.108  36.465  1.00  0.00    -0.200 F 
ATOM     95  F   UNL A   1      46.362  23.356  36.413  1.00  0.00    -0.200 F 
ENDBRANCH  62  85
ENDBRANCH  36  37
ENDBRANCH  29  31
ENDBRANCH  28  29
ENDBRANCH  27  28
ENDBRANCH  26  27
ENDBRANCH   1  26
TORSDOF 18
ENDMDL
