MODEL 1
REMARK VINA RESULT:     -11.7      0.000      0.000
REMARK SMILES O=C(Cc1ccccc1Nc1c(Cl)cccc1C(F)(F)F)OCCOCCOC(=O)c1ccc(-c2c3nc(c(-c4c(F)c(F)c(F)c(F)c4F)c4ccc([nH]4)c(-c4c(F)c(F)c(F)c(F)c4F)c4nc(c(-c5c(F)c(F)c(F)c(F)c5F)c5ccc2[nH]5)C=C4)C=C3)cc1
REMARK SMILES IDX 24 1 23 2 22 3 2 4 1 5 3 6 4 7 5 8 9 9 6 10 8 11 7 12 10 13
REMARK SMILES IDX 11 15 12 16 17 17 13 18 14 19 16 20 15 21 18 22 19 23 20 24
REMARK SMILES IDX 21 25 25 26 26 27 27 28 28 29 29 30 30 31 31 32 32 33 93 34
REMARK SMILES IDX 33 35 92 36 34 37 35 38 36 39 86 40 37 41 91 42 85 43 87 44
REMARK SMILES IDX 38 45 90 46 84 47 83 48 39 50 71 51 51 52 70 53 52 54 55 55
REMARK SMILES IDX 69 56 88 57 53 58 54 59 68 61 89 62 56 63 40 64 41 65 49 66
REMARK SMILES IDX 42 67 43 68 47 69 50 70 44 71 45 72 48 73 46 74 72 75 73 76
REMARK SMILES IDX 81 77 74 78 75 79 79 80 82 81 76 82 77 83 80 84 78 85 57 86
REMARK SMILES IDX 58 87 66 88 59 89 60 90 64 91 67 92 61 93 62 94 65 95 63 96
REMARK H PARENT 10 14 87 49 55 60
REMARK Flexibility Score: inf
ROOT
ATOM      1  C   UNL A   1      34.363  22.462  27.366  1.00  0.00     0.202 C 
ENDROOT
BRANCH   1   2
ATOM      2  C   UNL A   1      32.931  22.244  27.842  1.00  0.00     0.261 C 
BRANCH   2   3
ATOM      3  O   UNL A   1      32.034  23.320  27.526  1.00  0.00    -0.463 OA
BRANCH   3   4
ATOM      4  C   UNL A   1      30.843  23.166  26.899  1.00  0.00     0.310 C 
ATOM      5  O   UNL A   1      29.811  23.109  27.566  1.00  0.00    -0.252 OA
BRANCH   4   6
ATOM      6  C   UNL A   1      30.803  22.988  25.398  1.00  0.00     0.160 C 
BRANCH   6   7
ATOM      7  C   UNL A   1      32.043  23.392  24.631  1.00  0.00    -0.013 A 
ATOM      8  C   UNL A   1      32.643  22.440  23.778  1.00  0.00     0.006 A 
ATOM      9  C   UNL A   1      32.618  24.681  24.757  1.00  0.00     0.042 A 
ATOM     10  C   UNL A   1      33.766  22.760  23.025  1.00  0.00     0.000 A 
ATOM     11  C   UNL A   1      33.795  24.943  24.042  1.00  0.00     0.026 A 
ATOM     12  C   UNL A   1      34.352  24.007  23.170  1.00  0.00     0.002 A 
BRANCH   9  13
ATOM     13  N   UNL A   1      31.977  25.698  25.504  1.00  0.00    -0.354 N 
ATOM     14  H   UNL A   1      31.759  25.450  26.432  1.00  0.00     0.167 HD
BRANCH  13  15
ATOM     15  C   UNL A   1      31.597  27.014  25.140  1.00  0.00     0.070 A 
ATOM     16  C   UNL A   1      32.499  28.069  25.433  1.00  0.00     0.065 A 
ATOM     17  C   UNL A   1      30.427  27.328  24.421  1.00  0.00     0.080 A 
ATOM     18  Cl  UNL A   1      33.909  27.777  26.400  1.00  0.00    -0.082 Cl
ATOM     19  C   UNL A   1      32.300  29.366  24.956  1.00  0.00     0.023 A 
ATOM     20  C   UNL A   1      30.259  28.641  23.919  1.00  0.00     0.015 A 
ATOM     21  C   UNL A   1      31.190  29.646  24.172  1.00  0.00     0.002 A 
BRANCH  17  22
ATOM     22  C   UNL A   1      29.293  26.358  24.178  1.00  0.00     0.418 C 
ATOM     23  F   UNL A   1      29.688  25.303  23.400  1.00  0.00    -0.166 F 
ATOM     24  F   UNL A   1      28.840  25.784  25.330  1.00  0.00    -0.166 F 
ATOM     25  F   UNL A   1      28.201  26.864  23.542  1.00  0.00    -0.166 F 
ENDBRANCH  17  22
ENDBRANCH  13  15
ENDBRANCH   9  13
ENDBRANCH   6   7
ENDBRANCH   4   6
ENDBRANCH   3   4
ENDBRANCH   2   3
ENDBRANCH   1   2
BRANCH   1  26
ATOM     26  O   UNL A   1      34.964  21.445  26.574  1.00  0.00    -0.374 OA
BRANCH  26  27
ATOM     27  C   UNL A   1      35.975  21.853  25.647  1.00  0.00     0.202 C 
BRANCH  27  28
ATOM     28  C   UNL A   1      37.100  20.853  25.352  1.00  0.00     0.261 C 
BRANCH  28  29
ATOM     29  O   UNL A   1      38.382  21.496  25.247  1.00  0.00    -0.460 OA
BRANCH  29  30
ATOM     30  C   UNL A   1      39.280  21.173  26.209  1.00  0.00     0.338 C 
ATOM     31  O   UNL A   1      39.684  20.061  26.508  1.00  0.00    -0.246 OA
BRANCH  30  32
ATOM     32  C   UNL A   1      39.895  22.416  26.711  1.00  0.00     0.060 A 
ATOM     33  C   UNL A   1      39.456  23.639  26.180  1.00  0.00     0.016 A 
ATOM     34  C   UNL A   1      40.891  22.380  27.687  1.00  0.00     0.016 A 
ATOM     35  C   UNL A   1      40.028  24.834  26.613  1.00  0.00     0.010 A 
ATOM     36  C   UNL A   1      41.474  23.575  28.105  1.00  0.00     0.010 A 
ATOM     37  C   UNL A   1      41.061  24.803  27.557  1.00  0.00    -0.014 A 
BRANCH  37  38
ATOM     38  C   UNL A   1      41.802  26.035  27.905  1.00  0.00     0.031 A 
ATOM     39  C   UNL A   1      41.076  27.131  28.628  1.00  0.00     0.074 A 
ATOM     40  C   UNL A   1      43.083  26.188  27.527  1.00  0.00     0.049 A 
ATOM     41  N   UNL A   1      41.460  28.355  28.881  1.00  0.00    -0.248 NA
ATOM     42  C   UNL A   1      39.728  26.809  29.124  1.00  0.00     0.031 C 
ATOM     43  C   UNL A   1      43.891  25.175  26.849  1.00  0.00     0.029 A 
ATOM     44  N   UNL A   1      43.918  27.274  27.626  1.00  0.00    -0.354 N 
ATOM     45  C   UNL A   1      40.394  28.955  29.538  1.00  0.00     0.074 A 
ATOM     46  C   UNL A   1      39.344  27.966  29.641  1.00  0.00     0.031 C 
ATOM     47  C   UNL A   1      45.093  25.700  26.558  1.00  0.00     0.029 A 
ATOM     48  C   UNL A   1      45.120  27.097  26.984  1.00  0.00     0.049 A 
ATOM     49  H   UNL A   1      43.679  28.097  28.109  1.00  0.00     0.167 HD
ATOM     50  C   UNL A   1      40.308  30.221  30.006  1.00  0.00     0.037 A 
ATOM     51  C   UNL A   1      46.103  27.982  26.726  1.00  0.00     0.037 A 
ATOM     52  C   UNL A   1      41.370  31.187  29.908  1.00  0.00     0.049 A 
ATOM     53  C   UNL A   1      45.949  29.405  27.203  1.00  0.00     0.074 A 
ATOM     54  C   UNL A   1      41.408  32.476  30.409  1.00  0.00     0.029 A 
ATOM     55  N   UNL A   1      42.573  30.974  29.253  1.00  0.00    -0.354 N 
ATOM     56  N   UNL A   1      44.965  29.952  27.876  1.00  0.00    -0.248 NA
ATOM     57  C   UNL A   1      47.039  30.336  26.880  1.00  0.00     0.031 C 
ATOM     58  C   UNL A   1      42.605  33.068  29.995  1.00  0.00     0.029 A 
ATOM     59  C   UNL A   1      43.341  32.126  29.295  1.00  0.00     0.049 A 
ATOM     60  H   UNL A   1      42.842  30.130  28.823  1.00  0.00     0.167 HD
ATOM     61  C   UNL A   1      45.327  31.279  28.076  1.00  0.00     0.074 A 
ATOM     62  C   UNL A   1      46.632  31.448  27.474  1.00  0.00     0.031 C 
ATOM     63  C   UNL A   1      44.642  32.271  28.695  1.00  0.00     0.037 A 
BRANCH  50  64
ATOM     64  C   UNL A   1      39.020  30.661  30.634  1.00  0.00     0.064 A 
ATOM     65  C   UNL A   1      37.917  31.057  29.866  1.00  0.00     0.173 A 
ATOM     66  C   UNL A   1      38.861  30.593  32.028  1.00  0.00     0.173 A 
ATOM     67  F   UNL A   1      38.020  31.150  28.531  1.00  0.00    -0.203 F 
ATOM     68  C   UNL A   1      36.702  31.375  30.470  1.00  0.00     0.198 A 
ATOM     69  C   UNL A   1      37.639  30.884  32.625  1.00  0.00     0.198 A 
ATOM     70  F   UNL A   1      39.886  30.217  32.807  1.00  0.00    -0.203 F 
ATOM     71  F   UNL A   1      35.666  31.774  29.719  1.00  0.00    -0.200 F 
ATOM     72  C   UNL A   1      36.560  31.275  31.846  1.00  0.00     0.200 A 
ATOM     73  F   UNL A   1      37.500  30.772  33.953  1.00  0.00    -0.200 F 
ATOM     74  F   UNL A   1      35.384  31.555  32.423  1.00  0.00    -0.200 F 
ENDBRANCH  50  64
BRANCH  51  75
ATOM     75  C   UNL A   1      47.292  27.576  25.930  1.00  0.00     0.064 A 
ATOM     76  C   UNL A   1      48.476  27.157  26.554  1.00  0.00     0.173 A 
ATOM     77  C   UNL A   1      47.290  27.652  24.528  1.00  0.00     0.173 A 
ATOM     78  F   UNL A   1      48.539  27.093  27.892  1.00  0.00    -0.203 F 
ATOM     79  C   UNL A   1      49.619  26.867  25.811  1.00  0.00     0.198 A 
ATOM     80  C   UNL A   1      48.422  27.324  23.784  1.00  0.00     0.198 A 
ATOM     81  F   UNL A   1      46.187  28.048  23.877  1.00  0.00    -0.203 F 
ATOM     82  F   UNL A   1      50.757  26.539  26.438  1.00  0.00    -0.200 F 
ATOM     83  C   UNL A   1      49.590  26.946  24.427  1.00  0.00     0.200 A 
ATOM     84  F   UNL A   1      48.385  27.391  22.446  1.00  0.00    -0.200 F 
ATOM     85  F   UNL A   1      50.692  26.674  23.714  1.00  0.00    -0.200 F 
ENDBRANCH  51  75
BRANCH  63  86
ATOM     86  C   UNL A   1      45.296  33.620  28.778  1.00  0.00     0.064 A 
ATOM     87  C   UNL A   1      46.169  33.949  29.826  1.00  0.00     0.173 A 
ATOM     88  C   UNL A   1      45.095  34.571  27.767  1.00  0.00     0.173 A 
ATOM     89  F   UNL A   1      46.384  33.080  30.825  1.00  0.00    -0.203 F 
ATOM     90  C   UNL A   1      46.799  35.190  29.867  1.00  0.00     0.198 A 
ATOM     91  C   UNL A   1      45.753  35.797  27.793  1.00  0.00     0.198 A 
ATOM     92  F   UNL A   1      44.276  34.302  26.738  1.00  0.00    -0.203 F 
ATOM     93  F   UNL A   1      47.594  35.501  30.901  1.00  0.00    -0.200 F 
ATOM     94  C   UNL A   1      46.600  36.108  28.847  1.00  0.00     0.200 A 
ATOM     95  F   UNL A   1      45.574  36.675  26.796  1.00  0.00    -0.200 F 
ATOM     96  F   UNL A   1      47.219  37.295  28.881  1.00  0.00    -0.200 F 
ENDBRANCH  63  86
ENDBRANCH  37  38
ENDBRANCH  30  32
ENDBRANCH  29  30
ENDBRANCH  28  29
ENDBRANCH  27  28
ENDBRANCH  26  27
ENDBRANCH   1  26
TORSDOF 18
ENDMDL
MODEL 2
REMARK VINA RESULT:     -11.4      0.791      2.084
REMARK SMILES O=C(Cc1ccccc1Nc1c(Cl)cccc1C(F)(F)F)OCCOCCOC(=O)c1ccc(-c2c3nc(c(-c4c(F)c(F)c(F)c(F)c4F)c4ccc([nH]4)c(-c4c(F)c(F)c(F)c(F)c4F)c4nc(c(-c5c(F)c(F)c(F)c(F)c5F)c5ccc2[nH]5)C=C4)C=C3)cc1
REMARK SMILES IDX 24 1 23 2 22 3 2 4 1 5 3 6 4 7 5 8 9 9 6 10 8 11 7 12 10 13
REMARK SMILES IDX 11 15 12 16 17 17 13 18 14 19 16 20 15 21 18 22 19 23 20 24
REMARK SMILES IDX 21 25 25 26 26 27 27 28 28 29 29 30 30 31 31 32 32 33 93 34
REMARK SMILES IDX 33 35 92 36 34 37 35 38 36 39 86 40 37 41 91 42 85 43 87 44
REMARK SMILES IDX 38 45 90 46 84 47 83 48 39 50 71 51 51 52 70 53 52 54 55 55
REMARK SMILES IDX 69 56 88 57 53 58 54 59 68 61 89 62 56 63 40 64 41 65 49 66
REMARK SMILES IDX 42 67 43 68 47 69 50 70 44 71 45 72 48 73 46 74 72 75 73 76
REMARK SMILES IDX 81 77 74 78 75 79 79 80 82 81 76 82 77 83 80 84 78 85 57 86
REMARK SMILES IDX 58 87 66 88 59 89 60 90 64 91 67 92 61 93 62 94 65 95 63 96
REMARK H PARENT 10 14 87 49 55 60
REMARK Flexibility Score: inf
ROOT
ATOM      1  C   UNL A   1      34.263  22.183  26.619  1.00  0.00     0.202 C 
ENDROOT
BRANCH   1   2
ATOM      2  C   UNL A   1      33.199  21.855  27.660  1.00  0.00     0.261 C 
BRANCH   2   3
ATOM      3  O   UNL A   1      32.178  22.857  27.797  1.00  0.00    -0.463 OA
BRANCH   3   4
ATOM      4  C   UNL A   1      31.890  23.789  26.857  1.00  0.00     0.310 C 
ATOM      5  O   UNL A   1      32.218  24.960  27.045  1.00  0.00    -0.252 OA
BRANCH   4   6
ATOM      6  C   UNL A   1      31.101  23.396  25.629  1.00  0.00     0.160 C 
BRANCH   6   7
ATOM      7  C   UNL A   1      31.842  23.413  24.309  1.00  0.00    -0.013 A 
ATOM      8  C   UNL A   1      32.019  22.191  23.624  1.00  0.00     0.006 A 
ATOM      9  C   UNL A   1      32.369  24.607  23.759  1.00  0.00     0.042 A 
ATOM     10  C   UNL A   1      32.665  22.145  22.396  1.00  0.00     0.000 A 
ATOM     11  C   UNL A   1      33.083  24.512  22.556  1.00  0.00     0.026 A 
ATOM     12  C   UNL A   1      33.212  23.304  21.869  1.00  0.00     0.002 A 
BRANCH   9  13
ATOM     13  N   UNL A   1      32.105  25.865  24.352  1.00  0.00    -0.354 N 
ATOM     14  H   UNL A   1      32.369  25.935  25.298  1.00  0.00     0.167 HD
BRANCH  13  15
ATOM     15  C   UNL A   1      31.525  27.040  23.812  1.00  0.00     0.070 A 
ATOM     16  C   UNL A   1      32.397  28.082  23.404  1.00  0.00     0.065 A 
ATOM     17  C   UNL A   1      30.147  27.199  23.565  1.00  0.00     0.080 A 
ATOM     18  Cl  UNL A   1      34.091  28.002  23.764  1.00  0.00    -0.082 Cl
ATOM     19  C   UNL A   1      31.938  29.196  22.699  1.00  0.00     0.023 A 
ATOM     20  C   UNL A   1      29.705  28.320  22.821  1.00  0.00     0.015 A 
ATOM     21  C   UNL A   1      30.591  29.301  22.381  1.00  0.00     0.002 A 
BRANCH  17  22
ATOM     22  C   UNL A   1      29.077  26.266  24.085  1.00  0.00     0.418 C 
ATOM     23  F   UNL A   1      29.127  25.046  23.467  1.00  0.00    -0.166 F 
ATOM     24  F   UNL A   1      29.228  25.985  25.412  1.00  0.00    -0.166 F 
ATOM     25  F   UNL A   1      27.792  26.682  23.922  1.00  0.00    -0.166 F 
ENDBRANCH  17  22
ENDBRANCH  13  15
ENDBRANCH   9  13
ENDBRANCH   6   7
ENDBRANCH   4   6
ENDBRANCH   3   4
ENDBRANCH   2   3
ENDBRANCH   1   2
BRANCH   1  26
ATOM     26  O   UNL A   1      34.568  21.193  25.644  1.00  0.00    -0.374 OA
BRANCH  26  27
ATOM     27  C   UNL A   1      35.636  21.481  24.736  1.00  0.00     0.202 C 
BRANCH  27  28
ATOM     28  C   UNL A   1      36.979  20.784  24.991  1.00  0.00     0.261 C 
BRANCH  28  29
ATOM     29  O   UNL A   1      38.052  21.726  25.165  1.00  0.00    -0.460 OA
BRANCH  29  30
ATOM     30  C   UNL A   1      39.025  21.351  26.031  1.00  0.00     0.338 C 
ATOM     31  O   UNL A   1      39.479  20.232  26.201  1.00  0.00    -0.246 OA
BRANCH  30  32
ATOM     32  C   UNL A   1      39.639  22.566  26.598  1.00  0.00     0.060 A 
ATOM     33  C   UNL A   1      39.142  23.815  26.196  1.00  0.00     0.016 A 
ATOM     34  C   UNL A   1      40.691  22.479  27.510  1.00  0.00     0.016 A 
ATOM     35  C   UNL A   1      39.710  24.986  26.693  1.00  0.00     0.010 A 
ATOM     36  C   UNL A   1      41.270  23.651  27.992  1.00  0.00     0.010 A 
ATOM     37  C   UNL A   1      40.797  24.908  27.571  1.00  0.00    -0.014 A 
BRANCH  37  38
ATOM     38  C   UNL A   1      41.529  26.127  27.977  1.00  0.00     0.031 A 
ATOM     39  C   UNL A   1      40.782  27.206  28.706  1.00  0.00     0.074 A 
ATOM     40  C   UNL A   1      42.822  26.287  27.645  1.00  0.00     0.049 A 
ATOM     41  N   UNL A   1      41.160  28.422  29.004  1.00  0.00    -0.248 NA
ATOM     42  C   UNL A   1      39.417  26.874  29.148  1.00  0.00     0.031 C 
ATOM     43  C   UNL A   1      43.650  25.290  26.968  1.00  0.00     0.029 A 
ATOM     44  N   UNL A   1      43.655  27.368  27.802  1.00  0.00    -0.354 N 
ATOM     45  C   UNL A   1      40.074  29.006  29.642  1.00  0.00     0.074 A 
ATOM     46  C   UNL A   1      39.018  28.018  29.683  1.00  0.00     0.031 C 
ATOM     47  C   UNL A   1      44.862  25.819  26.731  1.00  0.00     0.029 A 
ATOM     48  C   UNL A   1      44.877  27.204  27.195  1.00  0.00     0.049 A 
ATOM     49  H   UNL A   1      43.402  28.178  28.299  1.00  0.00     0.167 HD
ATOM     50  C   UNL A   1      39.975  30.260  30.141  1.00  0.00     0.037 A 
ATOM     51  C   UNL A   1      45.871  28.093  26.995  1.00  0.00     0.037 A 
ATOM     52  C   UNL A   1      41.041  31.225  30.105  1.00  0.00     0.049 A 
ATOM     53  C   UNL A   1      45.704  29.503  27.505  1.00  0.00     0.074 A 
ATOM     54  C   UNL A   1      41.066  32.499  30.642  1.00  0.00     0.029 A 
ATOM     55  N   UNL A   1      42.265  31.026  29.484  1.00  0.00    -0.354 N 
ATOM     56  N   UNL A   1      44.699  30.035  28.160  1.00  0.00    -0.248 NA
ATOM     57  C   UNL A   1      46.806  30.440  27.243  1.00  0.00     0.031 C 
ATOM     58  C   UNL A   1      42.276  33.099  30.284  1.00  0.00     0.029 A 
ATOM     59  C   UNL A   1      43.033  32.174  29.583  1.00  0.00     0.049 A 
ATOM     60  H   UNL A   1      42.546  30.193  29.041  1.00  0.00     0.167 HD
ATOM     61  C   UNL A   1      45.057  31.355  28.407  1.00  0.00     0.074 A 
ATOM     62  C   UNL A   1      46.382  31.537  27.854  1.00  0.00     0.031 C 
ATOM     63  C   UNL A   1      44.354  32.331  29.030  1.00  0.00     0.037 A 
BRANCH  50  64
ATOM     64  C   UNL A   1      38.668  30.686  30.738  1.00  0.00     0.064 A 
ATOM     65  C   UNL A   1      38.442  30.669  32.121  1.00  0.00     0.173 A 
ATOM     66  C   UNL A   1      37.658  31.208  29.913  1.00  0.00     0.173 A 
ATOM     67  F   UNL A   1      39.370  30.169  32.951  1.00  0.00    -0.203 F 
ATOM     68  C   UNL A   1      37.252  31.154  32.658  1.00  0.00     0.198 A 
ATOM     69  C   UNL A   1      36.482  31.717  30.455  1.00  0.00     0.198 A 
ATOM     70  F   UNL A   1      37.825  31.248  28.583  1.00  0.00    -0.203 F 
ATOM     71  F   UNL A   1      37.047  31.108  33.981  1.00  0.00    -0.200 F 
ATOM     72  C   UNL A   1      36.279  31.690  31.826  1.00  0.00     0.200 A 
ATOM     73  F   UNL A   1      35.550  32.248  29.650  1.00  0.00    -0.200 F 
ATOM     74  F   UNL A   1      35.146  32.181  32.346  1.00  0.00    -0.200 F 
ENDBRANCH  50  64
BRANCH  51  75
ATOM     75  C   UNL A   1      47.085  27.706  26.227  1.00  0.00     0.064 A 
ATOM     76  C   UNL A   1      47.107  27.760  24.826  1.00  0.00     0.173 A 
ATOM     77  C   UNL A   1      48.231  27.217  26.875  1.00  0.00     0.173 A 
ATOM     78  F   UNL A   1      46.028  28.194  24.157  1.00  0.00    -0.203 F 
ATOM     79  C   UNL A   1      48.210  27.309  24.104  1.00  0.00     0.198 A 
ATOM     80  C   UNL A   1      49.348  26.801  26.153  1.00  0.00     0.198 A 
ATOM     81  F   UNL A   1      48.265  27.140  28.213  1.00  0.00    -0.203 F 
ATOM     82  F   UNL A   1      48.174  27.306  22.764  1.00  0.00    -0.200 F 
ATOM     83  C   UNL A   1      49.331  26.834  24.767  1.00  0.00     0.200 A 
ATOM     84  F   UNL A   1      50.433  26.355  26.800  1.00  0.00    -0.200 F 
ATOM     85  F   UNL A   1      50.388  26.393  24.072  1.00  0.00    -0.200 F 
ENDBRANCH  51  75
BRANCH  63  86
ATOM     86  C   UNL A   1      45.008  33.676  29.172  1.00  0.00     0.064 A 
ATOM     87  C   UNL A   1      44.813  34.690  28.223  1.00  0.00     0.173 A 
ATOM     88  C   UNL A   1      45.790  33.971  30.299  1.00  0.00     0.173 A 
ATOM     89  F   UNL A   1      44.086  34.454  27.120  1.00  0.00    -0.203 F 
ATOM     90  C   UNL A   1      45.393  35.945  28.388  1.00  0.00     0.198 A 
ATOM     91  C   UNL A   1      46.340  35.237  30.478  1.00  0.00     0.198 A 
ATOM     92  F   UNL A   1      46.001  33.038  31.239  1.00  0.00    -0.203 F 
ATOM     93  F   UNL A   1      45.230  36.885  27.448  1.00  0.00    -0.200 F 
ATOM     94  C   UNL A   1      46.147  36.220  29.520  1.00  0.00     0.200 A 
ATOM     95  F   UNL A   1      47.052  35.506  31.581  1.00  0.00    -0.200 F 
ATOM     96  F   UNL A   1      46.692  37.433  29.684  1.00  0.00    -0.200 F 
ENDBRANCH  63  86
ENDBRANCH  37  38
ENDBRANCH  30  32
ENDBRANCH  29  30
ENDBRANCH  28  29
ENDBRANCH  27  28
ENDBRANCH  26  27
ENDBRANCH   1  26
TORSDOF 18
ENDMDL
MODEL 3
REMARK VINA RESULT:     -11.4      2.179      3.599
REMARK SMILES O=C(Cc1ccccc1Nc1c(Cl)cccc1C(F)(F)F)OCCOCCOC(=O)c1ccc(-c2c3nc(c(-c4c(F)c(F)c(F)c(F)c4F)c4ccc([nH]4)c(-c4c(F)c(F)c(F)c(F)c4F)c4nc(c(-c5c(F)c(F)c(F)c(F)c5F)c5ccc2[nH]5)C=C4)C=C3)cc1
REMARK SMILES IDX 24 1 23 2 22 3 2 4 1 5 3 6 4 7 5 8 9 9 6 10 8 11 7 12 10 13
REMARK SMILES IDX 11 15 12 16 17 17 13 18 14 19 16 20 15 21 18 22 19 23 20 24
REMARK SMILES IDX 21 25 25 26 26 27 27 28 28 29 29 30 30 31 31 32 32 33 93 34
REMARK SMILES IDX 33 35 92 36 34 37 35 38 36 39 86 40 37 41 91 42 85 43 87 44
REMARK SMILES IDX 38 45 90 46 84 47 83 48 39 50 71 51 51 52 70 53 52 54 55 55
REMARK SMILES IDX 69 56 88 57 53 58 54 59 68 61 89 62 56 63 40 64 41 65 49 66
REMARK SMILES IDX 42 67 43 68 47 69 50 70 44 71 45 72 48 73 46 74 72 75 73 76
REMARK SMILES IDX 81 77 74 78 75 79 79 80 82 81 76 82 77 83 80 84 78 85 57 86
REMARK SMILES IDX 58 87 66 88 59 89 60 90 64 91 67 92 61 93 62 94 65 95 63 96
REMARK H PARENT 10 14 87 49 55 60
REMARK Flexibility Score: inf
ROOT
ATOM      1  C   UNL A   1      37.727  23.396  25.533  1.00  0.00     0.202 C 
ENDROOT
BRANCH   1   2
ATOM      2  C   UNL A   1      36.780  22.984  24.410  1.00  0.00     0.261 C 
BRANCH   2   3
ATOM      3  O   UNL A   1      35.388  23.042  24.762  1.00  0.00    -0.463 OA
BRANCH   3   4
ATOM      4  C   UNL A   1      34.830  22.362  25.791  1.00  0.00     0.310 C 
ATOM      5  O   UNL A   1      34.836  21.132  25.778  1.00  0.00    -0.252 OA
BRANCH   4   6
ATOM      6  C   UNL A   1      34.138  23.119  26.903  1.00  0.00     0.160 C 
BRANCH   6   7
ATOM      7  C   UNL A   1      32.740  23.622  26.617  1.00  0.00    -0.013 A 
ATOM      8  C   UNL A   1      31.646  22.861  27.081  1.00  0.00     0.006 A 
ATOM      9  C   UNL A   1      32.505  24.816  25.891  1.00  0.00     0.042 A 
ATOM     10  C   UNL A   1      30.339  23.284  26.876  1.00  0.00     0.000 A 
ATOM     11  C   UNL A   1      31.174  25.172  25.634  1.00  0.00     0.026 A 
ATOM     12  C   UNL A   1      30.102  24.432  26.137  1.00  0.00     0.002 A 
BRANCH   9  13
ATOM     13  N   UNL A   1      33.573  25.668  25.518  1.00  0.00    -0.354 N 
ATOM     14  H   UNL A   1      34.446  25.421  25.900  1.00  0.00     0.167 HD
BRANCH  13  15
ATOM     15  C   UNL A   1      33.595  26.815  24.686  1.00  0.00     0.070 A 
ATOM     16  C   UNL A   1      33.644  26.614  23.283  1.00  0.00     0.065 A 
ATOM     17  C   UNL A   1      33.472  28.136  25.159  1.00  0.00     0.080 A 
ATOM     18  Cl  UNL A   1      33.895  25.028  22.629  1.00  0.00    -0.082 Cl
ATOM     19  C   UNL A   1      33.488  27.668  22.380  1.00  0.00     0.023 A 
ATOM     20  C   UNL A   1      33.282  29.186  24.228  1.00  0.00     0.015 A 
ATOM     21  C   UNL A   1      33.277  28.954  22.855  1.00  0.00     0.002 A 
BRANCH  17  22
ATOM     22  C   UNL A   1      33.574  28.530  26.616  1.00  0.00     0.418 C 
ATOM     23  F   UNL A   1      33.459  29.884  26.782  1.00  0.00    -0.166 F 
ATOM     24  F   UNL A   1      32.567  28.005  27.371  1.00  0.00    -0.166 F 
ATOM     25  F   UNL A   1      34.738  28.204  27.241  1.00  0.00    -0.166 F 
ENDBRANCH  17  22
ENDBRANCH  13  15
ENDBRANCH   9  13
ENDBRANCH   6   7
ENDBRANCH   4   6
ENDBRANCH   3   4
ENDBRANCH   2   3
ENDBRANCH   1   2
BRANCH   1  26
ATOM     26  O   UNL A   1      38.691  22.446  25.973  1.00  0.00    -0.374 OA
BRANCH  26  27
ATOM     27  C   UNL A   1      38.595  21.124  25.434  1.00  0.00     0.202 C 
BRANCH  27  28
ATOM     28  C   UNL A   1      39.424  20.028  26.115  1.00  0.00     0.261 C 
BRANCH  28  29
ATOM     29  O   UNL A   1      40.540  19.614  25.309  1.00  0.00    -0.460 OA
BRANCH  29  30
ATOM     30  C   UNL A   1      41.688  19.358  25.983  1.00  0.00     0.338 C 
ATOM     31  O   UNL A   1      42.248  18.282  26.118  1.00  0.00    -0.246 OA
BRANCH  30  32
ATOM     32  C   UNL A   1      42.309  20.643  26.353  1.00  0.00     0.060 A 
ATOM     33  C   UNL A   1      42.456  20.944  27.716  1.00  0.00     0.016 A 
ATOM     34  C   UNL A   1      42.738  21.541  25.375  1.00  0.00     0.016 A 
ATOM     35  C   UNL A   1      43.019  22.158  28.106  1.00  0.00     0.010 A 
ATOM     36  C   UNL A   1      43.283  22.762  25.767  1.00  0.00     0.010 A 
ATOM     37  C   UNL A   1      43.408  23.084  27.132  1.00  0.00    -0.014 A 
BRANCH  37  38
ATOM     38  C   UNL A   1      43.845  24.445  27.514  1.00  0.00     0.031 A 
ATOM     39  C   UNL A   1      42.803  25.449  27.914  1.00  0.00     0.074 A 
ATOM     40  C   UNL A   1      45.143  24.788  27.445  1.00  0.00     0.049 A 
ATOM     41  N   UNL A   1      42.924  26.735  28.117  1.00  0.00    -0.248 NA
ATOM     42  C   UNL A   1      41.435  24.936  28.098  1.00  0.00     0.031 C 
ATOM     43  C   UNL A   1      46.238  23.883  27.100  1.00  0.00     0.029 A 
ATOM     44  N   UNL A   1      45.754  26.004  27.625  1.00  0.00    -0.354 N 
ATOM     45  C   UNL A   1      41.648  27.188  28.425  1.00  0.00     0.074 A 
ATOM     46  C   UNL A   1      40.764  26.044  28.376  1.00  0.00     0.031 C 
ATOM     47  C   UNL A   1      47.384  24.583  27.055  1.00  0.00     0.029 A 
ATOM     48  C   UNL A   1      47.094  25.990  27.319  1.00  0.00     0.049 A 
ATOM     49  H   UNL A   1      45.280  26.806  27.943  1.00  0.00     0.167 HD
ATOM     50  C   UNL A   1      41.259  28.450  28.716  1.00  0.00     0.037 A 
ATOM     51  C   UNL A   1      47.969  27.011  27.214  1.00  0.00     0.037 A 
ATOM     52  C   UNL A   1      42.155  29.573  28.776  1.00  0.00     0.049 A 
ATOM     53  C   UNL A   1      47.489  28.416  27.481  1.00  0.00     0.074 A 
ATOM     54  C   UNL A   1      41.873  30.881  29.127  1.00  0.00     0.029 A 
ATOM     55  N   UNL A   1      43.505  29.524  28.461  1.00  0.00    -0.354 N 
ATOM     56  N   UNL A   1      46.294  28.832  27.829  1.00  0.00    -0.248 NA
ATOM     57  C   UNL A   1      48.476  29.495  27.333  1.00  0.00     0.031 C 
ATOM     58  C   UNL A   1      43.035  31.639  28.955  1.00  0.00     0.029 A 
ATOM     59  C   UNL A   1      44.057  30.790  28.563  1.00  0.00     0.049 A 
ATOM     60  H   UNL A   1      43.997  28.710  28.205  1.00  0.00     0.167 HD
ATOM     61  C   UNL A   1      46.393  30.212  27.965  1.00  0.00     0.074 A 
ATOM     62  C   UNL A   1      47.770  30.559  27.685  1.00  0.00     0.031 C 
ATOM     63  C   UNL A   1      45.434  31.112  28.286  1.00  0.00     0.037 A 
BRANCH  50  64
ATOM     64  C   UNL A   1      39.802  28.705  28.959  1.00  0.00     0.064 A 
ATOM     65  C   UNL A   1      39.222  28.552  30.226  1.00  0.00     0.173 A 
ATOM     66  C   UNL A   1      38.995  29.203  27.923  1.00  0.00     0.173 A 
ATOM     67  F   UNL A   1      39.947  28.069  31.247  1.00  0.00    -0.203 F 
ATOM     68  C   UNL A   1      37.887  28.883  30.447  1.00  0.00     0.198 A 
ATOM     69  C   UNL A   1      37.670  29.558  28.153  1.00  0.00     0.198 A 
ATOM     70  F   UNL A   1      39.503  29.370  26.693  1.00  0.00    -0.203 F 
ATOM     71  F   UNL A   1      37.346  28.707  31.660  1.00  0.00    -0.200 F 
ATOM     72  C   UNL A   1      37.117  29.397  29.414  1.00  0.00     0.200 A 
ATOM     73  F   UNL A   1      36.932  30.069  27.158  1.00  0.00    -0.200 F 
ATOM     74  F   UNL A   1      35.840  29.739  29.635  1.00  0.00    -0.200 F 
ENDBRANCH  50  64
BRANCH  51  75
ATOM     75  C   UNL A   1      49.370  26.759  26.781  1.00  0.00     0.064 A 
ATOM     76  C   UNL A   1      49.718  26.742  25.423  1.00  0.00     0.173 A 
ATOM     77  C   UNL A   1      50.380  26.474  27.713  1.00  0.00     0.173 A 
ATOM     78  F   UNL A   1      48.784  26.981  24.490  1.00  0.00    -0.203 F 
ATOM     79  C   UNL A   1      51.009  26.414  25.014  1.00  0.00     0.198 A 
ATOM     80  C   UNL A   1      51.680  26.184  27.304  1.00  0.00     0.198 A 
ATOM     81  F   UNL A   1      50.104  26.474  29.025  1.00  0.00    -0.203 F 
ATOM     82  F   UNL A   1      51.295  26.335  23.707  1.00  0.00    -0.200 F 
ATOM     83  C   UNL A   1      51.991  26.140  25.954  1.00  0.00     0.200 A 
ATOM     84  F   UNL A   1      52.628  25.932  28.218  1.00  0.00    -0.200 F 
ATOM     85  F   UNL A   1      53.229  25.817  25.559  1.00  0.00    -0.200 F 
ENDBRANCH  51  75
BRANCH  63  86
ATOM     86  C   UNL A   1      45.838  32.556  28.378  1.00  0.00     0.064 A 
ATOM     87  C   UNL A   1      45.728  33.420  27.279  1.00  0.00     0.173 A 
ATOM     88  C   UNL A   1      46.284  33.093  29.595  1.00  0.00     0.173 A 
ATOM     89  F   UNL A   1      45.320  32.953  26.089  1.00  0.00    -0.203 F 
ATOM     90  C   UNL A   1      46.069  34.765  27.391  1.00  0.00     0.198 A 
ATOM     91  C   UNL A   1      46.591  34.445  29.713  1.00  0.00     0.198 A 
ATOM     92  F   UNL A   1      46.399  32.310  30.679  1.00  0.00    -0.203 F 
ATOM     93  F   UNL A   1      45.999  35.564  26.317  1.00  0.00    -0.200 F 
ATOM     94  C   UNL A   1      46.489  35.279  28.609  1.00  0.00     0.200 A 
ATOM     95  F   UNL A   1      46.978  34.943  30.895  1.00  0.00    -0.200 F 
ATOM     96  F   UNL A   1      46.802  36.577  28.719  1.00  0.00    -0.200 F 
ENDBRANCH  63  86
ENDBRANCH  37  38
ENDBRANCH  30  32
ENDBRANCH  29  30
ENDBRANCH  28  29
ENDBRANCH  27  28
ENDBRANCH  26  27
ENDBRANCH   1  26
TORSDOF 18
ENDMDL
