MODEL 1
REMARK VINA RESULT:     -11.8      0.000      0.000
REMARK SMILES CCCN1C(=O)/C(=C\c2ccc(OC)c(OC)c2C(=O)OCCOCCOC(=O)c2ccc(-c3c4nc(c(-c5c(F)c(F)c(F)c(F)c5F)c5ccc([nH]5)c(-c5c(F)c(F)c(F)c(F)c5F)c5nc(c(-c6c(F)c(F)c(F)c(F)c6F)c6ccc3[nH]6)C=C5)C=C4)cc2)S/C1=[NH+]\c1nccs1
REMARK SMILES IDX 23 1 22 2 21 3 19 4 20 5 18 6 9 7 10 8 11 9 15 10 12 11 8 12
REMARK SMILES IDX 4 13 5 14 94 15 6 16 7 17 93 18 95 19 3 21 2 22 1 23 96 24
REMARK SMILES IDX 97 25 100 26 98 27 99 28 16 29 17 30 13 31 14 32 24 33 25 34
REMARK SMILES IDX 26 35 27 36 28 37 29 38 30 39 31 40 92 41 32 42 91 43 33 44
REMARK SMILES IDX 34 45 35 46 85 47 36 48 90 49 84 50 86 51 37 52 89 53 83 54
REMARK SMILES IDX 82 55 38 57 70 58 50 59 69 60 51 61 54 62 68 63 87 64 52 65
REMARK SMILES IDX 53 66 67 68 88 69 55 70 39 71 40 72 48 73 41 74 42 75 46 76
REMARK SMILES IDX 49 77 43 78 44 79 47 80 45 81 71 82 72 83 80 84 73 85 74 86
REMARK SMILES IDX 78 87 81 88 75 89 76 90 79 91 77 92 56 93 57 94 65 95 58 96
REMARK SMILES IDX 59 97 63 98 66 99 60 100 61 101 64 102 62 103
REMARK H PARENT 95 20 86 56 54 67
REMARK Flexibility Score: inf
ROOT
ATOM      1  C   UNL A   1      31.638  27.569  27.444  1.00  0.00     0.202 C 
ENDROOT
BRANCH   1   2
ATOM      2  C   UNL A   1      31.749  26.677  26.204  1.00  0.00     0.261 C 
BRANCH   2   3
ATOM      3  O   UNL A   1      32.447  25.451  26.456  1.00  0.00    -0.460 OA
BRANCH   3   4
ATOM      4  C   UNL A   1      31.660  24.347  26.461  1.00  0.00     0.342 C 
ATOM      5  O   UNL A   1      30.731  24.145  27.222  1.00  0.00    -0.246 OA
BRANCH   4   6
ATOM      6  C   UNL A   1      32.068  23.365  25.431  1.00  0.00     0.113 A 
ATOM      7  C   UNL A   1      31.676  23.559  24.079  1.00  0.00    -0.006 A 
ATOM      8  C   UNL A   1      32.235  22.741  23.092  1.00  0.00     0.013 A 
ATOM      9  C   UNL A   1      33.155  21.749  23.439  1.00  0.00     0.051 A 
ATOM     10  C   UNL A   1      32.922  22.292  25.791  1.00  0.00     0.175 A 
ATOM     11  C   UNL A   1      33.493  21.505  24.775  1.00  0.00     0.161 A 
BRANCH   7  12
ATOM     12  C   UNL A   1      30.612  24.505  23.675  1.00  0.00     0.032 C 
ATOM     13  N   UNL A   1      32.117  27.489  22.408  1.00  0.00    -0.219 N 
ATOM     14  C   UNL A   1      32.092  26.115  22.445  1.00  0.00     0.321 C 
ATOM     15  C   UNL A   1      30.939  28.145  22.692  1.00  0.00     0.271 C 
ATOM     16  O   UNL A   1      32.955  25.353  22.037  1.00  0.00    -0.250 OA
ATOM     17  C   UNL A   1      30.807  25.665  23.032  1.00  0.00     0.100 C 
ATOM     18  S   UNL A   1      29.675  26.972  23.006  1.00  0.00    -0.012 SA
ATOM     19  N   UNL A   1      30.892  29.432  22.669  1.00  0.00    -0.228 N 
ATOM     20  H   UNL A   1      31.710  29.935  22.452  1.00  0.00     0.268 HD
BRANCH  13  21
ATOM     21  C   UNL A   1      33.341  28.195  22.047  1.00  0.00     0.206 C 
BRANCH  21  22
ATOM     22  C   UNL A   1      33.983  28.892  23.251  1.00  0.00     0.035 C 
ATOM     23  C   UNL A   1      34.262  27.936  24.402  1.00  0.00     0.007 C 
ENDBRANCH  21  22
ENDBRANCH  13  21
BRANCH  19  24
ATOM     24  C   UNL A   1      29.758  30.113  22.931  1.00  0.00     0.319 A 
ATOM     25  N   UNL A   1      29.477  30.860  23.979  1.00  0.00    -0.101 NA
ATOM     26  S   UNL A   1      28.586  30.209  21.653  1.00  0.00    -0.070 S 
ATOM     27  C   UNL A   1      28.312  31.576  23.755  1.00  0.00     0.219 A 
ATOM     28  C   UNL A   1      27.688  31.351  22.550  1.00  0.00     0.110 A 
ENDBRANCH  19  24
ENDBRANCH   7  12
BRANCH  10  29
ATOM     29  O   UNL A   1      32.957  21.769  27.065  1.00  0.00    -0.492 OA
ATOM     30  C   UNL A   1      33.987  22.233  27.933  1.00  0.00     0.278 C 
ENDBRANCH  10  29
BRANCH  11  31
ATOM     31  O   UNL A   1      34.327  20.427  24.933  1.00  0.00    -0.493 OA
ATOM     32  C   UNL A   1      35.725  20.690  24.980  1.00  0.00     0.278 C 
ENDBRANCH  11  31
ENDBRANCH   4   6
ENDBRANCH   3   4
ENDBRANCH   2   3
ENDBRANCH   1   2
BRANCH   1  33
ATOM     33  O   UNL A   1      32.210  28.869  27.392  1.00  0.00    -0.374 OA
BRANCH  33  34
ATOM     34  C   UNL A   1      31.827  29.752  26.338  1.00  0.00     0.202 C 
BRANCH  34  35
ATOM     35  C   UNL A   1      32.099  31.255  26.481  1.00  0.00     0.261 C 
BRANCH  35  36
ATOM     36  O   UNL A   1      32.657  31.639  27.753  1.00  0.00    -0.460 OA
BRANCH  36  37
ATOM     37  C   UNL A   1      33.585  32.625  27.682  1.00  0.00     0.338 C 
ATOM     38  O   UNL A   1      33.390  33.820  27.538  1.00  0.00    -0.246 OA
BRANCH  37  39
ATOM     39  C   UNL A   1      34.934  32.094  27.942  1.00  0.00     0.060 A 
ATOM     40  C   UNL A   1      35.058  30.718  28.162  1.00  0.00     0.016 A 
ATOM     41  C   UNL A   1      36.019  32.949  28.145  1.00  0.00     0.016 A 
ATOM     42  C   UNL A   1      36.261  30.200  28.633  1.00  0.00     0.010 A 
ATOM     43  C   UNL A   1      37.223  32.427  28.634  1.00  0.00     0.010 A 
ATOM     44  C   UNL A   1      37.337  31.055  28.912  1.00  0.00    -0.014 A 
BRANCH  44  45
ATOM     45  C   UNL A   1      38.509  30.516  29.645  1.00  0.00     0.031 A 
ATOM     46  C   UNL A   1      38.665  30.847  31.101  1.00  0.00     0.074 A 
ATOM     47  C   UNL A   1      39.395  29.712  29.035  1.00  0.00     0.049 A 
ATOM     48  N   UNL A   1      39.570  30.440  31.952  1.00  0.00    -0.248 NA
ATOM     49  C   UNL A   1      37.677  31.778  31.670  1.00  0.00     0.031 C 
ATOM     50  C   UNL A   1      39.345  29.336  27.629  1.00  0.00     0.029 A 
ATOM     51  N   UNL A   1      40.479  29.028  29.529  1.00  0.00    -0.354 N 
ATOM     52  C   UNL A   1      39.299  31.109  33.138  1.00  0.00     0.074 A 
ATOM     53  C   UNL A   1      38.116  31.912  32.912  1.00  0.00     0.031 C 
ATOM     54  C   UNL A   1      40.298  28.421  27.387  1.00  0.00     0.029 A 
ATOM     55  C   UNL A   1      41.036  28.161  28.619  1.00  0.00     0.049 A 
ATOM     56  H   UNL A   1      40.824  29.149  30.443  1.00  0.00     0.167 HD
ATOM     57  C   UNL A   1      40.004  31.089  34.292  1.00  0.00     0.037 A 
ATOM     58  C   UNL A   1      42.004  27.238  28.783  1.00  0.00     0.037 A 
ATOM     59  C   UNL A   1      41.189  30.300  34.502  1.00  0.00     0.049 A 
ATOM     60  C   UNL A   1      42.707  27.155  30.115  1.00  0.00     0.074 A 
ATOM     61  C   UNL A   1      42.014  30.253  35.612  1.00  0.00     0.029 A 
ATOM     62  N   UNL A   1      41.719  29.417  33.572  1.00  0.00    -0.354 N 
ATOM     63  N   UNL A   1      42.454  27.801  31.227  1.00  0.00    -0.248 NA
ATOM     64  C   UNL A   1      43.855  26.239  30.201  1.00  0.00     0.031 C 
ATOM     65  C   UNL A   1      43.064  29.370  35.339  1.00  0.00     0.029 A 
ATOM     66  C   UNL A   1      42.865  28.828  34.079  1.00  0.00     0.049 A 
ATOM     67  H   UNL A   1      41.335  29.236  32.684  1.00  0.00     0.167 HD
ATOM     68  C   UNL A   1      43.424  27.394  32.133  1.00  0.00     0.074 A 
ATOM     69  C   UNL A   1      44.228  26.392  31.463  1.00  0.00     0.031 C 
ATOM     70  C   UNL A   1      43.654  27.838  33.393  1.00  0.00     0.037 A 
BRANCH  57  71
ATOM     71  C   UNL A   1      39.564  32.024  35.379  1.00  0.00     0.064 A 
ATOM     72  C   UNL A   1      39.995  33.357  35.438  1.00  0.00     0.173 A 
ATOM     73  C   UNL A   1      38.694  31.569  36.382  1.00  0.00     0.173 A 
ATOM     74  F   UNL A   1      40.846  33.832  34.516  1.00  0.00    -0.203 F 
ATOM     75  C   UNL A   1      39.590  34.193  36.476  1.00  0.00     0.198 A 
ATOM     76  C   UNL A   1      38.271  32.414  37.404  1.00  0.00     0.198 A 
ATOM     77  F   UNL A   1      38.255  30.301  36.373  1.00  0.00    -0.203 F 
ATOM     78  F   UNL A   1      40.053  35.449  36.543  1.00  0.00    -0.200 F 
ATOM     79  C   UNL A   1      38.725  33.723  37.455  1.00  0.00     0.200 A 
ATOM     80  F   UNL A   1      37.430  31.959  38.343  1.00  0.00    -0.200 F 
ATOM     81  F   UNL A   1      38.338  34.529  38.453  1.00  0.00    -0.200 F 
ENDBRANCH  57  71
BRANCH  58  82
ATOM     82  C   UNL A   1      42.333  26.278  27.695  1.00  0.00     0.064 A 
ATOM     83  C   UNL A   1      43.359  26.573  26.784  1.00  0.00     0.173 A 
ATOM     84  C   UNL A   1      41.645  25.069  27.524  1.00  0.00     0.173 A 
ATOM     85  F   UNL A   1      44.041  27.725  26.894  1.00  0.00    -0.203 F 
ATOM     86  C   UNL A   1      43.667  25.711  25.733  1.00  0.00     0.198 A 
ATOM     87  C   UNL A   1      41.977  24.190  26.494  1.00  0.00     0.198 A 
ATOM     88  F   UNL A   1      40.654  24.735  28.364  1.00  0.00    -0.203 F 
ATOM     89  F   UNL A   1      44.616  26.047  24.849  1.00  0.00    -0.200 F 
ATOM     90  C   UNL A   1      42.980  24.515  25.593  1.00  0.00     0.200 A 
ATOM     91  F   UNL A   1      41.320  23.028  26.371  1.00  0.00    -0.200 F 
ATOM     92  F   UNL A   1      43.276  23.683  24.586  1.00  0.00    -0.200 F 
ENDBRANCH  58  82
BRANCH  70  93
ATOM     93  C   UNL A   1      44.839  27.270  34.118  1.00  0.00     0.064 A 
ATOM     94  C   UNL A   1      44.723  26.111  34.902  1.00  0.00     0.173 A 
ATOM     95  C   UNL A   1      46.110  27.847  33.980  1.00  0.00     0.173 A 
ATOM     96  F   UNL A   1      43.526  25.529  35.072  1.00  0.00    -0.203 F 
ATOM     97  C   UNL A   1      45.833  25.562  35.538  1.00  0.00     0.198 A 
ATOM     98  C   UNL A   1      47.222  27.280  34.595  1.00  0.00     0.198 A 
ATOM     99  F   UNL A   1      46.273  28.950  33.235  1.00  0.00    -0.203 F 
ATOM    100  F   UNL A   1      45.691  24.478  36.312  1.00  0.00    -0.200 F 
ATOM    101  C   UNL A   1      47.083  26.143  35.377  1.00  0.00     0.200 A 
ATOM    102  F   UNL A   1      48.431  27.833  34.430  1.00  0.00    -0.200 F 
ATOM    103  F   UNL A   1      48.152  25.608  35.982  1.00  0.00    -0.200 F 
ENDBRANCH  70  93
ENDBRANCH  44  45
ENDBRANCH  37  39
ENDBRANCH  36  37
ENDBRANCH  35  36
ENDBRANCH  34  35
ENDBRANCH  33  34
ENDBRANCH   1  33
TORSDOF 20
ENDMDL
MODEL 2
REMARK VINA RESULT:     -11.7      4.359      9.934
REMARK SMILES CCCN1C(=O)/C(=C\c2ccc(OC)c(OC)c2C(=O)OCCOCCOC(=O)c2ccc(-c3c4nc(c(-c5c(F)c(F)c(F)c(F)c5F)c5ccc([nH]5)c(-c5c(F)c(F)c(F)c(F)c5F)c5nc(c(-c6c(F)c(F)c(F)c(F)c6F)c6ccc3[nH]6)C=C5)C=C4)cc2)S/C1=[NH+]\c1nccs1
REMARK SMILES IDX 23 1 22 2 21 3 19 4 20 5 18 6 9 7 10 8 11 9 15 10 12 11 8 12
REMARK SMILES IDX 4 13 5 14 94 15 6 16 7 17 93 18 95 19 3 21 2 22 1 23 96 24
REMARK SMILES IDX 97 25 100 26 98 27 99 28 16 29 17 30 13 31 14 32 24 33 25 34
REMARK SMILES IDX 26 35 27 36 28 37 29 38 30 39 31 40 92 41 32 42 91 43 33 44
REMARK SMILES IDX 34 45 35 46 85 47 36 48 90 49 84 50 86 51 37 52 89 53 83 54
REMARK SMILES IDX 82 55 38 57 70 58 50 59 69 60 51 61 54 62 68 63 87 64 52 65
REMARK SMILES IDX 53 66 67 68 88 69 55 70 39 71 40 72 48 73 41 74 42 75 46 76
REMARK SMILES IDX 49 77 43 78 44 79 47 80 45 81 71 82 72 83 80 84 73 85 74 86
REMARK SMILES IDX 78 87 81 88 75 89 76 90 79 91 77 92 56 93 57 94 65 95 58 96
REMARK SMILES IDX 59 97 63 98 66 99 60 100 61 101 64 102 62 103
REMARK H PARENT 95 20 86 56 54 67
REMARK Flexibility Score: inf
ROOT
ATOM      1  C   UNL A   1      36.359  23.350  23.635  1.00  0.00     0.202 C 
ENDROOT
BRANCH   1   2
ATOM      2  C   UNL A   1      34.846  23.431  23.415  1.00  0.00     0.261 C 
BRANCH   2   3
ATOM      3  O   UNL A   1      34.318  24.747  23.626  1.00  0.00    -0.460 OA
BRANCH   3   4
ATOM      4  C   UNL A   1      33.461  25.169  22.663  1.00  0.00     0.342 C 
ATOM      5  O   UNL A   1      33.630  25.046  21.464  1.00  0.00    -0.246 OA
BRANCH   4   6
ATOM      6  C   UNL A   1      32.269  25.839  23.231  1.00  0.00     0.113 A 
ATOM      7  C   UNL A   1      31.227  25.058  23.800  1.00  0.00    -0.006 A 
ATOM      8  C   UNL A   1      30.212  25.707  24.509  1.00  0.00     0.013 A 
ATOM      9  C   UNL A   1      30.225  27.097  24.646  1.00  0.00     0.051 A 
ATOM     10  C   UNL A   1      32.225  27.255  23.284  1.00  0.00     0.175 A 
ATOM     11  C   UNL A   1      31.210  27.878  24.029  1.00  0.00     0.161 A 
BRANCH   7  12
ATOM     12  C   UNL A   1      31.096  23.602  23.575  1.00  0.00     0.032 C 
ATOM     13  N   UNL A   1      32.581  21.856  26.318  1.00  0.00    -0.219 N 
ATOM     14  C   UNL A   1      31.775  22.880  25.880  1.00  0.00     0.321 C 
ATOM     15  C   UNL A   1      32.713  20.765  25.488  1.00  0.00     0.271 C 
ATOM     16  O   UNL A   1      31.370  23.827  26.536  1.00  0.00    -0.250 OA
ATOM     17  C   UNL A   1      31.415  22.647  24.461  1.00  0.00     0.100 C 
ATOM     18  S   UNL A   1      31.738  20.999  24.050  1.00  0.00    -0.012 SA
ATOM     19  N   UNL A   1      33.448  19.767  25.840  1.00  0.00    -0.228 N 
ATOM     20  H   UNL A   1      33.917  19.803  26.705  1.00  0.00     0.268 HD
BRANCH  13  21
ATOM     21  C   UNL A   1      33.228  21.932  27.623  1.00  0.00     0.206 C 
BRANCH  21  22
ATOM     22  C   UNL A   1      34.729  22.214  27.508  1.00  0.00     0.035 C 
ATOM     23  C   UNL A   1      35.025  23.577  26.899  1.00  0.00     0.007 C 
ENDBRANCH  21  22
ENDBRANCH  13  21
BRANCH  19  24
ATOM     24  C   UNL A   1      33.598  18.675  25.062  1.00  0.00     0.319 A 
ATOM     25  N   UNL A   1      34.579  18.393  24.230  1.00  0.00    -0.101 NA
ATOM     26  S   UNL A   1      32.484  17.368  25.322  1.00  0.00    -0.070 S 
ATOM     27  C   UNL A   1      34.482  17.076  23.809  1.00  0.00     0.219 A 
ATOM     28  C   UNL A   1      33.408  16.366  24.295  1.00  0.00     0.110 A 
ENDBRANCH  19  24
ENDBRANCH   7  12
BRANCH  10  29
ATOM     29  O   UNL A   1      32.903  28.050  22.385  1.00  0.00    -0.492 OA
ATOM     30  C   UNL A   1      34.110  28.660  22.835  1.00  0.00     0.278 C 
ENDBRANCH  10  29
BRANCH  11  31
ATOM     31  O   UNL A   1      31.004  29.226  24.183  1.00  0.00    -0.493 OA
ATOM     32  C   UNL A   1      31.521  29.831  25.364  1.00  0.00     0.278 C 
ENDBRANCH  11  31
ENDBRANCH   4   6
ENDBRANCH   3   4
ENDBRANCH   2   3
ENDBRANCH   1   2
BRANCH   1  33
ATOM     33  O   UNL A   1      36.981  22.073  23.575  1.00  0.00    -0.374 OA
BRANCH  33  34
ATOM     34  C   UNL A   1      36.698  21.117  24.596  1.00  0.00     0.202 C 
BRANCH  34  35
ATOM     35  C   UNL A   1      37.860  20.461  25.355  1.00  0.00     0.261 C 
BRANCH  35  36
ATOM     36  O   UNL A   1      39.079  21.228  25.349  1.00  0.00    -0.460 OA
BRANCH  36  37
ATOM     37  C   UNL A   1      39.882  21.010  26.420  1.00  0.00     0.338 C 
ATOM     38  O   UNL A   1      40.404  19.960  26.755  1.00  0.00    -0.246 OA
BRANCH  37  39
ATOM     39  C   UNL A   1      40.187  22.274  27.112  1.00  0.00     0.060 A 
ATOM     40  C   UNL A   1      39.487  23.417  26.713  1.00  0.00     0.016 A 
ATOM     41  C   UNL A   1      41.260  22.369  28.000  1.00  0.00     0.016 A 
ATOM     42  C   UNL A   1      39.891  24.669  27.168  1.00  0.00     0.010 A 
ATOM     43  C   UNL A   1      41.674  23.631  28.444  1.00  0.00     0.010 A 
ATOM     44  C   UNL A   1      41.013  24.787  28.002  1.00  0.00    -0.014 A 
BRANCH  44  45
ATOM     45  C   UNL A   1      41.570  26.137  28.265  1.00  0.00     0.031 A 
ATOM     46  C   UNL A   1      42.881  26.512  27.639  1.00  0.00     0.074 A 
ATOM     47  C   UNL A   1      40.898  27.028  29.012  1.00  0.00     0.049 A 
ATOM     48  N   UNL A   1      43.526  27.649  27.678  1.00  0.00    -0.248 NA
ATOM     49  C   UNL A   1      43.570  25.454  26.881  1.00  0.00     0.031 C 
ATOM     50  C   UNL A   1      39.627  26.768  29.673  1.00  0.00     0.029 A 
ATOM     51  N   UNL A   1      41.166  28.344  29.302  1.00  0.00    -0.354 N 
ATOM     52  C   UNL A   1      44.719  27.429  27.005  1.00  0.00     0.074 A 
ATOM     53  C   UNL A   1      44.691  26.064  26.525  1.00  0.00     0.031 C 
ATOM     54  C   UNL A   1      39.175  27.909  30.219  1.00  0.00     0.029 A 
ATOM     55  C   UNL A   1      40.137  28.976  29.961  1.00  0.00     0.049 A 
ATOM     56  H   UNL A   1      42.010  28.790  29.064  1.00  0.00     0.167 HD
ATOM     57  C   UNL A   1      45.762  28.276  26.847  1.00  0.00     0.037 A 
ATOM     58  C   UNL A   1      39.982  30.276  30.278  1.00  0.00     0.037 A 
ATOM     59  C   UNL A   1      45.788  29.627  27.342  1.00  0.00     0.049 A 
ATOM     60  C   UNL A   1      41.114  31.231  29.994  1.00  0.00     0.074 A 
ATOM     61  C   UNL A   1      46.817  30.550  27.289  1.00  0.00     0.029 A 
ATOM     62  N   UNL A   1      44.727  30.247  27.986  1.00  0.00    -0.354 N 
ATOM     63  N   UNL A   1      42.246  31.013  29.369  1.00  0.00    -0.248 NA
ATOM     64  C   UNL A   1      40.961  32.607  30.492  1.00  0.00     0.031 C 
ATOM     65  C   UNL A   1      46.392  31.715  27.936  1.00  0.00     0.029 A 
ATOM     66  C   UNL A   1      45.081  31.536  28.346  1.00  0.00     0.049 A 
ATOM     67  H   UNL A   1      43.852  29.831  28.161  1.00  0.00     0.167 HD
ATOM     68  C   UNL A   1      42.949  32.208  29.424  1.00  0.00     0.074 A 
ATOM     69  C   UNL A   1      42.088  33.170  30.081  1.00  0.00     0.031 C 
ATOM     70  C   UNL A   1      44.210  32.476  29.005  1.00  0.00     0.037 A 
BRANCH  57  71
ATOM     71  C   UNL A   1      46.996  27.729  26.194  1.00  0.00     0.064 A 
ATOM     72  C   UNL A   1      47.167  27.727  24.803  1.00  0.00     0.173 A 
ATOM     73  C   UNL A   1      48.025  27.191  26.985  1.00  0.00     0.173 A 
ATOM     74  F   UNL A   1      46.203  28.206  24.004  1.00  0.00    -0.203 F 
ATOM     75  C   UNL A   1      48.314  27.185  24.226  1.00  0.00     0.198 A 
ATOM     76  C   UNL A   1      49.179  26.674  26.406  1.00  0.00     0.198 A 
ATOM     77  F   UNL A   1      47.907  27.166  28.321  1.00  0.00    -0.203 F 
ATOM     78  F   UNL A   1      48.437  27.147  22.891  1.00  0.00    -0.200 F 
ATOM     79  C   UNL A   1      49.320  26.664  25.027  1.00  0.00     0.200 A 
ATOM     80  F   UNL A   1      50.152  26.178  27.184  1.00  0.00    -0.200 F 
ATOM     81  F   UNL A   1      50.422  26.143  24.469  1.00  0.00    -0.200 F 
ENDBRANCH  57  71
BRANCH  58  82
ATOM     82  C   UNL A   1      38.698  30.775  30.841  1.00  0.00     0.064 A 
ATOM     83  C   UNL A   1      38.526  30.858  32.232  1.00  0.00     0.173 A 
ATOM     84  C   UNL A   1      37.622  31.165  30.032  1.00  0.00     0.173 A 
ATOM     85  F   UNL A   1      39.520  30.484  33.052  1.00  0.00    -0.203 F 
ATOM     86  C   UNL A   1      37.323  31.287  32.790  1.00  0.00     0.198 A 
ATOM     87  C   UNL A   1      36.431  31.628  30.590  1.00  0.00     0.198 A 
ATOM     88  F   UNL A   1      37.730  31.105  28.696  1.00  0.00    -0.203 F 
ATOM     89  F   UNL A   1      37.172  31.304  34.120  1.00  0.00    -0.200 F 
ATOM     90  C   UNL A   1      36.278  31.679  31.967  1.00  0.00     0.200 A 
ATOM     91  F   UNL A   1      35.429  32.019  29.791  1.00  0.00    -0.200 F 
ATOM     92  F   UNL A   1      35.122  32.095  32.501  1.00  0.00    -0.200 F 
ENDBRANCH  58  82
BRANCH  70  93
ATOM     93  C   UNL A   1      44.747  33.851  29.272  1.00  0.00     0.064 A 
ATOM     94  C   UNL A   1      45.476  34.133  30.439  1.00  0.00     0.173 A 
ATOM     95  C   UNL A   1      44.590  34.879  28.331  1.00  0.00     0.173 A 
ATOM     96  F   UNL A   1      45.645  33.185  31.374  1.00  0.00    -0.203 F 
ATOM     97  C   UNL A   1      46.009  35.398  30.662  1.00  0.00     0.198 A 
ATOM     98  C   UNL A   1      45.147  36.136  28.545  1.00  0.00     0.198 A 
ATOM     99  F   UNL A   1      43.909  34.657  27.197  1.00  0.00    -0.203 F 
ATOM    100  F   UNL A   1      46.668  35.654  31.800  1.00  0.00    -0.200 F 
ATOM    101  C   UNL A   1      45.851  36.397  29.712  1.00  0.00     0.200 A 
ATOM    102  F   UNL A   1      45.006  37.096  27.622  1.00  0.00    -0.200 F 
ATOM    103  F   UNL A   1      46.374  37.612  29.924  1.00  0.00    -0.200 F 
ENDBRANCH  70  93
ENDBRANCH  44  45
ENDBRANCH  37  39
ENDBRANCH  36  37
ENDBRANCH  35  36
ENDBRANCH  34  35
ENDBRANCH  33  34
ENDBRANCH   1  33
TORSDOF 20
ENDMDL
MODEL 3
REMARK VINA RESULT:     -11.6      4.502      8.030
REMARK SMILES CCCN1C(=O)/C(=C\c2ccc(OC)c(OC)c2C(=O)OCCOCCOC(=O)c2ccc(-c3c4nc(c(-c5c(F)c(F)c(F)c(F)c5F)c5ccc([nH]5)c(-c5c(F)c(F)c(F)c(F)c5F)c5nc(c(-c6c(F)c(F)c(F)c(F)c6F)c6ccc3[nH]6)C=C5)C=C4)cc2)S/C1=[NH+]\c1nccs1
REMARK SMILES IDX 23 1 22 2 21 3 19 4 20 5 18 6 9 7 10 8 11 9 15 10 12 11 8 12
REMARK SMILES IDX 4 13 5 14 94 15 6 16 7 17 93 18 95 19 3 21 2 22 1 23 96 24
REMARK SMILES IDX 97 25 100 26 98 27 99 28 16 29 17 30 13 31 14 32 24 33 25 34
REMARK SMILES IDX 26 35 27 36 28 37 29 38 30 39 31 40 92 41 32 42 91 43 33 44
REMARK SMILES IDX 34 45 35 46 85 47 36 48 90 49 84 50 86 51 37 52 89 53 83 54
REMARK SMILES IDX 82 55 38 57 70 58 50 59 69 60 51 61 54 62 68 63 87 64 52 65
REMARK SMILES IDX 53 66 67 68 88 69 55 70 39 71 40 72 48 73 41 74 42 75 46 76
REMARK SMILES IDX 49 77 43 78 44 79 47 80 45 81 71 82 72 83 80 84 73 85 74 86
REMARK SMILES IDX 78 87 81 88 75 89 76 90 79 91 77 92 56 93 57 94 65 95 58 96
REMARK SMILES IDX 59 97 63 98 66 99 60 100 61 101 64 102 62 103
REMARK H PARENT 95 20 86 56 54 67
REMARK Flexibility Score: inf
ROOT
ATOM      1  C   UNL A   1      36.413  23.305  23.678  1.00  0.00     0.202 C 
ENDROOT
BRANCH   1   2
ATOM      2  C   UNL A   1      34.901  23.373  23.448  1.00  0.00     0.261 C 
BRANCH   2   3
ATOM      3  O   UNL A   1      34.367  24.692  23.615  1.00  0.00    -0.460 OA
BRANCH   3   4
ATOM      4  C   UNL A   1      33.469  25.059  22.667  1.00  0.00     0.342 C 
ATOM      5  O   UNL A   1      33.592  24.876  21.469  1.00  0.00    -0.246 OA
BRANCH   4   6
ATOM      6  C   UNL A   1      32.295  25.751  23.247  1.00  0.00     0.113 A 
ATOM      7  C   UNL A   1      31.252  24.990  23.838  1.00  0.00    -0.006 A 
ATOM      8  C   UNL A   1      30.256  25.658  24.557  1.00  0.00     0.013 A 
ATOM      9  C   UNL A   1      30.290  27.050  24.680  1.00  0.00     0.051 A 
ATOM     10  C   UNL A   1      32.271  27.168  23.286  1.00  0.00     0.175 A 
ATOM     11  C   UNL A   1      31.275  27.811  24.041  1.00  0.00     0.161 A 
BRANCH   7  12
ATOM     12  C   UNL A   1      31.097  23.533  23.630  1.00  0.00     0.032 C 
ATOM     13  N   UNL A   1      32.667  21.791  26.329  1.00  0.00    -0.219 N 
ATOM     14  C   UNL A   1      31.855  22.821  25.913  1.00  0.00     0.321 C 
ATOM     15  C   UNL A   1      32.757  20.693  25.502  1.00  0.00     0.271 C 
ATOM     16  O   UNL A   1      31.485  23.777  26.577  1.00  0.00    -0.250 OA
ATOM     17  C   UNL A   1      31.440  22.582  24.511  1.00  0.00     0.100 C 
ATOM     18  S   UNL A   1      31.731  20.927  24.100  1.00  0.00    -0.012 SA
ATOM     19  N   UNL A   1      33.494  19.691  25.834  1.00  0.00    -0.228 N 
ATOM     20  H   UNL A   1      33.995  19.728  26.681  1.00  0.00     0.268 HD
BRANCH  13  21
ATOM     21  C   UNL A   1      33.363  21.870  27.608  1.00  0.00     0.206 C 
BRANCH  21  22
ATOM     22  C   UNL A   1      34.853  22.183  27.437  1.00  0.00     0.035 C 
ATOM     23  C   UNL A   1      35.101  23.595  26.923  1.00  0.00     0.007 C 
ENDBRANCH  21  22
ENDBRANCH  13  21
BRANCH  19  24
ATOM     24  C   UNL A   1      33.604  18.592  25.059  1.00  0.00     0.319 A 
ATOM     25  N   UNL A   1      34.538  18.304  24.177  1.00  0.00    -0.101 NA
ATOM     26  S   UNL A   1      32.510  17.285  25.394  1.00  0.00    -0.070 S 
ATOM     27  C   UNL A   1      34.422  16.983  23.775  1.00  0.00     0.219 A 
ATOM     28  C   UNL A   1      33.379  16.274  24.327  1.00  0.00     0.110 A 
ENDBRANCH  19  24
ENDBRANCH   7  12
BRANCH  10  29
ATOM     29  O   UNL A   1      32.946  27.945  22.370  1.00  0.00    -0.492 OA
ATOM     30  C   UNL A   1      34.148  28.573  22.806  1.00  0.00     0.278 C 
ENDBRANCH  10  29
BRANCH  11  31
ATOM     31  O   UNL A   1      31.090  29.164  24.185  1.00  0.00    -0.493 OA
ATOM     32  C   UNL A   1      31.613  29.768  25.363  1.00  0.00     0.278 C 
ENDBRANCH  11  31
ENDBRANCH   4   6
ENDBRANCH   3   4
ENDBRANCH   2   3
ENDBRANCH   1   2
BRANCH   1  33
ATOM     33  O   UNL A   1      37.047  22.034  23.618  1.00  0.00    -0.374 OA
BRANCH  33  34
ATOM     34  C   UNL A   1      36.717  21.049  24.597  1.00  0.00     0.202 C 
BRANCH  34  35
ATOM     35  C   UNL A   1      37.838  20.403  25.421  1.00  0.00     0.261 C 
BRANCH  35  36
ATOM     36  O   UNL A   1      39.080  21.134  25.408  1.00  0.00    -0.460 OA
BRANCH  36  37
ATOM     37  C   UNL A   1      39.806  21.023  26.549  1.00  0.00     0.338 C 
ATOM     38  O   UNL A   1      40.234  20.002  27.060  1.00  0.00    -0.246 OA
BRANCH  37  39
ATOM     39  C   UNL A   1      40.161  22.352  27.075  1.00  0.00     0.060 A 
ATOM     40  C   UNL A   1      39.559  23.466  26.481  1.00  0.00     0.016 A 
ATOM     41  C   UNL A   1      41.193  22.508  28.002  1.00  0.00     0.016 A 
ATOM     42  C   UNL A   1      40.025  24.744  26.781  1.00  0.00     0.010 A 
ATOM     43  C   UNL A   1      41.669  23.793  28.290  1.00  0.00     0.010 A 
ATOM     44  C   UNL A   1      41.109  24.912  27.654  1.00  0.00    -0.014 A 
BRANCH  44  45
ATOM     45  C   UNL A   1      41.743  26.250  27.759  1.00  0.00     0.031 A 
ATOM     46  C   UNL A   1      41.102  27.286  28.635  1.00  0.00     0.074 A 
ATOM     47  C   UNL A   1      42.892  26.522  27.118  1.00  0.00     0.049 A 
ATOM     48  N   UNL A   1      41.508  28.495  28.925  1.00  0.00    -0.248 NA
ATOM     49  C   UNL A   1      39.818  26.916  29.254  1.00  0.00     0.031 C 
ATOM     50  C   UNL A   1      43.591  25.597  26.237  1.00  0.00     0.029 A 
ATOM     51  N   UNL A   1      43.696  27.636  27.146  1.00  0.00    -0.354 N 
ATOM     52  C   UNL A   1      40.506  29.051  29.708  1.00  0.00     0.074 A 
ATOM     53  C   UNL A   1      39.494  28.032  29.889  1.00  0.00     0.031 C 
ATOM     54  C   UNL A   1      44.765  26.141  25.875  1.00  0.00     0.029 A 
ATOM     55  C   UNL A   1      44.890  27.460  26.486  1.00  0.00     0.049 A 
ATOM     56  H   UNL A   1      43.443  28.475  27.594  1.00  0.00     0.167 HD
ATOM     57  C   UNL A   1      40.420  30.312  30.190  1.00  0.00     0.037 A 
ATOM     58  C   UNL A   1      45.969  28.264  26.423  1.00  0.00     0.037 A 
ATOM     59  C   UNL A   1      41.424  31.323  29.990  1.00  0.00     0.049 A 
ATOM     60  C   UNL A   1      45.896  29.628  27.061  1.00  0.00     0.074 A 
ATOM     61  C   UNL A   1      41.409  32.650  30.383  1.00  0.00     0.029 A 
ATOM     62  N   UNL A   1      42.630  31.114  29.337  1.00  0.00    -0.354 N 
ATOM     63  N   UNL A   1      44.939  30.153  27.788  1.00  0.00    -0.248 NA
ATOM     64  C   UNL A   1      47.039  30.526  26.837  1.00  0.00     0.031 C 
ATOM     65  C   UNL A   1      42.588  33.253  29.932  1.00  0.00     0.029 A 
ATOM     66  C   UNL A   1      43.361  32.290  29.305  1.00  0.00     0.049 A 
ATOM     67  H   UNL A   1      42.922  30.256  28.953  1.00  0.00     0.167 HD
ATOM     68  C   UNL A   1      45.349  31.445  28.083  1.00  0.00     0.074 A 
ATOM     69  C   UNL A   1      46.673  31.603  27.517  1.00  0.00     0.031 C 
ATOM     70  C   UNL A   1      44.674  32.427  28.730  1.00  0.00     0.037 A 
BRANCH  57  71
ATOM     71  C   UNL A   1      39.150  30.692  30.892  1.00  0.00     0.064 A 
ATOM     72  C   UNL A   1      38.037  31.191  30.203  1.00  0.00     0.173 A 
ATOM     73  C   UNL A   1      39.055  30.553  32.286  1.00  0.00     0.173 A 
ATOM     74  F   UNL A   1      38.087  31.365  28.875  1.00  0.00    -0.203 F 
ATOM     75  C   UNL A   1      36.881  31.561  30.888  1.00  0.00     0.198 A 
ATOM     76  C   UNL A   1      37.890  30.899  32.964  1.00  0.00     0.198 A 
ATOM     77  F   UNL A   1      40.095  30.083  32.991  1.00  0.00    -0.203 F 
ATOM     78  F   UNL A   1      35.844  32.083  30.218  1.00  0.00    -0.200 F 
ATOM     79  C   UNL A   1      36.807  31.410  32.266  1.00  0.00     0.200 A 
ATOM     80  F   UNL A   1      37.820  30.745  34.294  1.00  0.00    -0.200 F 
ATOM     81  F   UNL A   1      35.695  31.767  32.922  1.00  0.00    -0.200 F 
ENDBRANCH  57  71
BRANCH  58  82
ATOM     82  C   UNL A   1      47.232  27.795  25.790  1.00  0.00     0.064 A 
ATOM     83  C   UNL A   1      47.368  27.817  24.393  1.00  0.00     0.173 A 
ATOM     84  C   UNL A   1      48.313  27.309  26.537  1.00  0.00     0.173 A 
ATOM     85  F   UNL A   1      46.357  28.260  23.629  1.00  0.00    -0.203 F 
ATOM     86  C   UNL A   1      48.524  27.352  23.768  1.00  0.00     0.198 A 
ATOM     87  C   UNL A   1      49.483  26.876  25.914  1.00  0.00     0.198 A 
ATOM     88  F   UNL A   1      48.238  27.263  27.875  1.00  0.00    -0.203 F 
ATOM     89  F   UNL A   1      48.601  27.337  22.431  1.00  0.00    -0.200 F 
ATOM     90  C   UNL A   1      49.584  26.887  24.531  1.00  0.00     0.200 A 
ATOM     91  F   UNL A   1      50.512  26.442  26.655  1.00  0.00    -0.200 F 
ATOM     92  F   UNL A   1      50.698  26.443  23.933  1.00  0.00    -0.200 F 
ENDBRANCH  58  82
BRANCH  70  93
ATOM     93  C   UNL A   1      45.340  33.768  28.833  1.00  0.00     0.064 A 
ATOM     94  C   UNL A   1      46.226  34.061  29.882  1.00  0.00     0.173 A 
ATOM     95  C   UNL A   1      45.145  34.745  27.846  1.00  0.00     0.173 A 
ATOM     96  F   UNL A   1      46.438  33.162  30.856  1.00  0.00    -0.203 F 
ATOM     97  C   UNL A   1      46.875  35.290  29.950  1.00  0.00     0.198 A 
ATOM     98  C   UNL A   1      45.815  35.962  27.903  1.00  0.00     0.198 A 
ATOM     99  F   UNL A   1      44.314  34.510  26.819  1.00  0.00    -0.203 F 
ATOM    100  F   UNL A   1      47.686  35.560  30.981  1.00  0.00    -0.200 F 
ATOM    101  C   UNL A   1      46.675  36.237  28.956  1.00  0.00     0.200 A 
ATOM    102  F   UNL A   1      45.632  36.872  26.936  1.00  0.00    -0.200 F 
ATOM    103  F   UNL A   1      47.308  37.416  29.017  1.00  0.00    -0.200 F 
ENDBRANCH  70  93
ENDBRANCH  44  45
ENDBRANCH  37  39
ENDBRANCH  36  37
ENDBRANCH  35  36
ENDBRANCH  34  35
ENDBRANCH  33  34
ENDBRANCH   1  33
TORSDOF 20
ENDMDL
