MODEL 1
REMARK VINA RESULT:     -12.0      0.000      0.000
REMARK SMILES O=C(OCCOCCOC(=O)[C@H]1CC[C@H]2CCCC[C@@H]2[N@H+]1[C@@H]1CCCSC1)c1ccc(-c2c3nc(c(-c4c(F)c(F)c(F)c(F)c4F)c4ccc([nH]4)c(-c4c(F)c(F)c(F)c(F)c4F)c4nc(c(-c5c(F)c(F)c(F)c(F)c5F)c5ccc2[nH]5)C=C4)C=C3)cc1
REMARK SMILES IDX 5 1 4 2 3 3 2 4 1 5 28 6 29 7 90 8 30 9 89 10 31 11 32 12
REMARK SMILES IDX 33 13 83 14 34 15 88 16 82 17 84 18 35 19 87 20 81 21 80 22
REMARK SMILES IDX 36 24 68 25 48 26 67 27 49 28 52 29 66 30 85 31 50 32 51 33
REMARK SMILES IDX 65 35 86 36 53 37 37 38 38 39 46 40 39 41 40 42 44 43 47 44
REMARK SMILES IDX 41 45 42 46 45 47 43 48 69 49 70 50 78 51 71 52 72 53 76 54
REMARK SMILES IDX 79 55 73 56 74 57 77 58 75 59 54 60 55 61 63 62 56 63 57 64
REMARK SMILES IDX 61 65 64 66 58 67 59 68 62 69 60 70 6 71 7 72 8 73 9 74
REMARK SMILES IDX 10 75 11 76 12 77 13 78 21 79 14 80 20 81 15 83 19 84 16 85
REMARK SMILES IDX 18 86 17 87 22 88 23 89 27 90 24 91 26 92 25 93
REMARK H PARENT 84 23 52 34 21 82
REMARK Flexibility Score: inf
ROOT
ATOM      1  C   UNL A   1      35.335  20.938  25.065  1.00  0.00     0.202 C 
ENDROOT
BRANCH   1   2
ATOM      2  C   UNL A   1      36.856  20.766  24.995  1.00  0.00     0.261 C 
BRANCH   2   3
ATOM      3  O   UNL A   1      37.508  21.795  25.751  1.00  0.00    -0.460 OA
BRANCH   3   4
ATOM      4  C   UNL A   1      38.800  21.816  26.153  1.00  0.00     0.338 C 
ATOM      5  O   UNL A   1      39.462  20.788  26.109  1.00  0.00    -0.246 OA
BRANCH   4   6
ATOM      6  C   UNL A   1      39.467  23.074  26.588  1.00  0.00     0.060 A 
ATOM      7  C   UNL A   1      39.136  24.344  26.122  1.00  0.00     0.016 A 
ATOM      8  C   UNL A   1      40.457  22.971  27.573  1.00  0.00     0.016 A 
ATOM      9  C   UNL A   1      39.725  25.483  26.591  1.00  0.00     0.010 A 
ATOM     10  C   UNL A   1      41.086  24.119  28.056  1.00  0.00     0.010 A 
ATOM     11  C   UNL A   1      40.705  25.368  27.555  1.00  0.00    -0.014 A 
BRANCH  11  12
ATOM     12  C   UNL A   1      41.417  26.606  27.835  1.00  0.00     0.031 A 
ATOM     13  C   UNL A   1      40.732  27.591  28.712  1.00  0.00     0.074 A 
ATOM     14  C   UNL A   1      42.714  26.682  27.504  1.00  0.00     0.049 A 
ATOM     15  N   UNL A   1      41.094  28.797  29.036  1.00  0.00    -0.248 NA
ATOM     16  C   UNL A   1      39.464  27.150  29.327  1.00  0.00     0.031 C 
ATOM     17  C   UNL A   1      43.487  25.612  26.861  1.00  0.00     0.029 A 
ATOM     18  N   UNL A   1      43.619  27.681  27.697  1.00  0.00    -0.354 N 
ATOM     19  C   UNL A   1      40.071  29.284  29.834  1.00  0.00     0.074 A 
ATOM     20  C   UNL A   1      39.088  28.238  29.978  1.00  0.00     0.031 C 
ATOM     21  C   UNL A   1      44.754  26.025  26.704  1.00  0.00     0.029 A 
ATOM     22  C   UNL A   1      44.843  27.410  27.143  1.00  0.00     0.049 A 
ATOM     23  H   UNL A   1      43.415  28.512  28.185  1.00  0.00     0.167 HD
ATOM     24  C   UNL A   1      39.977  30.524  30.358  1.00  0.00     0.037 A 
ATOM     25  C   UNL A   1      45.881  28.240  26.952  1.00  0.00     0.037 A 
ATOM     26  C   UNL A   1      41.006  31.508  30.163  1.00  0.00     0.049 A 
ATOM     27  C   UNL A   1      45.707  29.655  27.431  1.00  0.00     0.074 A 
ATOM     28  C   UNL A   1      41.029  32.834  30.541  1.00  0.00     0.029 A 
ATOM     29  N   UNL A   1      42.213  31.247  29.516  1.00  0.00    -0.354 N 
ATOM     30  N   UNL A   1      44.687  30.189  28.066  1.00  0.00    -0.248 NA
ATOM     31  C   UNL A   1      46.801  30.585  27.155  1.00  0.00     0.031 C 
ATOM     32  C   UNL A   1      42.227  33.387  30.073  1.00  0.00     0.029 A 
ATOM     33  C   UNL A   1      42.983  32.391  29.467  1.00  0.00     0.049 A 
ATOM     34  H   UNL A   1      42.478  30.372  29.149  1.00  0.00     0.167 HD
ATOM     35  C   UNL A   1      45.021  31.513  28.288  1.00  0.00     0.074 A 
ATOM     36  C   UNL A   1      46.348  31.695  27.722  1.00  0.00     0.031 C 
ATOM     37  C   UNL A   1      44.308  32.494  28.899  1.00  0.00     0.037 A 
BRANCH  24  38
ATOM     38  C   UNL A   1      38.688  30.876  31.039  1.00  0.00     0.064 A 
ATOM     39  C   UNL A   1      37.566  31.345  30.337  1.00  0.00     0.173 A 
ATOM     40  C   UNL A   1      38.609  30.832  32.439  1.00  0.00     0.173 A 
ATOM     41  F   UNL A   1      37.600  31.448  29.000  1.00  0.00    -0.203 F 
ATOM     42  C   UNL A   1      36.434  31.796  31.014  1.00  0.00     0.198 A 
ATOM     43  C   UNL A   1      37.464  31.252  33.111  1.00  0.00     0.198 A 
ATOM     44  F   UNL A   1      39.658  30.412  33.163  1.00  0.00    -0.203 F 
ATOM     45  F   UNL A   1      35.408  32.319  30.327  1.00  0.00    -0.200 F 
ATOM     46  C   UNL A   1      36.383  31.747  32.399  1.00  0.00     0.200 A 
ATOM     47  F   UNL A   1      37.420  31.206  34.449  1.00  0.00    -0.200 F 
ATOM     48  F   UNL A   1      35.301  32.198  33.049  1.00  0.00    -0.200 F 
ENDBRANCH  24  38
BRANCH  25  49
ATOM     49  C   UNL A   1      47.084  27.771  26.220  1.00  0.00     0.064 A 
ATOM     50  C   UNL A   1      48.205  27.279  26.899  1.00  0.00     0.173 A 
ATOM     51  C   UNL A   1      47.124  27.770  24.815  1.00  0.00     0.173 A 
ATOM     52  F   UNL A   1      48.224  27.270  28.239  1.00  0.00    -0.203 F 
ATOM     53  C   UNL A   1      49.321  26.812  26.203  1.00  0.00     0.198 A 
ATOM     54  C   UNL A   1      48.226  27.274  24.121  1.00  0.00     0.198 A 
ATOM     55  F   UNL A   1      46.077  28.225  24.110  1.00  0.00    -0.203 F 
ATOM     56  F   UNL A   1      50.393  26.377  26.878  1.00  0.00    -0.200 F 
ATOM     57  C   UNL A   1      49.326  26.801  24.816  1.00  0.00     0.200 A 
ATOM     58  F   UNL A   1      48.215  27.248  22.780  1.00  0.00    -0.200 F 
ATOM     59  F   UNL A   1      50.395  26.341  24.150  1.00  0.00    -0.200 F 
ENDBRANCH  25  49
BRANCH  37  60
ATOM     60  C   UNL A   1      44.984  33.821  29.039  1.00  0.00     0.064 A 
ATOM     61  C   UNL A   1      44.832  34.831  28.081  1.00  0.00     0.173 A 
ATOM     62  C   UNL A   1      45.733  34.102  30.192  1.00  0.00     0.173 A 
ATOM     63  F   UNL A   1      44.138  34.598  26.957  1.00  0.00    -0.203 F 
ATOM     64  C   UNL A   1      45.421  36.076  28.266  1.00  0.00     0.198 A 
ATOM     65  C   UNL A   1      46.289  35.358  30.389  1.00  0.00     0.198 A 
ATOM     66  F   UNL A   1      45.895  33.163  31.138  1.00  0.00    -0.203 F 
ATOM     67  F   UNL A   1      45.300  37.018  27.321  1.00  0.00    -0.200 F 
ATOM     68  C   UNL A   1      46.138  36.343  29.425  1.00  0.00     0.200 A 
ATOM     69  F   UNL A   1      46.964  35.619  31.517  1.00  0.00    -0.200 F 
ATOM     70  F   UNL A   1      46.686  37.550  29.610  1.00  0.00    -0.200 F 
ENDBRANCH  37  60
ENDBRANCH  11  12
ENDBRANCH   4   6
ENDBRANCH   3   4
ENDBRANCH   2   3
ENDBRANCH   1   2
BRANCH   1  71
ATOM     71  O   UNL A   1      34.805  22.251  24.915  1.00  0.00    -0.374 OA
BRANCH  71  72
ATOM     72  C   UNL A   1      34.162  22.581  23.685  1.00  0.00     0.202 C 
BRANCH  72  73
ATOM     73  C   UNL A   1      34.419  24.049  23.326  1.00  0.00     0.261 C 
BRANCH  73  74
ATOM     74  O   UNL A   1      33.234  24.823  23.553  1.00  0.00    -0.459 OA
BRANCH  74  75
ATOM     75  C   UNL A   1      32.940  25.775  22.627  1.00  0.00     0.365 C 
ATOM     76  O   UNL A   1      33.654  26.064  21.673  1.00  0.00    -0.245 OA
BRANCH  75  77
ATOM     77  C   UNL A   1      31.597  26.462  22.908  1.00  0.00     0.295 C 
ATOM     78  C   UNL A   1      30.484  25.550  23.480  1.00  0.00     0.078 C 
ATOM     79  N   UNL A   1      31.674  27.761  23.621  1.00  0.00    -0.317 N 
ATOM     80  C   UNL A   1      29.207  26.325  23.852  1.00  0.00     0.016 C 
ATOM     81  C   UNL A   1      30.429  28.513  23.455  1.00  0.00     0.188 C 
ATOM     82  H   UNL A   1      32.430  28.239  23.132  1.00  0.00     0.349 HD
ATOM     83  C   UNL A   1      29.202  27.636  23.086  1.00  0.00     0.048 C 
ATOM     84  C   UNL A   1      30.598  29.529  22.318  1.00  0.00     0.065 C 
ATOM     85  C   UNL A   1      27.956  28.494  23.235  1.00  0.00     0.010 C 
ATOM     86  C   UNL A   1      29.346  30.401  22.205  1.00  0.00     0.006 C 
ATOM     87  C   UNL A   1      28.027  29.613  22.188  1.00  0.00     0.001 C 
BRANCH  79  88
ATOM     88  C   UNL A   1      32.309  27.852  24.966  1.00  0.00     0.195 C 
ATOM     89  C   UNL A   1      31.400  28.207  26.165  1.00  0.00     0.067 C 
ATOM     90  C   UNL A   1      33.537  28.791  24.874  1.00  0.00     0.134 C 
ATOM     91  C   UNL A   1      32.132  28.212  27.513  1.00  0.00     0.017 C 
ATOM     92  S   UNL A   1      34.555  28.828  26.385  1.00  0.00    -0.156 SA
ATOM     93  C   UNL A   1      33.259  29.227  27.584  1.00  0.00     0.070 C 
ENDBRANCH  79  88
ENDBRANCH  75  77
ENDBRANCH  74  75
ENDBRANCH  73  74
ENDBRANCH  72  73
ENDBRANCH  71  72
ENDBRANCH   1  71
TORSDOF 15
ENDMDL
MODEL 2
REMARK VINA RESULT:     -12.0      4.427      9.883
REMARK SMILES O=C(OCCOCCOC(=O)[C@H]1CC[C@H]2CCCC[C@@H]2[N@H+]1[C@@H]1CCCSC1)c1ccc(-c2c3nc(c(-c4c(F)c(F)c(F)c(F)c4F)c4ccc([nH]4)c(-c4c(F)c(F)c(F)c(F)c4F)c4nc(c(-c5c(F)c(F)c(F)c(F)c5F)c5ccc2[nH]5)C=C4)C=C3)cc1
REMARK SMILES IDX 5 1 4 2 3 3 2 4 1 5 28 6 29 7 90 8 30 9 89 10 31 11 32 12
REMARK SMILES IDX 33 13 83 14 34 15 88 16 82 17 84 18 35 19 87 20 81 21 80 22
REMARK SMILES IDX 36 24 68 25 48 26 67 27 49 28 52 29 66 30 85 31 50 32 51 33
REMARK SMILES IDX 65 35 86 36 53 37 37 38 38 39 46 40 39 41 40 42 44 43 47 44
REMARK SMILES IDX 41 45 42 46 45 47 43 48 69 49 70 50 78 51 71 52 72 53 76 54
REMARK SMILES IDX 79 55 73 56 74 57 77 58 75 59 54 60 55 61 63 62 56 63 57 64
REMARK SMILES IDX 61 65 64 66 58 67 59 68 62 69 60 70 6 71 7 72 8 73 9 74
REMARK SMILES IDX 10 75 11 76 12 77 13 78 21 79 14 80 20 81 15 83 19 84 16 85
REMARK SMILES IDX 18 86 17 87 22 88 23 89 27 90 24 91 26 92 25 93
REMARK H PARENT 84 23 52 34 21 82
REMARK Flexibility Score: inf
ROOT
ATOM      1  C   UNL A   1      31.909  28.692  27.467  1.00  0.00     0.202 C 
ENDROOT
BRANCH   1   2
ATOM      2  C   UNL A   1      31.788  29.826  26.445  1.00  0.00     0.261 C 
BRANCH   2   3
ATOM      3  O   UNL A   1      33.045  30.499  26.296  1.00  0.00    -0.460 OA
BRANCH   3   4
ATOM      4  C   UNL A   1      33.643  31.317  27.192  1.00  0.00     0.338 C 
ATOM      5  O   UNL A   1      33.111  32.378  27.489  1.00  0.00    -0.246 OA
BRANCH   4   6
ATOM      6  C   UNL A   1      34.903  30.934  27.888  1.00  0.00     0.060 A 
ATOM      7  C   UNL A   1      35.178  29.660  28.377  1.00  0.00     0.016 A 
ATOM      8  C   UNL A   1      35.897  31.913  28.004  1.00  0.00     0.016 A 
ATOM      9  C   UNL A   1      36.371  29.328  28.952  1.00  0.00     0.010 A 
ATOM     10  C   UNL A   1      37.119  31.603  28.603  1.00  0.00     0.010 A 
ATOM     11  C   UNL A   1      37.339  30.304  29.069  1.00  0.00    -0.014 A 
BRANCH  11  12
ATOM     12  C   UNL A   1      38.485  29.915  29.879  1.00  0.00     0.031 A 
ATOM     13  C   UNL A   1      39.522  29.080  29.218  1.00  0.00     0.074 A 
ATOM     14  C   UNL A   1      38.661  30.521  31.062  1.00  0.00     0.049 A 
ATOM     15  N   UNL A   1      40.578  28.522  29.730  1.00  0.00    -0.248 NA
ATOM     16  C   UNL A   1      39.355  28.853  27.769  1.00  0.00     0.031 C 
ATOM     17  C   UNL A   1      37.777  31.548  31.627  1.00  0.00     0.029 A 
ATOM     18  N   UNL A   1      39.658  30.393  31.981  1.00  0.00    -0.354 N 
ATOM     19  C   UNL A   1      41.165  27.824  28.687  1.00  0.00     0.074 A 
ATOM     20  C   UNL A   1      40.372  28.052  27.503  1.00  0.00     0.031 C 
ATOM     21  C   UNL A   1      38.274  31.948  32.808  1.00  0.00     0.029 A 
ATOM     22  C   UNL A   1      39.441  31.135  33.113  1.00  0.00     0.049 A 
ATOM     23  H   UNL A   1      40.452  29.826  31.846  1.00  0.00     0.167 HD
ATOM     24  C   UNL A   1      42.259  27.036  28.757  1.00  0.00     0.037 A 
ATOM     25  C   UNL A   1      40.088  31.082  34.289  1.00  0.00     0.037 A 
ATOM     26  C   UNL A   1      42.989  26.863  29.982  1.00  0.00     0.049 A 
ATOM     27  C   UNL A   1      41.227  30.104  34.386  1.00  0.00     0.074 A 
ATOM     28  C   UNL A   1      44.057  26.033  30.253  1.00  0.00     0.029 A 
ATOM     29  N   UNL A   1      42.703  27.557  31.157  1.00  0.00    -0.354 N 
ATOM     30  N   UNL A   1      41.718  29.318  33.453  1.00  0.00    -0.248 NA
ATOM     31  C   UNL A   1      41.884  29.982  35.686  1.00  0.00     0.031 C 
ATOM     32  C   UNL A   1      44.380  26.185  31.606  1.00  0.00     0.029 A 
ATOM     33  C   UNL A   1      43.563  27.161  32.163  1.00  0.00     0.049 A 
ATOM     34  H   UNL A   1      41.993  28.231  31.255  1.00  0.00     0.167 HD
ATOM     35  C   UNL A   1      42.758  28.622  34.043  1.00  0.00     0.074 A 
ATOM     36  C   UNL A   1      42.828  29.090  35.418  1.00  0.00     0.031 C 
ATOM     37  C   UNL A   1      43.584  27.685  33.510  1.00  0.00     0.037 A 
BRANCH  24  38
ATOM     38  C   UNL A   1      42.599  26.239  27.533  1.00  0.00     0.064 A 
ATOM     39  C   UNL A   1      42.014  24.993  27.256  1.00  0.00     0.173 A 
ATOM     40  C   UNL A   1      43.607  26.693  26.669  1.00  0.00     0.173 A 
ATOM     41  F   UNL A   1      41.076  24.490  28.072  1.00  0.00    -0.203 F 
ATOM     42  C   UNL A   1      42.456  24.216  26.186  1.00  0.00     0.198 A 
ATOM     43  C   UNL A   1      44.022  25.929  25.582  1.00  0.00     0.198 A 
ATOM     44  F   UNL A   1      44.215  27.867  26.896  1.00  0.00    -0.203 F 
ATOM     45  F   UNL A   1      41.942  22.992  25.991  1.00  0.00    -0.200 F 
ATOM     46  C   UNL A   1      43.457  24.685  25.349  1.00  0.00     0.200 A 
ATOM     47  F   UNL A   1      44.992  26.385  24.777  1.00  0.00    -0.200 F 
ATOM     48  F   UNL A   1      43.894  23.928  24.333  1.00  0.00    -0.200 F 
ENDBRANCH  24  38
BRANCH  25  49
ATOM     49  C   UNL A   1      39.615  31.896  35.436  1.00  0.00     0.064 A 
ATOM     50  C   UNL A   1      40.088  33.195  35.651  1.00  0.00     0.173 A 
ATOM     51  C   UNL A   1      38.645  31.402  36.326  1.00  0.00     0.173 A 
ATOM     52  F   UNL A   1      41.022  33.710  34.840  1.00  0.00    -0.203 F 
ATOM     53  C   UNL A   1      39.617  33.966  36.715  1.00  0.00     0.198 A 
ATOM     54  C   UNL A   1      38.152  32.184  37.368  1.00  0.00     0.198 A 
ATOM     55  F   UNL A   1      38.152  30.165  36.167  1.00  0.00    -0.203 F 
ATOM     56  F   UNL A   1      40.110  35.195  36.918  1.00  0.00    -0.200 F 
ATOM     57  C   UNL A   1      38.643  33.463  37.566  1.00  0.00     0.200 A 
ATOM     58  F   UNL A   1      37.197  31.698  38.174  1.00  0.00    -0.200 F 
ATOM     59  F   UNL A   1      38.184  34.210  38.580  1.00  0.00    -0.200 F 
ENDBRANCH  25  49
BRANCH  37  60
ATOM     60  C   UNL A   1      44.665  27.164  34.403  1.00  0.00     0.064 A 
ATOM     61  C   UNL A   1      44.490  26.010  35.177  1.00  0.00     0.173 A 
ATOM     62  C   UNL A   1      45.918  27.794  34.418  1.00  0.00     0.173 A 
ATOM     63  F   UNL A   1      43.302  25.387  35.203  1.00  0.00    -0.203 F 
ATOM     64  C   UNL A   1      45.532  25.512  35.951  1.00  0.00     0.198 A 
ATOM     65  C   UNL A   1      46.966  27.273  35.165  1.00  0.00     0.198 A 
ATOM     66  F   UNL A   1      46.129  28.898  33.684  1.00  0.00    -0.203 F 
ATOM     67  F   UNL A   1      45.335  24.431  36.717  1.00  0.00    -0.200 F 
ATOM     68  C   UNL A   1      46.772  26.136  35.934  1.00  0.00     0.200 A 
ATOM     69  F   UNL A   1      48.167  27.866  35.132  1.00  0.00    -0.200 F 
ATOM     70  F   UNL A   1      47.780  25.642  36.664  1.00  0.00    -0.200 F 
ENDBRANCH  37  60
ENDBRANCH  11  12
ENDBRANCH   4   6
ENDBRANCH   3   4
ENDBRANCH   2   3
ENDBRANCH   1   2
BRANCH   1  71
ATOM     71  O   UNL A   1      31.188  27.489  27.218  1.00  0.00    -0.374 OA
BRANCH  71  72
ATOM     72  C   UNL A   1      31.270  26.914  25.914  1.00  0.00     0.202 C 
BRANCH  72  73
ATOM     73  C   UNL A   1      30.396  25.657  25.830  1.00  0.00     0.261 C 
BRANCH  73  74
ATOM     74  O   UNL A   1      31.076  24.636  25.088  1.00  0.00    -0.459 OA
BRANCH  74  75
ATOM     75  C   UNL A   1      31.475  23.539  25.785  1.00  0.00     0.365 C 
ATOM     76  O   UNL A   1      31.557  23.480  27.008  1.00  0.00    -0.245 OA
BRANCH  75  77
ATOM     77  C   UNL A   1      31.818  22.360  24.864  1.00  0.00     0.295 C 
ATOM     78  C   UNL A   1      31.461  22.551  23.370  1.00  0.00     0.078 C 
ATOM     79  N   UNL A   1      33.170  21.775  25.043  1.00  0.00    -0.317 N 
ATOM     80  C   UNL A   1      31.942  21.386  22.485  1.00  0.00     0.016 C 
ATOM     81  C   UNL A   1      33.233  20.437  24.452  1.00  0.00     0.188 C 
ATOM     82  H   UNL A   1      33.250  21.706  26.057  1.00  0.00     0.349 HD
ATOM     83  C   UNL A   1      32.154  20.170  23.369  1.00  0.00     0.048 C 
ATOM     84  C   UNL A   1      33.019  19.387  25.551  1.00  0.00     0.065 C 
ATOM     85  C   UNL A   1      32.521  18.879  22.655  1.00  0.00     0.010 C 
ATOM     86  C   UNL A   1      33.194  17.982  24.973  1.00  0.00     0.006 C 
ATOM     87  C   UNL A   1      32.417  17.734  23.670  1.00  0.00     0.001 C 
BRANCH  79  88
ATOM     88  C   UNL A   1      34.389  22.614  24.873  1.00  0.00     0.195 C 
ATOM     89  C   UNL A   1      35.258  22.369  23.617  1.00  0.00     0.067 C 
ATOM     90  C   UNL A   1      35.226  22.548  26.174  1.00  0.00     0.134 C 
ATOM     91  C   UNL A   1      36.451  23.325  23.497  1.00  0.00     0.017 C 
ATOM     92  S   UNL A   1      36.635  23.703  26.208  1.00  0.00    -0.156 SA
ATOM     93  C   UNL A   1      37.429  23.218  24.655  1.00  0.00     0.070 C 
ENDBRANCH  79  88
ENDBRANCH  75  77
ENDBRANCH  74  75
ENDBRANCH  73  74
ENDBRANCH  72  73
ENDBRANCH  71  72
ENDBRANCH   1  71
TORSDOF 15
ENDMDL
MODEL 3
REMARK VINA RESULT:     -11.8      4.339      9.840
REMARK SMILES O=C(OCCOCCOC(=O)[C@H]1CC[C@H]2CCCC[C@@H]2[N@H+]1[C@@H]1CCCSC1)c1ccc(-c2c3nc(c(-c4c(F)c(F)c(F)c(F)c4F)c4ccc([nH]4)c(-c4c(F)c(F)c(F)c(F)c4F)c4nc(c(-c5c(F)c(F)c(F)c(F)c5F)c5ccc2[nH]5)C=C4)C=C3)cc1
REMARK SMILES IDX 5 1 4 2 3 3 2 4 1 5 28 6 29 7 90 8 30 9 89 10 31 11 32 12
REMARK SMILES IDX 33 13 83 14 34 15 88 16 82 17 84 18 35 19 87 20 81 21 80 22
REMARK SMILES IDX 36 24 68 25 48 26 67 27 49 28 52 29 66 30 85 31 50 32 51 33
REMARK SMILES IDX 65 35 86 36 53 37 37 38 38 39 46 40 39 41 40 42 44 43 47 44
REMARK SMILES IDX 41 45 42 46 45 47 43 48 69 49 70 50 78 51 71 52 72 53 76 54
REMARK SMILES IDX 79 55 73 56 74 57 77 58 75 59 54 60 55 61 63 62 56 63 57 64
REMARK SMILES IDX 61 65 64 66 58 67 59 68 62 69 60 70 6 71 7 72 8 73 9 74
REMARK SMILES IDX 10 75 11 76 12 77 13 78 21 79 14 80 20 81 15 83 19 84 16 85
REMARK SMILES IDX 18 86 17 87 22 88 23 89 27 90 24 91 26 92 25 93
REMARK H PARENT 84 23 52 34 21 82
REMARK Flexibility Score: inf
ROOT
ATOM      1  C   UNL A   1      31.769  28.830  25.474  1.00  0.00     0.202 C 
ENDROOT
BRANCH   1   2
ATOM      2  C   UNL A   1      31.859  29.934  26.532  1.00  0.00     0.261 C 
BRANCH   2   3
ATOM      3  O   UNL A   1      33.030  30.733  26.320  1.00  0.00    -0.460 OA
BRANCH   3   4
ATOM      4  C   UNL A   1      33.634  31.546  27.216  1.00  0.00     0.338 C 
ATOM      5  O   UNL A   1      33.115  32.615  27.507  1.00  0.00    -0.246 OA
BRANCH   4   6
ATOM      6  C   UNL A   1      34.888  31.151  27.916  1.00  0.00     0.060 A 
ATOM      7  C   UNL A   1      35.145  29.875  28.413  1.00  0.00     0.016 A 
ATOM      8  C   UNL A   1      35.894  32.117  28.030  1.00  0.00     0.016 A 
ATOM      9  C   UNL A   1      36.332  29.531  28.992  1.00  0.00     0.010 A 
ATOM     10  C   UNL A   1      37.110  31.794  28.634  1.00  0.00     0.010 A 
ATOM     11  C   UNL A   1      37.313  30.495  29.107  1.00  0.00    -0.014 A 
BRANCH  11  12
ATOM     12  C   UNL A   1      38.451  30.096  29.921  1.00  0.00     0.031 A 
ATOM     13  C   UNL A   1      39.486  29.255  29.264  1.00  0.00     0.074 A 
ATOM     14  C   UNL A   1      38.626  30.697  31.107  1.00  0.00     0.049 A 
ATOM     15  N   UNL A   1      40.535  28.688  29.780  1.00  0.00    -0.248 NA
ATOM     16  C   UNL A   1      39.325  29.034  27.813  1.00  0.00     0.031 C 
ATOM     17  C   UNL A   1      37.746  31.729  31.671  1.00  0.00     0.029 A 
ATOM     18  N   UNL A   1      39.617  30.559  32.031  1.00  0.00    -0.354 N 
ATOM     19  C   UNL A   1      41.122  27.989  28.738  1.00  0.00     0.074 A 
ATOM     20  C   UNL A   1      40.338  28.226  27.550  1.00  0.00     0.031 C 
ATOM     21  C   UNL A   1      38.239  32.121  32.855  1.00  0.00     0.029 A 
ATOM     22  C   UNL A   1      39.399  31.299  33.164  1.00  0.00     0.049 A 
ATOM     23  H   UNL A   1      40.407  29.987  31.898  1.00  0.00     0.167 HD
ATOM     24  C   UNL A   1      42.210  27.192  28.811  1.00  0.00     0.037 A 
ATOM     25  C   UNL A   1      40.039  31.238  34.343  1.00  0.00     0.037 A 
ATOM     26  C   UNL A   1      42.933  27.011  30.040  1.00  0.00     0.049 A 
ATOM     27  C   UNL A   1      41.170  30.251  34.443  1.00  0.00     0.074 A 
ATOM     28  C   UNL A   1      43.993  26.173  30.313  1.00  0.00     0.029 A 
ATOM     29  N   UNL A   1      42.646  27.703  31.215  1.00  0.00    -0.354 N 
ATOM     30  N   UNL A   1      41.661  29.464  33.511  1.00  0.00    -0.248 NA
ATOM     31  C   UNL A   1      41.820  30.121  35.747  1.00  0.00     0.031 C 
ATOM     32  C   UNL A   1      44.310  26.318  31.669  1.00  0.00     0.029 A 
ATOM     33  C   UNL A   1      43.497  27.299  32.224  1.00  0.00     0.049 A 
ATOM     34  H   UNL A   1      41.940  28.382  31.311  1.00  0.00     0.167 HD
ATOM     35  C   UNL A   1      42.693  28.760  34.104  1.00  0.00     0.074 A 
ATOM     36  C   UNL A   1      42.759  29.223  35.481  1.00  0.00     0.031 C 
ATOM     37  C   UNL A   1      43.515  27.818  33.573  1.00  0.00     0.037 A 
BRANCH  24  38
ATOM     38  C   UNL A   1      42.551  26.397  27.587  1.00  0.00     0.064 A 
ATOM     39  C   UNL A   1      41.961  25.155  27.304  1.00  0.00     0.173 A 
ATOM     40  C   UNL A   1      43.565  26.848  26.727  1.00  0.00     0.173 A 
ATOM     41  F   UNL A   1      41.016  24.654  28.115  1.00  0.00    -0.203 F 
ATOM     42  C   UNL A   1      42.403  24.378  26.234  1.00  0.00     0.198 A 
ATOM     43  C   UNL A   1      43.981  26.084  25.640  1.00  0.00     0.198 A 
ATOM     44  F   UNL A   1      44.178  28.017  26.960  1.00  0.00    -0.203 F 
ATOM     45  F   UNL A   1      41.883  23.158  26.034  1.00  0.00    -0.200 F 
ATOM     46  C   UNL A   1      43.410  24.843  25.402  1.00  0.00     0.200 A 
ATOM     47  F   UNL A   1      44.956  26.536  24.840  1.00  0.00    -0.200 F 
ATOM     48  F   UNL A   1      43.846  24.087  24.385  1.00  0.00    -0.200 F 
ENDBRANCH  24  38
BRANCH  25  49
ATOM     49  C   UNL A   1      39.566  32.052  35.490  1.00  0.00     0.064 A 
ATOM     50  C   UNL A   1      38.610  31.561  36.387  1.00  0.00     0.173 A 
ATOM     51  C   UNL A   1      40.090  33.333  35.736  1.00  0.00     0.173 A 
ATOM     52  F   UNL A   1      38.069  30.351  36.191  1.00  0.00    -0.203 F 
ATOM     53  C   UNL A   1      38.191  32.321  37.480  1.00  0.00     0.198 A 
ATOM     54  C   UNL A   1      39.695  34.078  36.846  1.00  0.00     0.198 A 
ATOM     55  F   UNL A   1      41.012  33.854  34.913  1.00  0.00    -0.203 F 
ATOM     56  F   UNL A   1      37.251  31.840  38.305  1.00  0.00    -0.200 F 
ATOM     57  C   UNL A   1      38.740  33.573  37.713  1.00  0.00     0.200 A 
ATOM     58  F   UNL A   1      40.245  35.278  37.075  1.00  0.00    -0.200 F 
ATOM     59  F   UNL A   1      38.345  34.296  38.771  1.00  0.00    -0.200 F 
ENDBRANCH  25  49
BRANCH  37  60
ATOM     60  C   UNL A   1      44.587  27.286  34.470  1.00  0.00     0.064 A 
ATOM     61  C   UNL A   1      44.404  26.125  35.231  1.00  0.00     0.173 A 
ATOM     62  C   UNL A   1      45.841  27.915  34.503  1.00  0.00     0.173 A 
ATOM     63  F   UNL A   1      43.215  25.503  35.240  1.00  0.00    -0.203 F 
ATOM     64  C   UNL A   1      45.438  25.618  36.008  1.00  0.00     0.198 A 
ATOM     65  C   UNL A   1      46.882  27.385  35.253  1.00  0.00     0.198 A 
ATOM     66  F   UNL A   1      46.060  29.026  33.781  1.00  0.00    -0.203 F 
ATOM     67  F   UNL A   1      45.234  24.529  36.762  1.00  0.00    -0.200 F 
ATOM     68  C   UNL A   1      46.679  26.241  36.009  1.00  0.00     0.200 A 
ATOM     69  F   UNL A   1      48.084  27.976  35.237  1.00  0.00    -0.200 F 
ATOM     70  F   UNL A   1      47.680  25.738  36.743  1.00  0.00    -0.200 F 
ENDBRANCH  37  60
ENDBRANCH  11  12
ENDBRANCH   4   6
ENDBRANCH   3   4
ENDBRANCH   2   3
ENDBRANCH   1   2
BRANCH   1  71
ATOM     71  O   UNL A   1      31.036  27.652  25.799  1.00  0.00    -0.374 OA
BRANCH  71  72
ATOM     72  C   UNL A   1      31.715  26.608  26.495  1.00  0.00     0.202 C 
BRANCH  72  73
ATOM     73  C   UNL A   1      30.877  25.325  26.482  1.00  0.00     0.261 C 
BRANCH  73  74
ATOM     74  O   UNL A   1      31.655  24.226  26.973  1.00  0.00    -0.459 OA
BRANCH  74  75
ATOM     75  C   UNL A   1      31.534  23.047  26.306  1.00  0.00     0.365 C 
ATOM     76  O   UNL A   1      30.476  22.458  26.115  1.00  0.00    -0.245 OA
BRANCH  75  77
ATOM     77  C   UNL A   1      32.888  22.520  25.809  1.00  0.00     0.295 C 
ATOM     78  C   UNL A   1      32.897  21.051  25.320  1.00  0.00     0.078 C 
ATOM     79  N   UNL A   1      33.630  23.418  24.890  1.00  0.00    -0.317 N 
ATOM     80  C   UNL A   1      34.251  20.627  24.723  1.00  0.00     0.016 C 
ATOM     81  C   UNL A   1      35.042  23.035  24.828  1.00  0.00     0.188 C 
ATOM     82  H   UNL A   1      33.541  24.326  25.346  1.00  0.00     0.349 HD
ATOM     83  C   UNL A   1      35.321  21.568  25.248  1.00  0.00     0.048 C 
ATOM     84  C   UNL A   1      35.850  23.925  25.782  1.00  0.00     0.065 C 
ATOM     85  C   UNL A   1      36.753  21.237  24.858  1.00  0.00     0.010 C 
ATOM     86  C   UNL A   1      37.343  23.616  25.647  1.00  0.00     0.006 C 
ATOM     87  C   UNL A   1      37.685  22.119  25.699  1.00  0.00     0.001 C 
BRANCH  79  88
ATOM     88  C   UNL A   1      33.022  23.856  23.603  1.00  0.00     0.195 C 
ATOM     89  C   UNL A   1      33.635  23.301  22.295  1.00  0.00     0.067 C 
ATOM     90  C   UNL A   1      32.943  25.403  23.590  1.00  0.00     0.134 C 
ATOM     91  C   UNL A   1      32.900  23.758  21.029  1.00  0.00     0.017 C 
ATOM     92  S   UNL A   1      32.016  26.086  22.178  1.00  0.00    -0.156 SA
ATOM     93  C   UNL A   1      32.909  25.264  20.835  1.00  0.00     0.070 C 
ENDBRANCH  79  88
ENDBRANCH  75  77
ENDBRANCH  74  75
ENDBRANCH  73  74
ENDBRANCH  72  73
ENDBRANCH  71  72
ENDBRANCH   1  71
TORSDOF 15
ENDMDL
