MODEL 1
REMARK VINA RESULT:     -12.8      0.000      0.000
REMARK SMILES COc1cc(Cl)c(C)cc1N1C(=O)C[C@H](Nc2cc(C(=O)OCCOCCOC(=O)c3ccc(-c4c5nc(c(-c6c(F)c(F)c(F)c(F)c6F)c6ccc([nH]6)c(-c6c(F)c(F)c(F)c(F)c6F)c6nc(c(-c7c(F)c(F)c(F)c(F)c7F)c7ccc4[nH]7)C=C6)C=C5)cc3)ccc2C)C1=O
REMARK SMILES IDX 24 1 23 2 22 3 20 4 21 5 19 6 17 7 18 8 96 9 95 10 97 11
REMARK SMILES IDX 94 12 16 13 15 15 11 16 12 17 98 18 13 19 14 20 99 21 10 22
REMARK SMILES IDX 3 23 4 24 5 25 9 26 6 27 7 28 8 29 2 30 1 31 25 32 26 33
REMARK SMILES IDX 27 34 28 35 29 36 30 37 31 38 32 39 93 40 33 41 92 42 34 43
REMARK SMILES IDX 35 44 36 45 86 46 37 47 91 48 85 49 87 50 38 51 90 52 84 53
REMARK SMILES IDX 83 54 39 56 71 57 51 58 70 59 52 60 55 61 69 62 88 63 53 64
REMARK SMILES IDX 54 65 68 67 89 68 56 69 40 70 41 71 49 72 42 73 43 74 47 75
REMARK SMILES IDX 50 76 44 77 45 78 48 79 46 80 72 81 73 82 81 83 74 84 75 85
REMARK SMILES IDX 79 86 82 87 76 88 77 89 80 90 78 91 57 92 58 93 66 94 59 95
REMARK SMILES IDX 60 96 64 97 67 98 61 99 62 100 65 101 63 102
REMARK H PARENT 16 14 87 55 55 66
REMARK Flexibility Score: inf
ROOT
ATOM      1  C   UNL A   1      34.559  34.879  28.248  1.00  0.00     0.202 C 
ENDROOT
BRANCH   1   2
ATOM      2  C   UNL A   1      34.135  33.573  28.828  1.00  0.00     0.261 C 
BRANCH   2   3
ATOM      3  O   UNL A   1      33.665  32.674  27.823  1.00  0.00    -0.460 OA
BRANCH   3   4
ATOM      4  C   UNL A   1      34.054  31.367  27.864  1.00  0.00     0.338 C 
ATOM      5  O   UNL A   1      34.871  30.843  28.583  1.00  0.00    -0.246 OA
BRANCH   4   6
ATOM      6  C   UNL A   1      33.140  30.658  26.943  1.00  0.00     0.062 A 
ATOM      7  C   UNL A   1      32.849  28.867  25.316  1.00  0.00     0.038 A 
ATOM      8  C   UNL A   1      33.571  29.481  26.334  1.00  0.00     0.041 A 
ATOM      9  C   UNL A   1      31.633  29.440  24.924  1.00  0.00    -0.028 A 
ATOM     10  C   UNL A   1      31.173  30.610  25.570  1.00  0.00     0.006 A 
ATOM     11  C   UNL A   1      30.752  28.824  23.874  1.00  0.00     0.046 C 
ATOM     12  C   UNL A   1      31.922  31.217  26.581  1.00  0.00     0.016 A 
BRANCH   7  13
ATOM     13  N   UNL A   1      33.332  27.674  24.808  1.00  0.00    -0.373 N 
ATOM     14  H   UNL A   1      33.637  27.606  23.875  1.00  0.00     0.161 HD
BRANCH  13  15
ATOM     15  C   UNL A   1      33.375  26.521  25.703  1.00  0.00     0.179 C 
ATOM     16  N   UNL A   1      32.811  24.302  25.296  1.00  0.00    -0.245 N 
ATOM     17  C   UNL A   1      31.721  24.836  25.927  1.00  0.00     0.236 C 
ATOM     18  C   UNL A   1      33.789  25.228  25.026  1.00  0.00     0.256 C 
ATOM     19  O   UNL A   1      30.686  24.267  26.247  1.00  0.00    -0.274 OA
ATOM     20  C   UNL A   1      31.994  26.264  26.263  1.00  0.00     0.136 C 
ATOM     21  O   UNL A   1      34.805  25.078  24.361  1.00  0.00    -0.272 OA
BRANCH  16  22
ATOM     22  C   UNL A   1      32.923  22.934  24.994  1.00  0.00     0.094 A 
ATOM     23  C   UNL A   1      33.561  22.037  25.866  1.00  0.00     0.144 A 
ATOM     24  C   UNL A   1      33.667  20.689  25.522  1.00  0.00     0.069 A 
ATOM     25  C   UNL A   1      33.120  20.223  24.322  1.00  0.00     0.047 A 
ATOM     26  C   UNL A   1      32.355  22.454  23.806  1.00  0.00     0.035 A 
ATOM     27  Cl  UNL A   1      33.266  18.539  23.965  1.00  0.00    -0.084 Cl
ATOM     28  C   UNL A   1      32.465  21.102  23.445  1.00  0.00    -0.030 A 
ATOM     29  C   UNL A   1      31.895  20.646  22.131  1.00  0.00     0.046 C 
BRANCH  23  30
ATOM     30  O   UNL A   1      34.104  22.397  27.074  1.00  0.00    -0.495 OA
ATOM     31  C   UNL A   1      33.189  22.263  28.162  1.00  0.00     0.278 C 
ENDBRANCH  23  30
ENDBRANCH  16  22
ENDBRANCH  13  15
ENDBRANCH   7  13
ENDBRANCH   4   6
ENDBRANCH   3   4
ENDBRANCH   2   3
ENDBRANCH   1   2
BRANCH   1  32
ATOM     32  O   UNL A   1      33.905  35.868  29.027  1.00  0.00    -0.374 OA
BRANCH  32  33
ATOM     33  C   UNL A   1      32.902  35.377  29.893  1.00  0.00     0.202 C 
BRANCH  33  34
ATOM     34  C   UNL A   1      32.923  36.056  31.271  1.00  0.00     0.261 C 
BRANCH  34  35
ATOM     35  O   UNL A   1      34.292  36.190  31.715  1.00  0.00    -0.460 OA
BRANCH  35  36
ATOM     36  C   UNL A   1      34.634  35.522  32.853  1.00  0.00     0.338 C 
ATOM     37  O   UNL A   1      34.621  35.992  33.979  1.00  0.00    -0.246 OA
BRANCH  36  38
ATOM     38  C   UNL A   1      35.296  34.230  32.497  1.00  0.00     0.060 A 
ATOM     39  C   UNL A   1      35.188  33.114  33.351  1.00  0.00     0.016 A 
ATOM     40  C   UNL A   1      36.269  34.243  31.504  1.00  0.00     0.016 A 
ATOM     41  C   UNL A   1      36.163  32.101  33.321  1.00  0.00     0.010 A 
ATOM     42  C   UNL A   1      37.280  33.308  31.557  1.00  0.00     0.010 A 
ATOM     43  C   UNL A   1      37.271  32.261  32.497  1.00  0.00    -0.014 A 
BRANCH  43  44
ATOM     44  C   UNL A   1      38.547  31.529  32.574  1.00  0.00     0.031 A 
ATOM     45  C   UNL A   1      38.637  30.280  31.783  1.00  0.00     0.074 A 
ATOM     46  C   UNL A   1      39.685  32.149  32.989  1.00  0.00     0.049 A 
ATOM     47  N   UNL A   1      39.721  29.625  31.594  1.00  0.00    -0.248 NA
ATOM     48  C   UNL A   1      37.498  29.663  31.105  1.00  0.00     0.031 C 
ATOM     49  C   UNL A   1      41.076  31.876  32.602  1.00  0.00     0.029 A 
ATOM     50  N   UNL A   1      39.853  33.211  33.893  1.00  0.00    -0.354 N 
ATOM     51  C   UNL A   1      39.529  28.751  30.552  1.00  0.00     0.074 A 
ATOM     52  C   UNL A   1      38.106  28.752  30.339  1.00  0.00     0.031 C 
ATOM     53  C   UNL A   1      41.918  32.445  33.485  1.00  0.00     0.029 A 
ATOM     54  C   UNL A   1      41.092  33.021  34.529  1.00  0.00     0.049 A 
ATOM     55  H   UNL A   1      39.222  33.950  34.050  1.00  0.00     0.167 HD
ATOM     56  C   UNL A   1      40.653  28.245  29.967  1.00  0.00     0.037 A 
ATOM     57  C   UNL A   1      41.133  32.777  35.865  1.00  0.00     0.037 A 
ATOM     58  C   UNL A   1      41.814  28.498  30.849  1.00  0.00     0.049 A 
ATOM     59  C   UNL A   1      41.661  31.382  36.022  1.00  0.00     0.074 A 
ATOM     60  C   UNL A   1      42.917  29.333  30.795  1.00  0.00     0.029 A 
ATOM     61  N   UNL A   1      41.724  28.075  32.183  1.00  0.00    -0.354 N 
ATOM     62  N   UNL A   1      41.485  30.448  35.118  1.00  0.00    -0.248 NA
ATOM     63  C   UNL A   1      42.625  31.011  37.049  1.00  0.00     0.031 C 
ATOM     64  C   UNL A   1      43.404  29.498  32.132  1.00  0.00     0.029 A 
ATOM     65  C   UNL A   1      42.614  28.750  32.999  1.00  0.00     0.049 A 
ATOM     66  H   UNL A   1      41.102  27.383  32.502  1.00  0.00     0.167 HD
ATOM     67  C   UNL A   1      42.411  29.467  35.319  1.00  0.00     0.074 A 
ATOM     68  C   UNL A   1      43.057  29.830  36.573  1.00  0.00     0.031 C 
ATOM     69  C   UNL A   1      42.685  28.465  34.435  1.00  0.00     0.037 A 
BRANCH  56  70
ATOM     70  C   UNL A   1      40.744  27.663  28.563  1.00  0.00     0.064 A 
ATOM     71  C   UNL A   1      40.202  26.386  28.283  1.00  0.00     0.173 A 
ATOM     72  C   UNL A   1      41.414  28.247  27.464  1.00  0.00     0.173 A 
ATOM     73  F   UNL A   1      39.549  25.686  29.222  1.00  0.00    -0.203 F 
ATOM     74  C   UNL A   1      40.324  25.762  27.031  1.00  0.00     0.198 A 
ATOM     75  C   UNL A   1      41.516  27.635  26.208  1.00  0.00     0.198 A 
ATOM     76  F   UNL A   1      42.030  29.426  27.542  1.00  0.00    -0.203 F 
ATOM     77  F   UNL A   1      39.811  24.538  26.845  1.00  0.00    -0.200 F 
ATOM     78  C   UNL A   1      40.976  26.390  25.991  1.00  0.00     0.200 A 
ATOM     79  F   UNL A   1      42.161  28.266  25.214  1.00  0.00    -0.200 F 
ATOM     80  F   UNL A   1      41.090  25.799  24.794  1.00  0.00    -0.200 F 
ENDBRANCH  56  70
BRANCH  57  81
ATOM     81  C   UNL A   1      40.054  33.547  36.564  1.00  0.00     0.064 A 
ATOM     82  C   UNL A   1      39.032  32.754  37.148  1.00  0.00     0.173 A 
ATOM     83  C   UNL A   1      40.268  34.810  37.130  1.00  0.00     0.173 A 
ATOM     84  F   UNL A   1      38.782  31.530  36.654  1.00  0.00    -0.203 F 
ATOM     85  C   UNL A   1      38.411  33.115  38.344  1.00  0.00     0.198 A 
ATOM     86  C   UNL A   1      39.609  35.185  38.312  1.00  0.00     0.198 A 
ATOM     87  F   UNL A   1      41.221  35.617  36.645  1.00  0.00    -0.203 F 
ATOM     88  F   UNL A   1      37.606  32.248  38.975  1.00  0.00    -0.200 F 
ATOM     89  C   UNL A   1      38.732  34.315  38.948  1.00  0.00     0.200 A 
ATOM     90  F   UNL A   1      39.915  36.348  38.908  1.00  0.00    -0.200 F 
ATOM     91  F   UNL A   1      38.254  34.604  40.167  1.00  0.00    -0.200 F 
ENDBRANCH  57  81
BRANCH  69  92
ATOM     92  C   UNL A   1      43.124  27.103  34.908  1.00  0.00     0.064 A 
ATOM     93  C   UNL A   1      42.218  26.060  35.180  1.00  0.00     0.173 A 
ATOM     94  C   UNL A   1      44.489  26.740  34.915  1.00  0.00     0.173 A 
ATOM     95  F   UNL A   1      40.892  26.224  35.060  1.00  0.00    -0.203 F 
ATOM     96  C   UNL A   1      42.644  24.783  35.529  1.00  0.00     0.198 A 
ATOM     97  C   UNL A   1      44.907  25.440  35.183  1.00  0.00     0.198 A 
ATOM     98  F   UNL A   1      45.459  27.617  34.623  1.00  0.00    -0.203 F 
ATOM     99  F   UNL A   1      41.737  23.850  35.848  1.00  0.00    -0.200 F 
ATOM    100  C   UNL A   1      43.987  24.469  35.517  1.00  0.00     0.200 A 
ATOM    101  F   UNL A   1      46.208  25.130  35.088  1.00  0.00    -0.200 F 
ATOM    102  F   UNL A   1      44.391  23.225  35.804  1.00  0.00    -0.200 F 
ENDBRANCH  69  92
ENDBRANCH  43  44
ENDBRANCH  36  38
ENDBRANCH  35  36
ENDBRANCH  34  35
ENDBRANCH  33  34
ENDBRANCH  32  33
ENDBRANCH   1  32
TORSDOF 18
ENDMDL
MODEL 2
REMARK VINA RESULT:     -12.2      3.474      9.061
REMARK SMILES COc1cc(Cl)c(C)cc1N1C(=O)C[C@H](Nc2cc(C(=O)OCCOCCOC(=O)c3ccc(-c4c5nc(c(-c6c(F)c(F)c(F)c(F)c6F)c6ccc([nH]6)c(-c6c(F)c(F)c(F)c(F)c6F)c6nc(c(-c7c(F)c(F)c(F)c(F)c7F)c7ccc4[nH]7)C=C6)C=C5)cc3)ccc2C)C1=O
REMARK SMILES IDX 24 1 23 2 22 3 20 4 21 5 19 6 17 7 18 8 96 9 95 10 97 11
REMARK SMILES IDX 94 12 16 13 15 15 11 16 12 17 98 18 13 19 14 20 99 21 10 22
REMARK SMILES IDX 3 23 4 24 5 25 9 26 6 27 7 28 8 29 2 30 1 31 25 32 26 33
REMARK SMILES IDX 27 34 28 35 29 36 30 37 31 38 32 39 93 40 33 41 92 42 34 43
REMARK SMILES IDX 35 44 36 45 86 46 37 47 91 48 85 49 87 50 38 51 90 52 84 53
REMARK SMILES IDX 83 54 39 56 71 57 51 58 70 59 52 60 55 61 69 62 88 63 53 64
REMARK SMILES IDX 54 65 68 67 89 68 56 69 40 70 41 71 49 72 42 73 43 74 47 75
REMARK SMILES IDX 50 76 44 77 45 78 48 79 46 80 72 81 73 82 81 83 74 84 75 85
REMARK SMILES IDX 79 86 82 87 76 88 77 89 80 90 78 91 57 92 58 93 66 94 59 95
REMARK SMILES IDX 60 96 64 97 67 98 61 99 62 100 65 101 63 102
REMARK H PARENT 16 14 87 55 55 66
REMARK Flexibility Score: inf
ROOT
ATOM      1  C   UNL A   1      38.602  22.779  26.176  1.00  0.00     0.202 C 
ENDROOT
BRANCH   1   2
ATOM      2  C   UNL A   1      37.348  22.196  25.621  1.00  0.00     0.261 C 
BRANCH   2   3
ATOM      3  O   UNL A   1      36.221  23.043  25.852  1.00  0.00    -0.460 OA
BRANCH   3   4
ATOM      4  C   UNL A   1      35.064  22.498  26.327  1.00  0.00     0.338 C 
ATOM      5  O   UNL A   1      34.633  22.501  27.456  1.00  0.00    -0.246 OA
BRANCH   4   6
ATOM      6  C   UNL A   1      34.333  22.026  25.131  1.00  0.00     0.062 A 
ATOM      7  C   UNL A   1      33.163  22.615  23.077  1.00  0.00     0.038 A 
ATOM      8  C   UNL A   1      34.010  22.940  24.130  1.00  0.00     0.041 A 
ATOM      9  C   UNL A   1      32.653  21.314  23.011  1.00  0.00    -0.028 A 
ATOM     10  C   UNL A   1      33.013  20.373  24.001  1.00  0.00     0.006 A 
ATOM     11  C   UNL A   1      31.775  20.848  21.883  1.00  0.00     0.046 C 
ATOM     12  C   UNL A   1      33.855  20.725  25.059  1.00  0.00     0.016 A 
BRANCH   7  13
ATOM     13  N   UNL A   1      32.942  23.575  22.105  1.00  0.00    -0.373 N 
ATOM     14  H   UNL A   1      33.432  23.557  21.252  1.00  0.00     0.161 HD
BRANCH  13  15
ATOM     15  C   UNL A   1      31.955  24.615  22.387  1.00  0.00     0.179 C 
ATOM     16  N   UNL A   1      31.937  26.229  24.061  1.00  0.00    -0.245 N 
ATOM     17  C   UNL A   1      31.117  25.233  24.518  1.00  0.00     0.236 C 
ATOM     18  C   UNL A   1      32.556  25.920  22.874  1.00  0.00     0.256 C 
ATOM     19  O   UNL A   1      30.478  25.207  25.561  1.00  0.00    -0.274 OA
ATOM     20  C   UNL A   1      31.035  24.151  23.495  1.00  0.00     0.136 C 
ATOM     21  O   UNL A   1      33.435  26.546  22.298  1.00  0.00    -0.272 OA
BRANCH  16  22
ATOM     22  C   UNL A   1      32.091  27.455  24.729  1.00  0.00     0.094 A 
ATOM     23  C   UNL A   1      31.206  28.525  24.519  1.00  0.00     0.144 A 
ATOM     24  C   UNL A   1      31.403  29.734  25.188  1.00  0.00     0.069 A 
ATOM     25  C   UNL A   1      32.466  29.876  26.085  1.00  0.00     0.047 A 
ATOM     26  C   UNL A   1      33.139  27.600  25.649  1.00  0.00     0.035 A 
ATOM     27  Cl  UNL A   1      32.642  31.391  26.897  1.00  0.00    -0.084 Cl
ATOM     28  C   UNL A   1      33.353  28.814  26.319  1.00  0.00    -0.030 A 
ATOM     29  C   UNL A   1      34.527  28.940  27.249  1.00  0.00     0.046 C 
BRANCH  23  30
ATOM     30  O   UNL A   1      30.122  28.469  23.679  1.00  0.00    -0.495 OA
ATOM     31  C   UNL A   1      30.255  29.313  22.535  1.00  0.00     0.278 C 
ENDBRANCH  23  30
ENDBRANCH  16  22
ENDBRANCH  13  15
ENDBRANCH   7  13
ENDBRANCH   4   6
ENDBRANCH   3   4
ENDBRANCH   2   3
ENDBRANCH   1   2
BRANCH   1  32
ATOM     32  O   UNL A   1      38.264  24.102  26.562  1.00  0.00    -0.374 OA
BRANCH  32  33
ATOM     33  C   UNL A   1      39.280  24.799  27.253  1.00  0.00     0.202 C 
BRANCH  33  34
ATOM     34  C   UNL A   1      40.479  25.143  26.357  1.00  0.00     0.261 C 
BRANCH  34  35
ATOM     35  O   UNL A   1      41.210  26.245  26.941  1.00  0.00    -0.460 OA
BRANCH  35  36
ATOM     36  C   UNL A   1      41.399  27.340  26.152  1.00  0.00     0.338 C 
ATOM     37  O   UNL A   1      41.965  27.342  25.071  1.00  0.00    -0.246 OA
BRANCH  36  38
ATOM     38  C   UNL A   1      41.071  28.578  26.922  1.00  0.00     0.060 A 
ATOM     39  C   UNL A   1      42.093  29.326  27.541  1.00  0.00     0.016 A 
ATOM     40  C   UNL A   1      39.746  28.792  27.288  1.00  0.00     0.016 A 
ATOM     41  C   UNL A   1      41.801  30.151  28.642  1.00  0.00     0.010 A 
ATOM     42  C   UNL A   1      39.484  29.509  28.434  1.00  0.00     0.010 A 
ATOM     43  C   UNL A   1      40.509  30.151  29.156  1.00  0.00    -0.014 A 
BRANCH  43  44
ATOM     44  C   UNL A   1      40.079  30.638  30.478  1.00  0.00     0.031 A 
ATOM     45  C   UNL A   1      39.342  31.923  30.497  1.00  0.00     0.074 A 
ATOM     46  C   UNL A   1      39.991  29.793  31.540  1.00  0.00     0.049 A 
ATOM     47  N   UNL A   1      38.745  32.394  31.527  1.00  0.00    -0.248 NA
ATOM     48  C   UNL A   1      39.190  32.790  29.330  1.00  0.00     0.031 C 
ATOM     49  C   UNL A   1      39.082  29.855  32.694  1.00  0.00     0.029 A 
ATOM     50  N   UNL A   1      40.731  28.636  31.834  1.00  0.00    -0.354 N 
ATOM     51  C   UNL A   1      37.884  33.383  31.120  1.00  0.00     0.074 A 
ATOM     52  C   UNL A   1      38.261  33.651  29.758  1.00  0.00     0.031 C 
ATOM     53  C   UNL A   1      39.542  29.066  33.683  1.00  0.00     0.029 A 
ATOM     54  C   UNL A   1      40.820  28.546  33.234  1.00  0.00     0.049 A 
ATOM     55  H   UNL A   1      41.116  28.006  31.183  1.00  0.00     0.167 HD
ATOM     56  C   UNL A   1      36.905  33.740  32.002  1.00  0.00     0.037 A 
ATOM     57  C   UNL A   1      42.030  28.650  33.841  1.00  0.00     0.037 A 
ATOM     58  C   UNL A   1      37.242  33.206  33.340  1.00  0.00     0.049 A 
ATOM     59  C   UNL A   1      41.987  29.910  34.654  1.00  0.00     0.074 A 
ATOM     60  C   UNL A   1      36.734  32.200  34.145  1.00  0.00     0.029 A 
ATOM     61  N   UNL A   1      38.508  33.507  33.864  1.00  0.00    -0.354 N 
ATOM     62  N   UNL A   1      41.247  30.942  34.327  1.00  0.00    -0.248 NA
ATOM     63  C   UNL A   1      42.546  30.007  35.995  1.00  0.00     0.031 C 
ATOM     64  C   UNL A   1      37.759  31.826  35.074  1.00  0.00     0.029 A 
ATOM     65  C   UNL A   1      38.884  32.613  34.850  1.00  0.00     0.049 A 
ATOM     66  H   UNL A   1      39.062  34.264  33.566  1.00  0.00     0.167 HD
ATOM     67  C   UNL A   1      41.077  31.723  35.432  1.00  0.00     0.074 A 
ATOM     68  C   UNL A   1      41.958  31.135  36.431  1.00  0.00     0.031 C 
ATOM     69  C   UNL A   1      40.175  32.743  35.531  1.00  0.00     0.037 A 
BRANCH  56  70
ATOM     70  C   UNL A   1      35.595  34.430  31.650  1.00  0.00     0.064 A 
ATOM     71  C   UNL A   1      35.008  35.351  32.549  1.00  0.00     0.173 A 
ATOM     72  C   UNL A   1      34.811  34.183  30.500  1.00  0.00     0.173 A 
ATOM     73  F   UNL A   1      35.613  35.683  33.698  1.00  0.00    -0.203 F 
ATOM     74  C   UNL A   1      33.764  35.958  32.317  1.00  0.00     0.198 A 
ATOM     75  C   UNL A   1      33.579  34.805  30.256  1.00  0.00     0.198 A 
ATOM     76  F   UNL A   1      35.170  33.311  29.557  1.00  0.00    -0.203 F 
ATOM     77  F   UNL A   1      33.254  36.799  33.227  1.00  0.00    -0.200 F 
ATOM     78  C   UNL A   1      33.051  35.689  31.167  1.00  0.00     0.200 A 
ATOM     79  F   UNL A   1      32.904  34.522  29.132  1.00  0.00    -0.200 F 
ATOM     80  F   UNL A   1      31.865  36.270  30.941  1.00  0.00    -0.200 F 
ENDBRANCH  56  70
BRANCH  57  81
ATOM     81  C   UNL A   1      43.089  28.016  32.993  1.00  0.00     0.064 A 
ATOM     82  C   UNL A   1      43.928  28.927  32.299  1.00  0.00     0.173 A 
ATOM     83  C   UNL A   1      43.629  26.753  33.269  1.00  0.00     0.173 A 
ATOM     84  F   UNL A   1      43.471  30.156  32.009  1.00  0.00    -0.203 F 
ATOM     85  C   UNL A   1      45.281  28.665  32.081  1.00  0.00     0.198 A 
ATOM     86  C   UNL A   1      44.982  26.481  33.009  1.00  0.00     0.198 A 
ATOM     87  F   UNL A   1      42.907  25.838  33.929  1.00  0.00    -0.203 F 
ATOM     88  F   UNL A   1      46.088  29.629  31.613  1.00  0.00    -0.200 F 
ATOM     89  C   UNL A   1      45.817  27.455  32.476  1.00  0.00     0.200 A 
ATOM     90  F   UNL A   1      45.513  25.309  33.391  1.00  0.00    -0.200 F 
ATOM     91  F   UNL A   1      47.141  27.250  32.408  1.00  0.00    -0.200 F 
ENDBRANCH  57  81
BRANCH  69  92
ATOM     92  C   UNL A   1      40.456  33.956  36.380  1.00  0.00     0.064 A 
ATOM     93  C   UNL A   1      41.452  34.899  36.059  1.00  0.00     0.173 A 
ATOM     94  C   UNL A   1      39.599  34.315  37.443  1.00  0.00     0.173 A 
ATOM     95  F   UNL A   1      42.238  34.761  34.981  1.00  0.00    -0.203 F 
ATOM     96  C   UNL A   1      41.639  36.059  36.803  1.00  0.00     0.198 A 
ATOM     97  C   UNL A   1      39.737  35.517  38.131  1.00  0.00     0.198 A 
ATOM     98  F   UNL A   1      38.576  33.538  37.824  1.00  0.00    -0.203 F 
ATOM     99  F   UNL A   1      42.647  36.884  36.494  1.00  0.00    -0.200 F 
ATOM    100  C   UNL A   1      40.773  36.375  37.830  1.00  0.00     0.200 A 
ATOM    101  F   UNL A   1      38.842  35.848  39.072  1.00  0.00    -0.200 F 
ATOM    102  F   UNL A   1      40.924  37.517  38.511  1.00  0.00    -0.200 F 
ENDBRANCH  69  92
ENDBRANCH  43  44
ENDBRANCH  36  38
ENDBRANCH  35  36
ENDBRANCH  34  35
ENDBRANCH  33  34
ENDBRANCH  32  33
ENDBRANCH   1  32
TORSDOF 18
ENDMDL
MODEL 3
REMARK VINA RESULT:     -12.1      4.493     10.437
REMARK SMILES COc1cc(Cl)c(C)cc1N1C(=O)C[C@H](Nc2cc(C(=O)OCCOCCOC(=O)c3ccc(-c4c5nc(c(-c6c(F)c(F)c(F)c(F)c6F)c6ccc([nH]6)c(-c6c(F)c(F)c(F)c(F)c6F)c6nc(c(-c7c(F)c(F)c(F)c(F)c7F)c7ccc4[nH]7)C=C6)C=C5)cc3)ccc2C)C1=O
REMARK SMILES IDX 24 1 23 2 22 3 20 4 21 5 19 6 17 7 18 8 96 9 95 10 97 11
REMARK SMILES IDX 94 12 16 13 15 15 11 16 12 17 98 18 13 19 14 20 99 21 10 22
REMARK SMILES IDX 3 23 4 24 5 25 9 26 6 27 7 28 8 29 2 30 1 31 25 32 26 33
REMARK SMILES IDX 27 34 28 35 29 36 30 37 31 38 32 39 93 40 33 41 92 42 34 43
REMARK SMILES IDX 35 44 36 45 86 46 37 47 91 48 85 49 87 50 38 51 90 52 84 53
REMARK SMILES IDX 83 54 39 56 71 57 51 58 70 59 52 60 55 61 69 62 88 63 53 64
REMARK SMILES IDX 54 65 68 67 89 68 56 69 40 70 41 71 49 72 42 73 43 74 47 75
REMARK SMILES IDX 50 76 44 77 45 78 48 79 46 80 72 81 73 82 81 83 74 84 75 85
REMARK SMILES IDX 79 86 82 87 76 88 77 89 80 90 78 91 57 92 58 93 66 94 59 95
REMARK SMILES IDX 60 96 64 97 67 98 61 99 62 100 65 101 63 102
REMARK H PARENT 16 14 87 55 55 66
REMARK Flexibility Score: inf
ROOT
ATOM      1  C   UNL A   1      41.385  20.031  25.829  1.00  0.00     0.202 C 
ENDROOT
BRANCH   1   2
ATOM      2  C   UNL A   1      40.011  19.926  26.397  1.00  0.00     0.261 C 
BRANCH   2   3
ATOM      3  O   UNL A   1      39.011  19.955  25.377  1.00  0.00    -0.460 OA
BRANCH   3   4
ATOM      4  C   UNL A   1      38.185  21.037  25.286  1.00  0.00     0.338 C 
ATOM      5  O   UNL A   1      38.466  22.211  25.338  1.00  0.00    -0.246 OA
BRANCH   4   6
ATOM      6  C   UNL A   1      36.858  20.487  24.936  1.00  0.00     0.062 A 
ATOM      7  C   UNL A   1      34.473  20.901  24.659  1.00  0.00     0.038 A 
ATOM      8  C   UNL A   1      35.779  21.358  24.794  1.00  0.00     0.041 A 
ATOM      9  C   UNL A   1      34.250  19.519  24.629  1.00  0.00    -0.028 A 
ATOM     10  C   UNL A   1      35.347  18.635  24.730  1.00  0.00     0.006 A 
ATOM     11  C   UNL A   1      32.884  18.927  24.431  1.00  0.00     0.046 C 
ATOM     12  C   UNL A   1      36.651  19.115  24.879  1.00  0.00     0.016 A 
BRANCH   7  13
ATOM     13  N   UNL A   1      33.475  21.842  24.474  1.00  0.00    -0.373 N 
ATOM     14  H   UNL A   1      32.527  21.609  24.600  1.00  0.00     0.161 HD
BRANCH  13  15
ATOM     15  C   UNL A   1      33.875  23.192  24.084  1.00  0.00     0.179 C 
ATOM     16  N   UNL A   1      32.567  24.995  23.421  1.00  0.00    -0.245 N 
ATOM     17  C   UNL A   1      33.035  24.449  22.257  1.00  0.00     0.236 C 
ATOM     18  C   UNL A   1      32.915  24.276  24.537  1.00  0.00     0.256 C 
ATOM     19  O   UNL A   1      32.845  24.841  21.113  1.00  0.00    -0.274 OA
ATOM     20  C   UNL A   1      33.919  23.290  22.575  1.00  0.00     0.136 C 
ATOM     21  O   UNL A   1      32.535  24.440  25.688  1.00  0.00    -0.272 OA
BRANCH  16  22
ATOM     22  C   UNL A   1      31.837  26.196  23.458  1.00  0.00     0.094 A 
ATOM     23  C   UNL A   1      32.474  27.446  23.434  1.00  0.00     0.144 A 
ATOM     24  C   UNL A   1      31.714  28.616  23.491  1.00  0.00     0.069 A 
ATOM     25  C   UNL A   1      30.319  28.546  23.550  1.00  0.00     0.047 A 
ATOM     26  C   UNL A   1      30.436  26.136  23.492  1.00  0.00     0.035 A 
ATOM     27  Cl  UNL A   1      29.435  30.030  23.597  1.00  0.00    -0.084 Cl
ATOM     28  C   UNL A   1      29.663  27.305  23.561  1.00  0.00    -0.030 A 
ATOM     29  C   UNL A   1      28.167  27.189  23.659  1.00  0.00     0.046 C 
BRANCH  23  30
ATOM     30  O   UNL A   1      33.833  27.613  23.351  1.00  0.00    -0.495 OA
ATOM     31  C   UNL A   1      34.213  28.933  22.960  1.00  0.00     0.278 C 
ENDBRANCH  23  30
ENDBRANCH  16  22
ENDBRANCH  13  15
ENDBRANCH   7  13
ENDBRANCH   4   6
ENDBRANCH   3   4
ENDBRANCH   2   3
ENDBRANCH   1   2
BRANCH   1  32
ATOM     32  O   UNL A   1      42.153  20.694  26.821  1.00  0.00    -0.374 OA
BRANCH  32  33
ATOM     33  C   UNL A   1      42.903  21.798  26.356  1.00  0.00     0.202 C 
BRANCH  33  34
ATOM     34  C   UNL A   1      42.018  22.975  25.920  1.00  0.00     0.261 C 
BRANCH  34  35
ATOM     35  O   UNL A   1      41.835  23.873  27.038  1.00  0.00    -0.460 OA
BRANCH  35  36
ATOM     36  C   UNL A   1      40.580  23.943  27.566  1.00  0.00     0.338 C 
ATOM     37  O   UNL A   1      39.829  22.995  27.729  1.00  0.00    -0.246 OA
BRANCH  36  38
ATOM     38  C   UNL A   1      40.149  25.371  27.650  1.00  0.00     0.060 A 
ATOM     39  C   UNL A   1      40.589  26.307  26.692  1.00  0.00     0.016 A 
ATOM     40  C   UNL A   1      39.593  25.820  28.843  1.00  0.00     0.016 A 
ATOM     41  C   UNL A   1      40.633  27.677  27.007  1.00  0.00     0.010 A 
ATOM     42  C   UNL A   1      39.745  27.146  29.186  1.00  0.00     0.010 A 
ATOM     43  C   UNL A   1      40.314  28.079  28.299  1.00  0.00    -0.014 A 
BRANCH  43  44
ATOM     44  C   UNL A   1      40.632  29.371  28.931  1.00  0.00     0.031 A 
ATOM     45  C   UNL A   1      39.540  30.372  28.963  1.00  0.00     0.074 A 
ATOM     46  C   UNL A   1      41.686  29.493  29.781  1.00  0.00     0.049 A 
ATOM     47  N   UNL A   1      39.588  31.466  29.627  1.00  0.00    -0.248 NA
ATOM     48  C   UNL A   1      38.270  30.213  28.258  1.00  0.00     0.031 C 
ATOM     49  C   UNL A   1      41.845  30.400  30.927  1.00  0.00     0.029 A 
ATOM     50  N   UNL A   1      42.907  28.799  29.808  1.00  0.00    -0.354 N 
ATOM     51  C   UNL A   1      38.315  31.971  29.731  1.00  0.00     0.074 A 
ATOM     52  C   UNL A   1      37.545  31.202  28.790  1.00  0.00     0.031 C 
ATOM     53  C   UNL A   1      43.142  30.470  31.281  1.00  0.00     0.029 A 
ATOM     54  C   UNL A   1      43.877  29.686  30.306  1.00  0.00     0.049 A 
ATOM     55  H   UNL A   1      43.055  27.866  29.530  1.00  0.00     0.167 HD
ATOM     56  C   UNL A   1      38.110  32.910  30.699  1.00  0.00     0.037 A 
ATOM     57  C   UNL A   1      44.902  30.082  29.508  1.00  0.00     0.037 A 
ATOM     58  C   UNL A   1      39.418  33.414  31.171  1.00  0.00     0.049 A 
ATOM     59  C   UNL A   1      44.720  31.555  29.289  1.00  0.00     0.074 A 
ATOM     60  C   UNL A   1      40.154  33.277  32.336  1.00  0.00     0.029 A 
ATOM     61  N   UNL A   1      40.320  33.892  30.208  1.00  0.00    -0.354 N 
ATOM     62  N   UNL A   1      43.545  32.136  29.306  1.00  0.00    -0.248 NA
ATOM     63  C   UNL A   1      45.828  32.500  29.300  1.00  0.00     0.031 C 
ATOM     64  C   UNL A   1      41.524  33.561  32.023  1.00  0.00     0.029 A 
ATOM     65  C   UNL A   1      41.622  33.890  30.675  1.00  0.00     0.049 A 
ATOM     66  H   UNL A   1      40.058  34.193  29.309  1.00  0.00     0.167 HD
ATOM     67  C   UNL A   1      43.723  33.472  29.513  1.00  0.00     0.074 A 
ATOM     68  C   UNL A   1      45.165  33.662  29.439  1.00  0.00     0.031 C 
ATOM     69  C   UNL A   1      42.726  34.350  29.828  1.00  0.00     0.037 A 
BRANCH  56  70
ATOM     70  C   UNL A   1      36.768  33.272  31.322  1.00  0.00     0.064 A 
ATOM     71  C   UNL A   1      35.777  33.925  30.553  1.00  0.00     0.173 A 
ATOM     72  C   UNL A   1      36.407  33.091  32.676  1.00  0.00     0.173 A 
ATOM     73  F   UNL A   1      35.967  34.190  29.253  1.00  0.00    -0.203 F 
ATOM     74  C   UNL A   1      34.553  34.354  31.090  1.00  0.00     0.198 A 
ATOM     75  C   UNL A   1      35.176  33.499  33.209  1.00  0.00     0.198 A 
ATOM     76  F   UNL A   1      37.225  32.537  33.572  1.00  0.00    -0.203 F 
ATOM     77  F   UNL A   1      33.671  34.995  30.310  1.00  0.00    -0.200 F 
ATOM     78  C   UNL A   1      34.250  34.136  32.418  1.00  0.00     0.200 A 
ATOM     79  F   UNL A   1      34.910  33.279  34.505  1.00  0.00    -0.200 F 
ATOM     80  F   UNL A   1      33.082  34.541  32.933  1.00  0.00    -0.200 F 
ENDBRANCH  56  70
BRANCH  57  81
ATOM     81  C   UNL A   1      45.321  28.958  28.610  1.00  0.00     0.064 A 
ATOM     82  C   UNL A   1      45.995  27.890  29.258  1.00  0.00     0.173 A 
ATOM     83  C   UNL A   1      44.649  28.646  27.421  1.00  0.00     0.173 A 
ATOM     84  F   UNL A   1      46.653  28.124  30.406  1.00  0.00    -0.203 F 
ATOM     85  C   UNL A   1      45.834  26.564  28.856  1.00  0.00     0.198 A 
ATOM     86  C   UNL A   1      44.526  27.312  26.999  1.00  0.00     0.198 A 
ATOM     87  F   UNL A   1      43.979  29.593  26.753  1.00  0.00    -0.203 F 
ATOM     88  F   UNL A   1      46.314  25.566  29.614  1.00  0.00    -0.200 F 
ATOM     89  C   UNL A   1      45.063  26.273  27.748  1.00  0.00     0.200 A 
ATOM     90  F   UNL A   1      43.777  27.018  25.924  1.00  0.00    -0.200 F 
ATOM     91  F   UNL A   1      44.781  24.998  27.440  1.00  0.00    -0.200 F 
ENDBRANCH  57  81
BRANCH  69  92
ATOM     92  C   UNL A   1      42.779  35.788  29.380  1.00  0.00     0.064 A 
ATOM     93  C   UNL A   1      43.467  36.786  30.096  1.00  0.00     0.173 A 
ATOM     94  C   UNL A   1      42.302  36.171  28.107  1.00  0.00     0.173 A 
ATOM     95  F   UNL A   1      44.102  36.522  31.248  1.00  0.00    -0.203 F 
ATOM     96  C   UNL A   1      43.582  38.089  29.623  1.00  0.00     0.198 A 
ATOM     97  C   UNL A   1      42.493  37.454  27.602  1.00  0.00     0.198 A 
ATOM     98  F   UNL A   1      41.674  35.310  27.295  1.00  0.00    -0.203 F 
ATOM     99  F   UNL A   1      44.186  39.014  30.380  1.00  0.00    -0.200 F 
ATOM    100  C   UNL A   1      43.108  38.419  28.370  1.00  0.00     0.200 A 
ATOM    101  F   UNL A   1      42.099  37.738  26.353  1.00  0.00    -0.200 F 
ATOM    102  F   UNL A   1      43.266  39.661  27.896  1.00  0.00    -0.200 F 
ENDBRANCH  69  92
ENDBRANCH  43  44
ENDBRANCH  36  38
ENDBRANCH  35  36
ENDBRANCH  34  35
ENDBRANCH  33  34
ENDBRANCH  32  33
ENDBRANCH   1  32
TORSDOF 18
ENDMDL
