MODEL 1
REMARK VINA RESULT:     -10.6      0.000      0.000
REMARK SMILES Cn1ncc(SCC(=O)OCCOCCOC(=O)c2ccc(-c3c4nc(c(-c5c(F)c(F)c(F)c(F)c5F)c5ccc([nH]5)c(-c5c(F)c(F)c(F)c(F)c5F)c5nc(c(-c6c(F)c(F)c(F)c(F)c6F)c6ccc3[nH]6)C=C5)C=C4)cc2)c(Cl)c1=O
REMARK SMILES IDX 13 1 12 2 11 3 10 4 8 5 9 6 7 7 6 8 5 9 1 10 2 11 3 12 84 13
REMARK SMILES IDX 4 14 82 15 85 16 83 17 14 18 15 19 16 20 17 21 18 22 19 23
REMARK SMILES IDX 20 24 81 25 21 26 80 27 22 28 23 29 24 30 74 31 25 32 79 33
REMARK SMILES IDX 73 34 75 35 26 36 78 37 72 38 71 39 27 41 59 42 39 43 58 44
REMARK SMILES IDX 40 45 43 46 57 47 76 48 41 49 42 50 56 52 77 53 44 54 28 55
REMARK SMILES IDX 29 56 37 57 30 58 31 59 35 60 38 61 32 62 33 63 36 64 34 65
REMARK SMILES IDX 60 66 61 67 69 68 62 69 63 70 67 71 70 72 64 73 65 74 68 75
REMARK SMILES IDX 66 76 45 77 46 78 54 79 47 80 48 81 52 82 55 83 49 84 50 85
REMARK SMILES IDX 53 86 51 87
REMARK H PARENT 75 40 43 51
REMARK Flexibility Score: inf
ROOT
ATOM      1  O   UNL A   1      46.091  21.250  25.223  1.00  0.00    -0.374 OA
ENDROOT
BRANCH   1   2
ATOM      2  C   UNL A   1      46.440  19.968  24.713  1.00  0.00     0.202 C 
BRANCH   2   3
ATOM      3  C   UNL A   1      45.817  18.748  25.400  1.00  0.00     0.261 C 
BRANCH   3   4
ATOM      4  O   UNL A   1      44.482  18.426  24.950  1.00  0.00    -0.463 OA
BRANCH   4   5
ATOM      5  C   UNL A   1      43.520  18.454  25.916  1.00  0.00     0.316 C 
ATOM      6  O   UNL A   1      43.373  17.580  26.766  1.00  0.00    -0.251 OA
BRANCH   5   7
ATOM      7  C   UNL A   1      42.531  19.587  25.778  1.00  0.00     0.197 C 
BRANCH   7   8
ATOM      8  S   UNL A   1      40.802  19.259  26.128  1.00  0.00    -0.111 SA
BRANCH   8   9
ATOM      9  C   UNL A   1      39.889  20.720  26.244  1.00  0.00     0.052 A 
ATOM     10  C   UNL A   1      37.208  23.926  25.444  1.00  0.00     0.178 C 
ATOM     11  N   UNL A   1      38.063  22.818  25.845  1.00  0.00    -0.232 N 
ATOM     12  N   UNL A   1      37.799  21.624  25.239  1.00  0.00    -0.177 NA
ATOM     13  C   UNL A   1      39.118  23.022  26.727  1.00  0.00     0.286 A 
ATOM     14  C   UNL A   1      38.639  20.665  25.443  1.00  0.00     0.150 A 
ATOM     15  C   UNL A   1      40.042  21.853  26.943  1.00  0.00     0.123 A 
ATOM     16  O   UNL A   1      39.342  24.110  27.257  1.00  0.00    -0.266 OA
ATOM     17  Cl  UNL A   1      41.318  22.159  28.067  1.00  0.00    -0.077 Cl
ENDBRANCH   8   9
ENDBRANCH   7   8
ENDBRANCH   5   7
ENDBRANCH   4   5
ENDBRANCH   3   4
ENDBRANCH   2   3
ENDBRANCH   1   2
BRANCH   1  18
ATOM     18  C   UNL A   1      46.011  22.325  24.292  1.00  0.00     0.202 C 
BRANCH  18  19
ATOM     19  C   UNL A   1      44.709  23.131  24.308  1.00  0.00     0.261 C 
BRANCH  19  20
ATOM     20  O   UNL A   1      44.539  23.853  25.539  1.00  0.00    -0.460 OA
BRANCH  20  21
ATOM     21  C   UNL A   1      44.765  25.179  25.434  1.00  0.00     0.338 C 
ATOM     22  O   UNL A   1      45.553  25.752  24.685  1.00  0.00    -0.246 OA
BRANCH  21  23
ATOM     23  C   UNL A   1      43.805  25.923  26.253  1.00  0.00     0.060 A 
ATOM     24  C   UNL A   1      43.998  27.303  26.392  1.00  0.00     0.016 A 
ATOM     25  C   UNL A   1      42.829  25.254  26.994  1.00  0.00     0.016 A 
ATOM     26  C   UNL A   1      43.246  28.016  27.318  1.00  0.00     0.010 A 
ATOM     27  C   UNL A   1      42.085  25.969  27.937  1.00  0.00     0.010 A 
ATOM     28  C   UNL A   1      42.326  27.341  28.131  1.00  0.00    -0.014 A 
BRANCH  28  29
ATOM     29  C   UNL A   1      41.783  28.036  29.320  1.00  0.00     0.031 A 
ATOM     30  C   UNL A   1      42.523  27.908  30.622  1.00  0.00     0.074 A 
ATOM     31  C   UNL A   1      40.694  28.817  29.220  1.00  0.00     0.049 A 
ATOM     32  N   UNL A   1      42.262  28.453  31.783  1.00  0.00    -0.248 NA
ATOM     33  C   UNL A   1      43.728  27.059  30.613  1.00  0.00     0.031 C 
ATOM     34  C   UNL A   1      39.936  29.053  27.994  1.00  0.00     0.029 A 
ATOM     35  N   UNL A   1      40.044  29.565  30.170  1.00  0.00    -0.354 N 
ATOM     36  C   UNL A   1      43.277  28.028  32.631  1.00  0.00     0.074 A 
ATOM     37  C   UNL A   1      44.136  27.151  31.870  1.00  0.00     0.031 C 
ATOM     38  C   UNL A   1      38.920  29.890  28.266  1.00  0.00     0.029 A 
ATOM     39  C   UNL A   1      38.946  30.229  29.688  1.00  0.00     0.049 A 
ATOM     40  H   UNL A   1      40.340  29.619  31.107  1.00  0.00     0.167 HD
ATOM     41  C   UNL A   1      43.479  28.358  33.928  1.00  0.00     0.037 A 
ATOM     42  C   UNL A   1      38.060  31.016  30.331  1.00  0.00     0.037 A 
ATOM     43  C   UNL A   1      42.611  29.219  34.683  1.00  0.00     0.049 A 
ATOM     44  C   UNL A   1      38.252  31.283  31.802  1.00  0.00     0.074 A 
ATOM     45  C   UNL A   1      42.717  29.608  36.007  1.00  0.00     0.029 A 
ATOM     46  N   UNL A   1      41.467  29.820  34.178  1.00  0.00    -0.354 N 
ATOM     47  N   UNL A   1      39.220  30.891  32.594  1.00  0.00    -0.248 NA
ATOM     48  C   UNL A   1      37.228  32.102  32.467  1.00  0.00     0.031 C 
ATOM     49  C   UNL A   1      41.614  30.408  36.315  1.00  0.00     0.029 A 
ATOM     50  C   UNL A   1      40.846  30.559  35.170  1.00  0.00     0.049 A 
ATOM     51  H   UNL A   1      41.146  29.736  33.251  1.00  0.00     0.167 HD
ATOM     52  C   UNL A   1      38.939  31.434  33.840  1.00  0.00     0.074 A 
ATOM     53  C   UNL A   1      37.714  32.193  33.698  1.00  0.00     0.031 C 
ATOM     54  C   UNL A   1      39.631  31.313  35.001  1.00  0.00     0.037 A 
BRANCH  41  55
ATOM     55  C   UNL A   1      44.680  27.783  34.617  1.00  0.00     0.064 A 
ATOM     56  C   UNL A   1      45.900  28.475  34.654  1.00  0.00     0.173 A 
ATOM     57  C   UNL A   1      44.595  26.559  35.296  1.00  0.00     0.173 A 
ATOM     58  F   UNL A   1      46.034  29.641  34.006  1.00  0.00    -0.203 F 
ATOM     59  C   UNL A   1      46.995  27.957  35.342  1.00  0.00     0.198 A 
ATOM     60  C   UNL A   1      45.685  26.056  36.002  1.00  0.00     0.198 A 
ATOM     61  F   UNL A   1      43.451  25.860  35.289  1.00  0.00    -0.203 F 
ATOM     62  F   UNL A   1      48.159  28.621  35.343  1.00  0.00    -0.200 F 
ATOM     63  C   UNL A   1      46.884  26.753  36.022  1.00  0.00     0.200 A 
ATOM     64  F   UNL A   1      45.574  24.898  36.668  1.00  0.00    -0.200 F 
ATOM     65  F   UNL A   1      47.933  26.265  36.698  1.00  0.00    -0.200 F 
ENDBRANCH  41  55
BRANCH  42  66
ATOM     66  C   UNL A   1      36.918  31.609  29.588  1.00  0.00     0.064 A 
ATOM     67  C   UNL A   1      36.878  32.979  29.300  1.00  0.00     0.173 A 
ATOM     68  C   UNL A   1      35.844  30.818  29.152  1.00  0.00     0.173 A 
ATOM     69  F   UNL A   1      37.869  33.780  29.715  1.00  0.00    -0.203 F 
ATOM     70  C   UNL A   1      35.801  33.540  28.614  1.00  0.00     0.198 A 
ATOM     71  C   UNL A   1      34.781  31.375  28.444  1.00  0.00     0.198 A 
ATOM     72  F   UNL A   1      35.832  29.502  29.405  1.00  0.00    -0.203 F 
ATOM     73  F   UNL A   1      35.770  34.859  28.383  1.00  0.00    -0.200 F 
ATOM     74  C   UNL A   1      34.757  32.736  28.180  1.00  0.00     0.200 A 
ATOM     75  F   UNL A   1      33.780  30.593  28.017  1.00  0.00    -0.200 F 
ATOM     76  F   UNL A   1      33.727  33.274  27.514  1.00  0.00    -0.200 F 
ENDBRANCH  42  66
BRANCH  54  77
ATOM     77  C   UNL A   1      39.096  32.028  36.206  1.00  0.00     0.064 A 
ATOM     78  C   UNL A   1      39.433  33.363  36.471  1.00  0.00     0.173 A 
ATOM     79  C   UNL A   1      38.172  31.400  37.053  1.00  0.00     0.173 A 
ATOM     80  F   UNL A   1      40.321  34.002  35.695  1.00  0.00    -0.203 F 
ATOM     81  C   UNL A   1      38.871  34.040  37.549  1.00  0.00     0.198 A 
ATOM     82  C   UNL A   1      37.591  32.088  38.114  1.00  0.00     0.198 A 
ATOM     83  F   UNL A   1      37.811  30.126  36.835  1.00  0.00    -0.203 F 
ATOM     84  F   UNL A   1      39.229  35.306  37.803  1.00  0.00    -0.200 F 
ATOM     85  C   UNL A   1      37.943  33.406  38.363  1.00  0.00     0.200 A 
ATOM     86  F   UNL A   1      36.682  31.479  38.889  1.00  0.00    -0.200 F 
ATOM     87  F   UNL A   1      37.389  34.066  39.389  1.00  0.00    -0.200 F 
ENDBRANCH  54  77
ENDBRANCH  28  29
ENDBRANCH  21  23
ENDBRANCH  20  21
ENDBRANCH  19  20
ENDBRANCH  18  19
ENDBRANCH   1  18
TORSDOF 16
ENDMDL
MODEL 2
REMARK VINA RESULT:     -10.5      5.098     10.315
REMARK SMILES Cn1ncc(SCC(=O)OCCOCCOC(=O)c2ccc(-c3c4nc(c(-c5c(F)c(F)c(F)c(F)c5F)c5ccc([nH]5)c(-c5c(F)c(F)c(F)c(F)c5F)c5nc(c(-c6c(F)c(F)c(F)c(F)c6F)c6ccc3[nH]6)C=C5)C=C4)cc2)c(Cl)c1=O
REMARK SMILES IDX 13 1 12 2 11 3 10 4 8 5 9 6 7 7 6 8 5 9 1 10 2 11 3 12 84 13
REMARK SMILES IDX 4 14 82 15 85 16 83 17 14 18 15 19 16 20 17 21 18 22 19 23
REMARK SMILES IDX 20 24 81 25 21 26 80 27 22 28 23 29 24 30 74 31 25 32 79 33
REMARK SMILES IDX 73 34 75 35 26 36 78 37 72 38 71 39 27 41 59 42 39 43 58 44
REMARK SMILES IDX 40 45 43 46 57 47 76 48 41 49 42 50 56 52 77 53 44 54 28 55
REMARK SMILES IDX 29 56 37 57 30 58 31 59 35 60 38 61 32 62 33 63 36 64 34 65
REMARK SMILES IDX 60 66 61 67 69 68 62 69 63 70 67 71 70 72 64 73 65 74 68 75
REMARK SMILES IDX 66 76 45 77 46 78 54 79 47 80 48 81 52 82 55 83 49 84 50 85
REMARK SMILES IDX 53 86 51 87
REMARK H PARENT 75 40 43 51
REMARK Flexibility Score: inf
ROOT
ATOM      1  O   UNL A   1      32.095  30.462  26.978  1.00  0.00    -0.374 OA
ENDROOT
BRANCH   1   2
ATOM      2  C   UNL A   1      33.103  29.880  26.159  1.00  0.00     0.202 C 
BRANCH   2   3
ATOM      3  C   UNL A   1      33.787  28.615  26.685  1.00  0.00     0.261 C 
BRANCH   3   4
ATOM      4  O   UNL A   1      33.058  27.393  26.435  1.00  0.00    -0.463 OA
BRANCH   4   5
ATOM      5  C   UNL A   1      32.997  27.006  25.129  1.00  0.00     0.316 C 
ATOM      6  O   UNL A   1      33.823  27.326  24.278  1.00  0.00    -0.251 OA
BRANCH   5   7
ATOM      7  C   UNL A   1      31.738  26.259  24.758  1.00  0.00     0.197 C 
BRANCH   7   8
ATOM      8  S   UNL A   1      31.165  26.342  23.060  1.00  0.00    -0.111 SA
BRANCH   8   9
ATOM      9  C   UNL A   1      30.017  27.614  22.839  1.00  0.00     0.052 A 
ATOM     10  C   UNL A   1      28.220  31.403  22.119  1.00  0.00     0.178 C 
ATOM     11  N   UNL A   1      28.747  30.054  22.267  1.00  0.00    -0.232 N 
ATOM     12  N   UNL A   1      29.996  29.852  21.751  1.00  0.00    -0.177 NA
ATOM     13  C   UNL A   1      28.032  29.088  22.963  1.00  0.00     0.286 A 
ATOM     14  C   UNL A   1      30.560  28.721  22.010  1.00  0.00     0.150 A 
ATOM     15  C   UNL A   1      28.739  27.780  23.205  1.00  0.00     0.123 A 
ATOM     16  O   UNL A   1      26.911  29.293  23.426  1.00  0.00    -0.266 OA
ATOM     17  Cl  UNL A   1      27.791  26.610  24.053  1.00  0.00    -0.077 Cl
ENDBRANCH   8   9
ENDBRANCH   7   8
ENDBRANCH   5   7
ENDBRANCH   4   5
ENDBRANCH   3   4
ENDBRANCH   2   3
ENDBRANCH   1   2
BRANCH   1  18
ATOM     18  C   UNL A   1      31.466  31.648  26.499  1.00  0.00     0.202 C 
BRANCH  18  19
ATOM     19  C   UNL A   1      31.818  32.940  27.242  1.00  0.00     0.261 C 
BRANCH  19  20
ATOM     20  O   UNL A   1      33.188  33.323  27.037  1.00  0.00    -0.460 OA
BRANCH  20  21
ATOM     21  C   UNL A   1      33.820  33.724  28.160  1.00  0.00     0.338 C 
ATOM     22  O   UNL A   1      33.421  34.520  29.006  1.00  0.00    -0.246 OA
BRANCH  21  23
ATOM     23  C   UNL A   1      35.047  32.948  28.353  1.00  0.00     0.060 A 
ATOM     24  C   UNL A   1      34.918  31.608  28.740  1.00  0.00     0.016 A 
ATOM     25  C   UNL A   1      36.298  33.566  28.308  1.00  0.00     0.016 A 
ATOM     26  C   UNL A   1      36.041  30.891  29.138  1.00  0.00     0.010 A 
ATOM     27  C   UNL A   1      37.424  32.849  28.723  1.00  0.00     0.010 A 
ATOM     28  C   UNL A   1      37.289  31.527  29.182  1.00  0.00    -0.014 A 
BRANCH  28  29
ATOM     29  C   UNL A   1      38.396  30.868  29.909  1.00  0.00     0.031 A 
ATOM     30  C   UNL A   1      38.608  31.218  31.356  1.00  0.00     0.074 A 
ATOM     31  C   UNL A   1      39.150  29.931  29.310  1.00  0.00     0.049 A 
ATOM     32  N   UNL A   1      39.485  30.747  32.205  1.00  0.00    -0.248 NA
ATOM     33  C   UNL A   1      37.702  32.230  31.928  1.00  0.00     0.031 C 
ATOM     34  C   UNL A   1      38.992  29.479  27.930  1.00  0.00     0.029 A 
ATOM     35  N   UNL A   1      40.194  29.184  29.794  1.00  0.00    -0.354 N 
ATOM     36  C   UNL A   1      39.223  31.389  33.408  1.00  0.00     0.074 A 
ATOM     37  C   UNL A   1      38.136  32.311  33.177  1.00  0.00     0.031 C 
ATOM     38  C   UNL A   1      39.909  28.530  27.676  1.00  0.00     0.029 A 
ATOM     39  C   UNL A   1      40.730  28.326  28.868  1.00  0.00     0.049 A 
ATOM     40  H   UNL A   1      40.526  29.257  30.718  1.00  0.00     0.167 HD
ATOM     41  C   UNL A   1      39.829  31.209  34.604  1.00  0.00     0.037 A 
ATOM     42  C   UNL A   1      41.773  27.479  28.977  1.00  0.00     0.037 A 
ATOM     43  C   UNL A   1      40.922  30.301  34.824  1.00  0.00     0.049 A 
ATOM     44  C   UNL A   1      42.497  27.375  30.294  1.00  0.00     0.074 A 
ATOM     45  C   UNL A   1      41.616  30.051  35.994  1.00  0.00     0.029 A 
ATOM     46  N   UNL A   1      41.483  29.496  33.843  1.00  0.00    -0.354 N 
ATOM     47  N   UNL A   1      42.235  27.972  31.431  1.00  0.00    -0.248 NA
ATOM     48  C   UNL A   1      43.661  26.477  30.343  1.00  0.00     0.031 C 
ATOM     49  C   UNL A   1      42.627  29.129  35.711  1.00  0.00     0.029 A 
ATOM     50  C   UNL A   1      42.532  28.766  34.376  1.00  0.00     0.049 A 
ATOM     51  H   UNL A   1      41.180  29.450  32.907  1.00  0.00     0.167 HD
ATOM     52  C   UNL A   1      43.181  27.508  32.335  1.00  0.00     0.074 A 
ATOM     53  C   UNL A   1      44.017  26.568  31.617  1.00  0.00     0.031 C 
ATOM     54  C   UNL A   1      43.344  27.831  33.642  1.00  0.00     0.037 A 
BRANCH  41  55
ATOM     55  C   UNL A   1      39.332  32.012  35.768  1.00  0.00     0.064 A 
ATOM     56  C   UNL A   1      38.378  31.493  36.658  1.00  0.00     0.173 A 
ATOM     57  C   UNL A   1      39.855  33.286  36.033  1.00  0.00     0.173 A 
ATOM     58  F   UNL A   1      37.837  30.286  36.439  1.00  0.00    -0.203 F 
ATOM     59  C   UNL A   1      37.962  32.227  37.767  1.00  0.00     0.198 A 
ATOM     60  C   UNL A   1      39.453  34.006  37.156  1.00  0.00     0.198 A 
ATOM     61  F   UNL A   1      40.769  33.825  35.212  1.00  0.00    -0.203 F 
ATOM     62  F   UNL A   1      37.031  31.724  38.589  1.00  0.00    -0.200 F 
ATOM     63  C   UNL A   1      38.506  33.477  38.019  1.00  0.00     0.200 A 
ATOM     64  F   UNL A   1      39.988  35.210  37.404  1.00  0.00    -0.200 F 
ATOM     65  F   UNL A   1      38.117  34.174  39.096  1.00  0.00    -0.200 F 
ENDBRANCH  41  55
BRANCH  42  66
ATOM     66  C   UNL A   1      42.190  26.662  27.807  1.00  0.00     0.064 A 
ATOM     67  C   UNL A   1      43.135  27.142  26.891  1.00  0.00     0.173 A 
ATOM     68  C   UNL A   1      41.650  25.387  27.581  1.00  0.00     0.173 A 
ATOM     69  F   UNL A   1      43.662  28.364  27.051  1.00  0.00    -0.203 F 
ATOM     70  C   UNL A   1      43.518  26.382  25.786  1.00  0.00     0.198 A 
ATOM     71  C   UNL A   1      42.053  24.618  26.491  1.00  0.00     0.198 A 
ATOM     72  F   UNL A   1      40.740  24.882  28.426  1.00  0.00    -0.203 F 
ATOM     73  F   UNL A   1      44.397  26.879  24.906  1.00  0.00    -0.200 F 
ATOM     74  C   UNL A   1      42.982  25.118  25.591  1.00  0.00     0.200 A 
ATOM     75  F   UNL A   1      41.541  23.392  26.313  1.00  0.00    -0.200 F 
ATOM     76  F   UNL A   1      43.356  24.385  24.534  1.00  0.00    -0.200 F 
ENDBRANCH  42  66
BRANCH  54  77
ATOM     77  C   UNL A   1      44.454  27.155  34.391  1.00  0.00     0.064 A 
ATOM     78  C   UNL A   1      44.269  25.907  35.001  1.00  0.00     0.173 A 
ATOM     79  C   UNL A   1      45.737  27.722  34.424  1.00  0.00     0.173 A 
ATOM     80  F   UNL A   1      43.057  25.330  35.005  1.00  0.00    -0.203 F 
ATOM     81  C   UNL A   1      45.327  25.254  35.627  1.00  0.00     0.198 A 
ATOM     82  C   UNL A   1      46.799  27.054  35.027  1.00  0.00     0.198 A 
ATOM     83  F   UNL A   1      45.967  28.911  33.846  1.00  0.00    -0.203 F 
ATOM     84  F   UNL A   1      45.121  24.075  36.230  1.00  0.00    -0.200 F 
ATOM     85  C   UNL A   1      46.593  25.823  35.631  1.00  0.00     0.200 A 
ATOM     86  F   UNL A   1      48.024  27.598  35.015  1.00  0.00    -0.200 F 
ATOM     87  F   UNL A   1      47.614  25.184  36.217  1.00  0.00    -0.200 F 
ENDBRANCH  54  77
ENDBRANCH  28  29
ENDBRANCH  21  23
ENDBRANCH  20  21
ENDBRANCH  19  20
ENDBRANCH  18  19
ENDBRANCH   1  18
TORSDOF 16
ENDMDL
MODEL 3
REMARK VINA RESULT:     -10.4      5.283      8.422
REMARK SMILES Cn1ncc(SCC(=O)OCCOCCOC(=O)c2ccc(-c3c4nc(c(-c5c(F)c(F)c(F)c(F)c5F)c5ccc([nH]5)c(-c5c(F)c(F)c(F)c(F)c5F)c5nc(c(-c6c(F)c(F)c(F)c(F)c6F)c6ccc3[nH]6)C=C5)C=C4)cc2)c(Cl)c1=O
REMARK SMILES IDX 13 1 12 2 11 3 10 4 8 5 9 6 7 7 6 8 5 9 1 10 2 11 3 12 84 13
REMARK SMILES IDX 4 14 82 15 85 16 83 17 14 18 15 19 16 20 17 21 18 22 19 23
REMARK SMILES IDX 20 24 81 25 21 26 80 27 22 28 23 29 24 30 74 31 25 32 79 33
REMARK SMILES IDX 73 34 75 35 26 36 78 37 72 38 71 39 27 41 59 42 39 43 58 44
REMARK SMILES IDX 40 45 43 46 57 47 76 48 41 49 42 50 56 52 77 53 44 54 28 55
REMARK SMILES IDX 29 56 37 57 30 58 31 59 35 60 38 61 32 62 33 63 36 64 34 65
REMARK SMILES IDX 60 66 61 67 69 68 62 69 63 70 67 71 70 72 64 73 65 74 68 75
REMARK SMILES IDX 66 76 45 77 46 78 54 79 47 80 48 81 52 82 55 83 49 84 50 85
REMARK SMILES IDX 53 86 51 87
REMARK H PARENT 75 40 43 51
REMARK Flexibility Score: inf
ROOT
ATOM      1  O   UNL A   1      39.014  22.209  26.144  1.00  0.00    -0.374 OA
ENDROOT
BRANCH   1   2
ATOM      2  C   UNL A   1      38.351  23.468  26.133  1.00  0.00     0.202 C 
BRANCH   2   3
ATOM      3  C   UNL A   1      37.053  23.568  25.326  1.00  0.00     0.261 C 
BRANCH   3   4
ATOM      4  O   UNL A   1      35.865  23.756  26.126  1.00  0.00    -0.463 OA
BRANCH   4   5
ATOM      5  C   UNL A   1      34.949  22.747  26.055  1.00  0.00     0.316 C 
ATOM      6  O   UNL A   1      34.883  21.820  26.857  1.00  0.00    -0.251 OA
BRANCH   5   7
ATOM      7  C   UNL A   1      34.092  22.771  24.811  1.00  0.00     0.197 C 
BRANCH   7   8
ATOM      8  S   UNL A   1      32.463  22.021  24.883  1.00  0.00    -0.111 SA
BRANCH   8   9
ATOM      9  C   UNL A   1      32.504  20.365  24.396  1.00  0.00     0.052 A 
ATOM     10  C   UNL A   1      33.312  16.191  24.206  1.00  0.00     0.178 C 
ATOM     11  N   UNL A   1      32.898  17.586  24.257  1.00  0.00    -0.232 N 
ATOM     12  N   UNL A   1      32.984  18.179  25.485  1.00  0.00    -0.177 NA
ATOM     13  C   UNL A   1      32.525  18.257  23.099  1.00  0.00     0.286 A 
ATOM     14  C   UNL A   1      32.786  19.453  25.535  1.00  0.00     0.150 A 
ATOM     15  C   UNL A   1      32.280  19.736  23.234  1.00  0.00     0.123 A 
ATOM     16  O   UNL A   1      32.461  17.705  22.001  1.00  0.00    -0.266 OA
ATOM     17  Cl  UNL A   1      31.796  20.510  21.767  1.00  0.00    -0.077 Cl
ENDBRANCH   8   9
ENDBRANCH   7   8
ENDBRANCH   5   7
ENDBRANCH   4   5
ENDBRANCH   3   4
ENDBRANCH   2   3
ENDBRANCH   1   2
BRANCH   1  18
ATOM     18  C   UNL A   1      38.434  21.156  25.378  1.00  0.00     0.202 C 
BRANCH  18  19
ATOM     19  C   UNL A   1      39.132  19.796  25.471  1.00  0.00     0.261 C 
BRANCH  19  20
ATOM     20  O   UNL A   1      40.018  19.722  26.600  1.00  0.00    -0.460 OA
BRANCH  20  21
ATOM     21  C   UNL A   1      41.304  19.480  26.273  1.00  0.00     0.338 C 
ATOM     22  O   UNL A   1      41.772  18.471  25.749  1.00  0.00    -0.246 OA
BRANCH  21  23
ATOM     23  C   UNL A   1      42.115  20.681  26.485  1.00  0.00     0.060 A 
ATOM     24  C   UNL A   1      42.346  21.088  27.805  1.00  0.00     0.016 A 
ATOM     25  C   UNL A   1      42.508  21.477  25.407  1.00  0.00     0.016 A 
ATOM     26  C   UNL A   1      42.927  22.326  28.055  1.00  0.00     0.010 A 
ATOM     27  C   UNL A   1      43.077  22.728  25.660  1.00  0.00     0.010 A 
ATOM     28  C   UNL A   1      43.244  23.172  26.984  1.00  0.00    -0.014 A 
BRANCH  28  29
ATOM     29  C   UNL A   1      43.545  24.593  27.266  1.00  0.00     0.031 A 
ATOM     30  C   UNL A   1      44.929  25.102  26.971  1.00  0.00     0.074 A 
ATOM     31  C   UNL A   1      42.586  25.423  27.709  1.00  0.00     0.049 A 
ATOM     32  N   UNL A   1      45.414  26.310  27.100  1.00  0.00    -0.248 NA
ATOM     33  C   UNL A   1      45.894  24.119  26.450  1.00  0.00     0.031 C 
ATOM     34  C   UNL A   1      41.200  25.044  27.974  1.00  0.00     0.029 A 
ATOM     35  N   UNL A   1      42.634  26.762  28.006  1.00  0.00    -0.354 N 
ATOM     36  C   UNL A   1      46.730  26.233  26.661  1.00  0.00     0.074 A 
ATOM     37  C   UNL A   1      46.983  24.858  26.298  1.00  0.00     0.031 C 
ATOM     38  C   UNL A   1      40.526  26.128  28.396  1.00  0.00     0.029 A 
ATOM     39  C   UNL A   1      41.439  27.268  28.451  1.00  0.00     0.049 A 
ATOM     40  H   UNL A   1      43.448  27.307  27.908  1.00  0.00     0.167 HD
ATOM     41  C   UNL A   1      47.638  27.230  26.554  1.00  0.00     0.037 A 
ATOM     42  C   UNL A   1      41.128  28.513  28.863  1.00  0.00     0.037 A 
ATOM     43  C   UNL A   1      47.384  28.594  26.932  1.00  0.00     0.049 A 
ATOM     44  C   UNL A   1      42.190  29.582  28.832  1.00  0.00     0.074 A 
ATOM     45  C   UNL A   1      48.240  29.679  26.876  1.00  0.00     0.029 A 
ATOM     46  N   UNL A   1      46.180  29.055  27.443  1.00  0.00    -0.354 N 
ATOM     47  N   UNL A   1      43.426  29.506  28.401  1.00  0.00    -0.248 NA
ATOM     48  C   UNL A   1      41.814  30.908  29.342  1.00  0.00     0.031 C 
ATOM     49  C   UNL A   1      47.568  30.789  27.396  1.00  0.00     0.029 A 
ATOM     50  C   UNL A   1      46.278  30.406  27.730  1.00  0.00     0.049 A 
ATOM     51  H   UNL A   1      45.376  28.505  27.581  1.00  0.00     0.167 HD
ATOM     52  C   UNL A   1      43.967  30.774  28.564  1.00  0.00     0.074 A 
ATOM     53  C   UNL A   1      42.920  31.605  29.123  1.00  0.00     0.031 C 
ATOM     54  C   UNL A   1      45.218  31.212  28.279  1.00  0.00     0.037 A 
BRANCH  41  55
ATOM     55  C   UNL A   1      48.994  26.886  26.015  1.00  0.00     0.064 A 
ATOM     56  C   UNL A   1      49.299  27.041  24.654  1.00  0.00     0.173 A 
ATOM     57  C   UNL A   1      50.016  26.455  26.873  1.00  0.00     0.173 A 
ATOM     58  F   UNL A   1      48.351  27.437  23.791  1.00  0.00    -0.203 F 
ATOM     59  C   UNL A   1      50.577  26.770  24.172  1.00  0.00     0.198 A 
ATOM     60  C   UNL A   1      51.299  26.206  26.391  1.00  0.00     0.198 A 
ATOM     61  F   UNL A   1      49.774  26.290  28.182  1.00  0.00    -0.203 F 
ATOM     62  F   UNL A   1      50.840  26.899  22.864  1.00  0.00    -0.200 F 
ATOM     63  C   UNL A   1      51.577  26.362  25.041  1.00  0.00     0.200 A 
ATOM     64  F   UNL A   1      52.267  25.822  27.234  1.00  0.00    -0.200 F 
ATOM     65  F   UNL A   1      52.811  26.117  24.578  1.00  0.00    -0.200 F 
ENDBRANCH  41  55
BRANCH  42  66
ATOM     66  C   UNL A   1      39.752  28.816  29.335  1.00  0.00     0.064 A 
ATOM     67  C   UNL A   1      38.773  29.288  28.450  1.00  0.00     0.173 A 
ATOM     68  C   UNL A   1      39.387  28.642  30.679  1.00  0.00     0.173 A 
ATOM     69  F   UNL A   1      39.078  29.492  27.161  1.00  0.00    -0.203 F 
ATOM     70  C   UNL A   1      37.484  29.584  28.892  1.00  0.00     0.198 A 
ATOM     71  C   UNL A   1      38.092  28.914  31.115  1.00  0.00     0.198 A 
ATOM     72  F   UNL A   1      40.288  28.196  31.566  1.00  0.00    -0.203 F 
ATOM     73  F   UNL A   1      36.578  30.068  28.034  1.00  0.00    -0.200 F 
ATOM     74  C   UNL A   1      37.144  29.390  30.223  1.00  0.00     0.200 A 
ATOM     75  F   UNL A   1      37.764  28.714  32.399  1.00  0.00    -0.200 F 
ATOM     76  F   UNL A   1      35.903  29.668  30.647  1.00  0.00    -0.200 F 
ENDBRANCH  42  66
BRANCH  54  77
ATOM     77  C   UNL A   1      45.527  32.656  28.546  1.00  0.00     0.064 A 
ATOM     78  C   UNL A   1      45.248  33.650  27.598  1.00  0.00     0.173 A 
ATOM     79  C   UNL A   1      46.024  33.057  29.795  1.00  0.00     0.173 A 
ATOM     80  F   UNL A   1      44.782  33.314  26.385  1.00  0.00    -0.203 F 
ATOM     81  C   UNL A   1      45.467  34.993  27.886  1.00  0.00     0.198 A 
ATOM     82  C   UNL A   1      46.215  34.403  30.091  1.00  0.00     0.198 A 
ATOM     83  F   UNL A   1      46.297  32.144  30.740  1.00  0.00    -0.203 F 
ATOM     84  F   UNL A   1      45.223  35.925  26.954  1.00  0.00    -0.200 F 
ATOM     85  C   UNL A   1      45.940  35.370  29.135  1.00  0.00     0.200 A 
ATOM     86  F   UNL A   1      46.657  34.766  31.303  1.00  0.00    -0.200 F 
ATOM     87  F   UNL A   1      46.132  36.665  29.417  1.00  0.00    -0.200 F 
ENDBRANCH  54  77
ENDBRANCH  28  29
ENDBRANCH  21  23
ENDBRANCH  20  21
ENDBRANCH  19  20
ENDBRANCH  18  19
ENDBRANCH   1  18
TORSDOF 16
ENDMDL
