MODEL 1
REMARK VINA RESULT:     -11.9      0.000      0.000
REMARK SMILES C[C@@H]1CCCN(C(=O)CSc2nnc3c4ccccc4n(CC(=O)OCCOCCOC(=O)c4ccc(-c5c6nc(c(-c7c(F)c(F)c(F)c(F)c7F)c7ccc([nH]7)c(-c7c(F)c(F)c(F)c(F)c7F)c7nc(c(-c8c(F)c(F)c(F)c(F)c8F)c8ccc5[nH]8)C=C7)C=C6)cc4)c3n2)C1
REMARK SMILES IDX 26 1 25 2 23 3 24 4 22 5 21 6 11 7 12 8 98 9 13 10 97 11
REMARK SMILES IDX 14 12 15 13 20 14 16 15 19 16 17 17 18 18 10 19 9 20 7 21
REMARK SMILES IDX 8 22 6 23 1 24 2 25 3 26 99 27 4 28 5 29 27 30 28 31 29 32
REMARK SMILES IDX 30 33 31 34 32 35 33 36 34 37 35 38 96 39 36 40 95 41 37 42
REMARK SMILES IDX 38 43 39 44 89 45 40 46 94 47 88 48 90 49 41 50 93 51 87 52
REMARK SMILES IDX 86 53 42 55 74 56 54 57 73 58 55 59 58 60 72 61 91 62 56 63
REMARK SMILES IDX 57 64 71 66 92 67 59 68 43 69 44 70 52 71 45 72 46 73 50 74
REMARK SMILES IDX 53 75 47 76 48 77 51 78 49 79 75 80 76 81 84 82 77 83 78 84
REMARK SMILES IDX 82 85 85 86 79 87 80 88 83 89 81 90 60 91 61 92 69 93 62 94
REMARK SMILES IDX 63 95 67 96 70 97 64 98 65 99 68 100 66 101
REMARK H PARENT 90 54 58 65
REMARK Flexibility Score: inf
ROOT
ATOM      1  C   UNL A   1      33.182  35.412  31.679  1.00  0.00     0.261 C 
ENDROOT
BRANCH   1   2
ATOM      2  O   UNL A   1      33.776  34.659  30.603  1.00  0.00    -0.462 OA
BRANCH   2   3
ATOM      3  C   UNL A   1      33.345  35.012  29.362  1.00  0.00     0.326 C 
ATOM      4  O   UNL A   1      32.376  35.741  29.160  1.00  0.00    -0.250 OA
BRANCH   3   5
ATOM      5  C   UNL A   1      34.134  34.469  28.201  1.00  0.00     0.246 C 
BRANCH   5   6
ATOM      6  N   UNL A   1      34.926  33.261  28.393  1.00  0.00    -0.313 N 
ATOM      7  C   UNL A   1      33.219  30.383  27.216  1.00  0.00     0.211 A 
ATOM      8  N   UNL A   1      34.193  29.456  27.412  1.00  0.00    -0.122 NA
ATOM      9  N   UNL A   1      33.282  31.697  27.524  1.00  0.00    -0.201 NA
ATOM     10  N   UNL A   1      35.365  29.805  27.942  1.00  0.00    -0.144 NA
ATOM     11  C   UNL A   1      34.489  32.010  28.031  1.00  0.00     0.165 A 
ATOM     12  C   UNL A   1      35.522  31.117  28.246  1.00  0.00     0.138 A 
ATOM     13  C   UNL A   1      36.633  31.842  28.743  1.00  0.00     0.030 A 
ATOM     14  C   UNL A   1      36.280  33.200  28.705  1.00  0.00     0.053 A 
ATOM     15  C   UNL A   1      37.930  31.478  29.164  1.00  0.00     0.013 A 
ATOM     16  C   UNL A   1      37.232  34.204  28.956  1.00  0.00     0.027 A 
ATOM     17  C   UNL A   1      38.848  32.472  29.506  1.00  0.00     0.001 A 
ATOM     18  C   UNL A   1      38.512  33.816  29.376  1.00  0.00     0.002 A 
BRANCH   7  19
ATOM     19  S   UNL A   1      31.636  29.802  26.668  1.00  0.00    -0.074 SA
BRANCH  19  20
ATOM     20  C   UNL A   1      31.884  29.848  24.871  1.00  0.00     0.178 C 
BRANCH  20  21
ATOM     21  C   UNL A   1      30.833  29.077  24.085  1.00  0.00     0.233 C 
ATOM     22  O   UNL A   1      30.932  27.848  24.006  1.00  0.00    -0.274 OA
BRANCH  21  23
ATOM     23  N   UNL A   1      29.746  29.757  23.542  1.00  0.00    -0.342 N 
ATOM     24  C   UNL A   1      28.872  33.462  23.130  1.00  0.00     0.009 C 
ATOM     25  C   UNL A   1      29.143  32.017  22.718  1.00  0.00     0.005 C 
ATOM     26  C   UNL A   1      27.924  31.418  22.008  1.00  0.00     0.007 C 
ATOM     27  C   UNL A   1      29.530  31.155  23.927  1.00  0.00     0.122 C 
ATOM     28  C   UNL A   1      28.200  29.973  21.611  1.00  0.00     0.022 C 
ATOM     29  C   UNL A   1      28.648  29.133  22.800  1.00  0.00     0.119 C 
ENDBRANCH  21  23
ENDBRANCH  20  21
ENDBRANCH  19  20
ENDBRANCH   7  19
ENDBRANCH   5   6
ENDBRANCH   3   5
ENDBRANCH   2   3
ENDBRANCH   1   2
BRANCH   1  30
ATOM     30  C   UNL A   1      34.150  36.352  32.415  1.00  0.00     0.202 C 
BRANCH  30  31
ATOM     31  O   UNL A   1      34.778  35.943  33.618  1.00  0.00    -0.374 OA
BRANCH  31  32
ATOM     32  C   UNL A   1      35.714  34.876  33.526  1.00  0.00     0.202 C 
BRANCH  32  33
ATOM     33  C   UNL A   1      35.327  33.475  34.038  1.00  0.00     0.261 C 
BRANCH  33  34
ATOM     34  O   UNL A   1      36.357  32.503  33.851  1.00  0.00    -0.460 OA
BRANCH  34  35
ATOM     35  C   UNL A   1      36.164  31.675  32.781  1.00  0.00     0.338 C 
ATOM     36  O   UNL A   1      35.449  31.844  31.824  1.00  0.00    -0.246 OA
BRANCH  35  37
ATOM     37  C   UNL A   1      37.342  30.784  32.816  1.00  0.00     0.060 A 
ATOM     38  C   UNL A   1      38.625  31.326  32.939  1.00  0.00     0.016 A 
ATOM     39  C   UNL A   1      37.131  29.501  32.287  1.00  0.00     0.016 A 
ATOM     40  C   UNL A   1      39.691  30.624  32.398  1.00  0.00     0.010 A 
ATOM     41  C   UNL A   1      38.196  28.821  31.715  1.00  0.00     0.010 A 
ATOM     42  C   UNL A   1      39.463  29.411  31.718  1.00  0.00    -0.014 A 
BRANCH  42  43
ATOM     43  C   UNL A   1      40.628  28.647  31.269  1.00  0.00     0.031 A 
ATOM     44  C   UNL A   1      41.500  28.312  32.428  1.00  0.00     0.074 A 
ATOM     45  C   UNL A   1      40.849  28.164  30.028  1.00  0.00     0.049 A 
ATOM     46  N   UNL A   1      42.711  28.704  32.648  1.00  0.00    -0.248 NA
ATOM     47  C   UNL A   1      40.870  27.626  33.572  1.00  0.00     0.031 C 
ATOM     48  C   UNL A   1      39.975  28.197  28.858  1.00  0.00     0.029 A 
ATOM     49  N   UNL A   1      41.919  27.450  29.562  1.00  0.00    -0.354 N 
ATOM     50  C   UNL A   1      43.053  28.159  33.881  1.00  0.00     0.074 A 
ATOM     51  C   UNL A   1      41.836  27.689  34.484  1.00  0.00     0.031 C 
ATOM     52  C   UNL A   1      40.439  27.356  27.905  1.00  0.00     0.029 A 
ATOM     53  C   UNL A   1      41.707  26.807  28.342  1.00  0.00     0.049 A 
ATOM     54  H   UNL A   1      42.773  27.394  30.051  1.00  0.00     0.167 HD
ATOM     55  C   UNL A   1      44.346  27.884  34.195  1.00  0.00     0.037 A 
ATOM     56  C   UNL A   1      42.494  25.852  27.778  1.00  0.00     0.037 A 
ATOM     57  C   UNL A   1      45.257  28.646  33.383  1.00  0.00     0.049 A 
ATOM     58  C   UNL A   1      43.827  25.954  28.420  1.00  0.00     0.074 A 
ATOM     59  C   UNL A   1      45.504  29.994  33.210  1.00  0.00     0.029 A 
ATOM     60  N   UNL A   1      45.829  28.022  32.304  1.00  0.00    -0.354 N 
ATOM     61  N   UNL A   1      44.633  26.962  28.252  1.00  0.00    -0.248 NA
ATOM     62  C   UNL A   1      44.046  25.158  29.617  1.00  0.00     0.031 C 
ATOM     63  C   UNL A   1      45.773  30.146  31.820  1.00  0.00     0.029 A 
ATOM     64  C   UNL A   1      45.744  28.880  31.238  1.00  0.00     0.049 A 
ATOM     65  H   UNL A   1      46.229  27.123  32.296  1.00  0.00     0.167 HD
ATOM     66  C   UNL A   1      45.163  27.192  29.511  1.00  0.00     0.074 A 
ATOM     67  C   UNL A   1      44.807  26.016  30.302  1.00  0.00     0.031 C 
ATOM     68  C   UNL A   1      45.584  28.438  29.875  1.00  0.00     0.037 A 
BRANCH  55  69
ATOM     69  C   UNL A   1      44.754  26.648  34.955  1.00  0.00     0.064 A 
ATOM     70  C   UNL A   1      44.374  25.384  34.472  1.00  0.00     0.173 A 
ATOM     71  C   UNL A   1      45.257  26.667  36.277  1.00  0.00     0.173 A 
ATOM     72  F   UNL A   1      43.843  25.254  33.246  1.00  0.00    -0.203 F 
ATOM     73  C   UNL A   1      44.446  24.239  35.269  1.00  0.00     0.198 A 
ATOM     74  C   UNL A   1      45.384  25.516  37.048  1.00  0.00     0.198 A 
ATOM     75  F   UNL A   1      45.533  27.807  36.923  1.00  0.00    -0.203 F 
ATOM     76  F   UNL A   1      43.960  23.078  34.810  1.00  0.00    -0.200 F 
ATOM     77  C   UNL A   1      44.952  24.305  36.556  1.00  0.00     0.200 A 
ATOM     78  F   UNL A   1      45.851  25.612  38.300  1.00  0.00    -0.200 F 
ATOM     79  F   UNL A   1      44.973  23.220  37.339  1.00  0.00    -0.200 F 
ENDBRANCH  55  69
BRANCH  56  80
ATOM     80  C   UNL A   1      42.095  24.624  27.034  1.00  0.00     0.064 A 
ATOM     81  C   UNL A   1      42.791  24.228  25.874  1.00  0.00     0.173 A 
ATOM     82  C   UNL A   1      41.259  23.651  27.615  1.00  0.00     0.173 A 
ATOM     83  F   UNL A   1      43.638  25.077  25.273  1.00  0.00    -0.203 F 
ATOM     84  C   UNL A   1      42.697  22.928  25.363  1.00  0.00     0.198 A 
ATOM     85  C   UNL A   1      41.163  22.356  27.100  1.00  0.00     0.198 A 
ATOM     86  F   UNL A   1      40.599  23.903  28.753  1.00  0.00    -0.203 F 
ATOM     87  F   UNL A   1      43.438  22.569  24.305  1.00  0.00    -0.200 F 
ATOM     88  C   UNL A   1      41.897  21.987  25.988  1.00  0.00     0.200 A 
ATOM     89  F   UNL A   1      40.412  21.444  27.735  1.00  0.00    -0.200 F 
ATOM     90  F   UNL A   1      41.866  20.721  25.549  1.00  0.00    -0.200 F 
ENDBRANCH  56  80
BRANCH  68  91
ATOM     91  C   UNL A   1      45.678  29.487  28.801  1.00  0.00     0.064 A 
ATOM     92  C   UNL A   1      44.615  30.328  28.424  1.00  0.00     0.173 A 
ATOM     93  C   UNL A   1      46.936  29.747  28.243  1.00  0.00     0.173 A 
ATOM     94  F   UNL A   1      43.404  30.204  28.981  1.00  0.00    -0.203 F 
ATOM     95  C   UNL A   1      44.803  31.361  27.504  1.00  0.00     0.198 A 
ATOM     96  C   UNL A   1      47.129  30.801  27.355  1.00  0.00     0.198 A 
ATOM     97  F   UNL A   1      47.996  29.008  28.605  1.00  0.00    -0.203 F 
ATOM     98  F   UNL A   1      43.775  32.149  27.156  1.00  0.00    -0.200 F 
ATOM     99  C   UNL A   1      46.063  31.602  26.979  1.00  0.00     0.200 A 
ATOM    100  F   UNL A   1      48.358  31.060  26.888  1.00  0.00    -0.200 F 
ATOM    101  F   UNL A   1      46.257  32.624  26.133  1.00  0.00    -0.200 F 
ENDBRANCH  68  91
ENDBRANCH  42  43
ENDBRANCH  35  37
ENDBRANCH  34  35
ENDBRANCH  33  34
ENDBRANCH  32  33
ENDBRANCH  31  32
ENDBRANCH  30  31
ENDBRANCH   1  30
TORSDOF 19
ENDMDL
MODEL 2
REMARK VINA RESULT:     -11.6      3.140      5.683
REMARK SMILES C[C@@H]1CCCN(C(=O)CSc2nnc3c4ccccc4n(CC(=O)OCCOCCOC(=O)c4ccc(-c5c6nc(c(-c7c(F)c(F)c(F)c(F)c7F)c7ccc([nH]7)c(-c7c(F)c(F)c(F)c(F)c7F)c7nc(c(-c8c(F)c(F)c(F)c(F)c8F)c8ccc5[nH]8)C=C7)C=C6)cc4)c3n2)C1
REMARK SMILES IDX 26 1 25 2 23 3 24 4 22 5 21 6 11 7 12 8 98 9 13 10 97 11
REMARK SMILES IDX 14 12 15 13 20 14 16 15 19 16 17 17 18 18 10 19 9 20 7 21
REMARK SMILES IDX 8 22 6 23 1 24 2 25 3 26 99 27 4 28 5 29 27 30 28 31 29 32
REMARK SMILES IDX 30 33 31 34 32 35 33 36 34 37 35 38 96 39 36 40 95 41 37 42
REMARK SMILES IDX 38 43 39 44 89 45 40 46 94 47 88 48 90 49 41 50 93 51 87 52
REMARK SMILES IDX 86 53 42 55 74 56 54 57 73 58 55 59 58 60 72 61 91 62 56 63
REMARK SMILES IDX 57 64 71 66 92 67 59 68 43 69 44 70 52 71 45 72 46 73 50 74
REMARK SMILES IDX 53 75 47 76 48 77 51 78 49 79 75 80 76 81 84 82 77 83 78 84
REMARK SMILES IDX 82 85 85 86 79 87 80 88 83 89 81 90 60 91 61 92 69 93 62 94
REMARK SMILES IDX 63 95 67 96 70 97 64 98 65 99 68 100 66 101
REMARK H PARENT 90 54 58 65
REMARK Flexibility Score: inf
ROOT
ATOM      1  C   UNL A   1      31.143  26.023  26.663  1.00  0.00     0.261 C 
ENDROOT
BRANCH   1   2
ATOM      2  O   UNL A   1      31.737  24.729  26.886  1.00  0.00    -0.462 OA
BRANCH   2   3
ATOM      3  C   UNL A   1      30.902  23.678  26.663  1.00  0.00     0.326 C 
ATOM      4  O   UNL A   1      30.029  23.323  27.453  1.00  0.00    -0.250 OA
BRANCH   3   5
ATOM      5  C   UNL A   1      31.080  22.947  25.359  1.00  0.00     0.246 C 
BRANCH   5   6
ATOM      6  N   UNL A   1      32.320  23.130  24.615  1.00  0.00    -0.313 N 
ATOM      7  C   UNL A   1      32.196  26.025  22.570  1.00  0.00     0.211 A 
ATOM      8  N   UNL A   1      33.469  26.011  22.095  1.00  0.00    -0.122 NA
ATOM      9  N   UNL A   1      31.633  25.115  23.393  1.00  0.00    -0.201 NA
ATOM     10  N   UNL A   1      34.314  25.043  22.446  1.00  0.00    -0.144 NA
ATOM     11  C   UNL A   1      32.526  24.171  23.743  1.00  0.00     0.165 A 
ATOM     12  C   UNL A   1      33.835  24.106  23.301  1.00  0.00     0.138 A 
ATOM     13  C   UNL A   1      34.457  23.000  23.931  1.00  0.00     0.030 A 
ATOM     14  C   UNL A   1      33.528  22.481  24.847  1.00  0.00     0.053 A 
ATOM     15  C   UNL A   1      35.744  22.428  23.856  1.00  0.00     0.013 A 
ATOM     16  C   UNL A   1      33.899  21.489  25.773  1.00  0.00     0.027 A 
ATOM     17  C   UNL A   1      36.084  21.378  24.711  1.00  0.00     0.001 A 
ATOM     18  C   UNL A   1      35.182  20.935  25.674  1.00  0.00     0.002 A 
BRANCH   7  19
ATOM     19  S   UNL A   1      31.094  27.251  21.917  1.00  0.00    -0.074 SA
BRANCH  19  20
ATOM     20  C   UNL A   1      30.102  27.607  23.395  1.00  0.00     0.178 C 
BRANCH  20  21
ATOM     21  C   UNL A   1      28.880  28.472  23.122  1.00  0.00     0.233 C 
ATOM     22  O   UNL A   1      27.759  27.956  23.185  1.00  0.00    -0.274 OA
BRANCH  21  23
ATOM     23  N   UNL A   1      29.042  29.835  22.887  1.00  0.00    -0.342 N 
ATOM     24  C   UNL A   1      27.911  32.198  20.095  1.00  0.00     0.009 C 
ATOM     25  C   UNL A   1      28.060  31.652  21.513  1.00  0.00     0.005 C 
ATOM     26  C   UNL A   1      28.732  32.685  22.424  1.00  0.00     0.007 C 
ATOM     27  C   UNL A   1      28.856  30.339  21.523  1.00  0.00     0.122 C 
ATOM     28  C   UNL A   1      28.887  32.126  23.833  1.00  0.00     0.022 C 
ATOM     29  C   UNL A   1      29.619  30.789  23.836  1.00  0.00     0.119 C 
ENDBRANCH  21  23
ENDBRANCH  20  21
ENDBRANCH  19  20
ENDBRANCH   7  19
ENDBRANCH   5   6
ENDBRANCH   3   5
ENDBRANCH   2   3
ENDBRANCH   1   2
BRANCH   1  30
ATOM     30  C   UNL A   1      32.151  27.167  26.469  1.00  0.00     0.202 C 
BRANCH  30  31
ATOM     31  O   UNL A   1      32.244  28.215  27.418  1.00  0.00    -0.374 OA
BRANCH  31  32
ATOM     32  C   UNL A   1      31.979  29.533  26.950  1.00  0.00     0.202 C 
BRANCH  32  33
ATOM     33  C   UNL A   1      33.040  30.635  27.135  1.00  0.00     0.261 C 
BRANCH  33  34
ATOM     34  O   UNL A   1      34.149  30.220  27.933  1.00  0.00    -0.460 OA
BRANCH  34  35
ATOM     35  C   UNL A   1      34.865  31.247  28.483  1.00  0.00     0.338 C 
ATOM     36  O   UNL A   1      34.517  32.031  29.330  1.00  0.00    -0.246 OA
BRANCH  35  37
ATOM     37  C   UNL A   1      36.266  30.897  28.170  1.00  0.00     0.060 A 
ATOM     38  C   UNL A   1      36.580  29.617  27.706  1.00  0.00     0.016 A 
ATOM     39  C   UNL A   1      37.231  31.720  28.773  1.00  0.00     0.016 A 
ATOM     40  C   UNL A   1      37.842  29.109  27.974  1.00  0.00     0.010 A 
ATOM     41  C   UNL A   1      38.479  31.193  29.071  1.00  0.00     0.010 A 
ATOM     42  C   UNL A   1      38.762  29.869  28.724  1.00  0.00    -0.014 A 
BRANCH  42  43
ATOM     43  C   UNL A   1      40.119  29.345  28.880  1.00  0.00     0.031 A 
ATOM     44  C   UNL A   1      40.426  29.134  30.321  1.00  0.00     0.074 A 
ATOM     45  C   UNL A   1      40.953  28.952  27.893  1.00  0.00     0.049 A 
ATOM     46  N   UNL A   1      41.319  29.731  31.037  1.00  0.00    -0.248 NA
ATOM     47  C   UNL A   1      39.483  28.307  31.098  1.00  0.00     0.031 C 
ATOM     48  C   UNL A   1      40.703  28.866  26.457  1.00  0.00     0.029 A 
ATOM     49  N   UNL A   1      42.225  28.460  27.990  1.00  0.00    -0.354 N 
ATOM     50  C   UNL A   1      41.166  29.215  32.319  1.00  0.00     0.074 A 
ATOM     51  C   UNL A   1      39.912  28.513  32.341  1.00  0.00     0.031 C 
ATOM     52  C   UNL A   1      41.685  28.156  25.854  1.00  0.00     0.029 A 
ATOM     53  C   UNL A   1      42.698  27.831  26.838  1.00  0.00     0.049 A 
ATOM     54  H   UNL A   1      42.766  28.543  28.809  1.00  0.00     0.167 HD
ATOM     55  C   UNL A   1      42.208  29.169  33.189  1.00  0.00     0.037 A 
ATOM     56  C   UNL A   1      43.810  27.054  26.732  1.00  0.00     0.037 A 
ATOM     57  C   UNL A   1      43.234  30.110  32.830  1.00  0.00     0.049 A 
ATOM     58  C   UNL A   1      44.674  27.374  27.894  1.00  0.00     0.074 A 
ATOM     59  C   UNL A   1      43.289  31.485  32.717  1.00  0.00     0.029 A 
ATOM     60  N   UNL A   1      44.329  29.637  32.152  1.00  0.00    -0.354 N 
ATOM     61  N   UNL A   1      45.278  28.517  28.051  1.00  0.00    -0.248 NA
ATOM     62  C   UNL A   1      44.473  26.590  29.103  1.00  0.00     0.031 C 
ATOM     63  C   UNL A   1      44.120  31.731  31.585  1.00  0.00     0.029 A 
ATOM     64  C   UNL A   1      44.578  30.501  31.117  1.00  0.00     0.049 A 
ATOM     65  H   UNL A   1      44.842  28.826  32.369  1.00  0.00     0.167 HD
ATOM     66  C   UNL A   1      45.139  28.796  29.401  1.00  0.00     0.074 A 
ATOM     67  C   UNL A   1      44.682  27.548  30.009  1.00  0.00     0.031 C 
ATOM     68  C   UNL A   1      45.126  30.084  29.850  1.00  0.00     0.037 A 
BRANCH  55  69
ATOM     69  C   UNL A   1      42.445  28.001  34.114  1.00  0.00     0.064 A 
ATOM     70  C   UNL A   1      43.027  26.827  33.607  1.00  0.00     0.173 A 
ATOM     71  C   UNL A   1      41.871  27.889  35.402  1.00  0.00     0.173 A 
ATOM     72  F   UNL A   1      43.562  26.808  32.376  1.00  0.00    -0.203 F 
ATOM     73  C   UNL A   1      42.991  25.623  34.314  1.00  0.00     0.198 A 
ATOM     74  C   UNL A   1      41.891  26.704  36.130  1.00  0.00     0.198 A 
ATOM     75  F   UNL A   1      41.165  28.878  35.961  1.00  0.00    -0.203 F 
ATOM     76  F   UNL A   1      43.450  24.502  33.742  1.00  0.00    -0.200 F 
ATOM     77  C   UNL A   1      42.425  25.562  35.576  1.00  0.00     0.200 A 
ATOM     78  F   UNL A   1      41.311  26.664  37.338  1.00  0.00    -0.200 F 
ATOM     79  F   UNL A   1      42.343  24.399  36.233  1.00  0.00    -0.200 F 
ENDBRANCH  55  69
BRANCH  56  80
ATOM     80  C   UNL A   1      44.010  25.800  25.952  1.00  0.00     0.064 A 
ATOM     81  C   UNL A   1      45.245  25.529  25.330  1.00  0.00     0.173 A 
ATOM     82  C   UNL A   1      43.128  24.709  26.075  1.00  0.00     0.173 A 
ATOM     83  F   UNL A   1      46.163  26.499  25.202  1.00  0.00    -0.203 F 
ATOM     84  C   UNL A   1      45.595  24.240  24.909  1.00  0.00     0.198 A 
ATOM     85  C   UNL A   1      43.476  23.425  25.649  1.00  0.00     0.198 A 
ATOM     86  F   UNL A   1      41.953  24.843  26.703  1.00  0.00    -0.203 F 
ATOM     87  F   UNL A   1      46.812  24.010  24.396  1.00  0.00    -0.200 F 
ATOM     88  C   UNL A   1      44.716  23.186  25.086  1.00  0.00     0.200 A 
ATOM     89  F   UNL A   1      42.631  22.405  25.858  1.00  0.00    -0.200 F 
ATOM     90  F   UNL A   1      45.078  21.937  24.757  1.00  0.00    -0.200 F 
ENDBRANCH  56  80
BRANCH  68  91
ATOM     91  C   UNL A   1      45.502  31.169  28.878  1.00  0.00     0.064 A 
ATOM     92  C   UNL A   1      46.824  31.575  28.621  1.00  0.00     0.173 A 
ATOM     93  C   UNL A   1      44.493  31.708  28.070  1.00  0.00     0.173 A 
ATOM     94  F   UNL A   1      47.853  31.039  29.288  1.00  0.00    -0.203 F 
ATOM     95  C   UNL A   1      47.112  32.505  27.621  1.00  0.00     0.198 A 
ATOM     96  C   UNL A   1      44.787  32.605  27.048  1.00  0.00     0.198 A 
ATOM     97  F   UNL A   1      43.220  31.317  28.238  1.00  0.00    -0.203 F 
ATOM     98  F   UNL A   1      48.380  32.880  27.395  1.00  0.00    -0.200 F 
ATOM     99  C   UNL A   1      46.094  33.010  26.829  1.00  0.00     0.200 A 
ATOM    100  F   UNL A   1      43.805  33.054  26.254  1.00  0.00    -0.200 F 
ATOM    101  F   UNL A   1      46.374  33.864  25.834  1.00  0.00    -0.200 F 
ENDBRANCH  68  91
ENDBRANCH  42  43
ENDBRANCH  35  37
ENDBRANCH  34  35
ENDBRANCH  33  34
ENDBRANCH  32  33
ENDBRANCH  31  32
ENDBRANCH  30  31
ENDBRANCH   1  30
TORSDOF 19
ENDMDL
MODEL 3
REMARK VINA RESULT:     -11.4      1.625      2.301
REMARK SMILES C[C@@H]1CCCN(C(=O)CSc2nnc3c4ccccc4n(CC(=O)OCCOCCOC(=O)c4ccc(-c5c6nc(c(-c7c(F)c(F)c(F)c(F)c7F)c7ccc([nH]7)c(-c7c(F)c(F)c(F)c(F)c7F)c7nc(c(-c8c(F)c(F)c(F)c(F)c8F)c8ccc5[nH]8)C=C7)C=C6)cc4)c3n2)C1
REMARK SMILES IDX 26 1 25 2 23 3 24 4 22 5 21 6 11 7 12 8 98 9 13 10 97 11
REMARK SMILES IDX 14 12 15 13 20 14 16 15 19 16 17 17 18 18 10 19 9 20 7 21
REMARK SMILES IDX 8 22 6 23 1 24 2 25 3 26 99 27 4 28 5 29 27 30 28 31 29 32
REMARK SMILES IDX 30 33 31 34 32 35 33 36 34 37 35 38 96 39 36 40 95 41 37 42
REMARK SMILES IDX 38 43 39 44 89 45 40 46 94 47 88 48 90 49 41 50 93 51 87 52
REMARK SMILES IDX 86 53 42 55 74 56 54 57 73 58 55 59 58 60 72 61 91 62 56 63
REMARK SMILES IDX 57 64 71 66 92 67 59 68 43 69 44 70 52 71 45 72 46 73 50 74
REMARK SMILES IDX 53 75 47 76 48 77 51 78 49 79 75 80 76 81 84 82 77 83 78 84
REMARK SMILES IDX 82 85 85 86 79 87 80 88 83 89 81 90 60 91 61 92 69 93 62 94
REMARK SMILES IDX 63 95 67 96 70 97 64 98 65 99 68 100 66 101
REMARK H PARENT 90 54 58 65
REMARK Flexibility Score: inf
ROOT
ATOM      1  C   UNL A   1      33.281  35.331  31.588  1.00  0.00     0.261 C 
ENDROOT
BRANCH   1   2
ATOM      2  O   UNL A   1      33.810  34.458  30.570  1.00  0.00    -0.462 OA
BRANCH   2   3
ATOM      3  C   UNL A   1      33.514  34.833  29.297  1.00  0.00     0.326 C 
ATOM      4  O   UNL A   1      32.505  35.465  28.990  1.00  0.00    -0.250 OA
BRANCH   3   5
ATOM      5  C   UNL A   1      34.511  34.445  28.237  1.00  0.00     0.246 C 
BRANCH   5   6
ATOM      6  N   UNL A   1      35.284  33.222  28.414  1.00  0.00    -0.313 N 
ATOM      7  C   UNL A   1      33.613  30.415  27.031  1.00  0.00     0.211 A 
ATOM      8  N   UNL A   1      34.570  29.471  27.232  1.00  0.00    -0.122 NA
ATOM      9  N   UNL A   1      33.671  31.713  27.399  1.00  0.00    -0.201 NA
ATOM     10  N   UNL A   1      35.717  29.785  27.831  1.00  0.00    -0.144 NA
ATOM     11  C   UNL A   1      34.855  31.992  27.976  1.00  0.00     0.165 A 
ATOM     12  C   UNL A   1      35.869  31.080  28.201  1.00  0.00     0.138 A 
ATOM     13  C   UNL A   1      36.961  31.772  28.782  1.00  0.00     0.030 A 
ATOM     14  C   UNL A   1      36.621  33.134  28.787  1.00  0.00     0.053 A 
ATOM     15  C   UNL A   1      38.233  31.378  29.248  1.00  0.00     0.013 A 
ATOM     16  C   UNL A   1      37.567  34.117  29.127  1.00  0.00     0.027 A 
ATOM     17  C   UNL A   1      39.142  32.347  29.676  1.00  0.00     0.001 A 
ATOM     18  C   UNL A   1      38.822  33.699  29.590  1.00  0.00     0.002 A 
BRANCH   7  19
ATOM     19  S   UNL A   1      32.054  29.874  26.383  1.00  0.00    -0.074 SA
BRANCH  19  20
ATOM     20  C   UNL A   1      32.294  28.076  26.435  1.00  0.00     0.178 C 
BRANCH  20  21
ATOM     21  C   UNL A   1      32.290  27.414  25.065  1.00  0.00     0.233 C 
ATOM     22  O   UNL A   1      31.861  28.051  24.097  1.00  0.00    -0.274 OA
BRANCH  21  23
ATOM     23  N   UNL A   1      32.840  26.144  24.914  1.00  0.00    -0.342 N 
ATOM     24  C   UNL A   1      33.259  23.770  21.940  1.00  0.00     0.009 C 
ATOM     25  C   UNL A   1      33.670  24.636  23.127  1.00  0.00     0.005 C 
ATOM     26  C   UNL A   1      34.388  23.795  24.190  1.00  0.00     0.007 C 
ATOM     27  C   UNL A   1      32.457  25.347  23.745  1.00  0.00     0.122 C 
ATOM     28  C   UNL A   1      34.783  24.667  25.376  1.00  0.00     0.022 C 
ATOM     29  C   UNL A   1      33.590  25.424  25.946  1.00  0.00     0.119 C 
ENDBRANCH  21  23
ENDBRANCH  20  21
ENDBRANCH  19  20
ENDBRANCH   7  19
ENDBRANCH   5   6
ENDBRANCH   3   5
ENDBRANCH   2   3
ENDBRANCH   1   2
BRANCH   1  30
ATOM     30  C   UNL A   1      34.344  36.103  32.388  1.00  0.00     0.202 C 
BRANCH  30  31
ATOM     31  O   UNL A   1      34.764  35.643  33.661  1.00  0.00    -0.374 OA
BRANCH  31  32
ATOM     32  C   UNL A   1      35.875  34.754  33.690  1.00  0.00     0.202 C 
BRANCH  32  33
ATOM     33  C   UNL A   1      35.642  33.251  33.935  1.00  0.00     0.261 C 
BRANCH  33  34
ATOM     34  O   UNL A   1      36.736  32.436  33.510  1.00  0.00    -0.460 OA
BRANCH  34  35
ATOM     35  C   UNL A   1      36.383  31.402  32.689  1.00  0.00     0.338 C 
ATOM     36  O   UNL A   1      35.531  31.382  31.836  1.00  0.00    -0.246 OA
BRANCH  35  37
ATOM     37  C   UNL A   1      37.554  30.503  32.743  1.00  0.00     0.060 A 
ATOM     38  C   UNL A   1      38.828  31.027  32.981  1.00  0.00     0.016 A 
ATOM     39  C   UNL A   1      37.374  29.257  32.121  1.00  0.00     0.016 A 
ATOM     40  C   UNL A   1      39.925  30.354  32.465  1.00  0.00     0.010 A 
ATOM     41  C   UNL A   1      38.472  28.608  31.575  1.00  0.00     0.010 A 
ATOM     42  C   UNL A   1      39.738  29.188  31.697  1.00  0.00    -0.014 A 
BRANCH  42  43
ATOM     43  C   UNL A   1      40.927  28.447  31.275  1.00  0.00     0.031 A 
ATOM     44  C   UNL A   1      41.786  28.142  32.452  1.00  0.00     0.074 A 
ATOM     45  C   UNL A   1      41.180  27.956  30.043  1.00  0.00     0.049 A 
ATOM     46  N   UNL A   1      42.984  28.564  32.688  1.00  0.00    -0.248 NA
ATOM     47  C   UNL A   1      41.152  27.454  33.592  1.00  0.00     0.031 C 
ATOM     48  C   UNL A   1      40.325  27.957  28.859  1.00  0.00     0.029 A 
ATOM     49  N   UNL A   1      42.273  27.262  29.603  1.00  0.00    -0.354 N 
ATOM     50  C   UNL A   1      43.318  28.039  33.932  1.00  0.00     0.074 A 
ATOM     51  C   UNL A   1      42.102  27.549  34.520  1.00  0.00     0.031 C 
ATOM     52  C   UNL A   1      40.824  27.117  27.922  1.00  0.00     0.029 A 
ATOM     53  C   UNL A   1      42.097  26.602  28.386  1.00  0.00     0.049 A 
ATOM     54  H   UNL A   1      43.119  27.230  30.106  1.00  0.00     0.167 HD
ATOM     55  C   UNL A   1      44.611  27.797  34.271  1.00  0.00     0.037 A 
ATOM     56  C   UNL A   1      42.914  25.659  27.845  1.00  0.00     0.037 A 
ATOM     57  C   UNL A   1      45.518  28.571  33.467  1.00  0.00     0.049 A 
ATOM     58  C   UNL A   1      44.234  25.798  28.509  1.00  0.00     0.074 A 
ATOM     59  C   UNL A   1      45.737  29.922  33.284  1.00  0.00     0.029 A 
ATOM     60  N   UNL A   1      46.123  27.950  32.403  1.00  0.00    -0.354 N 
ATOM     61  N   UNL A   1      45.020  26.822  28.343  1.00  0.00    -0.248 NA
ATOM     62  C   UNL A   1      44.450  25.019  29.718  1.00  0.00     0.031 C 
ATOM     63  C   UNL A   1      46.027  30.067  31.896  1.00  0.00     0.029 A 
ATOM     64  C   UNL A   1      46.036  28.794  31.327  1.00  0.00     0.049 A 
ATOM     65  H   UNL A   1      46.542  27.060  32.412  1.00  0.00     0.167 HD
ATOM     66  C   UNL A   1      45.522  27.077  29.609  1.00  0.00     0.074 A 
ATOM     67  C   UNL A   1      45.179  25.901  30.405  1.00  0.00     0.031 C 
ATOM     68  C   UNL A   1      45.909  28.336  29.966  1.00  0.00     0.037 A 
BRANCH  55  69
ATOM     69  C   UNL A   1      45.034  26.578  35.051  1.00  0.00     0.064 A 
ATOM     70  C   UNL A   1      44.775  25.300  34.526  1.00  0.00     0.173 A 
ATOM     71  C   UNL A   1      45.426  26.610  36.410  1.00  0.00     0.173 A 
ATOM     72  F   UNL A   1      44.354  25.155  33.260  1.00  0.00    -0.203 F 
ATOM     73  C   UNL A   1      44.855  24.150  35.317  1.00  0.00     0.198 A 
ATOM     74  C   UNL A   1      45.563  25.458  37.177  1.00  0.00     0.198 A 
ATOM     75  F   UNL A   1      45.576  27.755  37.086  1.00  0.00    -0.203 F 
ATOM     76  F   UNL A   1      44.482  22.968  34.809  1.00  0.00    -0.200 F 
ATOM     77  C   UNL A   1      45.250  24.230  36.640  1.00  0.00     0.200 A 
ATOM     78  F   UNL A   1      45.920  25.565  38.465  1.00  0.00    -0.200 F 
ATOM     79  F   UNL A   1      45.276  23.137  37.413  1.00  0.00    -0.200 F 
ENDBRANCH  55  69
BRANCH  56  80
ATOM     80  C   UNL A   1      42.556  24.415  27.108  1.00  0.00     0.064 A 
ATOM     81  C   UNL A   1      43.017  24.200  25.793  1.00  0.00     0.173 A 
ATOM     82  C   UNL A   1      42.046  23.285  27.775  1.00  0.00     0.173 A 
ATOM     83  F   UNL A   1      43.552  25.211  25.093  1.00  0.00    -0.203 F 
ATOM     84  C   UNL A   1      43.017  22.928  25.208  1.00  0.00     0.198 A 
ATOM     85  C   UNL A   1      42.041  22.018  27.188  1.00  0.00     0.198 A 
ATOM     86  F   UNL A   1      41.637  23.366  29.048  1.00  0.00    -0.203 F 
ATOM     87  F   UNL A   1      43.539  22.753  23.986  1.00  0.00    -0.200 F 
ATOM     88  C   UNL A   1      42.545  21.835  25.913  1.00  0.00     0.200 A 
ATOM     89  F   UNL A   1      41.615  20.961  27.894  1.00  0.00    -0.200 F 
ATOM     90  F   UNL A   1      42.617  20.604  25.387  1.00  0.00    -0.200 F 
ENDBRANCH  56  80
BRANCH  68  91
ATOM     91  C   UNL A   1      45.998  29.376  28.884  1.00  0.00     0.064 A 
ATOM     92  C   UNL A   1      44.918  30.174  28.466  1.00  0.00     0.173 A 
ATOM     93  C   UNL A   1      47.262  29.674  28.359  1.00  0.00     0.173 A 
ATOM     94  F   UNL A   1      43.696  30.013  28.989  1.00  0.00    -0.203 F 
ATOM     95  C   UNL A   1      45.096  31.203  27.539  1.00  0.00     0.198 A 
ATOM     96  C   UNL A   1      47.443  30.724  27.465  1.00  0.00     0.198 A 
ATOM     97  F   UNL A   1      48.336  28.977  28.761  1.00  0.00    -0.203 F 
ATOM     98  F   UNL A   1      44.052  31.950  27.153  1.00  0.00    -0.200 F 
ATOM     99  C   UNL A   1      46.361  31.483  27.049  1.00  0.00     0.200 A 
ATOM    100  F   UNL A   1      48.676  31.022  27.030  1.00  0.00    -0.200 F 
ATOM    101  F   UNL A   1      46.544  32.502  26.197  1.00  0.00    -0.200 F 
ENDBRANCH  68  91
ENDBRANCH  42  43
ENDBRANCH  35  37
ENDBRANCH  34  35
ENDBRANCH  33  34
ENDBRANCH  32  33
ENDBRANCH  31  32
ENDBRANCH  30  31
ENDBRANCH   1  30
TORSDOF 19
ENDMDL
