MODEL 1
REMARK VINA RESULT:     -12.4      0.000      0.000
REMARK SMILES COC(=O)c1c(-c2ccccc2Cl)csc1NC(=O)[C@@H]1[C@@H]2CC[C@@H](C2)[C@@H]1C(=O)OCCOCCOC(=O)c1ccc(-c2c3nc(c(-c4c(F)c(F)c(F)c(F)c4F)c4ccc([nH]4)c(-c4c(F)c(F)c(F)c(F)c4F)c4nc(c(-c5c(F)c(F)c(F)c(F)c5F)c5ccc2[nH]5)C=C4)C=C3)cc1
REMARK SMILES IDX 31 1 30 2 29 3 27 4 28 5 26 6 20 7 21 8 22 9 25 10 24 11
REMARK SMILES IDX 23 12 18 13 17 14 19 16 16 17 5 18 6 19 14 20 15 21 3 22
REMARK SMILES IDX 4 23 2 24 1 25 7 26 8 27 12 28 9 29 11 30 13 31 10 32 32 33
REMARK SMILES IDX 33 34 34 35 35 36 36 37 37 38 38 39 39 40 100 41 40 42 99 43
REMARK SMILES IDX 41 44 42 45 43 46 93 47 44 48 98 49 92 50 94 51 45 52 97 53
REMARK SMILES IDX 91 54 90 55 46 57 78 58 58 59 77 60 59 61 62 62 76 63 95 64
REMARK SMILES IDX 60 65 61 66 75 68 96 69 63 70 47 71 48 72 56 73 49 74 50 75
REMARK SMILES IDX 54 76 57 77 51 78 52 79 55 80 53 81 79 82 80 83 88 84 81 85
REMARK SMILES IDX 82 86 86 87 89 88 83 89 84 90 87 91 85 92 64 93 65 94 73 95
REMARK SMILES IDX 66 96 67 97 71 98 74 99 68 100 69 101 72 102 70 103
REMARK H PARENT 17 15 94 56 62 67
REMARK Flexibility Score: inf
ROOT
ATOM      1  C   UNL A   1      34.736  29.513  27.482  1.00  0.00     0.202 C 
ENDROOT
BRANCH   1   2
ATOM      2  C   UNL A   1      33.452  28.727  27.230  1.00  0.00     0.261 C 
BRANCH   2   3
ATOM      3  O   UNL A   1      33.731  27.529  26.500  1.00  0.00    -0.463 OA
BRANCH   3   4
ATOM      4  C   UNL A   1      33.517  27.643  25.156  1.00  0.00     0.310 C 
ATOM      5  O   UNL A   1      34.292  28.155  24.366  1.00  0.00    -0.252 OA
BRANCH   4   6
ATOM      6  C   UNL A   1      32.199  26.980  24.804  1.00  0.00     0.115 C 
ATOM      7  C   UNL A   1      32.144  26.250  23.434  1.00  0.00     0.096 C 
ATOM      8  C   UNL A   1      31.149  27.198  22.691  1.00  0.00     0.003 C 
ATOM      9  C   UNL A   1      31.663  28.662  22.578  1.00  0.00     0.005 C 
ATOM     10  C   UNL A   1      30.070  27.356  23.774  1.00  0.00     0.009 C 
ATOM     11  C   UNL A   1      31.036  28.003  24.767  1.00  0.00     0.004 C 
ATOM     12  C   UNL A   1      31.452  29.246  23.981  1.00  0.00     0.005 C 
BRANCH   7  13
ATOM     13  C   UNL A   1      33.449  25.909  22.673  1.00  0.00     0.229 C 
ATOM     14  N   UNL A   1      34.448  25.089  23.148  1.00  0.00    -0.317 N 
ATOM     15  H   UNL A   1      35.327  25.316  22.766  1.00  0.00     0.170 HD
ATOM     16  O   UNL A   1      33.657  26.440  21.573  1.00  0.00    -0.274 OA
BRANCH  14  17
ATOM     17  C   UNL A   1      34.522  24.015  24.037  1.00  0.00     0.110 A 
ATOM     18  C   UNL A   1      33.798  22.805  23.995  1.00  0.00     0.102 A 
ATOM     19  C   UNL A   1      34.324  21.825  24.988  1.00  0.00     0.011 A 
ATOM     20  C   UNL A   1      35.288  22.458  25.763  1.00  0.00     0.076 A 
ATOM     21  S   UNL A   1      35.525  24.105  25.394  1.00  0.00    -0.125 S 
BRANCH  18  22
ATOM     22  C   UNL A   1      32.797  22.579  22.937  1.00  0.00     0.341 C 
ATOM     23  O   UNL A   1      33.061  22.674  21.742  1.00  0.00    -0.246 OA
BRANCH  22  24
ATOM     24  O   UNL A   1      31.556  22.252  23.398  1.00  0.00    -0.465 OA
ATOM     25  C   UNL A   1      31.052  23.133  24.406  1.00  0.00     0.282 C 
ENDBRANCH  22  24
ENDBRANCH  18  22
BRANCH  19  26
ATOM     26  C   UNL A   1      34.205  20.321  25.062  1.00  0.00     0.002 A 
ATOM     27  C   UNL A   1      32.930  19.740  25.205  1.00  0.00     0.010 A 
ATOM     28  C   UNL A   1      35.251  19.408  24.799  1.00  0.00     0.048 A 
ATOM     29  C   UNL A   1      32.681  18.366  25.025  1.00  0.00     0.001 A 
ATOM     30  C   UNL A   1      34.996  18.035  24.570  1.00  0.00     0.021 A 
ATOM     31  Cl  UNL A   1      36.926  19.852  24.757  1.00  0.00    -0.084 Cl
ATOM     32  C   UNL A   1      33.709  17.517  24.664  1.00  0.00     0.002 A 
ENDBRANCH  19  26
ENDBRANCH  14  17
ENDBRANCH   7  13
ENDBRANCH   4   6
ENDBRANCH   3   4
ENDBRANCH   2   3
ENDBRANCH   1   2
BRANCH   1  33
ATOM     33  O   UNL A   1      34.580  30.908  27.650  1.00  0.00    -0.374 OA
BRANCH  33  34
ATOM     34  C   UNL A   1      33.281  31.488  27.656  1.00  0.00     0.202 C 
BRANCH  34  35
ATOM     35  C   UNL A   1      32.997  32.964  27.393  1.00  0.00     0.261 C 
BRANCH  35  36
ATOM     36  O   UNL A   1      32.480  33.738  28.468  1.00  0.00    -0.460 OA
BRANCH  36  37
ATOM     37  C   UNL A   1      33.095  34.877  28.825  1.00  0.00     0.338 C 
ATOM     38  O   UNL A   1      32.689  36.011  28.876  1.00  0.00    -0.246 OA
BRANCH  37  39
ATOM     39  C   UNL A   1      34.268  34.465  29.551  1.00  0.00     0.060 A 
ATOM     40  C   UNL A   1      34.046  33.668  30.684  1.00  0.00     0.016 A 
ATOM     41  C   UNL A   1      35.521  34.700  28.996  1.00  0.00     0.016 A 
ATOM     42  C   UNL A   1      35.122  33.047  31.263  1.00  0.00     0.010 A 
ATOM     43  C   UNL A   1      36.590  34.058  29.558  1.00  0.00     0.010 A 
ATOM     44  C   UNL A   1      36.377  33.245  30.684  1.00  0.00    -0.014 A 
BRANCH  44  45
ATOM     45  C   UNL A   1      37.554  32.692  31.326  1.00  0.00     0.031 A 
ATOM     46  C   UNL A   1      38.247  31.596  30.605  1.00  0.00     0.074 A 
ATOM     47  C   UNL A   1      37.865  33.138  32.548  1.00  0.00     0.049 A 
ATOM     48  N   UNL A   1      39.207  30.823  31.016  1.00  0.00    -0.248 NA
ATOM     49  C   UNL A   1      37.760  31.299  29.243  1.00  0.00     0.031 C 
ATOM     50  C   UNL A   1      37.174  34.218  33.259  1.00  0.00     0.029 A 
ATOM     51  N   UNL A   1      38.827  32.721  33.412  1.00  0.00    -0.354 N 
ATOM     52  C   UNL A   1      39.422  29.932  29.978  1.00  0.00     0.074 A 
ATOM     53  C   UNL A   1      38.464  30.223  28.939  1.00  0.00     0.031 C 
ATOM     54  C   UNL A   1      37.747  34.382  34.462  1.00  0.00     0.029 A 
ATOM     55  C   UNL A   1      38.805  33.390  34.607  1.00  0.00     0.049 A 
ATOM     56  H   UNL A   1      39.473  32.009  33.202  1.00  0.00     0.167 HD
ATOM     57  C   UNL A   1      40.358  28.962  29.921  1.00  0.00     0.037 A 
ATOM     58  C   UNL A   1      39.569  33.186  35.691  1.00  0.00     0.037 A 
ATOM     59  C   UNL A   1      41.273  28.725  31.003  1.00  0.00     0.049 A 
ATOM     60  C   UNL A   1      40.589  32.085  35.608  1.00  0.00     0.074 A 
ATOM     61  C   UNL A   1      42.299  27.808  31.089  1.00  0.00     0.029 A 
ATOM     62  N   UNL A   1      41.252  29.428  32.206  1.00  0.00    -0.354 N 
ATOM     63  N   UNL A   1      40.838  31.263  34.613  1.00  0.00    -0.248 NA
ATOM     64  C   UNL A   1      41.432  31.882  36.787  1.00  0.00     0.031 C 
ATOM     65  C   UNL A   1      42.865  27.923  32.364  1.00  0.00     0.029 A 
ATOM     66  C   UNL A   1      42.232  28.950  33.054  1.00  0.00     0.049 A 
ATOM     67  H   UNL A   1      40.629  30.160  32.420  1.00  0.00     0.167 HD
ATOM     68  C   UNL A   1      41.886  30.459  35.031  1.00  0.00     0.074 A 
ATOM     69  C   UNL A   1      42.228  30.907  36.371  1.00  0.00     0.031 C 
ATOM     70  C   UNL A   1      42.516  29.447  34.380  1.00  0.00     0.037 A 
BRANCH  57  71
ATOM     71  C   UNL A   1      40.375  28.106  28.691  1.00  0.00     0.064 A 
ATOM     72  C   UNL A   1      39.716  26.865  28.641  1.00  0.00     0.173 A 
ATOM     73  C   UNL A   1      41.123  28.491  27.571  1.00  0.00     0.173 A 
ATOM     74  F   UNL A   1      39.015  26.428  29.699  1.00  0.00    -0.203 F 
ATOM     75  C   UNL A   1      39.846  26.025  27.538  1.00  0.00     0.198 A 
ATOM     76  C   UNL A   1      41.222  27.665  26.453  1.00  0.00     0.198 A 
ATOM     77  F   UNL A   1      41.786  29.657  27.569  1.00  0.00    -0.203 F 
ATOM     78  F   UNL A   1      39.280  24.810  27.551  1.00  0.00    -0.200 F 
ATOM     79  C   UNL A   1      40.596  26.428  26.443  1.00  0.00     0.200 A 
ATOM     80  F   UNL A   1      41.945  28.056  25.396  1.00  0.00    -0.200 F 
ATOM     81  F   UNL A   1      40.732  25.614  25.387  1.00  0.00    -0.200 F 
ENDBRANCH  57  71
BRANCH  58  82
ATOM     82  C   UNL A   1      39.424  34.066  36.873  1.00  0.00     0.064 A 
ATOM     83  C   UNL A   1      38.684  33.642  37.985  1.00  0.00     0.173 A 
ATOM     84  C   UNL A   1      40.067  35.310  36.953  1.00  0.00     0.173 A 
ATOM     85  F   UNL A   1      38.054  32.459  37.956  1.00  0.00    -0.203 F 
ATOM     86  C   UNL A   1      38.581  34.433  39.127  1.00  0.00     0.198 A 
ATOM     87  C   UNL A   1      39.982  36.091  38.105  1.00  0.00     0.198 A 
ATOM     88  F   UNL A   1      40.805  35.753  35.926  1.00  0.00    -0.203 F 
ATOM     89  F   UNL A   1      37.850  34.011  40.167  1.00  0.00    -0.200 F 
ATOM     90  C   UNL A   1      39.235  35.655  39.189  1.00  0.00     0.200 A 
ATOM     91  F   UNL A   1      40.634  37.261  38.169  1.00  0.00    -0.200 F 
ATOM     92  F   UNL A   1      39.147  36.408  40.292  1.00  0.00    -0.200 F 
ENDBRANCH  58  82
BRANCH  70  93
ATOM     93  C   UNL A   1      43.649  28.796  35.110  1.00  0.00     0.064 A 
ATOM     94  C   UNL A   1      44.968  29.250  34.972  1.00  0.00     0.173 A 
ATOM     95  C   UNL A   1      43.399  27.735  35.992  1.00  0.00     0.173 A 
ATOM     96  F   UNL A   1      45.253  30.252  34.125  1.00  0.00    -0.203 F 
ATOM     97  C   UNL A   1      46.003  28.645  35.674  1.00  0.00     0.198 A 
ATOM     98  C   UNL A   1      44.433  27.157  36.719  1.00  0.00     0.198 A 
ATOM     99  F   UNL A   1      42.151  27.275  36.161  1.00  0.00    -0.203 F 
ATOM    100  F   UNL A   1      47.265  29.058  35.489  1.00  0.00    -0.200 F 
ATOM    101  C   UNL A   1      45.734  27.606  36.553  1.00  0.00     0.200 A 
ATOM    102  F   UNL A   1      44.168  26.166  37.582  1.00  0.00    -0.200 F 
ATOM    103  F   UNL A   1      46.733  27.032  37.237  1.00  0.00    -0.200 F 
ENDBRANCH  70  93
ENDBRANCH  44  45
ENDBRANCH  37  39
ENDBRANCH  36  37
ENDBRANCH  35  36
ENDBRANCH  34  35
ENDBRANCH  33  34
ENDBRANCH   1  33
TORSDOF 19
ENDMDL
MODEL 2
REMARK VINA RESULT:     -12.2      0.767      7.104
REMARK SMILES COC(=O)c1c(-c2ccccc2Cl)csc1NC(=O)[C@@H]1[C@@H]2CC[C@@H](C2)[C@@H]1C(=O)OCCOCCOC(=O)c1ccc(-c2c3nc(c(-c4c(F)c(F)c(F)c(F)c4F)c4ccc([nH]4)c(-c4c(F)c(F)c(F)c(F)c4F)c4nc(c(-c5c(F)c(F)c(F)c(F)c5F)c5ccc2[nH]5)C=C4)C=C3)cc1
REMARK SMILES IDX 31 1 30 2 29 3 27 4 28 5 26 6 20 7 21 8 22 9 25 10 24 11
REMARK SMILES IDX 23 12 18 13 17 14 19 16 16 17 5 18 6 19 14 20 15 21 3 22
REMARK SMILES IDX 4 23 2 24 1 25 7 26 8 27 12 28 9 29 11 30 13 31 10 32 32 33
REMARK SMILES IDX 33 34 34 35 35 36 36 37 37 38 38 39 39 40 100 41 40 42 99 43
REMARK SMILES IDX 41 44 42 45 43 46 93 47 44 48 98 49 92 50 94 51 45 52 97 53
REMARK SMILES IDX 91 54 90 55 46 57 78 58 58 59 77 60 59 61 62 62 76 63 95 64
REMARK SMILES IDX 60 65 61 66 75 68 96 69 63 70 47 71 48 72 56 73 49 74 50 75
REMARK SMILES IDX 54 76 57 77 51 78 52 79 55 80 53 81 79 82 80 83 88 84 81 85
REMARK SMILES IDX 82 86 86 87 89 88 83 89 84 90 87 91 85 92 64 93 65 94 73 95
REMARK SMILES IDX 66 96 67 97 71 98 74 99 68 100 69 101 72 102 70 103
REMARK H PARENT 17 15 94 56 62 67
REMARK Flexibility Score: inf
ROOT
ATOM      1  C   UNL A   1      34.255  29.526  27.509  1.00  0.00     0.202 C 
ENDROOT
BRANCH   1   2
ATOM      2  C   UNL A   1      32.941  28.788  27.266  1.00  0.00     0.261 C 
BRANCH   2   3
ATOM      3  O   UNL A   1      33.176  27.555  26.580  1.00  0.00    -0.463 OA
BRANCH   3   4
ATOM      4  C   UNL A   1      33.139  27.670  25.220  1.00  0.00     0.310 C 
ATOM      5  O   UNL A   1      34.025  28.154  24.535  1.00  0.00    -0.252 OA
BRANCH   4   6
ATOM      6  C   UNL A   1      31.857  27.046  24.702  1.00  0.00     0.115 C 
ATOM      7  C   UNL A   1      31.933  26.391  23.296  1.00  0.00     0.096 C 
ATOM      8  C   UNL A   1      31.027  27.393  22.510  1.00  0.00     0.003 C 
ATOM      9  C   UNL A   1      31.563  28.853  22.530  1.00  0.00     0.005 C 
ATOM     10  C   UNL A   1      29.846  27.508  23.488  1.00  0.00     0.009 C 
ATOM     11  C   UNL A   1      30.713  28.087  24.605  1.00  0.00     0.004 C 
ATOM     12  C   UNL A   1      31.217  29.363  23.934  1.00  0.00     0.005 C 
BRANCH   7  13
ATOM     13  C   UNL A   1      33.304  26.073  22.650  1.00  0.00     0.229 C 
ATOM     14  N   UNL A   1      34.256  25.239  23.193  1.00  0.00    -0.317 N 
ATOM     15  H   UNL A   1      35.167  25.476  22.903  1.00  0.00     0.170 HD
ATOM     16  O   UNL A   1      33.614  26.636  21.591  1.00  0.00    -0.274 OA
BRANCH  14  17
ATOM     17  C   UNL A   1      34.250  24.139  24.053  1.00  0.00     0.110 A 
ATOM     18  C   UNL A   1      33.596  22.901  23.871  1.00  0.00     0.102 A 
ATOM     19  C   UNL A   1      34.016  21.911  24.903  1.00  0.00     0.011 A 
ATOM     20  C   UNL A   1      34.826  22.556  25.829  1.00  0.00     0.076 A 
ATOM     21  S   UNL A   1      35.037  24.224  25.546  1.00  0.00    -0.125 S 
BRANCH  18  22
ATOM     22  C   UNL A   1      32.773  22.670  22.670  1.00  0.00     0.341 C 
ATOM     23  O   UNL A   1      33.204  22.820  21.531  1.00  0.00    -0.246 OA
BRANCH  22  24
ATOM     24  O   UNL A   1      31.495  22.271  22.933  1.00  0.00    -0.465 OA
ATOM     25  C   UNL A   1      30.669  23.288  23.508  1.00  0.00     0.282 C 
ENDBRANCH  22  24
ENDBRANCH  18  22
BRANCH  19  26
ATOM     26  C   UNL A   1      33.957  20.402  24.916  1.00  0.00     0.002 A 
ATOM     27  C   UNL A   1      32.702  19.763  24.931  1.00  0.00     0.010 A 
ATOM     28  C   UNL A   1      35.062  19.542  24.714  1.00  0.00     0.048 A 
ATOM     29  C   UNL A   1      32.530  18.388  24.685  1.00  0.00     0.001 A 
ATOM     30  C   UNL A   1      34.888  18.170  24.418  1.00  0.00     0.021 A 
ATOM     31  Cl  UNL A   1      36.713  20.057  24.829  1.00  0.00    -0.084 Cl
ATOM     32  C   UNL A   1      33.621  17.596  24.385  1.00  0.00     0.002 A 
ENDBRANCH  19  26
ENDBRANCH  14  17
ENDBRANCH   7  13
ENDBRANCH   4   6
ENDBRANCH   3   4
ENDBRANCH   2   3
ENDBRANCH   1   2
BRANCH   1  33
ATOM     33  O   UNL A   1      34.160  30.933  27.603  1.00  0.00    -0.374 OA
BRANCH  33  34
ATOM     34  C   UNL A   1      32.908  31.582  27.411  1.00  0.00     0.202 C 
BRANCH  34  35
ATOM     35  C   UNL A   1      32.736  33.090  27.260  1.00  0.00     0.261 C 
BRANCH  35  36
ATOM     36  O   UNL A   1      32.510  33.850  28.441  1.00  0.00    -0.460 OA
BRANCH  36  37
ATOM     37  C   UNL A   1      33.370  34.822  28.784  1.00  0.00     0.338 C 
ATOM     38  O   UNL A   1      33.229  36.019  28.837  1.00  0.00    -0.246 OA
BRANCH  37  39
ATOM     39  C   UNL A   1      34.433  34.158  29.492  1.00  0.00     0.060 A 
ATOM     40  C   UNL A   1      34.041  33.222  30.460  1.00  0.00     0.016 A 
ATOM     41  C   UNL A   1      35.742  34.326  29.052  1.00  0.00     0.016 A 
ATOM     42  C   UNL A   1      34.997  32.390  30.983  1.00  0.00     0.010 A 
ATOM     43  C   UNL A   1      36.689  33.476  29.554  1.00  0.00     0.010 A 
ATOM     44  C   UNL A   1      36.305  32.524  30.513  1.00  0.00    -0.014 A 
BRANCH  44  45
ATOM     45  C   UNL A   1      37.363  31.735  31.115  1.00  0.00     0.031 A 
ATOM     46  C   UNL A   1      37.749  32.097  32.502  1.00  0.00     0.074 A 
ATOM     47  C   UNL A   1      37.968  30.819  30.353  1.00  0.00     0.049 A 
ATOM     48  N   UNL A   1      38.756  31.676  33.208  1.00  0.00    -0.248 NA
ATOM     49  C   UNL A   1      36.909  33.109  33.172  1.00  0.00     0.031 C 
ATOM     50  C   UNL A   1      37.586  30.469  28.982  1.00  0.00     0.029 A 
ATOM     51  N   UNL A   1      39.046  30.035  30.617  1.00  0.00    -0.354 N 
ATOM     52  C   UNL A   1      38.687  32.389  34.393  1.00  0.00     0.074 A 
ATOM     53  C   UNL A   1      37.575  33.304  34.297  1.00  0.00     0.031 C 
ATOM     54  C   UNL A   1      38.424  29.525  28.525  1.00  0.00     0.029 A 
ATOM     55  C   UNL A   1      39.414  29.249  29.558  1.00  0.00     0.049 A 
ATOM     56  H   UNL A   1      39.515  30.032  31.483  1.00  0.00     0.167 HD
ATOM     57  C   UNL A   1      39.497  32.263  35.465  1.00  0.00     0.037 A 
ATOM     58  C   UNL A   1      40.460  28.413  29.464  1.00  0.00     0.037 A 
ATOM     59  C   UNL A   1      40.594  31.335  35.483  1.00  0.00     0.049 A 
ATOM     60  C   UNL A   1      41.358  28.308  30.664  1.00  0.00     0.074 A 
ATOM     61  C   UNL A   1      41.485  31.061  36.498  1.00  0.00     0.029 A 
ATOM     62  N   UNL A   1      40.944  30.526  34.403  1.00  0.00    -0.354 N 
ATOM     63  N   UNL A   1      41.280  28.942  31.813  1.00  0.00    -0.248 NA
ATOM     64  C   UNL A   1      42.486  27.380  30.560  1.00  0.00     0.031 C 
ATOM     65  C   UNL A   1      42.406  30.125  36.015  1.00  0.00     0.029 A 
ATOM     66  C   UNL A   1      42.056  29.769  34.718  1.00  0.00     0.049 A 
ATOM     67  H   UNL A   1      40.469  30.499  33.542  1.00  0.00     0.167 HD
ATOM     68  C   UNL A   1      42.329  28.471  32.585  1.00  0.00     0.074 A 
ATOM     69  C   UNL A   1      43.022  27.488  31.768  1.00  0.00     0.031 C 
ATOM     70  C   UNL A   1      42.694  28.807  33.850  1.00  0.00     0.037 A 
BRANCH  57  71
ATOM     71  C   UNL A   1      39.233  33.171  36.627  1.00  0.00     0.064 A 
ATOM     72  C   UNL A   1      39.859  34.424  36.749  1.00  0.00     0.173 A 
ATOM     73  C   UNL A   1      38.401  32.755  37.675  1.00  0.00     0.173 A 
ATOM     74  F   UNL A   1      40.696  34.858  35.793  1.00  0.00    -0.203 F 
ATOM     75  C   UNL A   1      39.701  35.199  37.895  1.00  0.00     0.198 A 
ATOM     76  C   UNL A   1      38.215  33.550  38.804  1.00  0.00     0.198 A 
ATOM     77  F   UNL A   1      37.790  31.562  37.620  1.00  0.00    -0.203 F 
ATOM     78  F   UNL A   1      40.379  36.349  38.024  1.00  0.00    -0.200 F 
ATOM     79  C   UNL A   1      38.875  34.763  38.920  1.00  0.00     0.200 A 
ATOM     80  F   UNL A   1      37.416  33.127  39.793  1.00  0.00    -0.200 F 
ATOM     81  F   UNL A   1      38.734  35.503  40.028  1.00  0.00    -0.200 F 
ENDBRANCH  57  71
BRANCH  58  82
ATOM     82  C   UNL A   1      40.650  27.604  28.238  1.00  0.00     0.064 A 
ATOM     83  C   UNL A   1      41.474  28.068  27.204  1.00  0.00     0.173 A 
ATOM     84  C   UNL A   1      40.078  26.331  28.095  1.00  0.00     0.173 A 
ATOM     85  F   UNL A   1      42.044  29.278  27.297  1.00  0.00    -0.203 F 
ATOM     86  C   UNL A   1      41.707  27.298  26.068  1.00  0.00     0.198 A 
ATOM     87  C   UNL A   1      40.331  25.551  26.968  1.00  0.00     0.198 A 
ATOM     88  F   UNL A   1      39.300  25.831  29.066  1.00  0.00    -0.203 F 
ATOM     89  F   UNL A   1      42.482  27.776  25.085  1.00  0.00    -0.200 F 
ATOM     90  C   UNL A   1      41.141  26.036  25.953  1.00  0.00     0.200 A 
ATOM     91  F   UNL A   1      39.800  24.324  26.871  1.00  0.00    -0.200 F 
ATOM     92  F   UNL A   1      41.378  25.290  24.866  1.00  0.00    -0.200 F 
ENDBRANCH  58  82
BRANCH  70  93
ATOM     93  C   UNL A   1      43.873  28.075  34.413  1.00  0.00     0.064 A 
ATOM     94  C   UNL A   1      45.174  28.586  34.305  1.00  0.00     0.173 A 
ATOM     95  C   UNL A   1      43.685  26.873  35.109  1.00  0.00     0.173 A 
ATOM     96  F   UNL A   1      45.399  29.724  33.632  1.00  0.00    -0.203 F 
ATOM     97  C   UNL A   1      46.252  27.900  34.852  1.00  0.00     0.198 A 
ATOM     98  C   UNL A   1      44.761  26.210  35.687  1.00  0.00     0.198 A 
ATOM     99  F   UNL A   1      42.455  26.354  35.245  1.00  0.00    -0.203 F 
ATOM    100  F   UNL A   1      47.495  28.376  34.693  1.00  0.00    -0.200 F 
ATOM    101  C   UNL A   1      46.044  26.719  35.550  1.00  0.00     0.200 A 
ATOM    102  F   UNL A   1      44.556  25.079  36.376  1.00  0.00    -0.200 F 
ATOM    103  F   UNL A   1      47.084  26.067  36.087  1.00  0.00    -0.200 F 
ENDBRANCH  70  93
ENDBRANCH  44  45
ENDBRANCH  37  39
ENDBRANCH  36  37
ENDBRANCH  35  36
ENDBRANCH  34  35
ENDBRANCH  33  34
ENDBRANCH   1  33
TORSDOF 19
ENDMDL
MODEL 3
REMARK VINA RESULT:     -12.2      0.262      1.858
REMARK SMILES COC(=O)c1c(-c2ccccc2Cl)csc1NC(=O)[C@@H]1[C@@H]2CC[C@@H](C2)[C@@H]1C(=O)OCCOCCOC(=O)c1ccc(-c2c3nc(c(-c4c(F)c(F)c(F)c(F)c4F)c4ccc([nH]4)c(-c4c(F)c(F)c(F)c(F)c4F)c4nc(c(-c5c(F)c(F)c(F)c(F)c5F)c5ccc2[nH]5)C=C4)C=C3)cc1
REMARK SMILES IDX 31 1 30 2 29 3 27 4 28 5 26 6 20 7 21 8 22 9 25 10 24 11
REMARK SMILES IDX 23 12 18 13 17 14 19 16 16 17 5 18 6 19 14 20 15 21 3 22
REMARK SMILES IDX 4 23 2 24 1 25 7 26 8 27 12 28 9 29 11 30 13 31 10 32 32 33
REMARK SMILES IDX 33 34 34 35 35 36 36 37 37 38 38 39 39 40 100 41 40 42 99 43
REMARK SMILES IDX 41 44 42 45 43 46 93 47 44 48 98 49 92 50 94 51 45 52 97 53
REMARK SMILES IDX 91 54 90 55 46 57 78 58 58 59 77 60 59 61 62 62 76 63 95 64
REMARK SMILES IDX 60 65 61 66 75 68 96 69 63 70 47 71 48 72 56 73 49 74 50 75
REMARK SMILES IDX 54 76 57 77 51 78 52 79 55 80 53 81 79 82 80 83 88 84 81 85
REMARK SMILES IDX 82 86 86 87 89 88 83 89 84 90 87 91 85 92 64 93 65 94 73 95
REMARK SMILES IDX 66 96 67 97 71 98 74 99 68 100 69 101 72 102 70 103
REMARK H PARENT 17 15 94 56 62 67
REMARK Flexibility Score: inf
ROOT
ATOM      1  C   UNL A   1      34.893  29.456  27.571  1.00  0.00     0.202 C 
ENDROOT
BRANCH   1   2
ATOM      2  C   UNL A   1      33.692  28.567  27.256  1.00  0.00     0.261 C 
BRANCH   2   3
ATOM      3  O   UNL A   1      34.034  27.595  26.265  1.00  0.00    -0.463 OA
BRANCH   3   4
ATOM      4  C   UNL A   1      33.573  27.900  25.016  1.00  0.00     0.310 C 
ATOM      5  O   UNL A   1      34.155  28.608  24.210  1.00  0.00    -0.252 OA
BRANCH   4   6
ATOM      6  C   UNL A   1      32.264  27.172  24.776  1.00  0.00     0.115 C 
ATOM      7  C   UNL A   1      32.190  26.302  23.491  1.00  0.00     0.096 C 
ATOM      8  C   UNL A   1      31.148  27.144  22.686  1.00  0.00     0.003 C 
ATOM      9  C   UNL A   1      31.618  28.600  22.407  1.00  0.00     0.005 C 
ATOM     10  C   UNL A   1      30.097  27.387  23.781  1.00  0.00     0.009 C 
ATOM     11  C   UNL A   1      31.073  28.157  24.670  1.00  0.00     0.004 C 
ATOM     12  C   UNL A   1      31.431  29.321  23.748  1.00  0.00     0.005 C 
BRANCH   7  13
ATOM     13  C   UNL A   1      33.480  25.917  22.727  1.00  0.00     0.229 C 
ATOM     14  N   UNL A   1      34.434  25.035  23.185  1.00  0.00    -0.317 N 
ATOM     15  H   UNL A   1      35.325  25.227  22.815  1.00  0.00     0.170 HD
ATOM     16  O   UNL A   1      33.722  26.465  21.643  1.00  0.00    -0.274 OA
BRANCH  14  17
ATOM     17  C   UNL A   1      34.448  23.936  24.047  1.00  0.00     0.110 A 
ATOM     18  C   UNL A   1      33.731  22.727  23.919  1.00  0.00     0.102 A 
ATOM     19  C   UNL A   1      34.188  21.719  24.918  1.00  0.00     0.011 A 
ATOM     20  C   UNL A   1      35.096  22.329  25.775  1.00  0.00     0.076 A 
ATOM     21  S   UNL A   1      35.355  23.986  25.472  1.00  0.00    -0.125 S 
BRANCH  18  22
ATOM     22  C   UNL A   1      32.806  22.533  22.789  1.00  0.00     0.341 C 
ATOM     23  O   UNL A   1      33.154  22.655  21.618  1.00  0.00    -0.246 OA
BRANCH  22  24
ATOM     24  O   UNL A   1      31.534  22.200  23.153  1.00  0.00    -0.465 OA
ATOM     25  C   UNL A   1      30.716  23.316  23.513  1.00  0.00     0.282 C 
ENDBRANCH  22  24
ENDBRANCH  18  22
BRANCH  19  26
ATOM     26  C   UNL A   1      34.067  20.214  24.940  1.00  0.00     0.002 A 
ATOM     27  C   UNL A   1      32.786  19.628  24.978  1.00  0.00     0.010 A 
ATOM     28  C   UNL A   1      35.131  19.308  24.724  1.00  0.00     0.048 A 
ATOM     29  C   UNL A   1      32.553  18.261  24.741  1.00  0.00     0.001 A 
ATOM     30  C   UNL A   1      34.895  17.943  24.438  1.00  0.00     0.021 A 
ATOM     31  Cl  UNL A   1      36.804  19.753  24.810  1.00  0.00    -0.084 Cl
ATOM     32  C   UNL A   1      33.606  17.423  24.428  1.00  0.00     0.002 A 
ENDBRANCH  19  26
ENDBRANCH  14  17
ENDBRANCH   7  13
ENDBRANCH   4   6
ENDBRANCH   3   4
ENDBRANCH   2   3
ENDBRANCH   1   2
BRANCH   1  33
ATOM     33  O   UNL A   1      34.644  30.847  27.571  1.00  0.00    -0.374 OA
BRANCH  33  34
ATOM     34  C   UNL A   1      33.316  31.338  27.432  1.00  0.00     0.202 C 
BRANCH  34  35
ATOM     35  C   UNL A   1      32.949  32.817  27.350  1.00  0.00     0.261 C 
BRANCH  35  36
ATOM     36  O   UNL A   1      32.629  33.485  28.564  1.00  0.00    -0.460 OA
BRANCH  36  37
ATOM     37  C   UNL A   1      33.257  34.629  28.880  1.00  0.00     0.338 C 
ATOM     38  O   UNL A   1      32.864  35.769  28.889  1.00  0.00    -0.246 OA
BRANCH  37  39
ATOM     39  C   UNL A   1      34.424  34.231  29.623  1.00  0.00     0.060 A 
ATOM     40  C   UNL A   1      34.203  33.367  30.705  1.00  0.00     0.016 A 
ATOM     41  C   UNL A   1      35.682  34.549  29.122  1.00  0.00     0.016 A 
ATOM     42  C   UNL A   1      35.288  32.764  31.288  1.00  0.00     0.010 A 
ATOM     43  C   UNL A   1      36.761  33.925  29.686  1.00  0.00     0.010 A 
ATOM     44  C   UNL A   1      36.550  33.046  30.761  1.00  0.00    -0.014 A 
BRANCH  44  45
ATOM     45  C   UNL A   1      37.730  32.512  31.413  1.00  0.00     0.031 A 
ATOM     46  C   UNL A   1      38.446  31.425  30.698  1.00  0.00     0.074 A 
ATOM     47  C   UNL A   1      38.025  32.963  32.637  1.00  0.00     0.049 A 
ATOM     48  N   UNL A   1      39.414  30.668  31.118  1.00  0.00    -0.248 NA
ATOM     49  C   UNL A   1      37.973  31.120  29.334  1.00  0.00     0.031 C 
ATOM     50  C   UNL A   1      37.312  34.033  33.341  1.00  0.00     0.029 A 
ATOM     51  N   UNL A   1      38.986  32.562  33.509  1.00  0.00    -0.354 N 
ATOM     52  C   UNL A   1      39.650  29.779  30.082  1.00  0.00     0.074 A 
ATOM     53  C   UNL A   1      38.696  30.054  29.036  1.00  0.00     0.031 C 
ATOM     54  C   UNL A   1      37.873  34.207  34.548  1.00  0.00     0.029 A 
ATOM     55  C   UNL A   1      38.945  33.232  34.702  1.00  0.00     0.049 A 
ATOM     56  H   UNL A   1      39.645  31.860  33.304  1.00  0.00     0.167 HD
ATOM     57  C   UNL A   1      40.601  28.823  30.033  1.00  0.00     0.037 A 
ATOM     58  C   UNL A   1      39.704  33.040  35.793  1.00  0.00     0.037 A 
ATOM     59  C   UNL A   1      41.511  28.601  31.122  1.00  0.00     0.049 A 
ATOM     60  C   UNL A   1      40.741  31.955  35.718  1.00  0.00     0.074 A 
ATOM     61  C   UNL A   1      42.551  27.700  31.218  1.00  0.00     0.029 A 
ATOM     62  N   UNL A   1      41.470  29.305  32.325  1.00  0.00    -0.354 N 
ATOM     63  N   UNL A   1      41.011  31.136  34.727  1.00  0.00    -0.248 NA
ATOM     64  C   UNL A   1      41.578  31.766  36.905  1.00  0.00     0.031 C 
ATOM     65  C   UNL A   1      43.105  27.825  32.497  1.00  0.00     0.029 A 
ATOM     66  C   UNL A   1      42.451  28.843  33.180  1.00  0.00     0.049 A 
ATOM     67  H   UNL A   1      40.835  30.027  32.533  1.00  0.00     0.167 HD
ATOM     68  C   UNL A   1      42.067  30.349  35.154  1.00  0.00     0.074 A 
ATOM     69  C   UNL A   1      42.392  30.802  36.496  1.00  0.00     0.031 C 
ATOM     70  C   UNL A   1      42.717  29.345  34.509  1.00  0.00     0.037 A 
BRANCH  57  71
ATOM     71  C   UNL A   1      40.641  27.966  28.805  1.00  0.00     0.064 A 
ATOM     72  C   UNL A   1      41.392  28.324  27.672  1.00  0.00     0.173 A 
ATOM     73  C   UNL A   1      39.857  26.807  28.726  1.00  0.00     0.173 A 
ATOM     74  F   UNL A   1      42.133  29.444  27.678  1.00  0.00    -0.203 F 
ATOM     75  C   UNL A   1      41.318  27.583  26.496  1.00  0.00     0.198 A 
ATOM     76  C   UNL A   1      39.813  26.046  27.559  1.00  0.00     0.198 A 
ATOM     77  F   UNL A   1      39.107  26.426  29.771  1.00  0.00    -0.203 F 
ATOM     78  F   UNL A   1      41.975  27.996  25.402  1.00  0.00    -0.200 F 
ATOM     79  C   UNL A   1      40.532  26.442  26.442  1.00  0.00     0.200 A 
ATOM     80  F   UNL A   1      39.054  24.944  27.510  1.00  0.00    -0.200 F 
ATOM     81  F   UNL A   1      40.450  25.737  25.305  1.00  0.00    -0.200 F 
ENDBRANCH  57  71
BRANCH  58  82
ATOM     82  C   UNL A   1      39.536  33.919  36.973  1.00  0.00     0.064 A 
ATOM     83  C   UNL A   1      40.109  35.198  36.991  1.00  0.00     0.173 A 
ATOM     84  C   UNL A   1      38.752  33.540  38.073  1.00  0.00     0.173 A 
ATOM     85  F   UNL A   1      40.864  35.605  35.961  1.00  0.00    -0.203 F 
ATOM     86  C   UNL A   1      39.917  36.059  38.069  1.00  0.00     0.198 A 
ATOM     87  C   UNL A   1      38.541  34.411  39.140  1.00  0.00     0.198 A 
ATOM     88  F   UNL A   1      38.163  32.336  38.095  1.00  0.00    -0.203 F 
ATOM     89  F   UNL A   1      40.494  37.268  38.068  1.00  0.00    -0.200 F 
ATOM     90  C   UNL A   1      39.128  35.667  39.141  1.00  0.00     0.200 A 
ATOM     91  F   UNL A   1      37.760  34.038  40.164  1.00  0.00    -0.200 F 
ATOM     92  F   UNL A   1      38.932  36.502  40.170  1.00  0.00    -0.200 F 
ENDBRANCH  58  82
BRANCH  70  93
ATOM     93  C   UNL A   1      43.855  28.712  35.248  1.00  0.00     0.064 A 
ATOM     94  C   UNL A   1      43.658  27.615  36.098  1.00  0.00     0.173 A 
ATOM     95  C   UNL A   1      45.161  29.185  35.063  1.00  0.00     0.173 A 
ATOM     96  F   UNL A   1      42.421  27.143  36.316  1.00  0.00    -0.203 F 
ATOM     97  C   UNL A   1      44.730  27.030  36.760  1.00  0.00     0.198 A 
ATOM     98  C   UNL A   1      46.235  28.573  35.699  1.00  0.00     0.198 A 
ATOM     99  F   UNL A   1      45.396  30.226  34.251  1.00  0.00    -0.203 F 
ATOM    100  F   UNL A   1      44.516  26.015  37.610  1.00  0.00    -0.200 F 
ATOM    101  C   UNL A   1      46.018  27.502  36.553  1.00  0.00     0.200 A 
ATOM    102  F   UNL A   1      47.480  29.019  35.483  1.00  0.00    -0.200 F 
ATOM    103  F   UNL A   1      47.051  26.928  37.184  1.00  0.00    -0.200 F 
ENDBRANCH  70  93
ENDBRANCH  44  45
ENDBRANCH  37  39
ENDBRANCH  36  37
ENDBRANCH  35  36
ENDBRANCH  34  35
ENDBRANCH  33  34
ENDBRANCH   1  33
TORSDOF 19
ENDMDL
