MODEL 1
REMARK VINA RESULT:     -13.0      0.000      0.000
REMARK SMILES Cc1ncc(CC(=O)N2CCc3c(c(C(=O)OCCOCCOC(=O)c4ccc(-c5c6nc(c(-c7c(F)c(F)c(F)c(F)c7F)c7ccc([nH]7)c(-c7c(F)c(F)c(F)c(F)c7F)c7nc(c(-c8c(F)c(F)c(F)c(F)c8F)c8ccc5[nH]8)C=C7)C=C6)cc4)nn3CC3CC3)C2)c(=O)[nH]1
REMARK SMILES IDX 19 1 18 2 17 3 15 4 16 5 14 6 9 7 10 8 95 9 11 10 13 11
REMARK SMILES IDX 12 12 90 13 89 14 7 15 8 16 6 17 5 18 1 19 2 20 3 21 98 22
REMARK SMILES IDX 4 23 96 24 97 26 91 27 92 28 93 29 94 30 20 31 21 32 22 33
REMARK SMILES IDX 23 34 24 35 25 36 26 37 27 38 88 39 28 40 87 41 29 42 30 43
REMARK SMILES IDX 31 44 81 45 32 46 86 47 80 48 82 49 33 50 85 51 79 52 78 53
REMARK SMILES IDX 34 55 66 56 46 57 65 58 47 59 50 60 64 61 83 62 48 63 49 64
REMARK SMILES IDX 63 66 84 67 51 68 35 69 36 70 44 71 37 72 38 73 42 74 45 75
REMARK SMILES IDX 39 76 40 77 43 78 41 79 67 80 68 81 76 82 69 83 70 84 74 85
REMARK SMILES IDX 77 86 71 87 72 88 75 89 73 90 52 91 53 92 61 93 54 94 55 95
REMARK SMILES IDX 59 96 62 97 56 98 57 99 60 100 58 101
REMARK H PARENT 98 25 82 54 50 65
REMARK Flexibility Score: inf
ROOT
ATOM      1  C   UNL A   1      40.492  20.524  26.886  1.00  0.00     0.202 C 
ENDROOT
BRANCH   1   2
ATOM      2  C   UNL A   1      39.778  21.624  26.099  1.00  0.00     0.261 C 
BRANCH   2   3
ATOM      3  O   UNL A   1      38.519  21.199  25.557  1.00  0.00    -0.458 OA
BRANCH   3   4
ATOM      4  C   UNL A   1      37.525  22.138  25.609  1.00  0.00     0.359 C 
ATOM      5  O   UNL A   1      37.695  23.307  25.937  1.00  0.00    -0.244 OA
BRANCH   4   6
ATOM      6  C   UNL A   1      36.247  21.658  25.069  1.00  0.00     0.175 A 
ATOM      7  N   UNL A   1      33.977  24.282  23.604  1.00  0.00    -0.338 N 
ATOM      8  C   UNL A   1      33.191  23.351  22.771  1.00  0.00     0.126 C 
ATOM      9  C   UNL A   1      35.362  23.868  23.885  1.00  0.00     0.159 C 
ATOM     10  C   UNL A   1      32.960  22.005  23.485  1.00  0.00     0.078 C 
ATOM     11  C   UNL A   1      35.311  22.442  24.342  1.00  0.00     0.028 A 
ATOM     12  C   UNL A   1      34.242  21.599  24.120  1.00  0.00     0.046 A 
ATOM     13  N   UNL A   1      34.568  20.394  24.661  1.00  0.00    -0.268 N 
ATOM     14  N   UNL A   1      35.805  20.389  25.210  1.00  0.00    -0.165 NA
BRANCH   7  15
ATOM     15  C   UNL A   1      33.591  25.542  24.024  1.00  0.00     0.227 C 
ATOM     16  O   UNL A   1      33.808  26.531  23.314  1.00  0.00    -0.275 OA
BRANCH  15  17
ATOM     17  C   UNL A   1      33.209  25.758  25.497  1.00  0.00     0.143 C 
BRANCH  17  18
ATOM     18  C   UNL A   1      32.124  24.932  26.091  1.00  0.00     0.045 A 
ATOM     19  C   UNL A   1      28.966  22.470  27.445  1.00  0.00     0.087 C 
ATOM     20  C   UNL A   1      30.118  23.333  27.025  1.00  0.00     0.105 A 
ATOM     21  N   UNL A   1      31.339  22.953  27.218  1.00  0.00    -0.243 NA
ATOM     22  N   UNL A   1      29.786  24.511  26.417  1.00  0.00    -0.311 N 
ATOM     23  C   UNL A   1      32.324  23.788  26.763  1.00  0.00     0.123 A 
ATOM     24  C   UNL A   1      30.724  25.374  25.932  1.00  0.00     0.254 A 
ATOM     25  H   UNL A   1      28.834  24.745  26.327  1.00  0.00     0.171 HD
ATOM     26  O   UNL A   1      30.424  26.420  25.373  1.00  0.00    -0.269 OA
ENDBRANCH  17  18
ENDBRANCH  15  17
ENDBRANCH   7  15
BRANCH  13  27
ATOM     27  C   UNL A   1      33.706  19.224  24.788  1.00  0.00     0.148 C 
BRANCH  27  28
ATOM     28  C   UNL A   1      34.194  17.983  24.094  1.00  0.00     0.011 C 
ATOM     29  C   UNL A   1      33.633  16.592  24.298  1.00  0.00     0.006 C 
ATOM     30  C   UNL A   1      33.322  17.345  23.038  1.00  0.00     0.006 C 
ENDBRANCH  27  28
ENDBRANCH  13  27
ENDBRANCH   4   6
ENDBRANCH   3   4
ENDBRANCH   2   3
ENDBRANCH   1   2
BRANCH   1  31
ATOM     31  O   UNL A   1      41.203  19.521  26.162  1.00  0.00    -0.374 OA
BRANCH  31  32
ATOM     32  C   UNL A   1      42.498  19.114  26.587  1.00  0.00     0.202 C 
BRANCH  32  33
ATOM     33  C   UNL A   1      43.477  18.598  25.545  1.00  0.00     0.261 C 
BRANCH  33  34
ATOM     34  O   UNL A   1      44.602  19.448  25.403  1.00  0.00    -0.460 OA
BRANCH  34  35
ATOM     35  C   UNL A   1      44.631  20.131  24.235  1.00  0.00     0.338 C 
ATOM     36  O   UNL A   1      44.585  19.679  23.109  1.00  0.00    -0.246 OA
BRANCH  35  37
ATOM     37  C   UNL A   1      44.959  21.525  24.551  1.00  0.00     0.060 A 
ATOM     38  C   UNL A   1      45.691  21.708  25.723  1.00  0.00     0.016 A 
ATOM     39  C   UNL A   1      44.255  22.572  23.931  1.00  0.00     0.016 A 
ATOM     40  C   UNL A   1      45.491  22.871  26.422  1.00  0.00     0.010 A 
ATOM     41  C   UNL A   1      44.045  23.728  24.639  1.00  0.00     0.010 A 
ATOM     42  C   UNL A   1      44.590  23.818  25.916  1.00  0.00    -0.014 A 
BRANCH  42  43
ATOM     43  C   UNL A   1      44.357  24.996  26.716  1.00  0.00     0.031 A 
ATOM     44  C   UNL A   1      45.437  25.985  26.538  1.00  0.00     0.074 A 
ATOM     45  C   UNL A   1      43.263  25.168  27.478  1.00  0.00     0.049 A 
ATOM     46  N   UNL A   1      46.334  26.314  27.405  1.00  0.00    -0.248 NA
ATOM     47  C   UNL A   1      45.686  26.496  25.181  1.00  0.00     0.031 C 
ATOM     48  C   UNL A   1      42.049  24.353  27.533  1.00  0.00     0.029 A 
ATOM     49  N   UNL A   1      42.982  26.189  28.332  1.00  0.00    -0.354 N 
ATOM     50  C   UNL A   1      47.139  27.244  26.762  1.00  0.00     0.074 A 
ATOM     51  C   UNL A   1      46.828  27.159  25.360  1.00  0.00     0.031 C 
ATOM     52  C   UNL A   1      41.084  25.034  28.195  1.00  0.00     0.029 A 
ATOM     53  C   UNL A   1      41.649  26.269  28.715  1.00  0.00     0.049 A 
ATOM     54  H   UNL A   1      43.667  26.820  28.651  1.00  0.00     0.167 HD
ATOM     55  C   UNL A   1      47.750  28.218  27.484  1.00  0.00     0.037 A 
ATOM     56  C   UNL A   1      41.066  27.322  29.342  1.00  0.00     0.037 A 
ATOM     57  C   UNL A   1      47.871  27.835  28.870  1.00  0.00     0.049 A 
ATOM     58  C   UNL A   1      42.152  28.115  29.977  1.00  0.00     0.074 A 
ATOM     59  C   UNL A   1      48.478  26.789  29.540  1.00  0.00     0.029 A 
ATOM     60  N   UNL A   1      46.980  28.379  29.763  1.00  0.00    -0.354 N 
ATOM     61  N   UNL A   1      42.853  27.694  30.993  1.00  0.00    -0.248 NA
ATOM     62  C   UNL A   1      42.772  29.167  29.186  1.00  0.00     0.031 C 
ATOM     63  C   UNL A   1      47.595  26.471  30.617  1.00  0.00     0.029 A 
ATOM     64  C   UNL A   1      46.535  27.377  30.585  1.00  0.00     0.049 A 
ATOM     65  H   UNL A   1      46.708  29.323  29.804  1.00  0.00     0.167 HD
ATOM     66  C   UNL A   1      44.153  28.083  30.706  1.00  0.00     0.074 A 
ATOM     67  C   UNL A   1      44.029  29.059  29.626  1.00  0.00     0.031 C 
ATOM     68  C   UNL A   1      45.215  27.358  31.165  1.00  0.00     0.037 A 
BRANCH  55  69
ATOM     69  C   UNL A   1      47.787  29.660  27.032  1.00  0.00     0.064 A 
ATOM     70  C   UNL A   1      48.992  30.374  27.175  1.00  0.00     0.173 A 
ATOM     71  C   UNL A   1      46.639  30.449  26.787  1.00  0.00     0.173 A 
ATOM     72  F   UNL A   1      50.142  29.728  27.424  1.00  0.00    -0.203 F 
ATOM     73  C   UNL A   1      49.023  31.769  27.182  1.00  0.00     0.198 A 
ATOM     74  C   UNL A   1      46.685  31.838  26.739  1.00  0.00     0.198 A 
ATOM     75  F   UNL A   1      45.409  29.933  26.701  1.00  0.00    -0.203 F 
ATOM     76  F   UNL A   1      50.166  32.405  27.470  1.00  0.00    -0.200 F 
ATOM     77  C   UNL A   1      47.867  32.501  26.975  1.00  0.00     0.200 A 
ATOM     78  F   UNL A   1      45.548  32.526  26.557  1.00  0.00    -0.200 F 
ATOM     79  F   UNL A   1      47.881  33.837  27.054  1.00  0.00    -0.200 F 
ENDBRANCH  55  69
BRANCH  56  80
ATOM     80  C   UNL A   1      39.704  27.876  29.140  1.00  0.00     0.064 A 
ATOM     81  C   UNL A   1      38.805  27.999  30.214  1.00  0.00     0.173 A 
ATOM     82  C   UNL A   1      39.360  28.561  27.958  1.00  0.00     0.173 A 
ATOM     83  F   UNL A   1      39.078  27.419  31.391  1.00  0.00    -0.203 F 
ATOM     84  C   UNL A   1      37.650  28.784  30.120  1.00  0.00     0.198 A 
ATOM     85  C   UNL A   1      38.204  29.338  27.864  1.00  0.00     0.198 A 
ATOM     86  F   UNL A   1      40.186  28.575  26.903  1.00  0.00    -0.203 F 
ATOM     87  F   UNL A   1      36.852  28.930  31.187  1.00  0.00    -0.200 F 
ATOM     88  C   UNL A   1      37.357  29.462  28.948  1.00  0.00     0.200 A 
ATOM     89  F   UNL A   1      37.952  30.019  26.736  1.00  0.00    -0.200 F 
ATOM     90  F   UNL A   1      36.285  30.263  28.878  1.00  0.00    -0.200 F 
ENDBRANCH  56  80
BRANCH  68  91
ATOM     91  C   UNL A   1      44.939  26.314  32.211  1.00  0.00     0.064 A 
ATOM     92  C   UNL A   1      44.871  26.573  33.593  1.00  0.00     0.173 A 
ATOM     93  C   UNL A   1      44.624  25.018  31.785  1.00  0.00     0.173 A 
ATOM     94  F   UNL A   1      45.056  27.809  34.074  1.00  0.00    -0.203 F 
ATOM     95  C   UNL A   1      44.561  25.563  34.503  1.00  0.00     0.198 A 
ATOM     96  C   UNL A   1      44.276  24.021  32.691  1.00  0.00     0.198 A 
ATOM     97  F   UNL A   1      44.618  24.726  30.475  1.00  0.00    -0.203 F 
ATOM     98  F   UNL A   1      44.528  25.828  35.818  1.00  0.00    -0.200 F 
ATOM     99  C   UNL A   1      44.260  24.290  34.051  1.00  0.00     0.200 A 
ATOM    100  F   UNL A   1      43.937  22.805  32.244  1.00  0.00    -0.200 F 
ATOM    101  F   UNL A   1      43.929  23.326  34.921  1.00  0.00    -0.200 F 
ENDBRANCH  68  91
ENDBRANCH  42  43
ENDBRANCH  35  37
ENDBRANCH  34  35
ENDBRANCH  33  34
ENDBRANCH  32  33
ENDBRANCH  31  32
ENDBRANCH   1  31
TORSDOF 19
ENDMDL
MODEL 2
REMARK VINA RESULT:     -12.5      4.819     10.601
REMARK SMILES Cc1ncc(CC(=O)N2CCc3c(c(C(=O)OCCOCCOC(=O)c4ccc(-c5c6nc(c(-c7c(F)c(F)c(F)c(F)c7F)c7ccc([nH]7)c(-c7c(F)c(F)c(F)c(F)c7F)c7nc(c(-c8c(F)c(F)c(F)c(F)c8F)c8ccc5[nH]8)C=C7)C=C6)cc4)nn3CC3CC3)C2)c(=O)[nH]1
REMARK SMILES IDX 19 1 18 2 17 3 15 4 16 5 14 6 9 7 10 8 95 9 11 10 13 11
REMARK SMILES IDX 12 12 90 13 89 14 7 15 8 16 6 17 5 18 1 19 2 20 3 21 98 22
REMARK SMILES IDX 4 23 96 24 97 26 91 27 92 28 93 29 94 30 20 31 21 32 22 33
REMARK SMILES IDX 23 34 24 35 25 36 26 37 27 38 88 39 28 40 87 41 29 42 30 43
REMARK SMILES IDX 31 44 81 45 32 46 86 47 80 48 82 49 33 50 85 51 79 52 78 53
REMARK SMILES IDX 34 55 66 56 46 57 65 58 47 59 50 60 64 61 83 62 48 63 49 64
REMARK SMILES IDX 63 66 84 67 51 68 35 69 36 70 44 71 37 72 38 73 42 74 45 75
REMARK SMILES IDX 39 76 40 77 43 78 41 79 67 80 68 81 76 82 69 83 70 84 74 85
REMARK SMILES IDX 77 86 71 87 72 88 75 89 73 90 52 91 53 92 61 93 54 94 55 95
REMARK SMILES IDX 59 96 62 97 56 98 57 99 60 100 58 101
REMARK H PARENT 98 25 82 54 50 65
REMARK Flexibility Score: inf
ROOT
ATOM      1  C   UNL A   1      33.451  32.908  27.993  1.00  0.00     0.202 C 
ENDROOT
BRANCH   1   2
ATOM      2  C   UNL A   1      34.050  31.503  27.895  1.00  0.00     0.261 C 
BRANCH   2   3
ATOM      3  O   UNL A   1      33.071  30.497  27.600  1.00  0.00    -0.458 OA
BRANCH   3   4
ATOM      4  C   UNL A   1      33.421  29.631  26.600  1.00  0.00     0.359 C 
ATOM      5  O   UNL A   1      34.526  29.112  26.491  1.00  0.00    -0.244 OA
BRANCH   4   6
ATOM      6  C   UNL A   1      32.289  29.242  25.750  1.00  0.00     0.175 A 
ATOM      7  N   UNL A   1      31.900  25.554  25.093  1.00  0.00    -0.338 N 
ATOM      8  C   UNL A   1      30.471  25.617  24.731  1.00  0.00     0.126 C 
ATOM      9  C   UNL A   1      32.366  26.599  26.020  1.00  0.00     0.159 C 
ATOM     10  C   UNL A   1      30.141  26.893  23.932  1.00  0.00     0.078 C 
ATOM     11  C   UNL A   1      31.867  27.910  25.495  1.00  0.00     0.028 A 
ATOM     12  C   UNL A   1      30.836  28.033  24.586  1.00  0.00     0.046 A 
ATOM     13  N   UNL A   1      30.660  29.364  24.365  1.00  0.00    -0.268 N 
ATOM     14  N   UNL A   1      31.506  30.128  25.095  1.00  0.00    -0.165 NA
BRANCH   7  15
ATOM     15  C   UNL A   1      32.793  24.551  24.760  1.00  0.00     0.227 C 
ATOM     16  O   UNL A   1      32.405  23.385  24.634  1.00  0.00    -0.275 OA
BRANCH  15  17
ATOM     17  C   UNL A   1      34.302  24.820  24.883  1.00  0.00     0.143 C 
BRANCH  17  18
ATOM     18  C   UNL A   1      35.243  23.668  24.897  1.00  0.00     0.045 A 
ATOM     19  C   UNL A   1      37.628  20.179  24.906  1.00  0.00     0.087 C 
ATOM     20  C   UNL A   1      36.834  21.451  24.874  1.00  0.00     0.105 A 
ATOM     21  N   UNL A   1      36.801  22.187  23.812  1.00  0.00    -0.243 NA
ATOM     22  N   UNL A   1      36.147  21.750  26.016  1.00  0.00    -0.311 N 
ATOM     23  C   UNL A   1      36.016  23.307  23.862  1.00  0.00     0.123 A 
ATOM     24  C   UNL A   1      35.339  22.844  26.119  1.00  0.00     0.254 A 
ATOM     25  H   UNL A   1      36.240  21.154  26.795  1.00  0.00     0.171 HD
ATOM     26  O   UNL A   1      34.712  23.101  27.138  1.00  0.00    -0.269 OA
ENDBRANCH  17  18
ENDBRANCH  15  17
ENDBRANCH   7  15
BRANCH  13  27
ATOM     27  C   UNL A   1      29.774  29.985  23.387  1.00  0.00     0.148 C 
BRANCH  27  28
ATOM     28  C   UNL A   1      29.063  31.224  23.853  1.00  0.00     0.011 C 
ATOM     29  C   UNL A   1      28.606  32.356  22.958  1.00  0.00     0.006 C 
ATOM     30  C   UNL A   1      27.599  31.396  23.521  1.00  0.00     0.006 C 
ENDBRANCH  27  28
ENDBRANCH  13  27
ENDBRANCH   4   6
ENDBRANCH   3   4
ENDBRANCH   2   3
ENDBRANCH   1   2
BRANCH   1  31
ATOM     31  O   UNL A   1      34.337  34.027  27.987  1.00  0.00    -0.374 OA
BRANCH  31  32
ATOM     32  C   UNL A   1      34.558  34.772  29.179  1.00  0.00     0.202 C 
BRANCH  32  33
ATOM     33  C   UNL A   1      33.380  35.485  29.819  1.00  0.00     0.261 C 
BRANCH  33  34
ATOM     34  O   UNL A   1      32.888  34.791  30.952  1.00  0.00    -0.460 OA
BRANCH  34  35
ATOM     35  C   UNL A   1      33.285  35.318  32.135  1.00  0.00     0.338 C 
ATOM     36  O   UNL A   1      32.951  36.377  32.625  1.00  0.00    -0.246 OA
BRANCH  35  37
ATOM     37  C   UNL A   1      34.383  34.486  32.638  1.00  0.00     0.060 A 
ATOM     38  C   UNL A   1      35.592  35.153  32.825  1.00  0.00     0.016 A 
ATOM     39  C   UNL A   1      34.300  33.086  32.554  1.00  0.00     0.016 A 
ATOM     40  C   UNL A   1      36.748  34.436  32.648  1.00  0.00     0.010 A 
ATOM     41  C   UNL A   1      35.457  32.373  32.364  1.00  0.00     0.010 A 
ATOM     42  C   UNL A   1      36.656  33.077  32.320  1.00  0.00    -0.014 A 
BRANCH  42  43
ATOM     43  C   UNL A   1      37.893  32.375  32.076  1.00  0.00     0.031 A 
ATOM     44  C   UNL A   1      38.681  32.236  33.315  1.00  0.00     0.074 A 
ATOM     45  C   UNL A   1      38.237  31.878  30.875  1.00  0.00     0.049 A 
ATOM     46  N   UNL A   1      39.785  32.840  33.601  1.00  0.00    -0.248 NA
ATOM     47  C   UNL A   1      38.064  31.526  34.446  1.00  0.00     0.031 C 
ATOM     48  C   UNL A   1      37.424  31.769  29.663  1.00  0.00     0.029 A 
ATOM     49  N   UNL A   1      39.405  31.281  30.512  1.00  0.00    -0.354 N 
ATOM     50  C   UNL A   1      40.113  32.413  34.880  1.00  0.00     0.074 A 
ATOM     51  C   UNL A   1      38.936  31.787  35.420  1.00  0.00     0.031 C 
ATOM     52  C   UNL A   1      38.042  30.944  28.785  1.00  0.00     0.029 A 
ATOM     53  C   UNL A   1      39.343  30.574  29.319  1.00  0.00     0.049 A 
ATOM     54  H   UNL A   1      40.226  31.345  31.053  1.00  0.00     0.167 HD
ATOM     55  C   UNL A   1      41.418  32.330  35.248  1.00  0.00     0.037 A 
ATOM     56  C   UNL A   1      40.274  29.693  28.870  1.00  0.00     0.037 A 
ATOM     57  C   UNL A   1      42.243  33.175  34.419  1.00  0.00     0.049 A 
ATOM     58  C   UNL A   1      41.544  29.990  29.584  1.00  0.00     0.074 A 
ATOM     59  C   UNL A   1      42.280  34.530  34.146  1.00  0.00     0.029 A 
ATOM     60  N   UNL A   1      42.969  32.577  33.419  1.00  0.00    -0.354 N 
ATOM     61  N   UNL A   1      42.243  31.073  29.390  1.00  0.00    -0.248 NA
ATOM     62  C   UNL A   1      41.782  29.313  30.850  1.00  0.00     0.031 C 
ATOM     63  C   UNL A   1      42.621  34.625  32.762  1.00  0.00     0.029 A 
ATOM     64  C   UNL A   1      42.835  33.332  32.284  1.00  0.00     0.049 A 
ATOM     65  H   UNL A   1      43.493  31.748  33.502  1.00  0.00     0.167 HD
ATOM     66  C   UNL A   1      42.651  31.458  30.659  1.00  0.00     0.074 A 
ATOM     67  C   UNL A   1      42.412  30.292  31.506  1.00  0.00     0.031 C 
ATOM     68  C   UNL A   1      42.862  32.774  30.954  1.00  0.00     0.037 A 
BRANCH  55  69
ATOM     69  C   UNL A   1      41.971  31.148  36.010  1.00  0.00     0.064 A 
ATOM     70  C   UNL A   1      42.881  31.394  37.055  1.00  0.00     0.173 A 
ATOM     71  C   UNL A   1      41.915  29.809  35.557  1.00  0.00     0.173 A 
ATOM     72  F   UNL A   1      43.028  32.632  37.555  1.00  0.00    -0.203 F 
ATOM     73  C   UNL A   1      43.741  30.403  37.531  1.00  0.00     0.198 A 
ATOM     74  C   UNL A   1      42.736  28.812  36.073  1.00  0.00     0.198 A 
ATOM     75  F   UNL A   1      41.159  29.424  34.524  1.00  0.00    -0.203 F 
ATOM     76  F   UNL A   1      44.691  30.721  38.420  1.00  0.00    -0.200 F 
ATOM     77  C   UNL A   1      43.675  29.115  37.031  1.00  0.00     0.200 A 
ATOM     78  F   UNL A   1      42.668  27.575  35.559  1.00  0.00    -0.200 F 
ATOM     79  F   UNL A   1      44.548  28.181  37.431  1.00  0.00    -0.200 F 
ENDBRANCH  55  69
BRANCH  56  80
ATOM     80  C   UNL A   1      40.060  28.416  28.146  1.00  0.00     0.064 A 
ATOM     81  C   UNL A   1      40.714  28.154  26.930  1.00  0.00     0.173 A 
ATOM     82  C   UNL A   1      39.443  27.314  28.771  1.00  0.00     0.173 A 
ATOM     83  F   UNL A   1      41.368  29.134  26.291  1.00  0.00    -0.203 F 
ATOM     84  C   UNL A   1      40.773  26.864  26.389  1.00  0.00     0.198 A 
ATOM     85  C   UNL A   1      39.496  26.030  28.226  1.00  0.00     0.198 A 
ATOM     86  F   UNL A   1      38.861  27.438  29.972  1.00  0.00    -0.203 F 
ATOM     87  F   UNL A   1      41.463  26.643  25.260  1.00  0.00    -0.200 F 
ATOM     88  C   UNL A   1      40.173  25.802  27.043  1.00  0.00     0.200 A 
ATOM     89  F   UNL A   1      38.944  25.003  28.890  1.00  0.00    -0.200 F 
ATOM     90  F   UNL A   1      40.282  24.557  26.559  1.00  0.00    -0.200 F 
ENDBRANCH  56  80
BRANCH  68  91
ATOM     91  C   UNL A   1      42.918  33.740  29.804  1.00  0.00     0.064 A 
ATOM     92  C   UNL A   1      41.811  34.457  29.315  1.00  0.00     0.173 A 
ATOM     93  C   UNL A   1      44.169  34.030  29.244  1.00  0.00     0.173 A 
ATOM     94  F   UNL A   1      40.598  34.316  29.865  1.00  0.00    -0.203 F 
ATOM     95  C   UNL A   1      41.946  35.376  28.274  1.00  0.00     0.198 A 
ATOM     96  C   UNL A   1      44.309  34.975  28.233  1.00  0.00     0.198 A 
ATOM     97  F   UNL A   1      45.269  33.418  29.708  1.00  0.00    -0.203 F 
ATOM     98  F   UNL A   1      40.872  36.029  27.807  1.00  0.00    -0.200 F 
ATOM     99  C   UNL A   1      43.196  35.637  27.737  1.00  0.00     0.200 A 
ATOM    100  F   UNL A   1      45.527  35.260  27.752  1.00  0.00    -0.200 F 
ATOM    101  F   UNL A   1      43.334  36.543  26.759  1.00  0.00    -0.200 F 
ENDBRANCH  68  91
ENDBRANCH  42  43
ENDBRANCH  35  37
ENDBRANCH  34  35
ENDBRANCH  33  34
ENDBRANCH  32  33
ENDBRANCH  31  32
ENDBRANCH   1  31
TORSDOF 19
ENDMDL
MODEL 3
REMARK VINA RESULT:     -12.0      2.426      3.720
REMARK SMILES Cc1ncc(CC(=O)N2CCc3c(c(C(=O)OCCOCCOC(=O)c4ccc(-c5c6nc(c(-c7c(F)c(F)c(F)c(F)c7F)c7ccc([nH]7)c(-c7c(F)c(F)c(F)c(F)c7F)c7nc(c(-c8c(F)c(F)c(F)c(F)c8F)c8ccc5[nH]8)C=C7)C=C6)cc4)nn3CC3CC3)C2)c(=O)[nH]1
REMARK SMILES IDX 19 1 18 2 17 3 15 4 16 5 14 6 9 7 10 8 95 9 11 10 13 11
REMARK SMILES IDX 12 12 90 13 89 14 7 15 8 16 6 17 5 18 1 19 2 20 3 21 98 22
REMARK SMILES IDX 4 23 96 24 97 26 91 27 92 28 93 29 94 30 20 31 21 32 22 33
REMARK SMILES IDX 23 34 24 35 25 36 26 37 27 38 88 39 28 40 87 41 29 42 30 43
REMARK SMILES IDX 31 44 81 45 32 46 86 47 80 48 82 49 33 50 85 51 79 52 78 53
REMARK SMILES IDX 34 55 66 56 46 57 65 58 47 59 50 60 64 61 83 62 48 63 49 64
REMARK SMILES IDX 63 66 84 67 51 68 35 69 36 70 44 71 37 72 38 73 42 74 45 75
REMARK SMILES IDX 39 76 40 77 43 78 41 79 67 80 68 81 76 82 69 83 70 84 74 85
REMARK SMILES IDX 77 86 71 87 72 88 75 89 73 90 52 91 53 92 61 93 54 94 55 95
REMARK SMILES IDX 59 96 62 97 56 98 57 99 60 100 58 101
REMARK H PARENT 98 25 82 54 50 65
REMARK Flexibility Score: inf
ROOT
ATOM      1  C   UNL A   1      40.113  20.345  26.357  1.00  0.00     0.202 C 
ENDROOT
BRANCH   1   2
ATOM      2  C   UNL A   1      39.268  21.599  26.121  1.00  0.00     0.261 C 
BRANCH   2   3
ATOM      3  O   UNL A   1      38.092  21.342  25.341  1.00  0.00    -0.458 OA
BRANCH   3   4
ATOM      4  C   UNL A   1      37.107  22.283  25.460  1.00  0.00     0.359 C 
ATOM      5  O   UNL A   1      37.305  23.458  25.746  1.00  0.00    -0.244 OA
BRANCH   4   6
ATOM      6  C   UNL A   1      35.785  21.793  25.048  1.00  0.00     0.175 A 
ATOM      7  N   UNL A   1      33.807  24.067  22.788  1.00  0.00    -0.338 N 
ATOM      8  C   UNL A   1      32.928  23.011  22.248  1.00  0.00     0.126 C 
ATOM      9  C   UNL A   1      35.140  23.619  23.226  1.00  0.00     0.159 C 
ATOM     10  C   UNL A   1      32.555  21.974  23.325  1.00  0.00     0.078 C 
ATOM     11  C   UNL A   1      34.938  22.411  24.088  1.00  0.00     0.028 A 
ATOM     12  C   UNL A   1      33.786  21.652  24.094  1.00  0.00     0.046 A 
ATOM     13  N   UNL A   1      33.982  20.640  24.982  1.00  0.00    -0.268 N 
ATOM     14  N   UNL A   1      35.211  20.677  25.548  1.00  0.00    -0.165 NA
BRANCH   7  15
ATOM     15  C   UNL A   1      33.555  25.427  22.797  1.00  0.00     0.227 C 
ATOM     16  O   UNL A   1      33.997  26.150  21.897  1.00  0.00    -0.275 OA
BRANCH  15  17
ATOM     17  C   UNL A   1      33.030  26.084  24.084  1.00  0.00     0.143 C 
BRANCH  17  18
ATOM     18  C   UNL A   1      32.133  25.305  24.979  1.00  0.00     0.045 A 
ATOM     19  C   UNL A   1      29.562  22.846  27.260  1.00  0.00     0.087 C 
ATOM     20  C   UNL A   1      30.503  23.740  26.510  1.00  0.00     0.105 A 
ATOM     21  N   UNL A   1      31.763  23.769  26.797  1.00  0.00    -0.243 NA
ATOM     22  N   UNL A   1      29.944  24.484  25.510  1.00  0.00    -0.311 N 
ATOM     23  C   UNL A   1      32.552  24.583  26.030  1.00  0.00     0.123 A 
ATOM     24  C   UNL A   1      30.682  25.301  24.705  1.00  0.00     0.254 A 
ATOM     25  H   UNL A   1      28.971  24.428  25.365  1.00  0.00     0.171 HD
ATOM     26  O   UNL A   1      30.182  25.954  23.799  1.00  0.00    -0.269 OA
ENDBRANCH  17  18
ENDBRANCH  15  17
ENDBRANCH   7  15
BRANCH  13  27
ATOM     27  C   UNL A   1      33.002  19.656  25.427  1.00  0.00     0.148 C 
BRANCH  27  28
ATOM     28  C   UNL A   1      32.872  18.435  24.559  1.00  0.00     0.011 C 
ATOM     29  C   UNL A   1      33.864  17.293  24.507  1.00  0.00     0.006 C 
ATOM     30  C   UNL A   1      32.550  17.109  25.207  1.00  0.00     0.006 C 
ENDBRANCH  27  28
ENDBRANCH  13  27
ENDBRANCH   4   6
ENDBRANCH   3   4
ENDBRANCH   2   3
ENDBRANCH   1   2
BRANCH   1  31
ATOM     31  O   UNL A   1      41.484  20.508  26.720  1.00  0.00    -0.374 OA
BRANCH  31  32
ATOM     32  C   UNL A   1      42.514  20.121  25.818  1.00  0.00     0.202 C 
BRANCH  32  33
ATOM     33  C   UNL A   1      43.795  20.938  25.785  1.00  0.00     0.261 C 
BRANCH  33  34
ATOM     34  O   UNL A   1      43.639  22.201  26.408  1.00  0.00    -0.460 OA
BRANCH  34  35
ATOM     35  C   UNL A   1      43.026  23.125  25.631  1.00  0.00     0.338 C 
ATOM     36  O   UNL A   1      43.197  23.331  24.447  1.00  0.00    -0.246 OA
BRANCH  35  37
ATOM     37  C   UNL A   1      42.265  24.010  26.521  1.00  0.00     0.060 A 
ATOM     38  C   UNL A   1      41.550  25.019  25.879  1.00  0.00     0.016 A 
ATOM     39  C   UNL A   1      42.563  24.053  27.893  1.00  0.00     0.016 A 
ATOM     40  C   UNL A   1      41.376  26.201  26.553  1.00  0.00     0.010 A 
ATOM     41  C   UNL A   1      42.401  25.241  28.560  1.00  0.00     0.010 A 
ATOM     42  C   UNL A   1      41.896  26.324  27.848  1.00  0.00    -0.014 A 
BRANCH  42  43
ATOM     43  C   UNL A   1      41.751  27.605  28.495  1.00  0.00     0.031 A 
ATOM     44  C   UNL A   1      42.889  28.492  28.185  1.00  0.00     0.074 A 
ATOM     45  C   UNL A   1      40.684  27.942  29.240  1.00  0.00     0.049 A 
ATOM     46  N   UNL A   1      43.820  28.869  28.995  1.00  0.00    -0.248 NA
ATOM     47  C   UNL A   1      43.145  28.813  26.772  1.00  0.00     0.031 C 
ATOM     48  C   UNL A   1      39.422  27.220  29.408  1.00  0.00     0.029 A 
ATOM     49  N   UNL A   1      40.482  29.077  29.961  1.00  0.00    -0.354 N 
ATOM     50  C   UNL A   1      44.670  29.658  28.232  1.00  0.00     0.074 A 
ATOM     51  C   UNL A   1      44.330  29.418  26.856  1.00  0.00     0.031 C 
ATOM     52  C   UNL A   1      38.514  28.039  29.988  1.00  0.00     0.029 A 
ATOM     53  C   UNL A   1      39.164  29.290  30.343  1.00  0.00     0.049 A 
ATOM     54  H   UNL A   1      41.211  29.698  30.192  1.00  0.00     0.167 HD
ATOM     55  C   UNL A   1      45.353  30.673  28.820  1.00  0.00     0.037 A 
ATOM     56  C   UNL A   1      38.659  30.449  30.838  1.00  0.00     0.037 A 
ATOM     57  C   UNL A   1      45.474  30.460  30.243  1.00  0.00     0.049 A 
ATOM     58  C   UNL A   1      39.803  31.244  31.358  1.00  0.00     0.074 A 
ATOM     59  C   UNL A   1      46.025  29.469  31.033  1.00  0.00     0.029 A 
ATOM     60  N   UNL A   1      44.634  31.167  31.068  1.00  0.00    -0.354 N 
ATOM     61  N   UNL A   1      40.494  30.909  32.412  1.00  0.00    -0.248 NA
ATOM     62  C   UNL A   1      40.475  32.146  30.434  1.00  0.00     0.031 C 
ATOM     63  C   UNL A   1      45.143  29.345  32.150  1.00  0.00     0.029 A 
ATOM     64  C   UNL A   1      44.141  30.307  32.013  1.00  0.00     0.049 A 
ATOM     65  H   UNL A   1      44.422  32.125  30.992  1.00  0.00     0.167 HD
ATOM     66  C   UNL A   1      41.810  31.174  32.066  1.00  0.00     0.074 A 
ATOM     67  C   UNL A   1      41.730  32.014  30.873  1.00  0.00     0.031 C 
ATOM     68  C   UNL A   1      42.833  30.445  32.604  1.00  0.00     0.037 A 
BRANCH  55  69
ATOM     69  C   UNL A   1      45.473  32.041  28.190  1.00  0.00     0.064 A 
ATOM     70  C   UNL A   1      44.292  32.748  27.898  1.00  0.00     0.173 A 
ATOM     71  C   UNL A   1      46.645  32.532  27.567  1.00  0.00     0.173 A 
ATOM     72  F   UNL A   1      43.119  32.362  28.423  1.00  0.00    -0.203 F 
ATOM     73  C   UNL A   1      44.270  33.792  26.972  1.00  0.00     0.198 A 
ATOM     74  C   UNL A   1      46.627  33.610  26.688  1.00  0.00     0.198 A 
ATOM     75  F   UNL A   1      47.833  31.932  27.682  1.00  0.00    -0.203 F 
ATOM     76  F   UNL A   1      43.099  34.337  26.615  1.00  0.00    -0.200 F 
ATOM     77  C   UNL A   1      45.436  34.215  26.359  1.00  0.00     0.200 A 
ATOM     78  F   UNL A   1      47.766  33.989  26.091  1.00  0.00    -0.200 F 
ATOM     79  F   UNL A   1      45.407  35.166  25.417  1.00  0.00    -0.200 F 
ENDBRANCH  55  69
BRANCH  56  80
ATOM     80  C   UNL A   1      37.332  31.060  30.580  1.00  0.00     0.064 A 
ATOM     81  C   UNL A   1      36.451  31.354  31.636  1.00  0.00     0.173 A 
ATOM     82  C   UNL A   1      37.019  31.633  29.331  1.00  0.00     0.173 A 
ATOM     83  F   UNL A   1      36.699  30.889  32.869  1.00  0.00    -0.203 F 
ATOM     84  C   UNL A   1      35.345  32.193  31.460  1.00  0.00     0.198 A 
ATOM     85  C   UNL A   1      35.911  32.464  29.156  1.00  0.00     0.198 A 
ATOM     86  F   UNL A   1      37.835  31.482  28.279  1.00  0.00    -0.203 F 
ATOM     87  F   UNL A   1      34.567  32.502  32.507  1.00  0.00    -0.200 F 
ATOM     88  C   UNL A   1      35.082  32.756  30.223  1.00  0.00     0.200 A 
ATOM     89  F   UNL A   1      35.691  33.034  27.962  1.00  0.00    -0.200 F 
ATOM     90  F   UNL A   1      34.061  33.609  30.068  1.00  0.00    -0.200 F 
ENDBRANCH  56  80
BRANCH  68  91
ATOM     91  C   UNL A   1      42.509  29.561  33.776  1.00  0.00     0.064 A 
ATOM     92  C   UNL A   1      42.029  28.243  33.667  1.00  0.00     0.173 A 
ATOM     93  C   UNL A   1      42.801  30.034  35.061  1.00  0.00     0.173 A 
ATOM     94  F   UNL A   1      41.823  27.679  32.470  1.00  0.00    -0.203 F 
ATOM     95  C   UNL A   1      41.797  27.462  34.799  1.00  0.00     0.198 A 
ATOM     96  C   UNL A   1      42.607  29.240  36.187  1.00  0.00     0.198 A 
ATOM     97  F   UNL A   1      43.315  31.264  35.222  1.00  0.00    -0.203 F 
ATOM     98  F   UNL A   1      41.314  26.218  34.672  1.00  0.00    -0.200 F 
ATOM     99  C   UNL A   1      42.090  27.961  36.057  1.00  0.00     0.200 A 
ATOM    100  F   UNL A   1      42.940  29.709  37.397  1.00  0.00    -0.200 F 
ATOM    101  F   UNL A   1      41.899  27.201  37.145  1.00  0.00    -0.200 F 
ENDBRANCH  68  91
ENDBRANCH  42  43
ENDBRANCH  35  37
ENDBRANCH  34  35
ENDBRANCH  33  34
ENDBRANCH  32  33
ENDBRANCH  31  32
ENDBRANCH   1  31
TORSDOF 19
ENDMDL
