MODEL 1
REMARK VINA RESULT:     -13.6      0.000      0.000
REMARK SMILES O=C(OCCOCCOC(=O)c1ccc(-n2cc(CSc3nc4ccccc4c(=O)n3-c3ccccc3)nn2)cc1)c1ccc(-c2c3nc(c(-c4c(F)c(F)c(F)c(F)c4F)c4ccc([nH]4)c(-c4c(F)c(F)c(F)c(F)c4F)c4nc(c(-c5c(F)c(F)c(F)c(F)c5F)c5ccc2[nH]5)C=C4)C=C3)cc1
REMARK SMILES IDX 7 1 6 2 5 3 4 4 3 5 2 6 1 7 42 8 43 9 104 10 44 11 103 12
REMARK SMILES IDX 45 13 46 14 47 15 97 16 48 17 102 18 96 19 98 20 49 21
REMARK SMILES IDX 101 22 95 23 94 24 50 26 82 27 62 28 81 29 63 30 66 31 80 32
REMARK SMILES IDX 99 33 64 34 65 35 79 37 100 38 67 39 51 40 52 41 60 42 53 43
REMARK SMILES IDX 54 44 58 45 61 46 55 47 56 48 59 49 57 50 83 51 84 52 92 53
REMARK SMILES IDX 85 54 86 55 90 56 93 57 87 58 88 59 91 60 89 61 68 62 69 63
REMARK SMILES IDX 77 64 70 65 71 66 75 67 78 68 72 69 73 70 76 71 74 72 8 73
REMARK SMILES IDX 9 74 10 75 11 76 12 77 13 78 41 79 14 80 40 81 15 82 16 83
REMARK SMILES IDX 17 84 39 85 18 86 38 87 19 88 20 89 21 90 22 91 31 92 23 93
REMARK SMILES IDX 29 94 24 95 28 96 30 97 25 98 27 99 26 100 32 101 33 102
REMARK SMILES IDX 37 103 34 104 36 105 35 106
REMARK H PARENT 98 25 66 36
REMARK Flexibility Score: inf
ROOT
ATOM      1  C   UNL A   1      33.686  34.368  29.335  1.00  0.00     0.202 C 
ENDROOT
BRANCH   1   2
ATOM      2  O   UNL A   1      33.919  33.983  30.704  1.00  0.00    -0.374 OA
BRANCH   2   3
ATOM      3  C   UNL A   1      35.265  34.094  31.152  1.00  0.00     0.202 C 
BRANCH   3   4
ATOM      4  C   UNL A   1      35.955  32.805  31.582  1.00  0.00     0.261 C 
BRANCH   4   5
ATOM      5  O   UNL A   1      36.810  32.195  30.593  1.00  0.00    -0.460 OA
BRANCH   5   6
ATOM      6  C   UNL A   1      38.115  32.535  30.470  1.00  0.00     0.338 C 
ATOM      7  O   UNL A   1      38.578  33.551  30.973  1.00  0.00    -0.246 OA
BRANCH   6   8
ATOM      8  C   UNL A   1      39.001  31.438  30.002  1.00  0.00     0.060 A 
ATOM      9  C   UNL A   1      38.520  30.171  29.675  1.00  0.00     0.016 A 
ATOM     10  C   UNL A   1      40.386  31.666  30.027  1.00  0.00     0.016 A 
ATOM     11  C   UNL A   1      39.382  29.104  29.586  1.00  0.00     0.010 A 
ATOM     12  C   UNL A   1      41.264  30.599  29.893  1.00  0.00     0.010 A 
ATOM     13  C   UNL A   1      40.745  29.312  29.769  1.00  0.00    -0.014 A 
BRANCH  13  14
ATOM     14  C   UNL A   1      41.553  28.106  29.845  1.00  0.00     0.031 A 
ATOM     15  C   UNL A   1      42.160  27.818  31.170  1.00  0.00     0.074 A 
ATOM     16  C   UNL A   1      41.740  27.317  28.772  1.00  0.00     0.049 A 
ATOM     17  N   UNL A   1      43.408  27.632  31.465  1.00  0.00    -0.248 NA
ATOM     18  C   UNL A   1      41.260  27.827  32.333  1.00  0.00     0.031 C 
ATOM     19  C   UNL A   1      41.033  27.357  27.490  1.00  0.00     0.029 A 
ATOM     20  N   UNL A   1      42.545  26.226  28.654  1.00  0.00    -0.354 N 
ATOM     21  C   UNL A   1      43.437  27.344  32.828  1.00  0.00     0.074 A 
ATOM     22  C   UNL A   1      42.112  27.590  33.330  1.00  0.00     0.031 C 
ATOM     23  C   UNL A   1      41.256  26.199  26.833  1.00  0.00     0.029 A 
ATOM     24  C   UNL A   1      42.211  25.407  27.590  1.00  0.00     0.049 A 
ATOM     25  H   UNL A   1      43.291  26.038  29.267  1.00  0.00     0.167 HD
ATOM     26  C   UNL A   1      44.499  26.715  33.403  1.00  0.00     0.037 A 
ATOM     27  C   UNL A   1      42.608  24.125  27.412  1.00  0.00     0.037 A 
ATOM     28  C   UNL A   1      45.709  26.921  32.651  1.00  0.00     0.049 A 
ATOM     29  C   UNL A   1      43.814  23.898  28.246  1.00  0.00     0.074 A 
ATOM     30  C   UNL A   1      46.440  28.032  32.274  1.00  0.00     0.029 A 
ATOM     31  N   UNL A   1      46.215  25.887  31.905  1.00  0.00    -0.354 N 
ATOM     32  N   UNL A   1      44.985  24.417  28.005  1.00  0.00    -0.248 NA
ATOM     33  C   UNL A   1      43.620  23.399  29.601  1.00  0.00     0.031 C 
ATOM     34  C   UNL A   1      46.989  27.706  31.000  1.00  0.00     0.029 A 
ATOM     35  C   UNL A   1      46.574  26.410  30.692  1.00  0.00     0.049 A 
ATOM     36  H   UNL A   1      46.302  24.947  32.187  1.00  0.00     0.167 HD
ATOM     37  C   UNL A   1      45.514  24.691  29.257  1.00  0.00     0.074 A 
ATOM     38  C   UNL A   1      44.684  23.945  30.195  1.00  0.00     0.031 C 
ATOM     39  C   UNL A   1      46.396  25.715  29.442  1.00  0.00     0.037 A 
BRANCH  26  40
ATOM     40  C   UNL A   1      44.352  25.603  34.421  1.00  0.00     0.064 A 
ATOM     41  C   UNL A   1      44.910  25.776  35.705  1.00  0.00     0.173 A 
ATOM     42  C   UNL A   1      43.992  24.277  34.093  1.00  0.00     0.173 A 
ATOM     43  F   UNL A   1      45.282  26.993  36.133  1.00  0.00    -0.203 F 
ATOM     44  C   UNL A   1      45.204  24.692  36.535  1.00  0.00     0.198 A 
ATOM     45  C   UNL A   1      44.241  23.203  34.946  1.00  0.00     0.198 A 
ATOM     46  F   UNL A   1      43.490  23.942  32.901  1.00  0.00    -0.203 F 
ATOM     47  F   UNL A   1      45.874  24.893  37.678  1.00  0.00    -0.200 F 
ATOM     48  C   UNL A   1      44.885  23.404  36.148  1.00  0.00     0.200 A 
ATOM     49  F   UNL A   1      43.928  21.962  34.549  1.00  0.00    -0.200 F 
ATOM     50  F   UNL A   1      45.239  22.357  36.903  1.00  0.00    -0.200 F 
ENDBRANCH  26  40
BRANCH  27  51
ATOM     51  C   UNL A   1      41.816  23.026  26.819  1.00  0.00     0.064 A 
ATOM     52  C   UNL A   1      42.435  21.853  26.363  1.00  0.00     0.173 A 
ATOM     53  C   UNL A   1      40.408  22.999  26.905  1.00  0.00     0.173 A 
ATOM     54  F   UNL A   1      43.772  21.776  26.305  1.00  0.00    -0.203 F 
ATOM     55  C   UNL A   1      41.691  20.718  26.022  1.00  0.00     0.198 A 
ATOM     56  C   UNL A   1      39.667  21.874  26.549  1.00  0.00     0.198 A 
ATOM     57  F   UNL A   1      39.727  24.029  27.426  1.00  0.00    -0.203 F 
ATOM     58  F   UNL A   1      42.320  19.596  25.649  1.00  0.00    -0.200 F 
ATOM     59  C   UNL A   1      40.309  20.730  26.119  1.00  0.00     0.200 A 
ATOM     60  F   UNL A   1      38.333  21.888  26.682  1.00  0.00    -0.200 F 
ATOM     61  F   UNL A   1      39.600  19.627  25.839  1.00  0.00    -0.200 F 
ENDBRANCH  27  51
BRANCH  39  62
ATOM     62  C   UNL A   1      47.003  26.346  28.225  1.00  0.00     0.064 A 
ATOM     63  C   UNL A   1      48.158  25.855  27.593  1.00  0.00     0.173 A 
ATOM     64  C   UNL A   1      46.314  27.392  27.597  1.00  0.00     0.173 A 
ATOM     65  F   UNL A   1      48.806  24.786  28.075  1.00  0.00    -0.203 F 
ATOM     66  C   UNL A   1      48.628  26.424  26.412  1.00  0.00     0.198 A 
ATOM     67  C   UNL A   1      46.766  27.935  26.398  1.00  0.00     0.198 A 
ATOM     68  F   UNL A   1      45.170  27.857  28.125  1.00  0.00    -0.203 F 
ATOM     69  F   UNL A   1      49.740  25.948  25.832  1.00  0.00    -0.200 F 
ATOM     70  C   UNL A   1      47.929  27.460  25.813  1.00  0.00     0.200 A 
ATOM     71  F   UNL A   1      46.058  28.900  25.795  1.00  0.00    -0.200 F 
ATOM     72  F   UNL A   1      48.359  27.980  24.654  1.00  0.00    -0.200 F 
ENDBRANCH  39  62
ENDBRANCH  13  14
ENDBRANCH   6   8
ENDBRANCH   5   6
ENDBRANCH   4   5
ENDBRANCH   3   4
ENDBRANCH   2   3
ENDBRANCH   1   2
BRANCH   1  73
ATOM     73  C   UNL A   1      34.275  33.498  28.206  1.00  0.00     0.261 C 
BRANCH  73  74
ATOM     74  O   UNL A   1      33.954  32.098  28.373  1.00  0.00    -0.460 OA
BRANCH  74  75
ATOM     75  C   UNL A   1      34.718  31.223  27.672  1.00  0.00     0.338 C 
ATOM     76  O   UNL A   1      35.939  31.169  27.659  1.00  0.00    -0.246 OA
BRANCH  75  77
ATOM     77  C   UNL A   1      33.860  30.132  27.143  1.00  0.00     0.060 A 
ATOM     78  C   UNL A   1      32.564  30.474  26.722  1.00  0.00     0.018 A 
ATOM     79  C   UNL A   1      34.322  28.823  26.991  1.00  0.00     0.018 A 
ATOM     80  C   UNL A   1      31.714  29.509  26.177  1.00  0.00     0.029 A 
ATOM     81  C   UNL A   1      33.485  27.858  26.418  1.00  0.00     0.029 A 
ATOM     82  C   UNL A   1      32.177  28.199  26.028  1.00  0.00     0.066 A 
BRANCH  82  83
ATOM     83  N   UNL A   1      31.308  27.183  25.573  1.00  0.00    -0.220 N 
ATOM     84  C   UNL A   1      30.956  26.025  26.247  1.00  0.00     0.141 A 
ATOM     85  N   UNL A   1      30.900  27.107  24.293  1.00  0.00    -0.062 NA
ATOM     86  C   UNL A   1      30.548  25.160  25.254  1.00  0.00     0.093 A 
ATOM     87  N   UNL A   1      30.392  25.902  24.100  1.00  0.00    -0.134 NA
BRANCH  86  88
ATOM     88  C   UNL A   1      30.481  23.690  25.062  1.00  0.00     0.138 C 
BRANCH  88  89
ATOM     89  S   UNL A   1      31.087  22.364  26.071  1.00  0.00    -0.081 SA
BRANCH  89  90
ATOM     90  C   UNL A   1      32.278  21.356  25.325  1.00  0.00     0.176 A 
ATOM     91  N   UNL A   1      31.996  20.101  25.514  1.00  0.00    -0.223 NA
ATOM     92  N   UNL A   1      33.377  21.768  24.580  1.00  0.00    -0.255 N 
ATOM     93  C   UNL A   1      32.863  19.127  25.024  1.00  0.00     0.079 A 
ATOM     94  C   UNL A   1      34.475  20.893  24.664  1.00  0.00     0.266 A 
ATOM     95  C   UNL A   1      32.465  17.794  24.937  1.00  0.00     0.029 A 
ATOM     96  C   UNL A   1      34.168  19.459  24.708  1.00  0.00     0.066 A 
ATOM     97  O   UNL A   1      35.656  21.221  24.772  1.00  0.00    -0.268 OA
ATOM     98  C   UNL A   1      33.392  16.805  24.592  1.00  0.00     0.002 A 
ATOM     99  C   UNL A   1      35.120  18.480  24.410  1.00  0.00     0.016 A 
ATOM    100  C   UNL A   1      34.727  17.145  24.359  1.00  0.00     0.001 A 
BRANCH  92 101
ATOM    101  C   UNL A   1      33.542  23.007  23.829  1.00  0.00     0.051 A 
ATOM    102  C   UNL A   1      34.054  24.158  24.469  1.00  0.00     0.027 A 
ATOM    103  C   UNL A   1      33.266  23.162  22.466  1.00  0.00     0.027 A 
ATOM    104  C   UNL A   1      34.108  25.409  23.847  1.00  0.00     0.002 A 
ATOM    105  C   UNL A   1      33.272  24.421  21.844  1.00  0.00     0.002 A 
ATOM    106  C   UNL A   1      33.668  25.551  22.543  1.00  0.00     0.000 A 
ENDBRANCH  92 101
ENDBRANCH  89  90
ENDBRANCH  88  89
ENDBRANCH  86  88
ENDBRANCH  82  83
ENDBRANCH  75  77
ENDBRANCH  74  75
ENDBRANCH  73  74
ENDBRANCH   1  73
TORSDOF 19
ENDMDL
MODEL 2
REMARK VINA RESULT:     -13.0      1.993      2.981
REMARK SMILES O=C(OCCOCCOC(=O)c1ccc(-n2cc(CSc3nc4ccccc4c(=O)n3-c3ccccc3)nn2)cc1)c1ccc(-c2c3nc(c(-c4c(F)c(F)c(F)c(F)c4F)c4ccc([nH]4)c(-c4c(F)c(F)c(F)c(F)c4F)c4nc(c(-c5c(F)c(F)c(F)c(F)c5F)c5ccc2[nH]5)C=C4)C=C3)cc1
REMARK SMILES IDX 7 1 6 2 5 3 4 4 3 5 2 6 1 7 42 8 43 9 104 10 44 11 103 12
REMARK SMILES IDX 45 13 46 14 47 15 97 16 48 17 102 18 96 19 98 20 49 21
REMARK SMILES IDX 101 22 95 23 94 24 50 26 82 27 62 28 81 29 63 30 66 31 80 32
REMARK SMILES IDX 99 33 64 34 65 35 79 37 100 38 67 39 51 40 52 41 60 42 53 43
REMARK SMILES IDX 54 44 58 45 61 46 55 47 56 48 59 49 57 50 83 51 84 52 92 53
REMARK SMILES IDX 85 54 86 55 90 56 93 57 87 58 88 59 91 60 89 61 68 62 69 63
REMARK SMILES IDX 77 64 70 65 71 66 75 67 78 68 72 69 73 70 76 71 74 72 8 73
REMARK SMILES IDX 9 74 10 75 11 76 12 77 13 78 41 79 14 80 40 81 15 82 16 83
REMARK SMILES IDX 17 84 39 85 18 86 38 87 19 88 20 89 21 90 22 91 31 92 23 93
REMARK SMILES IDX 29 94 24 95 28 96 30 97 25 98 27 99 26 100 32 101 33 102
REMARK SMILES IDX 37 103 34 104 36 105 35 106
REMARK H PARENT 98 25 66 36
REMARK Flexibility Score: inf
ROOT
ATOM      1  C   UNL A   1      33.297  34.651  28.725  1.00  0.00     0.202 C 
ENDROOT
BRANCH   1   2
ATOM      2  O   UNL A   1      32.725  34.737  30.045  1.00  0.00    -0.374 OA
BRANCH   2   3
ATOM      3  C   UNL A   1      33.547  35.352  31.031  1.00  0.00     0.202 C 
BRANCH   3   4
ATOM      4  C   UNL A   1      34.150  34.438  32.091  1.00  0.00     0.261 C 
BRANCH   4   5
ATOM      5  O   UNL A   1      34.992  33.377  31.595  1.00  0.00    -0.460 OA
BRANCH   5   6
ATOM      6  C   UNL A   1      35.723  32.597  32.427  1.00  0.00     0.338 C 
ATOM      7  O   UNL A   1      35.376  32.362  33.578  1.00  0.00    -0.246 OA
BRANCH   6   8
ATOM      8  C   UNL A   1      36.760  31.774  31.755  1.00  0.00     0.060 A 
ATOM      9  C   UNL A   1      36.785  30.383  31.835  1.00  0.00     0.016 A 
ATOM     10  C   UNL A   1      37.822  32.449  31.132  1.00  0.00     0.016 A 
ATOM     11  C   UNL A   1      37.926  29.690  31.505  1.00  0.00     0.010 A 
ATOM     12  C   UNL A   1      38.961  31.749  30.756  1.00  0.00     0.010 A 
ATOM     13  C   UNL A   1      39.035  30.386  31.036  1.00  0.00    -0.014 A 
BRANCH  13  14
ATOM     14  C   UNL A   1      40.248  29.599  30.894  1.00  0.00     0.031 A 
ATOM     15  C   UNL A   1      41.049  29.416  32.133  1.00  0.00     0.074 A 
ATOM     16  C   UNL A   1      40.617  29.085  29.707  1.00  0.00     0.049 A 
ATOM     17  N   UNL A   1      42.295  29.705  32.341  1.00  0.00    -0.248 NA
ATOM     18  C   UNL A   1      40.336  28.928  33.322  1.00  0.00     0.031 C 
ATOM     19  C   UNL A   1      39.826  28.996  28.478  1.00  0.00     0.029 A 
ATOM     20  N   UNL A   1      41.764  28.424  29.391  1.00  0.00    -0.354 N 
ATOM     21  C   UNL A   1      42.569  29.289  33.642  1.00  0.00     0.074 A 
ATOM     22  C   UNL A   1      41.308  28.929  34.233  1.00  0.00     0.031 C 
ATOM     23  C   UNL A   1      40.411  28.110  27.645  1.00  0.00     0.029 A 
ATOM     24  C   UNL A   1      41.668  27.676  28.232  1.00  0.00     0.049 A 
ATOM     25  H   UNL A   1      42.583  28.474  29.934  1.00  0.00     0.167 HD
ATOM     26  C   UNL A   1      43.842  29.067  34.068  1.00  0.00     0.037 A 
ATOM     27  C   UNL A   1      42.508  26.687  27.845  1.00  0.00     0.037 A 
ATOM     28  C   UNL A   1      44.798  29.825  33.303  1.00  0.00     0.049 A 
ATOM     29  C   UNL A   1      43.785  26.856  28.581  1.00  0.00     0.074 A 
ATOM     30  C   UNL A   1      45.003  31.171  33.066  1.00  0.00     0.029 A 
ATOM     31  N   UNL A   1      45.586  29.175  32.388  1.00  0.00    -0.354 N 
ATOM     32  N   UNL A   1      44.635  27.822  28.369  1.00  0.00    -0.248 NA
ATOM     33  C   UNL A   1      43.935  26.162  29.852  1.00  0.00     0.031 C 
ATOM     34  C   UNL A   1      45.505  31.246  31.733  1.00  0.00     0.029 A 
ATOM     35  C   UNL A   1      45.593  29.940  31.253  1.00  0.00     0.049 A 
ATOM     36  H   UNL A   1      46.057  28.320  32.521  1.00  0.00     0.167 HD
ATOM     37  C   UNL A   1      45.139  28.129  29.624  1.00  0.00     0.074 A 
ATOM     38  C   UNL A   1      44.760  27.008  30.475  1.00  0.00     0.031 C 
ATOM     39  C   UNL A   1      45.573  29.388  29.922  1.00  0.00     0.037 A 
BRANCH  26  40
ATOM     40  C   UNL A   1      44.238  27.874  34.913  1.00  0.00     0.064 A 
ATOM     41  C   UNL A   1      43.805  26.589  34.523  1.00  0.00     0.173 A 
ATOM     42  C   UNL A   1      44.724  27.972  36.235  1.00  0.00     0.173 A 
ATOM     43  F   UNL A   1      43.331  26.370  33.287  1.00  0.00    -0.203 F 
ATOM     44  C   UNL A   1      43.741  25.526  35.427  1.00  0.00     0.198 A 
ATOM     45  C   UNL A   1      44.707  26.894  37.119  1.00  0.00     0.198 A 
ATOM     46  F   UNL A   1      45.133  29.128  36.767  1.00  0.00    -0.203 F 
ATOM     47  F   UNL A   1      43.179  24.368  35.053  1.00  0.00    -0.200 F 
ATOM     48  C   UNL A   1      44.176  25.684  36.730  1.00  0.00     0.200 A 
ATOM     49  F   UNL A   1      45.129  27.071  38.379  1.00  0.00    -0.200 F 
ATOM     50  F   UNL A   1      44.041  24.693  37.619  1.00  0.00    -0.200 F 
ENDBRANCH  26  40
BRANCH  27  51
ATOM     51  C   UNL A   1      42.146  25.445  27.128  1.00  0.00     0.064 A 
ATOM     52  C   UNL A   1      42.900  24.994  26.035  1.00  0.00     0.173 A 
ATOM     53  C   UNL A   1      41.196  24.541  27.649  1.00  0.00     0.173 A 
ATOM     54  F   UNL A   1      43.863  25.770  25.516  1.00  0.00    -0.203 F 
ATOM     55  C   UNL A   1      42.721  23.715  25.500  1.00  0.00     0.198 A 
ATOM     56  C   UNL A   1      41.005  23.273  27.105  1.00  0.00     0.198 A 
ATOM     57  F   UNL A   1      40.497  24.833  28.756  1.00  0.00    -0.203 F 
ATOM     58  F   UNL A   1      43.501  23.297  24.495  1.00  0.00    -0.200 F 
ATOM     59  C   UNL A   1      41.776  22.855  26.038  1.00  0.00     0.200 A 
ATOM     60  F   UNL A   1      40.113  22.439  27.658  1.00  0.00    -0.200 F 
ATOM     61  F   UNL A   1      41.638  21.612  25.556  1.00  0.00    -0.200 F 
ENDBRANCH  27  51
BRANCH  39  62
ATOM     62  C   UNL A   1      45.765  30.350  28.788  1.00  0.00     0.064 A 
ATOM     63  C   UNL A   1      44.761  31.222  28.334  1.00  0.00     0.173 A 
ATOM     64  C   UNL A   1      47.046  30.493  28.240  1.00  0.00     0.173 A 
ATOM     65  F   UNL A   1      43.542  31.218  28.889  1.00  0.00    -0.203 F 
ATOM     66  C   UNL A   1      45.019  32.159  27.336  1.00  0.00     0.198 A 
ATOM     67  C   UNL A   1      47.310  31.456  27.269  1.00  0.00     0.198 A 
ATOM     68  F   UNL A   1      48.057  29.729  28.683  1.00  0.00    -0.203 F 
ATOM     69  F   UNL A   1      44.042  32.972  26.909  1.00  0.00    -0.200 F 
ATOM     70  C   UNL A   1      46.295  32.279  26.809  1.00  0.00     0.200 A 
ATOM     71  F   UNL A   1      48.557  31.603  26.800  1.00  0.00    -0.200 F 
ATOM     72  F   UNL A   1      46.554  33.209  25.879  1.00  0.00    -0.200 F 
ENDBRANCH  39  62
ENDBRANCH  13  14
ENDBRANCH   6   8
ENDBRANCH   5   6
ENDBRANCH   4   5
ENDBRANCH   3   4
ENDBRANCH   2   3
ENDBRANCH   1   2
BRANCH   1  73
ATOM     73  C   UNL A   1      34.446  33.654  28.474  1.00  0.00     0.261 C 
BRANCH  73  74
ATOM     74  O   UNL A   1      33.995  32.281  28.518  1.00  0.00    -0.460 OA
BRANCH  74  75
ATOM     75  C   UNL A   1      34.754  31.382  27.841  1.00  0.00     0.338 C 
ATOM     76  O   UNL A   1      35.972  31.287  27.871  1.00  0.00    -0.246 OA
BRANCH  75  77
ATOM     77  C   UNL A   1      33.879  30.321  27.278  1.00  0.00     0.060 A 
ATOM     78  C   UNL A   1      32.613  30.708  26.811  1.00  0.00     0.018 A 
ATOM     79  C   UNL A   1      34.301  28.997  27.141  1.00  0.00     0.018 A 
ATOM     80  C   UNL A   1      31.750  29.774  26.232  1.00  0.00     0.029 A 
ATOM     81  C   UNL A   1      33.453  28.062  26.536  1.00  0.00     0.029 A 
ATOM     82  C   UNL A   1      32.173  28.449  26.098  1.00  0.00     0.066 A 
BRANCH  82  83
ATOM     83  N   UNL A   1      31.287  27.463  25.609  1.00  0.00    -0.220 N 
ATOM     84  C   UNL A   1      30.906  26.295  26.248  1.00  0.00     0.141 A 
ATOM     85  N   UNL A   1      30.888  27.430  24.324  1.00  0.00    -0.062 NA
ATOM     86  C   UNL A   1      30.488  25.466  25.229  1.00  0.00     0.093 A 
ATOM     87  N   UNL A   1      30.357  26.242  24.095  1.00  0.00    -0.134 NA
BRANCH  86  88
ATOM     88  C   UNL A   1      30.393  24.004  24.997  1.00  0.00     0.138 C 
BRANCH  88  89
ATOM     89  S   UNL A   1      30.929  22.638  25.992  1.00  0.00    -0.081 SA
BRANCH  89  90
ATOM     90  C   UNL A   1      32.175  21.662  25.294  1.00  0.00     0.176 A 
ATOM     91  N   UNL A   1      31.910  20.400  25.459  1.00  0.00    -0.223 NA
ATOM     92  N   UNL A   1      33.298  22.104  24.606  1.00  0.00    -0.255 N 
ATOM     93  C   UNL A   1      32.819  19.449  25.001  1.00  0.00     0.079 A 
ATOM     94  C   UNL A   1      34.409  21.251  24.733  1.00  0.00     0.266 A 
ATOM     95  C   UNL A   1      32.454  18.109  24.884  1.00  0.00     0.029 A 
ATOM     96  C   UNL A   1      34.131  19.810  24.750  1.00  0.00     0.066 A 
ATOM     97  O   UNL A   1      35.577  21.602  24.899  1.00  0.00    -0.268 OA
ATOM     98  C   UNL A   1      33.417  17.142  24.574  1.00  0.00     0.002 A 
ATOM     99  C   UNL A   1      35.116  18.854  24.488  1.00  0.00     0.016 A 
ATOM    100  C   UNL A   1      34.754  17.512  24.407  1.00  0.00     0.001 A 
BRANCH  92 101
ATOM    101  C   UNL A   1      33.472  23.354  23.875  1.00  0.00     0.051 A 
ATOM    102  C   UNL A   1      34.042  24.475  24.518  1.00  0.00     0.027 A 
ATOM    103  C   UNL A   1      33.149  23.546  22.526  1.00  0.00     0.027 A 
ATOM    104  C   UNL A   1      34.110  25.738  23.920  1.00  0.00     0.002 A 
ATOM    105  C   UNL A   1      33.170  24.818  21.930  1.00  0.00     0.002 A 
ATOM    106  C   UNL A   1      33.626  25.920  22.637  1.00  0.00     0.000 A 
ENDBRANCH  92 101
ENDBRANCH  89  90
ENDBRANCH  88  89
ENDBRANCH  86  88
ENDBRANCH  82  83
ENDBRANCH  75  77
ENDBRANCH  74  75
ENDBRANCH  73  74
ENDBRANCH   1  73
TORSDOF 19
ENDMDL
MODEL 3
REMARK VINA RESULT:     -12.8      1.638      2.295
REMARK SMILES O=C(OCCOCCOC(=O)c1ccc(-n2cc(CSc3nc4ccccc4c(=O)n3-c3ccccc3)nn2)cc1)c1ccc(-c2c3nc(c(-c4c(F)c(F)c(F)c(F)c4F)c4ccc([nH]4)c(-c4c(F)c(F)c(F)c(F)c4F)c4nc(c(-c5c(F)c(F)c(F)c(F)c5F)c5ccc2[nH]5)C=C4)C=C3)cc1
REMARK SMILES IDX 7 1 6 2 5 3 4 4 3 5 2 6 1 7 42 8 43 9 104 10 44 11 103 12
REMARK SMILES IDX 45 13 46 14 47 15 97 16 48 17 102 18 96 19 98 20 49 21
REMARK SMILES IDX 101 22 95 23 94 24 50 26 82 27 62 28 81 29 63 30 66 31 80 32
REMARK SMILES IDX 99 33 64 34 65 35 79 37 100 38 67 39 51 40 52 41 60 42 53 43
REMARK SMILES IDX 54 44 58 45 61 46 55 47 56 48 59 49 57 50 83 51 84 52 92 53
REMARK SMILES IDX 85 54 86 55 90 56 93 57 87 58 88 59 91 60 89 61 68 62 69 63
REMARK SMILES IDX 77 64 70 65 71 66 75 67 78 68 72 69 73 70 76 71 74 72 8 73
REMARK SMILES IDX 9 74 10 75 11 76 12 77 13 78 41 79 14 80 40 81 15 82 16 83
REMARK SMILES IDX 17 84 39 85 18 86 38 87 19 88 20 89 21 90 22 91 31 92 23 93
REMARK SMILES IDX 29 94 24 95 28 96 30 97 25 98 27 99 26 100 32 101 33 102
REMARK SMILES IDX 37 103 34 104 36 105 35 106
REMARK H PARENT 98 25 66 36
REMARK Flexibility Score: inf
ROOT
ATOM      1  C   UNL A   1      33.748  35.364  30.153  1.00  0.00     0.202 C 
ENDROOT
BRANCH   1   2
ATOM      2  O   UNL A   1      33.466  34.603  31.345  1.00  0.00    -0.374 OA
BRANCH   2   3
ATOM      3  C   UNL A   1      34.604  34.134  32.057  1.00  0.00     0.202 C 
BRANCH   3   4
ATOM      4  C   UNL A   1      35.894  33.971  31.263  1.00  0.00     0.261 C 
BRANCH   4   5
ATOM      5  O   UNL A   1      36.107  32.670  30.678  1.00  0.00    -0.460 OA
BRANCH   5   6
ATOM      6  C   UNL A   1      36.414  31.589  31.434  1.00  0.00     0.338 C 
ATOM      7  O   UNL A   1      35.647  31.140  32.277  1.00  0.00    -0.246 OA
BRANCH   6   8
ATOM      8  C   UNL A   1      37.561  30.788  30.934  1.00  0.00     0.060 A 
ATOM      9  C   UNL A   1      37.428  29.465  30.516  1.00  0.00     0.016 A 
ATOM     10  C   UNL A   1      38.840  31.360  31.021  1.00  0.00     0.016 A 
ATOM     11  C   UNL A   1      38.538  28.662  30.396  1.00  0.00     0.010 A 
ATOM     12  C   UNL A   1      39.966  30.565  30.857  1.00  0.00     0.010 A 
ATOM     13  C   UNL A   1      39.797  29.198  30.639  1.00  0.00    -0.014 A 
BRANCH  13  14
ATOM     14  C   UNL A   1      40.887  28.237  30.672  1.00  0.00     0.031 A 
ATOM     15  C   UNL A   1      41.460  27.957  32.015  1.00  0.00     0.074 A 
ATOM     16  C   UNL A   1      41.345  27.655  29.550  1.00  0.00     0.049 A 
ATOM     17  N   UNL A   1      42.691  28.060  32.407  1.00  0.00    -0.248 NA
ATOM     18  C   UNL A   1      40.515  27.599  33.083  1.00  0.00     0.031 C 
ATOM     19  C   UNL A   1      40.739  27.666  28.217  1.00  0.00     0.029 A 
ATOM     20  N   UNL A   1      42.414  26.826  29.402  1.00  0.00    -0.354 N 
ATOM     21  C   UNL A   1      42.705  27.628  33.732  1.00  0.00     0.074 A 
ATOM     22  C   UNL A   1      41.331  27.469  34.127  1.00  0.00     0.031 C 
ATOM     23  C   UNL A   1      41.301  26.689  27.474  1.00  0.00     0.029 A 
ATOM     24  C   UNL A   1      42.378  26.081  28.237  1.00  0.00     0.049 A 
ATOM     25  H   UNL A   1      43.142  26.761  30.061  1.00  0.00     0.167 HD
ATOM     26  C   UNL A   1      43.854  27.226  34.339  1.00  0.00     0.037 A 
ATOM     27  C   UNL A   1      43.108  24.973  27.973  1.00  0.00     0.037 A 
ATOM     28  C   UNL A   1      45.014  27.820  33.729  1.00  0.00     0.049 A 
ATOM     29  C   UNL A   1      44.274  24.961  28.890  1.00  0.00     0.074 A 
ATOM     30  C   UNL A   1      45.452  29.117  33.533  1.00  0.00     0.029 A 
ATOM     31  N   UNL A   1      45.822  27.045  32.936  1.00  0.00    -0.354 N 
ATOM     32  N   UNL A   1      45.281  25.786  28.813  1.00  0.00    -0.248 NA
ATOM     33  C   UNL A   1      44.129  24.272  30.166  1.00  0.00     0.031 C 
ATOM     34  C   UNL A   1      46.150  29.094  32.290  1.00  0.00     0.029 A 
ATOM     35  C   UNL A   1      46.110  27.782  31.820  1.00  0.00     0.049 A 
ATOM     36  H   UNL A   1      46.134  26.131  33.133  1.00  0.00     0.167 HD
ATOM     37  C   UNL A   1      45.635  26.034  30.130  1.00  0.00     0.074 A 
ATOM     38  C   UNL A   1      44.970  24.995  30.908  1.00  0.00     0.031 C 
ATOM     39  C   UNL A   1      46.204  27.219  30.497  1.00  0.00     0.037 A 
BRANCH  26  40
ATOM     40  C   UNL A   1      43.937  26.000  35.226  1.00  0.00     0.064 A 
ATOM     41  C   UNL A   1      44.514  26.124  36.507  1.00  0.00     0.173 A 
ATOM     42  C   UNL A   1      43.789  24.677  34.755  1.00  0.00     0.173 A 
ATOM     43  F   UNL A   1      44.697  27.331  37.064  1.00  0.00    -0.203 F 
ATOM     44  C   UNL A   1      45.019  25.020  37.199  1.00  0.00     0.198 A 
ATOM     45  C   UNL A   1      44.248  23.573  35.473  1.00  0.00     0.198 A 
ATOM     46  F   UNL A   1      43.298  24.394  33.545  1.00  0.00    -0.203 F 
ATOM     47  F   UNL A   1      45.695  25.205  38.342  1.00  0.00    -0.200 F 
ATOM     48  C   UNL A   1      44.902  23.747  36.673  1.00  0.00     0.200 A 
ATOM     49  F   UNL A   1      44.129  22.348  34.942  1.00  0.00    -0.200 F 
ATOM     50  F   UNL A   1      45.456  22.699  37.294  1.00  0.00    -0.200 F 
ENDBRANCH  26  40
BRANCH  27  51
ATOM     51  C   UNL A   1      42.673  23.787  27.202  1.00  0.00     0.064 A 
ATOM     52  C   UNL A   1      43.552  23.128  26.330  1.00  0.00     0.173 A 
ATOM     53  C   UNL A   1      41.459  23.126  27.485  1.00  0.00     0.173 A 
ATOM     54  F   UNL A   1      44.751  23.662  26.054  1.00  0.00    -0.203 F 
ATOM     55  C   UNL A   1      43.240  21.881  25.781  1.00  0.00     0.198 A 
ATOM     56  C   UNL A   1      41.141  21.891  26.924  1.00  0.00     0.198 A 
ATOM     57  F   UNL A   1      40.597  23.619  28.386  1.00  0.00    -0.203 F 
ATOM     58  F   UNL A   1      44.130  21.255  25.000  1.00  0.00    -0.200 F 
ATOM     59  C   UNL A   1      42.037  21.263  26.081  1.00  0.00     0.200 A 
ATOM     60  F   UNL A   1      39.989  21.289  27.252  1.00  0.00    -0.200 F 
ATOM     61  F   UNL A   1      41.758  20.046  25.593  1.00  0.00    -0.200 F 
ENDBRANCH  27  51
BRANCH  39  62
ATOM     62  C   UNL A   1      46.702  28.123  29.410  1.00  0.00     0.064 A 
ATOM     63  C   UNL A   1      45.885  29.044  28.733  1.00  0.00     0.173 A 
ATOM     64  C   UNL A   1      48.078  28.159  29.146  1.00  0.00     0.173 A 
ATOM     65  F   UNL A   1      44.579  29.143  29.015  1.00  0.00    -0.203 F 
ATOM     66  C   UNL A   1      46.418  29.923  27.794  1.00  0.00     0.198 A 
ATOM     67  C   UNL A   1      48.612  29.064  28.234  1.00  0.00     0.198 A 
ATOM     68  F   UNL A   1      48.913  27.344  29.811  1.00  0.00    -0.203 F 
ATOM     69  F   UNL A   1      45.616  30.785  27.150  1.00  0.00    -0.200 F 
ATOM     70  C   UNL A   1      47.782  29.937  27.550  1.00  0.00     0.200 A 
ATOM     71  F   UNL A   1      49.938  29.110  28.039  1.00  0.00    -0.200 F 
ATOM     72  F   UNL A   1      48.300  30.813  26.677  1.00  0.00    -0.200 F 
ENDBRANCH  39  62
ENDBRANCH  13  14
ENDBRANCH   6   8
ENDBRANCH   5   6
ENDBRANCH   4   5
ENDBRANCH   3   4
ENDBRANCH   2   3
ENDBRANCH   1   2
BRANCH   1  73
ATOM     73  C   UNL A   1      33.276  34.817  28.791  1.00  0.00     0.261 C 
BRANCH  73  74
ATOM     74  O   UNL A   1      33.313  33.373  28.742  1.00  0.00    -0.460 OA
BRANCH  74  75
ATOM     75  C   UNL A   1      34.239  32.828  27.912  1.00  0.00     0.338 C 
ATOM     76  O   UNL A   1      35.329  33.300  27.626  1.00  0.00    -0.246 OA
BRANCH  75  77
ATOM     77  C   UNL A   1      33.873  31.417  27.622  1.00  0.00     0.060 A 
ATOM     78  C   UNL A   1      32.561  31.166  27.189  1.00  0.00     0.018 A 
ATOM     79  C   UNL A   1      34.797  30.373  27.698  1.00  0.00     0.018 A 
ATOM     80  C   UNL A   1      32.155  29.871  26.859  1.00  0.00     0.029 A 
ATOM     81  C   UNL A   1      34.404  29.077  27.341  1.00  0.00     0.029 A 
ATOM     82  C   UNL A   1      33.079  28.827  26.938  1.00  0.00     0.066 A 
BRANCH  82  83
ATOM     83  N   UNL A   1      32.672  27.494  26.707  1.00  0.00    -0.220 N 
ATOM     84  C   UNL A   1      33.254  26.583  25.841  1.00  0.00     0.141 A 
ATOM     85  N   UNL A   1      31.488  27.019  27.138  1.00  0.00    -0.062 NA
ATOM     86  C   UNL A   1      32.257  25.668  25.582  1.00  0.00     0.093 A 
ATOM     87  N   UNL A   1      31.249  25.888  26.500  1.00  0.00    -0.134 NA
BRANCH  86  88
ATOM     88  C   UNL A   1      31.905  24.736  24.482  1.00  0.00     0.138 C 
BRANCH  88  89
ATOM     89  S   UNL A   1      32.936  23.826  23.364  1.00  0.00    -0.081 SA
BRANCH  89  90
ATOM     90  C   UNL A   1      33.262  22.191  23.827  1.00  0.00     0.176 A 
ATOM     91  N   UNL A   1      32.557  21.366  23.111  1.00  0.00    -0.223 NA
ATOM     92  N   UNL A   1      34.169  21.757  24.787  1.00  0.00    -0.255 N 
ATOM     93  C   UNL A   1      32.647  19.999  23.363  1.00  0.00     0.079 A 
ATOM     94  C   UNL A   1      33.790  20.559  25.419  1.00  0.00     0.266 A 
ATOM     95  C   UNL A   1      32.154  19.070  22.448  1.00  0.00     0.029 A 
ATOM     96  C   UNL A   1      33.141  19.550  24.574  1.00  0.00     0.066 A 
ATOM     97  O   UNL A   1      33.891  20.309  26.619  1.00  0.00    -0.268 OA
ATOM     98  C   UNL A   1      32.109  17.712  22.780  1.00  0.00     0.002 A 
ATOM     99  C   UNL A   1      33.059  18.205  24.943  1.00  0.00     0.016 A 
ATOM    100  C   UNL A   1      32.533  17.284  24.041  1.00  0.00     0.001 A 
BRANCH  92 101
ATOM    101  C   UNL A   1      35.372  22.432  25.259  1.00  0.00     0.051 A 
ATOM    102  C   UNL A   1      35.264  23.543  26.126  1.00  0.00     0.027 A 
ATOM    103  C   UNL A   1      36.682  22.045  24.955  1.00  0.00     0.027 A 
ATOM    104  C   UNL A   1      36.365  24.318  26.504  1.00  0.00     0.002 A 
ATOM    105  C   UNL A   1      37.790  22.839  25.290  1.00  0.00     0.002 A 
ATOM    106  C   UNL A   1      37.629  23.992  26.043  1.00  0.00     0.000 A 
ENDBRANCH  92 101
ENDBRANCH  89  90
ENDBRANCH  88  89
ENDBRANCH  86  88
ENDBRANCH  82  83
ENDBRANCH  75  77
ENDBRANCH  74  75
ENDBRANCH  73  74
ENDBRANCH   1  73
TORSDOF 19
ENDMDL
