MODEL 1
REMARK VINA RESULT:     -11.8      0.000      0.000
REMARK SMILES CCOC(=O)c1ccc(NC(=O)[C@H]2CC=CC[C@@]2(C)C(=O)OCCOCCOC(=O)c2ccc(-c3c4nc(c(-c5c(F)c(F)c(F)c(F)c5F)c5ccc([nH]5)c(-c5c(F)c(F)c(F)c(F)c5F)c5nc(c(-c6c(F)c(F)c(F)c(F)c6F)c6ccc3[nH]6)C=C5)C=C4)cc2)cc1
REMARK SMILES IDX 23 1 22 2 20 3 21 4 18 5 13 6 14 7 15 8 17 9 19 10 16 11
REMARK SMILES IDX 11 12 10 13 12 15 9 16 6 17 7 18 95 19 8 20 94 21 4 22 5 23
REMARK SMILES IDX 3 24 2 25 1 26 24 27 25 28 26 29 27 30 28 31 29 32 30 33
REMARK SMILES IDX 31 34 32 35 93 36 33 37 92 38 34 39 35 40 36 41 86 42 37 43
REMARK SMILES IDX 91 44 85 45 87 46 38 47 90 48 84 49 83 50 39 52 71 53 51 54
REMARK SMILES IDX 70 55 52 56 55 57 69 58 88 59 53 60 54 61 68 63 89 64 56 65
REMARK SMILES IDX 40 66 41 67 49 68 42 69 43 70 47 71 50 72 44 73 45 74 48 75
REMARK SMILES IDX 46 76 72 77 73 78 81 79 74 80 75 81 79 82 82 83 76 84 77 85
REMARK SMILES IDX 80 86 78 87 57 88 58 89 66 90 59 91 60 92 64 93 67 94 61 95
REMARK SMILES IDX 62 96 65 97 63 98
REMARK H PARENT 10 14 87 51 55 62
REMARK Flexibility Score: inf
ROOT
ATOM      1  C   UNL A   1      33.372  27.268  25.882  1.00  0.00     0.261 C 
ENDROOT
BRANCH   1   2
ATOM      2  O   UNL A   1      32.908  25.930  26.136  1.00  0.00    -0.463 OA
BRANCH   2   3
ATOM      3  C   UNL A   1      33.772  24.962  25.758  1.00  0.00     0.313 C 
ATOM      4  O   UNL A   1      34.927  25.177  25.450  1.00  0.00    -0.252 OA
BRANCH   3   5
ATOM      5  C   UNL A   1      33.170  23.598  25.608  1.00  0.00     0.080 C 
ATOM      6  C   UNL A   1      32.391  23.610  24.268  1.00  0.00     0.100 C 
ATOM      7  C   UNL A   1      32.015  22.210  23.774  1.00  0.00     0.041 C 
ATOM      8  C   UNL A   1      33.159  21.258  23.811  1.00  0.00    -0.030 C 
ATOM      9  C   UNL A   1      34.285  22.502  25.670  1.00  0.00     0.046 C 
ATOM     10  C   UNL A   1      32.252  23.361  26.834  1.00  0.00     0.025 C 
ATOM     11  C   UNL A   1      34.176  21.392  24.668  1.00  0.00    -0.030 C 
BRANCH   6  12
ATOM     12  C   UNL A   1      32.670  24.544  23.052  1.00  0.00     0.228 C 
ATOM     13  N   UNL A   1      32.064  25.664  22.590  1.00  0.00    -0.326 N 
ATOM     14  H   UNL A   1      32.471  25.953  21.740  1.00  0.00     0.169 HD
ATOM     15  O   UNL A   1      33.595  24.168  22.300  1.00  0.00    -0.274 OA
BRANCH  13  16
ATOM     16  C   UNL A   1      31.028  26.532  22.966  1.00  0.00     0.041 A 
ATOM     17  C   UNL A   1      28.840  28.307  23.126  1.00  0.00     0.060 A 
ATOM     18  C   UNL A   1      28.799  27.053  23.757  1.00  0.00     0.018 A 
ATOM     19  C   UNL A   1      30.042  28.734  22.561  1.00  0.00     0.018 A 
ATOM     20  C   UNL A   1      29.891  26.163  23.671  1.00  0.00     0.027 A 
ATOM     21  C   UNL A   1      31.143  27.866  22.526  1.00  0.00     0.027 A 
BRANCH  17  22
ATOM     22  C   UNL A   1      27.601  29.136  23.061  1.00  0.00     0.338 C 
ATOM     23  O   UNL A   1      26.526  28.765  23.506  1.00  0.00    -0.246 OA
BRANCH  22  24
ATOM     24  O   UNL A   1      27.830  30.306  22.403  1.00  0.00    -0.462 OA
BRANCH  24  25
ATOM     25  C   UNL A   1      27.656  31.517  23.166  1.00  0.00     0.230 C 
ATOM     26  C   UNL A   1      28.699  32.584  22.857  1.00  0.00     0.049 C 
ENDBRANCH  24  25
ENDBRANCH  22  24
ENDBRANCH  17  22
ENDBRANCH  13  16
ENDBRANCH   6  12
ENDBRANCH   3   5
ENDBRANCH   2   3
ENDBRANCH   1   2
BRANCH   1  27
ATOM     27  C   UNL A   1      32.395  28.401  26.215  1.00  0.00     0.202 C 
BRANCH  27  28
ATOM     28  O   UNL A   1      32.754  29.727  25.808  1.00  0.00    -0.374 OA
BRANCH  28  29
ATOM     29  C   UNL A   1      32.433  30.777  26.733  1.00  0.00     0.202 C 
BRANCH  29  30
ATOM     30  C   UNL A   1      33.607  31.190  27.601  1.00  0.00     0.261 C 
BRANCH  30  31
ATOM     31  O   UNL A   1      34.042  32.478  27.204  1.00  0.00    -0.460 OA
BRANCH  31  32
ATOM     32  C   UNL A   1      33.601  33.423  28.061  1.00  0.00     0.338 C 
ATOM     33  O   UNL A   1      32.551  34.039  28.008  1.00  0.00    -0.246 OA
BRANCH  32  34
ATOM     34  C   UNL A   1      34.543  33.472  29.189  1.00  0.00     0.060 A 
ATOM     35  C   UNL A   1      35.825  33.965  28.928  1.00  0.00     0.016 A 
ATOM     36  C   UNL A   1      34.172  33.059  30.479  1.00  0.00     0.016 A 
ATOM     37  C   UNL A   1      36.792  33.890  29.914  1.00  0.00     0.010 A 
ATOM     38  C   UNL A   1      35.133  32.994  31.474  1.00  0.00     0.010 A 
ATOM     39  C   UNL A   1      36.458  33.302  31.141  1.00  0.00    -0.014 A 
BRANCH  39  40
ATOM     40  C   UNL A   1      37.532  32.612  31.870  1.00  0.00     0.031 A 
ATOM     41  C   UNL A   1      38.189  31.456  31.164  1.00  0.00     0.074 A 
ATOM     42  C   UNL A   1      37.922  33.042  33.075  1.00  0.00     0.049 A 
ATOM     43  N   UNL A   1      39.179  30.698  31.550  1.00  0.00    -0.248 NA
ATOM     44  C   UNL A   1      37.651  31.101  29.836  1.00  0.00     0.031 C 
ATOM     45  C   UNL A   1      37.338  34.168  33.801  1.00  0.00     0.029 A 
ATOM     46  N   UNL A   1      38.909  32.576  33.893  1.00  0.00    -0.354 N 
ATOM     47  C   UNL A   1      39.377  29.791  30.516  1.00  0.00     0.074 A 
ATOM     48  C   UNL A   1      38.382  30.052  29.507  1.00  0.00     0.031 C 
ATOM     49  C   UNL A   1      37.985  34.305  34.972  1.00  0.00     0.029 A 
ATOM     50  C   UNL A   1      39.012  33.269  35.069  1.00  0.00     0.049 A 
ATOM     51  H   UNL A   1      39.492  31.818  33.660  1.00  0.00     0.167 HD
ATOM     52  C   UNL A   1      40.325  28.835  30.411  1.00  0.00     0.037 A 
ATOM     53  C   UNL A   1      39.853  33.070  36.098  1.00  0.00     0.037 A 
ATOM     54  C   UNL A   1      41.298  28.589  31.436  1.00  0.00     0.049 A 
ATOM     55  C   UNL A   1      40.886  31.982  35.970  1.00  0.00     0.074 A 
ATOM     56  C   UNL A   1      42.300  27.641  31.474  1.00  0.00     0.029 A 
ATOM     57  N   UNL A   1      41.376  29.314  32.618  1.00  0.00    -0.354 N 
ATOM     58  N   UNL A   1      41.087  31.139  34.982  1.00  0.00    -0.248 NA
ATOM     59  C   UNL A   1      41.822  31.830  37.089  1.00  0.00     0.031 C 
ATOM     60  C   UNL A   1      42.964  27.769  32.700  1.00  0.00     0.029 A 
ATOM     61  C   UNL A   1      42.407  28.830  33.399  1.00  0.00     0.049 A 
ATOM     62  H   UNL A   1      40.783  30.061  32.863  1.00  0.00     0.167 HD
ATOM     63  C   UNL A   1      42.190  30.379  35.345  1.00  0.00     0.074 A 
ATOM     64  C   UNL A   1      42.620  30.874  36.639  1.00  0.00     0.031 C 
ATOM     65  C   UNL A   1      42.799  29.366  34.678  1.00  0.00     0.037 A 
BRANCH  52  66
ATOM     66  C   UNL A   1      40.319  27.991  29.170  1.00  0.00     0.064 A 
ATOM     67  C   UNL A   1      39.602  26.785  29.101  1.00  0.00     0.173 A 
ATOM     68  C   UNL A   1      41.060  28.376  28.044  1.00  0.00     0.173 A 
ATOM     69  F   UNL A   1      38.902  26.353  30.162  1.00  0.00    -0.203 F 
ATOM     70  C   UNL A   1      39.650  25.985  27.960  1.00  0.00     0.198 A 
ATOM     71  C   UNL A   1      41.083  27.588  26.896  1.00  0.00     0.198 A 
ATOM     72  F   UNL A   1      41.774  29.512  28.062  1.00  0.00    -0.203 F 
ATOM     73  F   UNL A   1      39.006  24.810  27.940  1.00  0.00    -0.200 F 
ATOM     74  C   UNL A   1      40.385  26.391  26.857  1.00  0.00     0.200 A 
ATOM     75  F   UNL A   1      41.793  27.982  25.830  1.00  0.00    -0.200 F 
ATOM     76  F   UNL A   1      40.432  25.620  25.762  1.00  0.00    -0.200 F 
ENDBRANCH  52  66
BRANCH  53  77
ATOM     77  C   UNL A   1      39.768  33.937  37.300  1.00  0.00     0.064 A 
ATOM     78  C   UNL A   1      40.448  35.159  37.360  1.00  0.00     0.173 A 
ATOM     79  C   UNL A   1      38.992  33.565  38.407  1.00  0.00     0.173 A 
ATOM     80  F   UNL A   1      41.212  35.552  36.331  1.00  0.00    -0.203 F 
ATOM     81  C   UNL A   1      40.373  35.969  38.492  1.00  0.00     0.198 A 
ATOM     82  C   UNL A   1      38.896  34.387  39.527  1.00  0.00     0.198 A 
ATOM     83  F   UNL A   1      38.312  32.408  38.393  1.00  0.00    -0.203 F 
ATOM     84  F   UNL A   1      41.065  37.116  38.539  1.00  0.00    -0.200 F 
ATOM     85  C   UNL A   1      39.592  35.585  39.572  1.00  0.00     0.200 A 
ATOM     86  F   UNL A   1      38.127  34.020  40.561  1.00  0.00    -0.200 F 
ATOM     87  F   UNL A   1      39.515  36.367  40.657  1.00  0.00    -0.200 F 
ENDBRANCH  53  77
BRANCH  65  88
ATOM     88  C   UNL A   1      44.013  28.769  35.323  1.00  0.00     0.064 A 
ATOM     89  C   UNL A   1      45.300  29.258  35.059  1.00  0.00     0.173 A 
ATOM     90  C   UNL A   1      43.878  27.715  36.237  1.00  0.00     0.173 A 
ATOM     91  F   UNL A   1      45.476  30.260  34.183  1.00  0.00    -0.203 F 
ATOM     92  C   UNL A   1      46.415  28.684  35.660  1.00  0.00     0.198 A 
ATOM     93  C   UNL A   1      44.992  27.165  36.860  1.00  0.00     0.198 A 
ATOM     94  F   UNL A   1      42.664  27.223  36.530  1.00  0.00    -0.203 F 
ATOM     95  F   UNL A   1      47.641  29.126  35.350  1.00  0.00    -0.200 F 
ATOM     96  C   UNL A   1      46.260  27.642  36.563  1.00  0.00     0.200 A 
ATOM     97  F   UNL A   1      44.841  26.169  37.743  1.00  0.00    -0.200 F 
ATOM     98  F   UNL A   1      47.336  27.090  37.140  1.00  0.00    -0.200 F 
ENDBRANCH  65  88
ENDBRANCH  39  40
ENDBRANCH  32  34
ENDBRANCH  31  32
ENDBRANCH  30  31
ENDBRANCH  29  30
ENDBRANCH  28  29
ENDBRANCH  27  28
ENDBRANCH   1  27
TORSDOF 19
ENDMDL
MODEL 2
REMARK VINA RESULT:     -11.7      5.394      9.457
REMARK SMILES CCOC(=O)c1ccc(NC(=O)[C@H]2CC=CC[C@@]2(C)C(=O)OCCOCCOC(=O)c2ccc(-c3c4nc(c(-c5c(F)c(F)c(F)c(F)c5F)c5ccc([nH]5)c(-c5c(F)c(F)c(F)c(F)c5F)c5nc(c(-c6c(F)c(F)c(F)c(F)c6F)c6ccc3[nH]6)C=C5)C=C4)cc2)cc1
REMARK SMILES IDX 23 1 22 2 20 3 21 4 18 5 13 6 14 7 15 8 17 9 19 10 16 11
REMARK SMILES IDX 11 12 10 13 12 15 9 16 6 17 7 18 95 19 8 20 94 21 4 22 5 23
REMARK SMILES IDX 3 24 2 25 1 26 24 27 25 28 26 29 27 30 28 31 29 32 30 33
REMARK SMILES IDX 31 34 32 35 93 36 33 37 92 38 34 39 35 40 36 41 86 42 37 43
REMARK SMILES IDX 91 44 85 45 87 46 38 47 90 48 84 49 83 50 39 52 71 53 51 54
REMARK SMILES IDX 70 55 52 56 55 57 69 58 88 59 53 60 54 61 68 63 89 64 56 65
REMARK SMILES IDX 40 66 41 67 49 68 42 69 43 70 47 71 50 72 44 73 45 74 48 75
REMARK SMILES IDX 46 76 72 77 73 78 81 79 74 80 75 81 79 82 82 83 76 84 77 85
REMARK SMILES IDX 80 86 78 87 57 88 58 89 66 90 59 91 60 92 64 93 67 94 61 95
REMARK SMILES IDX 62 96 65 97 63 98
REMARK H PARENT 10 14 87 51 55 62
REMARK Flexibility Score: inf
ROOT
ATOM      1  C   UNL A   1      36.547  22.715  23.929  1.00  0.00     0.261 C 
ENDROOT
BRANCH   1   2
ATOM      2  O   UNL A   1      35.152  22.586  23.599  1.00  0.00    -0.463 OA
BRANCH   2   3
ATOM      3  C   UNL A   1      34.516  21.591  24.257  1.00  0.00     0.313 C 
ATOM      4  O   UNL A   1      35.093  20.663  24.787  1.00  0.00    -0.252 OA
BRANCH   3   5
ATOM      5  C   UNL A   1      33.021  21.632  24.175  1.00  0.00     0.080 C 
ATOM      6  C   UNL A   1      32.523  22.146  25.551  1.00  0.00     0.100 C 
ATOM      7  C   UNL A   1      31.058  22.593  25.535  1.00  0.00     0.041 C 
ATOM      8  C   UNL A   1      30.742  23.494  24.393  1.00  0.00    -0.030 C 
ATOM      9  C   UNL A   1      32.567  22.528  22.975  1.00  0.00     0.046 C 
ATOM     10  C   UNL A   1      32.536  20.195  23.858  1.00  0.00     0.025 C 
ATOM     11  C   UNL A   1      31.421  23.458  23.242  1.00  0.00    -0.030 C 
BRANCH   6  12
ATOM     12  C   UNL A   1      33.335  23.020  26.553  1.00  0.00     0.228 C 
ATOM     13  N   UNL A   1      33.636  24.339  26.594  1.00  0.00    -0.326 N 
ATOM     14  H   UNL A   1      34.241  24.535  27.347  1.00  0.00     0.169 HD
ATOM     15  O   UNL A   1      33.882  22.386  27.481  1.00  0.00    -0.274 OA
BRANCH  13  16
ATOM     16  C   UNL A   1      33.340  25.509  25.879  1.00  0.00     0.041 A 
ATOM     17  C   UNL A   1      32.527  27.478  24.027  1.00  0.00     0.060 A 
ATOM     18  C   UNL A   1      31.994  27.446  25.326  1.00  0.00     0.018 A 
ATOM     19  C   UNL A   1      33.589  26.628  23.717  1.00  0.00     0.018 A 
ATOM     20  C   UNL A   1      32.397  26.457  26.249  1.00  0.00     0.027 A 
ATOM     21  C   UNL A   1      34.023  25.682  24.658  1.00  0.00     0.027 A 
BRANCH  17  22
ATOM     22  C   UNL A   1      31.935  28.401  23.014  1.00  0.00     0.338 C 
ATOM     23  O   UNL A   1      32.596  29.210  22.383  1.00  0.00    -0.246 OA
BRANCH  22  24
ATOM     24  O   UNL A   1      30.585  28.246  22.945  1.00  0.00    -0.462 OA
BRANCH  24  25
ATOM     25  C   UNL A   1      29.791  29.430  23.164  1.00  0.00     0.230 C 
ATOM     26  C   UNL A   1      28.476  29.429  22.396  1.00  0.00     0.049 C 
ENDBRANCH  24  25
ENDBRANCH  22  24
ENDBRANCH  17  22
ENDBRANCH  13  16
ENDBRANCH   6  12
ENDBRANCH   3   5
ENDBRANCH   2   3
ENDBRANCH   1   2
BRANCH   1  27
ATOM     27  C   UNL A   1      36.868  23.291  25.312  1.00  0.00     0.202 C 
BRANCH  27  28
ATOM     28  O   UNL A   1      38.241  23.567  25.613  1.00  0.00    -0.374 OA
BRANCH  28  29
ATOM     29  C   UNL A   1      38.890  22.638  26.494  1.00  0.00     0.202 C 
BRANCH  29  30
ATOM     30  C   UNL A   1      39.301  21.350  25.809  1.00  0.00     0.261 C 
BRANCH  30  31
ATOM     31  O   UNL A   1      39.863  20.475  26.771  1.00  0.00    -0.460 OA
BRANCH  31  32
ATOM     32  C   UNL A   1      41.061  20.008  26.360  1.00  0.00     0.338 C 
ATOM     33  O   UNL A   1      41.285  18.977  25.752  1.00  0.00    -0.246 OA
BRANCH  32  34
ATOM     34  C   UNL A   1      42.060  21.053  26.630  1.00  0.00     0.060 A 
ATOM     35  C   UNL A   1      42.350  21.326  27.970  1.00  0.00     0.016 A 
ATOM     36  C   UNL A   1      42.710  21.739  25.591  1.00  0.00     0.016 A 
ATOM     37  C   UNL A   1      43.165  22.400  28.279  1.00  0.00     0.010 A 
ATOM     38  C   UNL A   1      43.537  22.807  25.895  1.00  0.00     0.010 A 
ATOM     39  C   UNL A   1      43.659  23.193  27.236  1.00  0.00    -0.014 A 
BRANCH  39  40
ATOM     40  C   UNL A   1      43.896  24.615  27.526  1.00  0.00     0.031 A 
ATOM     41  C   UNL A   1      45.308  25.109  27.365  1.00  0.00     0.074 A 
ATOM     42  C   UNL A   1      42.880  25.418  27.863  1.00  0.00     0.049 A 
ATOM     43  N   UNL A   1      45.792  26.312  27.516  1.00  0.00    -0.248 NA
ATOM     44  C   UNL A   1      46.320  24.103  26.986  1.00  0.00     0.031 C 
ATOM     45  C   UNL A   1      41.487  25.003  28.015  1.00  0.00     0.029 A 
ATOM     46  N   UNL A   1      42.875  26.755  28.131  1.00  0.00    -0.354 N 
ATOM     47  C   UNL A   1      47.151  26.201  27.245  1.00  0.00     0.074 A 
ATOM     48  C   UNL A   1      47.433  24.815  26.970  1.00  0.00     0.031 C 
ATOM     49  C   UNL A   1      40.754  26.077  28.357  1.00  0.00     0.029 A 
ATOM     50  C   UNL A   1      41.635  27.240  28.454  1.00  0.00     0.049 A 
ATOM     51  H   UNL A   1      43.682  27.318  28.095  1.00  0.00     0.167 HD
ATOM     52  C   UNL A   1      48.080  27.181  27.209  1.00  0.00     0.037 A 
ATOM     53  C   UNL A   1      41.276  28.491  28.788  1.00  0.00     0.037 A 
ATOM     54  C   UNL A   1      47.775  28.553  27.498  1.00  0.00     0.049 A 
ATOM     55  C   UNL A   1      42.334  29.562  28.767  1.00  0.00     0.074 A 
ATOM     56  C   UNL A   1      48.619  29.644  27.522  1.00  0.00     0.029 A 
ATOM     57  N   UNL A   1      46.504  29.010  27.820  1.00  0.00    -0.354 N 
ATOM     58  N   UNL A   1      43.613  29.461  28.489  1.00  0.00    -0.248 NA
ATOM     59  C   UNL A   1      41.893  30.926  29.083  1.00  0.00     0.031 C 
ATOM     60  C   UNL A   1      47.862  30.762  27.895  1.00  0.00     0.029 A 
ATOM     61  C   UNL A   1      46.540  30.372  28.052  1.00  0.00     0.049 A 
ATOM     62  H   UNL A   1      45.698  28.448  27.876  1.00  0.00     0.167 HD
ATOM     63  C   UNL A   1      44.126  30.749  28.566  1.00  0.00     0.074 A 
ATOM     64  C   UNL A   1      43.011  31.613  28.903  1.00  0.00     0.031 C 
ATOM     65  C   UNL A   1      45.397  31.186  28.377  1.00  0.00     0.037 A 
BRANCH  52  66
ATOM     66  C   UNL A   1      49.488  26.784  26.878  1.00  0.00     0.064 A 
ATOM     67  C   UNL A   1      50.427  26.487  27.879  1.00  0.00     0.173 A 
ATOM     68  C   UNL A   1      49.916  26.725  25.544  1.00  0.00     0.173 A 
ATOM     69  F   UNL A   1      50.080  26.560  29.174  1.00  0.00    -0.203 F 
ATOM     70  C   UNL A   1      51.747  26.173  27.557  1.00  0.00     0.198 A 
ATOM     71  C   UNL A   1      51.228  26.383  25.224  1.00  0.00     0.198 A 
ATOM     72  F   UNL A   1      49.064  27.013  24.548  1.00  0.00    -0.203 F 
ATOM     73  F   UNL A   1      52.639  25.952  28.533  1.00  0.00    -0.200 F 
ATOM     74  C   UNL A   1      52.144  26.115  26.230  1.00  0.00     0.200 A 
ATOM     75  F   UNL A   1      51.609  26.326  23.941  1.00  0.00    -0.200 F 
ATOM     76  F   UNL A   1      53.412  25.815  25.922  1.00  0.00    -0.200 F 
ENDBRANCH  52  66
BRANCH  53  77
ATOM     77  C   UNL A   1      39.863  28.787  29.130  1.00  0.00     0.064 A 
ATOM     78  C   UNL A   1      38.948  29.186  28.148  1.00  0.00     0.173 A 
ATOM     79  C   UNL A   1      39.394  28.662  30.446  1.00  0.00     0.173 A 
ATOM     80  F   UNL A   1      39.352  29.331  26.877  1.00  0.00    -0.203 F 
ATOM     81  C   UNL A   1      37.623  29.470  28.471  1.00  0.00     0.198 A 
ATOM     82  C   UNL A   1      38.064  28.920  30.764  1.00  0.00     0.198 A 
ATOM     83  F   UNL A   1      40.228  28.272  31.422  1.00  0.00    -0.203 F 
ATOM     84  F   UNL A   1      36.778  29.888  27.518  1.00  0.00    -0.200 F 
ATOM     85  C   UNL A   1      37.180  29.331  29.778  1.00  0.00     0.200 A 
ATOM     86  F   UNL A   1      37.636  28.769  32.025  1.00  0.00    -0.200 F 
ATOM     87  F   UNL A   1      35.904  29.598  30.087  1.00  0.00    -0.200 F 
ENDBRANCH  53  77
BRANCH  65  88
ATOM     88  C   UNL A   1      45.623  32.663  28.487  1.00  0.00     0.064 A 
ATOM     89  C   UNL A   1      45.975  33.264  29.704  1.00  0.00     0.173 A 
ATOM     90  C   UNL A   1      45.514  33.479  27.352  1.00  0.00     0.173 A 
ATOM     91  F   UNL A   1      46.080  32.523  30.818  1.00  0.00    -0.203 F 
ATOM     92  C   UNL A   1      46.170  34.638  29.788  1.00  0.00     0.198 A 
ATOM     93  C   UNL A   1      45.743  34.848  27.433  1.00  0.00     0.198 A 
ATOM     94  F   UNL A   1      45.194  32.946  26.163  1.00  0.00    -0.203 F 
ATOM     95  F   UNL A   1      46.447  35.202  30.971  1.00  0.00    -0.200 F 
ATOM     96  C   UNL A   1      46.059  35.428  28.652  1.00  0.00     0.200 A 
ATOM     97  F   UNL A   1      45.650  35.607  26.333  1.00  0.00    -0.200 F 
ATOM     98  F   UNL A   1      46.248  36.752  28.735  1.00  0.00    -0.200 F 
ENDBRANCH  65  88
ENDBRANCH  39  40
ENDBRANCH  32  34
ENDBRANCH  31  32
ENDBRANCH  30  31
ENDBRANCH  29  30
ENDBRANCH  28  29
ENDBRANCH  27  28
ENDBRANCH   1  27
TORSDOF 19
ENDMDL
MODEL 3
REMARK VINA RESULT:     -11.7      2.503      8.396
REMARK SMILES CCOC(=O)c1ccc(NC(=O)[C@H]2CC=CC[C@@]2(C)C(=O)OCCOCCOC(=O)c2ccc(-c3c4nc(c(-c5c(F)c(F)c(F)c(F)c5F)c5ccc([nH]5)c(-c5c(F)c(F)c(F)c(F)c5F)c5nc(c(-c6c(F)c(F)c(F)c(F)c6F)c6ccc3[nH]6)C=C5)C=C4)cc2)cc1
REMARK SMILES IDX 23 1 22 2 20 3 21 4 18 5 13 6 14 7 15 8 17 9 19 10 16 11
REMARK SMILES IDX 11 12 10 13 12 15 9 16 6 17 7 18 95 19 8 20 94 21 4 22 5 23
REMARK SMILES IDX 3 24 2 25 1 26 24 27 25 28 26 29 27 30 28 31 29 32 30 33
REMARK SMILES IDX 31 34 32 35 93 36 33 37 92 38 34 39 35 40 36 41 86 42 37 43
REMARK SMILES IDX 91 44 85 45 87 46 38 47 90 48 84 49 83 50 39 52 71 53 51 54
REMARK SMILES IDX 70 55 52 56 55 57 69 58 88 59 53 60 54 61 68 63 89 64 56 65
REMARK SMILES IDX 40 66 41 67 49 68 42 69 43 70 47 71 50 72 44 73 45 74 48 75
REMARK SMILES IDX 46 76 72 77 73 78 81 79 74 80 75 81 79 82 82 83 76 84 77 85
REMARK SMILES IDX 80 86 78 87 57 88 58 89 66 90 59 91 60 92 64 93 67 94 61 95
REMARK SMILES IDX 62 96 65 97 63 98
REMARK H PARENT 10 14 87 51 55 62
REMARK Flexibility Score: inf
ROOT
ATOM      1  C   UNL A   1      32.621  27.034  26.509  1.00  0.00     0.261 C 
ENDROOT
BRANCH   1   2
ATOM      2  O   UNL A   1      32.617  25.606  26.329  1.00  0.00    -0.463 OA
BRANCH   2   3
ATOM      3  C   UNL A   1      31.385  25.049  26.338  1.00  0.00     0.313 C 
ATOM      4  O   UNL A   1      30.364  25.685  26.502  1.00  0.00    -0.252 OA
BRANCH   3   5
ATOM      5  C   UNL A   1      31.366  23.553  26.268  1.00  0.00     0.080 C 
ATOM      6  C   UNL A   1      31.495  23.185  24.767  1.00  0.00     0.100 C 
ATOM      7  C   UNL A   1      31.854  21.715  24.533  1.00  0.00     0.041 C 
ATOM      8  C   UNL A   1      32.993  21.257  25.376  1.00  0.00    -0.030 C 
ATOM      9  C   UNL A   1      32.508  22.953  27.155  1.00  0.00     0.046 C 
ATOM     10  C   UNL A   1      30.029  23.078  26.891  1.00  0.00     0.025 C 
ATOM     11  C   UNL A   1      33.280  21.815  26.557  1.00  0.00    -0.030 C 
BRANCH   6  12
ATOM     12  C   UNL A   1      32.134  24.071  23.656  1.00  0.00     0.228 C 
ATOM     13  N   UNL A   1      33.416  24.360  23.328  1.00  0.00    -0.326 N 
ATOM     14  H   UNL A   1      33.448  25.027  22.603  1.00  0.00     0.169 HD
ATOM     15  O   UNL A   1      31.317  24.705  22.953  1.00  0.00    -0.274 OA
BRANCH  13  16
ATOM     16  C   UNL A   1      34.711  23.990  23.719  1.00  0.00     0.041 A 
ATOM     17  C   UNL A   1      37.027  22.917  24.923  1.00  0.00     0.060 A 
ATOM     18  C   UNL A   1      36.745  22.683  23.567  1.00  0.00     0.018 A 
ATOM     19  C   UNL A   1      36.237  23.827  25.625  1.00  0.00     0.018 A 
ATOM     20  C   UNL A   1      35.583  23.214  22.968  1.00  0.00     0.027 A 
ATOM     21  C   UNL A   1      35.113  24.396  25.007  1.00  0.00     0.027 A 
BRANCH  17  22
ATOM     22  C   UNL A   1      38.146  22.177  25.577  1.00  0.00     0.338 C 
ATOM     23  O   UNL A   1      38.072  21.000  25.895  1.00  0.00    -0.246 OA
BRANCH  22  24
ATOM     24  O   UNL A   1      39.205  23.000  25.808  1.00  0.00    -0.462 OA
BRANCH  24  25
ATOM     25  C   UNL A   1      39.535  23.252  27.188  1.00  0.00     0.230 C 
ATOM     26  C   UNL A   1      39.143  24.646  27.661  1.00  0.00     0.049 C 
ENDBRANCH  24  25
ENDBRANCH  22  24
ENDBRANCH  17  22
ENDBRANCH  13  16
ENDBRANCH   6  12
ENDBRANCH   3   5
ENDBRANCH   2   3
ENDBRANCH   1   2
BRANCH   1  27
ATOM     27  C   UNL A   1      33.420  27.846  25.483  1.00  0.00     0.202 C 
BRANCH  27  28
ATOM     28  O   UNL A   1      32.988  29.186  25.217  1.00  0.00    -0.374 OA
BRANCH  28  29
ATOM     29  C   UNL A   1      31.993  29.713  26.108  1.00  0.00     0.202 C 
BRANCH  29  30
ATOM     30  C   UNL A   1      32.406  31.018  26.761  1.00  0.00     0.261 C 
BRANCH  30  31
ATOM     31  O   UNL A   1      33.312  30.740  27.813  1.00  0.00    -0.460 OA
BRANCH  31  32
ATOM     32  C   UNL A   1      34.036  31.834  28.132  1.00  0.00     0.338 C 
ATOM     33  O   UNL A   1      33.617  32.926  28.472  1.00  0.00    -0.246 OA
BRANCH  32  34
ATOM     34  C   UNL A   1      35.451  31.436  28.160  1.00  0.00     0.060 A 
ATOM     35  C   UNL A   1      35.738  30.088  27.928  1.00  0.00     0.016 A 
ATOM     36  C   UNL A   1      36.476  32.368  28.393  1.00  0.00     0.016 A 
ATOM     37  C   UNL A   1      37.035  29.634  28.094  1.00  0.00     0.010 A 
ATOM     38  C   UNL A   1      37.778  31.921  28.548  1.00  0.00     0.010 A 
ATOM     39  C   UNL A   1      38.017  30.542  28.511  1.00  0.00    -0.014 A 
BRANCH  39  40
ATOM     40  C   UNL A   1      39.123  30.011  29.320  1.00  0.00     0.031 A 
ATOM     41  C   UNL A   1      39.204  30.487  30.745  1.00  0.00     0.074 A 
ATOM     42  C   UNL A   1      39.970  29.110  28.808  1.00  0.00     0.049 A 
ATOM     43  N   UNL A   1      40.044  30.158  31.689  1.00  0.00    -0.248 NA
ATOM     44  C   UNL A   1      38.196  31.481  31.167  1.00  0.00     0.031 C 
ATOM     45  C   UNL A   1      39.932  28.594  27.441  1.00  0.00     0.029 A 
ATOM     46  N   UNL A   1      41.025  28.471  29.391  1.00  0.00    -0.354 N 
ATOM     47  C   UNL A   1      39.660  30.897  32.802  1.00  0.00     0.074 A 
ATOM     48  C   UNL A   1      38.549  31.728  32.415  1.00  0.00     0.031 C 
ATOM     49  C   UNL A   1      40.932  27.709  27.288  1.00  0.00     0.029 A 
ATOM     50  C   UNL A   1      41.676  27.614  28.543  1.00  0.00     0.049 A 
ATOM     51  H   UNL A   1      41.291  28.610  30.328  1.00  0.00     0.167 HD
ATOM     52  C   UNL A   1      40.182  30.865  34.048  1.00  0.00     0.037 A 
ATOM     53  C   UNL A   1      42.753  26.847  28.779  1.00  0.00     0.037 A 
ATOM     54  C   UNL A   1      41.297  30.036  34.403  1.00  0.00     0.049 A 
ATOM     55  C   UNL A   1      43.334  26.848  30.169  1.00  0.00     0.074 A 
ATOM     56  C   UNL A   1      41.942  29.919  35.617  1.00  0.00     0.029 A 
ATOM     57  N   UNL A   1      41.933  29.175  33.518  1.00  0.00    -0.354 N 
ATOM     58  N   UNL A   1      42.958  27.529  31.227  1.00  0.00    -0.248 NA
ATOM     59  C   UNL A   1      44.476  25.956  30.403  1.00  0.00     0.031 C 
ATOM     60  C   UNL A   1      42.996  29.012  35.457  1.00  0.00     0.029 A 
ATOM     61  C   UNL A   1      42.972  28.526  34.157  1.00  0.00     0.049 A 
ATOM     62  H   UNL A   1      41.682  29.047  32.574  1.00  0.00     0.167 HD
ATOM     63  C   UNL A   1      43.793  27.127  32.260  1.00  0.00     0.074 A 
ATOM     64  C   UNL A   1      44.686  26.131  31.699  1.00  0.00     0.031 C 
ATOM     65  C   UNL A   1      43.826  27.536  33.554  1.00  0.00     0.037 A 
BRANCH  52  66
ATOM     66  C   UNL A   1      39.566  31.768  35.075  1.00  0.00     0.064 A 
ATOM     67  C   UNL A   1      38.647  31.289  36.023  1.00  0.00     0.173 A 
ATOM     68  C   UNL A   1      39.874  33.136  35.097  1.00  0.00     0.173 A 
ATOM     69  F   UNL A   1      38.292  29.995  36.026  1.00  0.00    -0.203 F 
ATOM     70  C   UNL A   1      38.041  32.151  36.936  1.00  0.00     0.198 A 
ATOM     71  C   UNL A   1      39.288  33.989  36.029  1.00  0.00     0.198 A 
ATOM     72  F   UNL A   1      40.734  33.648  34.204  1.00  0.00    -0.203 F 
ATOM     73  F   UNL A   1      37.123  31.681  37.792  1.00  0.00    -0.200 F 
ATOM     74  C   UNL A   1      38.367  33.498  36.942  1.00  0.00     0.200 A 
ATOM     75  F   UNL A   1      39.605  35.291  36.034  1.00  0.00    -0.200 F 
ATOM     76  F   UNL A   1      37.784  34.326  37.819  1.00  0.00    -0.200 F 
ENDBRANCH  52  66
BRANCH  53  77
ATOM     77  C   UNL A   1      43.313  26.006  27.693  1.00  0.00     0.064 A 
ATOM     78  C   UNL A   1      43.018  24.640  27.610  1.00  0.00     0.173 A 
ATOM     79  C   UNL A   1      44.145  26.556  26.706  1.00  0.00     0.173 A 
ATOM     80  F   UNL A   1      42.237  24.066  28.537  1.00  0.00    -0.203 F 
ATOM     81  C   UNL A   1      43.550  23.850  26.592  1.00  0.00     0.198 A 
ATOM     82  C   UNL A   1      44.654  25.772  25.675  1.00  0.00     0.198 A 
ATOM     83  F   UNL A   1      44.448  27.863  26.735  1.00  0.00    -0.203 F 
ATOM     84  F   UNL A   1      43.283  22.537  26.558  1.00  0.00    -0.200 F 
ATOM     85  C   UNL A   1      44.363  24.417  25.622  1.00  0.00     0.200 A 
ATOM     86  F   UNL A   1      45.426  26.328  24.731  1.00  0.00    -0.200 F 
ATOM     87  F   UNL A   1      44.868  23.658  24.642  1.00  0.00    -0.200 F 
ENDBRANCH  53  77
BRANCH  65  88
ATOM     88  C   UNL A   1      44.829  26.869  34.445  1.00  0.00     0.064 A 
ATOM     89  C   UNL A   1      46.110  27.405  34.640  1.00  0.00     0.173 A 
ATOM     90  C   UNL A   1      44.490  25.695  35.131  1.00  0.00     0.173 A 
ATOM     91  F   UNL A   1      46.480  28.522  33.994  1.00  0.00    -0.203 F 
ATOM     92  C   UNL A   1      47.030  26.765  35.463  1.00  0.00     0.198 A 
ATOM     93  C   UNL A   1      45.402  25.076  35.978  1.00  0.00     0.198 A 
ATOM     94  F   UNL A   1      43.271  25.153  34.986  1.00  0.00    -0.203 F 
ATOM     95  F   UNL A   1      48.269  27.260  35.591  1.00  0.00    -0.200 F 
ATOM     96  C   UNL A   1      46.674  25.605  36.135  1.00  0.00     0.200 A 
ATOM     97  F   UNL A   1      45.052  23.963  36.639  1.00  0.00    -0.200 F 
ATOM     98  F   UNL A   1      47.563  24.989  36.927  1.00  0.00    -0.200 F 
ENDBRANCH  65  88
ENDBRANCH  39  40
ENDBRANCH  32  34
ENDBRANCH  31  32
ENDBRANCH  30  31
ENDBRANCH  29  30
ENDBRANCH  28  29
ENDBRANCH  27  28
ENDBRANCH   1  27
TORSDOF 19
ENDMDL
