MODEL 1
REMARK VINA RESULT:     -11.0      0.000      0.000
REMARK SMILES CCOC(=O)c1c(NC(=O)/C=C/C(=O)OCCOCCOC(=O)c2ccc(-c3c4nc(c(-c5c(F)c(F)c(F)c(F)c5F)c5ccc([nH]5)c(-c5c(F)c(F)c(F)c(F)c5F)c5nc(c(-c6c(F)c(F)c(F)c(F)c6F)c6ccc3[nH]6)C=C5)C=C4)cc2)sc(C)c1-c1ccc(C)c(C)c1
REMARK SMILES IDX 16 1 15 2 13 3 14 4 12 5 11 6 9 7 8 8 10 10 7 11 6 12 90 13
REMARK SMILES IDX 87 14 88 15 89 16 4 17 5 18 3 19 2 20 1 21 91 22 92 23 98 24
REMARK SMILES IDX 93 25 96 26 94 27 97 28 95 29 17 30 18 31 19 32 20 33 21 34
REMARK SMILES IDX 22 35 23 36 24 37 25 38 86 39 26 40 85 41 27 42 28 43 29 44
REMARK SMILES IDX 79 45 30 46 84 47 78 48 80 49 31 50 83 51 77 52 76 53 32 55
REMARK SMILES IDX 64 56 44 57 63 58 45 59 48 60 62 61 81 62 46 63 47 64 61 66
REMARK SMILES IDX 82 67 49 68 33 69 34 70 42 71 35 72 36 73 40 74 43 75 37 76
REMARK SMILES IDX 38 77 41 78 39 79 65 80 66 81 74 82 67 83 68 84 72 85 75 86
REMARK SMILES IDX 69 87 70 88 73 89 71 90 50 91 51 92 59 93 52 94 53 95 57 96
REMARK SMILES IDX 60 97 54 98 55 99 58 100 56 101
REMARK H PARENT 8 9 80 54 48 65
REMARK Flexibility Score: inf
ROOT
ATOM      1  C   UNL A   1      36.896  23.514  26.039  1.00  0.00     0.261 C 
ENDROOT
BRANCH   1   2
ATOM      2  O   UNL A   1      36.030  23.007  25.005  1.00  0.00    -0.460 OA
BRANCH   2   3
ATOM      3  C   UNL A   1      35.170  22.038  25.406  1.00  0.00     0.331 C 
ATOM      4  O   UNL A   1      35.364  21.235  26.306  1.00  0.00    -0.247 OA
BRANCH   3   5
ATOM      5  C   UNL A   1      33.878  22.088  24.697  1.00  0.00     0.099 C 
ATOM      6  C   UNL A   1      33.699  22.490  23.431  1.00  0.00     0.079 C 
BRANCH   6   7
ATOM      7  C   UNL A   1      32.322  22.631  22.906  1.00  0.00     0.249 C 
ATOM      8  N   UNL A   1      31.671  23.836  22.864  1.00  0.00    -0.313 N 
ATOM      9  H   UNL A   1      30.707  23.758  22.681  1.00  0.00     0.171 HD
ATOM     10  O   UNL A   1      31.752  21.614  22.509  1.00  0.00    -0.270 OA
BRANCH   8  11
ATOM     11  C   UNL A   1      32.106  25.146  23.028  1.00  0.00     0.111 A 
ATOM     12  C   UNL A   1      32.038  25.929  24.173  1.00  0.00     0.102 A 
ATOM     13  C   UNL A   1      32.672  27.223  23.966  1.00  0.00     0.012 A 
ATOM     14  S   UNL A   1      32.669  26.049  21.721  1.00  0.00    -0.122 S 
ATOM     15  C   UNL A   1      33.179  27.346  22.683  1.00  0.00     0.012 A 
ATOM     16  C   UNL A   1      34.026  28.400  22.046  1.00  0.00     0.057 C 
BRANCH  12  17
ATOM     17  C   UNL A   1      31.421  25.462  25.408  1.00  0.00     0.341 C 
ATOM     18  O   UNL A   1      30.355  25.902  25.822  1.00  0.00    -0.246 OA
BRANCH  17  19
ATOM     19  O   UNL A   1      32.194  24.553  26.060  1.00  0.00    -0.462 OA
BRANCH  19  20
ATOM     20  C   UNL A   1      31.523  23.626  26.925  1.00  0.00     0.230 C 
ATOM     21  C   UNL A   1      30.589  22.703  26.162  1.00  0.00     0.049 C 
ENDBRANCH  19  20
ENDBRANCH  17  19
ENDBRANCH  12  17
BRANCH  13  22
ATOM     22  C   UNL A   1      32.851  28.292  24.941  1.00  0.00    -0.016 A 
ATOM     23  C   UNL A   1      33.938  28.292  25.814  1.00  0.00     0.009 A 
ATOM     24  C   UNL A   1      31.918  29.335  25.001  1.00  0.00     0.012 A 
ATOM     25  C   UNL A   1      34.078  29.322  26.745  1.00  0.00     0.004 A 
ATOM     26  C   UNL A   1      32.060  30.389  25.916  1.00  0.00    -0.048 A 
ATOM     27  C   UNL A   1      33.148  30.377  26.809  1.00  0.00    -0.048 A 
ATOM     28  C   UNL A   1      31.036  31.490  25.908  1.00  0.00     0.044 C 
ATOM     29  C   UNL A   1      33.353  31.431  27.863  1.00  0.00     0.044 C 
ENDBRANCH  13  22
ENDBRANCH   8  11
ENDBRANCH   6   7
ENDBRANCH   3   5
ENDBRANCH   2   3
ENDBRANCH   1   2
BRANCH   1  30
ATOM     30  C   UNL A   1      38.357  23.126  25.787  1.00  0.00     0.202 C 
BRANCH  30  31
ATOM     31  O   UNL A   1      38.736  21.812  26.195  1.00  0.00    -0.374 OA
BRANCH  31  32
ATOM     32  C   UNL A   1      38.551  20.769  25.239  1.00  0.00     0.202 C 
BRANCH  32  33
ATOM     33  C   UNL A   1      39.312  19.465  25.495  1.00  0.00     0.261 C 
BRANCH  33  34
ATOM     34  O   UNL A   1      40.213  19.588  26.607  1.00  0.00    -0.460 OA
BRANCH  34  35
ATOM     35  C   UNL A   1      41.526  19.531  26.281  1.00  0.00     0.338 C 
ATOM     36  O   UNL A   1      42.127  18.607  25.762  1.00  0.00    -0.246 OA
BRANCH  35  37
ATOM     37  C   UNL A   1      42.133  20.860  26.473  1.00  0.00     0.060 A 
ATOM     38  C   UNL A   1      42.450  21.241  27.784  1.00  0.00     0.016 A 
ATOM     39  C   UNL A   1      42.340  21.736  25.407  1.00  0.00     0.016 A 
ATOM     40  C   UNL A   1      42.940  22.518  28.038  1.00  0.00     0.010 A 
ATOM     41  C   UNL A   1      42.819  23.023  25.665  1.00  0.00     0.010 A 
ATOM     42  C   UNL A   1      43.091  23.429  26.984  1.00  0.00    -0.014 A 
BRANCH  42  43
ATOM     43  C   UNL A   1      43.391  24.848  27.286  1.00  0.00     0.031 A 
ATOM     44  C   UNL A   1      44.770  25.373  27.001  1.00  0.00     0.074 A 
ATOM     45  C   UNL A   1      42.441  25.662  27.777  1.00  0.00     0.049 A 
ATOM     46  N   UNL A   1      45.266  26.566  27.210  1.00  0.00    -0.248 NA
ATOM     47  C   UNL A   1      45.719  24.423  26.399  1.00  0.00     0.031 C 
ATOM     48  C   UNL A   1      41.059  25.276  28.051  1.00  0.00     0.029 A 
ATOM     49  N   UNL A   1      42.502  26.985  28.134  1.00  0.00    -0.354 N 
ATOM     50  C   UNL A   1      46.581  26.510  26.768  1.00  0.00     0.074 A 
ATOM     51  C   UNL A   1      46.817  25.158  26.309  1.00  0.00     0.031 C 
ATOM     52  C   UNL A   1      40.401  26.339  28.544  1.00  0.00     0.029 A 
ATOM     53  C   UNL A   1      41.324  27.468  28.648  1.00  0.00     0.049 A 
ATOM     54  H   UNL A   1      43.311  27.535  28.032  1.00  0.00     0.167 HD
ATOM     55  C   UNL A   1      47.503  27.500  26.738  1.00  0.00     0.037 A 
ATOM     56  C   UNL A   1      41.036  28.679  29.162  1.00  0.00     0.037 A 
ATOM     57  C   UNL A   1      47.265  28.842  27.200  1.00  0.00     0.049 A 
ATOM     58  C   UNL A   1      42.106  29.741  29.193  1.00  0.00     0.074 A 
ATOM     59  C   UNL A   1      48.131  29.922  27.204  1.00  0.00     0.029 A 
ATOM     60  N   UNL A   1      46.071  29.284  27.752  1.00  0.00    -0.354 N 
ATOM     61  N   UNL A   1      43.339  29.689  28.752  1.00  0.00    -0.248 NA
ATOM     62  C   UNL A   1      41.739  31.032  29.793  1.00  0.00     0.031 C 
ATOM     63  C   UNL A   1      47.477  31.004  27.802  1.00  0.00     0.029 A 
ATOM     64  C   UNL A   1      46.186  30.615  28.123  1.00  0.00     0.049 A 
ATOM     65  H   UNL A   1      45.262  28.735  27.863  1.00  0.00     0.167 HD
ATOM     66  C   UNL A   1      43.885  30.943  28.992  1.00  0.00     0.074 A 
ATOM     67  C   UNL A   1      42.844  31.740  29.609  1.00  0.00     0.031 C 
ATOM     68  C   UNL A   1      45.136  31.395  28.726  1.00  0.00     0.037 A 
BRANCH  55  69
ATOM     69  C   UNL A   1      48.865  27.159  26.209  1.00  0.00     0.064 A 
ATOM     70  C   UNL A   1      49.901  26.739  27.057  1.00  0.00     0.173 A 
ATOM     71  C   UNL A   1      49.131  27.230  24.833  1.00  0.00     0.173 A 
ATOM     72  F   UNL A   1      49.702  26.668  28.382  1.00  0.00    -0.203 F 
ATOM     73  C   UNL A   1      51.160  26.428  26.550  1.00  0.00     0.198 A 
ATOM     74  C   UNL A   1      50.383  26.892  24.327  1.00  0.00     0.198 A 
ATOM     75  F   UNL A   1      48.175  27.623  23.979  1.00  0.00    -0.203 F 
ATOM     76  F   UNL A   1      52.149  26.075  27.384  1.00  0.00    -0.200 F 
ATOM     77  C   UNL A   1      51.398  26.499  25.186  1.00  0.00     0.200 A 
ATOM     78  F   UNL A   1      50.609  26.950  23.007  1.00  0.00    -0.200 F 
ATOM     79  F   UNL A   1      52.610  26.196  24.699  1.00  0.00    -0.200 F 
ENDBRANCH  55  69
BRANCH  56  80
ATOM     80  C   UNL A   1      39.678  28.955  29.696  1.00  0.00     0.064 A 
ATOM     81  C   UNL A   1      39.342  28.633  31.019  1.00  0.00     0.173 A 
ATOM     82  C   UNL A   1      38.682  29.529  28.891  1.00  0.00     0.173 A 
ATOM     83  F   UNL A   1      40.252  28.059  31.819  1.00  0.00    -0.203 F 
ATOM     84  C   UNL A   1      38.057  28.859  31.510  1.00  0.00     0.198 A 
ATOM     85  C   UNL A   1      37.407  29.779  29.391  1.00  0.00     0.198 A 
ATOM     86  F   UNL A   1      38.952  29.852  27.618  1.00  0.00    -0.203 F 
ATOM     87  F   UNL A   1      37.750  28.499  32.764  1.00  0.00    -0.200 F 
ATOM     88  C   UNL A   1      37.093  29.438  30.699  1.00  0.00     0.200 A 
ATOM     89  F   UNL A   1      36.480  30.347  28.607  1.00  0.00    -0.200 F 
ATOM     90  F   UNL A   1      35.859  29.656  31.172  1.00  0.00    -0.200 F 
ENDBRANCH  56  80
BRANCH  68  91
ATOM     91  C   UNL A   1      45.438  32.827  29.063  1.00  0.00     0.064 A 
ATOM     92  C   UNL A   1      45.173  33.868  28.161  1.00  0.00     0.173 A 
ATOM     93  C   UNL A   1      45.958  33.165  30.321  1.00  0.00     0.173 A 
ATOM     94  F   UNL A   1      44.690  33.597  26.939  1.00  0.00    -0.203 F 
ATOM     95  C   UNL A   1      45.444  35.193  28.498  1.00  0.00     0.198 A 
ATOM     96  C   UNL A   1      46.199  34.492  30.666  1.00  0.00     0.198 A 
ATOM     97  F   UNL A   1      46.222  32.207  31.223  1.00  0.00    -0.203 F 
ATOM     98  F   UNL A   1      45.228  36.167  27.603  1.00  0.00    -0.200 F 
ATOM     99  C   UNL A   1      45.949  35.503  29.752  1.00  0.00     0.200 A 
ATOM    100  F   UNL A   1      46.673  34.791  31.882  1.00  0.00    -0.200 F 
ATOM    101  F   UNL A   1      46.201  36.779  30.077  1.00  0.00    -0.200 F 
ENDBRANCH  68  91
ENDBRANCH  42  43
ENDBRANCH  35  37
ENDBRANCH  34  35
ENDBRANCH  33  34
ENDBRANCH  32  33
ENDBRANCH  31  32
ENDBRANCH  30  31
ENDBRANCH   1  30
TORSDOF 20
ENDMDL
MODEL 2
REMARK VINA RESULT:     -11.0      0.980      6.993
REMARK SMILES CCOC(=O)c1c(NC(=O)/C=C/C(=O)OCCOCCOC(=O)c2ccc(-c3c4nc(c(-c5c(F)c(F)c(F)c(F)c5F)c5ccc([nH]5)c(-c5c(F)c(F)c(F)c(F)c5F)c5nc(c(-c6c(F)c(F)c(F)c(F)c6F)c6ccc3[nH]6)C=C5)C=C4)cc2)sc(C)c1-c1ccc(C)c(C)c1
REMARK SMILES IDX 16 1 15 2 13 3 14 4 12 5 11 6 9 7 8 8 10 10 7 11 6 12 90 13
REMARK SMILES IDX 87 14 88 15 89 16 4 17 5 18 3 19 2 20 1 21 91 22 92 23 98 24
REMARK SMILES IDX 93 25 96 26 94 27 97 28 95 29 17 30 18 31 19 32 20 33 21 34
REMARK SMILES IDX 22 35 23 36 24 37 25 38 86 39 26 40 85 41 27 42 28 43 29 44
REMARK SMILES IDX 79 45 30 46 84 47 78 48 80 49 31 50 83 51 77 52 76 53 32 55
REMARK SMILES IDX 64 56 44 57 63 58 45 59 48 60 62 61 81 62 46 63 47 64 61 66
REMARK SMILES IDX 82 67 49 68 33 69 34 70 42 71 35 72 36 73 40 74 43 75 37 76
REMARK SMILES IDX 38 77 41 78 39 79 65 80 66 81 74 82 67 83 68 84 72 85 75 86
REMARK SMILES IDX 69 87 70 88 73 89 71 90 50 91 51 92 59 93 52 94 53 95 57 96
REMARK SMILES IDX 60 97 54 98 55 99 58 100 56 101
REMARK H PARENT 8 9 80 54 48 65
REMARK Flexibility Score: inf
ROOT
ATOM      1  C   UNL A   1      36.735  23.658  26.125  1.00  0.00     0.261 C 
ENDROOT
BRANCH   1   2
ATOM      2  O   UNL A   1      35.843  23.183  25.098  1.00  0.00    -0.460 OA
BRANCH   2   3
ATOM      3  C   UNL A   1      35.032  22.164  25.474  1.00  0.00     0.331 C 
ATOM      4  O   UNL A   1      35.203  21.429  26.435  1.00  0.00    -0.247 OA
BRANCH   3   5
ATOM      5  C   UNL A   1      33.816  22.062  24.646  1.00  0.00     0.099 C 
ATOM      6  C   UNL A   1      33.717  22.423  23.359  1.00  0.00     0.079 C 
BRANCH   6   7
ATOM      7  C   UNL A   1      32.390  22.405  22.705  1.00  0.00     0.249 C 
ATOM      8  N   UNL A   1      31.647  23.542  22.518  1.00  0.00    -0.313 N 
ATOM      9  H   UNL A   1      30.714  23.366  22.255  1.00  0.00     0.171 HD
ATOM     10  O   UNL A   1      31.948  21.318  22.331  1.00  0.00    -0.270 OA
BRANCH   8  11
ATOM     11  C   UNL A   1      31.951  24.893  22.627  1.00  0.00     0.111 A 
ATOM     12  C   UNL A   1      31.439  25.813  23.534  1.00  0.00     0.102 A 
ATOM     13  C   UNL A   1      32.068  27.116  23.377  1.00  0.00     0.012 A 
ATOM     14  S   UNL A   1      32.936  25.660  21.494  1.00  0.00    -0.122 S 
ATOM     15  C   UNL A   1      33.013  27.110  22.365  1.00  0.00     0.012 A 
ATOM     16  C   UNL A   1      34.007  28.138  21.929  1.00  0.00     0.057 C 
BRANCH  12  17
ATOM     17  C   UNL A   1      30.419  25.462  24.514  1.00  0.00     0.341 C 
ATOM     18  O   UNL A   1      29.435  26.162  24.723  1.00  0.00    -0.246 OA
BRANCH  17  19
ATOM     19  O   UNL A   1      30.727  24.328  25.198  1.00  0.00    -0.462 OA
BRANCH  19  20
ATOM     20  C   UNL A   1      30.949  24.456  26.608  1.00  0.00     0.230 C 
ATOM     21  C   UNL A   1      31.852  23.360  27.147  1.00  0.00     0.049 C 
ENDBRANCH  19  20
ENDBRANCH  17  19
ENDBRANCH  12  17
BRANCH  13  22
ATOM     22  C   UNL A   1      31.840  28.315  24.174  1.00  0.00    -0.016 A 
ATOM     23  C   UNL A   1      30.808  29.199  23.862  1.00  0.00     0.009 A 
ATOM     24  C   UNL A   1      32.669  28.583  25.271  1.00  0.00     0.012 A 
ATOM     25  C   UNL A   1      30.621  30.345  24.637  1.00  0.00     0.004 A 
ATOM     26  C   UNL A   1      32.477  29.718  26.072  1.00  0.00    -0.048 A 
ATOM     27  C   UNL A   1      31.446  30.618  25.744  1.00  0.00    -0.048 A 
ATOM     28  C   UNL A   1      33.387  29.929  27.250  1.00  0.00     0.044 C 
ATOM     29  C   UNL A   1      31.198  31.892  26.506  1.00  0.00     0.044 C 
ENDBRANCH  13  22
ENDBRANCH   8  11
ENDBRANCH   6   7
ENDBRANCH   3   5
ENDBRANCH   2   3
ENDBRANCH   1   2
BRANCH   1  30
ATOM     30  C   UNL A   1      38.194  23.317  25.802  1.00  0.00     0.202 C 
BRANCH  30  31
ATOM     31  O   UNL A   1      38.629  22.010  26.177  1.00  0.00    -0.374 OA
BRANCH  31  32
ATOM     32  C   UNL A   1      38.465  20.981  25.203  1.00  0.00     0.202 C 
BRANCH  32  33
ATOM     33  C   UNL A   1      39.249  19.686  25.440  1.00  0.00     0.261 C 
BRANCH  33  34
ATOM     34  O   UNL A   1      40.132  19.801  26.568  1.00  0.00    -0.460 OA
BRANCH  34  35
ATOM     35  C   UNL A   1      41.443  19.620  26.282  1.00  0.00     0.338 C 
ATOM     36  O   UNL A   1      41.961  18.665  25.730  1.00  0.00    -0.246 OA
BRANCH  35  37
ATOM     37  C   UNL A   1      42.180  20.864  26.568  1.00  0.00     0.060 A 
ATOM     38  C   UNL A   1      42.410  21.181  27.914  1.00  0.00     0.016 A 
ATOM     39  C   UNL A   1      42.591  21.726  25.551  1.00  0.00     0.016 A 
ATOM     40  C   UNL A   1      43.018  22.386  28.249  1.00  0.00     0.010 A 
ATOM     41  C   UNL A   1      43.190  22.942  25.891  1.00  0.00     0.010 A 
ATOM     42  C   UNL A   1      43.378  23.290  27.241  1.00  0.00    -0.014 A 
BRANCH  42  43
ATOM     43  C   UNL A   1      43.811  24.658  27.610  1.00  0.00     0.031 A 
ATOM     44  C   UNL A   1      42.767  25.682  27.951  1.00  0.00     0.074 A 
ATOM     45  C   UNL A   1      45.116  24.971  27.672  1.00  0.00     0.049 A 
ATOM     46  N   UNL A   1      42.910  26.942  28.274  1.00  0.00    -0.248 NA
ATOM     47  C   UNL A   1      41.369  25.224  27.923  1.00  0.00     0.031 C 
ATOM     48  C   UNL A   1      46.219  24.050  27.407  1.00  0.00     0.029 A 
ATOM     49  N   UNL A   1      45.733  26.159  27.975  1.00  0.00    -0.354 N 
ATOM     50  C   UNL A   1      41.626  27.426  28.485  1.00  0.00     0.074 A 
ATOM     51  C   UNL A   1      40.713  26.334  28.224  1.00  0.00     0.031 C 
ATOM     52  C   UNL A   1      47.381  24.709  27.550  1.00  0.00     0.029 A 
ATOM     53  C   UNL A   1      47.101  26.104  27.887  1.00  0.00     0.049 A 
ATOM     54  H   UNL A   1      45.241  26.972  28.232  1.00  0.00     0.167 HD
ATOM     55  C   UNL A   1      41.246  28.666  28.874  1.00  0.00     0.037 A 
ATOM     56  C   UNL A   1      48.019  27.079  28.040  1.00  0.00     0.037 A 
ATOM     57  C   UNL A   1      42.157  29.749  29.127  1.00  0.00     0.049 A 
ATOM     58  C   UNL A   1      47.563  28.472  28.391  1.00  0.00     0.074 A 
ATOM     59  C   UNL A   1      41.872  31.041  29.534  1.00  0.00     0.029 A 
ATOM     60  N   UNL A   1      43.535  29.668  28.988  1.00  0.00    -0.354 N 
ATOM     61  N   UNL A   1      46.350  28.917  28.612  1.00  0.00    -0.248 NA
ATOM     62  C   UNL A   1      48.608  29.498  28.515  1.00  0.00     0.031 C 
ATOM     63  C   UNL A   1      43.074  31.755  29.595  1.00  0.00     0.029 A 
ATOM     64  C   UNL A   1      44.113  30.895  29.277  1.00  0.00     0.049 A 
ATOM     65  H   UNL A   1      44.030  28.859  28.724  1.00  0.00     0.167 HD
ATOM     66  C   UNL A   1      46.487  30.261  28.931  1.00  0.00     0.074 A 
ATOM     67  C   UNL A   1      47.904  30.558  28.885  1.00  0.00     0.031 C 
ATOM     68  C   UNL A   1      45.526  31.170  29.236  1.00  0.00     0.037 A 
BRANCH  55  69
ATOM     69  C   UNL A   1      39.774  28.921  29.021  1.00  0.00     0.064 A 
ATOM     70  C   UNL A   1      38.981  29.312  27.932  1.00  0.00     0.173 A 
ATOM     71  C   UNL A   1      39.145  28.749  30.263  1.00  0.00     0.173 A 
ATOM     72  F   UNL A   1      39.537  29.503  26.726  1.00  0.00    -0.203 F 
ATOM     73  C   UNL A   1      37.617  29.547  28.086  1.00  0.00     0.198 A 
ATOM     74  C   UNL A   1      37.776  28.959  30.408  1.00  0.00     0.198 A 
ATOM     75  F   UNL A   1      39.857  28.374  31.336  1.00  0.00    -0.203 F 
ATOM     76  F   UNL A   1      36.888  29.966  27.043  1.00  0.00    -0.200 F 
ATOM     77  C   UNL A   1      37.015  29.364  29.323  1.00  0.00     0.200 A 
ATOM     78  F   UNL A   1      37.193  28.771  31.600  1.00  0.00    -0.200 F 
ATOM     79  F   UNL A   1      35.701  29.588  29.469  1.00  0.00    -0.200 F 
ENDBRANCH  55  69
BRANCH  56  80
ATOM     80  C   UNL A   1      49.461  26.776  27.856  1.00  0.00     0.064 A 
ATOM     81  C   UNL A   1      50.283  26.479  28.952  1.00  0.00     0.173 A 
ATOM     82  C   UNL A   1      50.052  26.797  26.583  1.00  0.00     0.173 A 
ATOM     83  F   UNL A   1      49.770  26.473  30.191  1.00  0.00    -0.203 F 
ATOM     84  C   UNL A   1      51.644  26.230  28.784  1.00  0.00     0.198 A 
ATOM     85  C   UNL A   1      51.407  26.521  26.414  1.00  0.00     0.198 A 
ATOM     86  F   UNL A   1      49.310  27.080  25.503  1.00  0.00    -0.203 F 
ATOM     87  F   UNL A   1      52.416  25.993  29.854  1.00  0.00    -0.200 F 
ATOM     88  C   UNL A   1      52.204  26.245  27.516  1.00  0.00     0.200 A 
ATOM     89  F   UNL A   1      51.942  26.527  25.186  1.00  0.00    -0.200 F 
ATOM     90  F   UNL A   1      53.512  26.004  27.355  1.00  0.00    -0.200 F 
ENDBRANCH  56  80
BRANCH  68  91
ATOM     91  C   UNL A   1      45.976  32.560  29.581  1.00  0.00     0.064 A 
ATOM     92  C   UNL A   1      46.067  33.569  28.611  1.00  0.00     0.173 A 
ATOM     93  C   UNL A   1      46.281  32.897  30.909  1.00  0.00     0.173 A 
ATOM     94  F   UNL A   1      45.801  33.294  27.325  1.00  0.00    -0.203 F 
ATOM     95  C   UNL A   1      46.470  34.857  28.954  1.00  0.00     0.198 A 
ATOM     96  C   UNL A   1      46.654  34.193  31.253  1.00  0.00     0.198 A 
ATOM     97  F   UNL A   1      46.203  31.970  31.876  1.00  0.00    -0.203 F 
ATOM     98  F   UNL A   1      46.595  35.793  28.003  1.00  0.00    -0.200 F 
ATOM     99  C   UNL A   1      46.756  35.169  30.275  1.00  0.00     0.200 A 
ATOM    100  F   UNL A   1      46.916  34.496  32.531  1.00  0.00    -0.200 F 
ATOM    101  F   UNL A   1      47.136  36.412  30.604  1.00  0.00    -0.200 F 
ENDBRANCH  68  91
ENDBRANCH  42  43
ENDBRANCH  35  37
ENDBRANCH  34  35
ENDBRANCH  33  34
ENDBRANCH  32  33
ENDBRANCH  31  32
ENDBRANCH  30  31
ENDBRANCH   1  30
TORSDOF 20
ENDMDL
MODEL 3
REMARK VINA RESULT:     -10.3      4.428      9.918
REMARK SMILES CCOC(=O)c1c(NC(=O)/C=C/C(=O)OCCOCCOC(=O)c2ccc(-c3c4nc(c(-c5c(F)c(F)c(F)c(F)c5F)c5ccc([nH]5)c(-c5c(F)c(F)c(F)c(F)c5F)c5nc(c(-c6c(F)c(F)c(F)c(F)c6F)c6ccc3[nH]6)C=C5)C=C4)cc2)sc(C)c1-c1ccc(C)c(C)c1
REMARK SMILES IDX 16 1 15 2 13 3 14 4 12 5 11 6 9 7 8 8 10 10 7 11 6 12 90 13
REMARK SMILES IDX 87 14 88 15 89 16 4 17 5 18 3 19 2 20 1 21 91 22 92 23 98 24
REMARK SMILES IDX 93 25 96 26 94 27 97 28 95 29 17 30 18 31 19 32 20 33 21 34
REMARK SMILES IDX 22 35 23 36 24 37 25 38 86 39 26 40 85 41 27 42 28 43 29 44
REMARK SMILES IDX 79 45 30 46 84 47 78 48 80 49 31 50 83 51 77 52 76 53 32 55
REMARK SMILES IDX 64 56 44 57 63 58 45 59 48 60 62 61 81 62 46 63 47 64 61 66
REMARK SMILES IDX 82 67 49 68 33 69 34 70 42 71 35 72 36 73 40 74 43 75 37 76
REMARK SMILES IDX 38 77 41 78 39 79 65 80 66 81 74 82 67 83 68 84 72 85 75 86
REMARK SMILES IDX 69 87 70 88 73 89 71 90 50 91 51 92 59 93 52 94 53 95 57 96
REMARK SMILES IDX 60 97 54 98 55 99 58 100 56 101
REMARK H PARENT 8 9 80 54 48 65
REMARK Flexibility Score: inf
ROOT
ATOM      1  C   UNL A   1      44.484  18.959  24.631  1.00  0.00     0.261 C 
ENDROOT
BRANCH   1   2
ATOM      2  O   UNL A   1      44.634  20.235  23.979  1.00  0.00    -0.460 OA
BRANCH   2   3
ATOM      3  C   UNL A   1      45.642  21.005  24.459  1.00  0.00     0.331 C 
ATOM      4  O   UNL A   1      46.800  20.650  24.624  1.00  0.00    -0.247 OA
BRANCH   3   5
ATOM      5  C   UNL A   1      45.235  22.403  24.693  1.00  0.00     0.099 C 
ATOM      6  C   UNL A   1      46.033  23.475  24.586  1.00  0.00     0.079 C 
BRANCH   6   7
ATOM      7  C   UNL A   1      45.521  24.800  25.001  1.00  0.00     0.249 C 
ATOM      8  N   UNL A   1      46.340  25.784  25.491  1.00  0.00    -0.313 N 
ATOM      9  H   UNL A   1      45.854  26.531  25.909  1.00  0.00     0.171 HD
ATOM     10  O   UNL A   1      44.310  25.003  24.907  1.00  0.00    -0.270 OA
BRANCH   8  11
ATOM     11  C   UNL A   1      47.721  25.933  25.514  1.00  0.00     0.111 A 
ATOM     12  C   UNL A   1      48.525  26.575  24.580  1.00  0.00     0.102 A 
ATOM     13  C   UNL A   1      49.919  26.585  25.002  1.00  0.00     0.012 A 
ATOM     14  S   UNL A   1      48.663  25.169  26.685  1.00  0.00    -0.122 S 
ATOM     15  C   UNL A   1      50.090  25.954  26.222  1.00  0.00     0.012 A 
ATOM     16  C   UNL A   1      51.278  25.836  27.121  1.00  0.00     0.057 C 
BRANCH  12  17
ATOM     17  C   UNL A   1      47.991  27.166  23.360  1.00  0.00     0.341 C 
ATOM     18  O   UNL A   1      47.146  28.054  23.371  1.00  0.00    -0.246 OA
BRANCH  17  19
ATOM     19  O   UNL A   1      48.483  26.573  22.240  1.00  0.00    -0.462 OA
BRANCH  19  20
ATOM     20  C   UNL A   1      48.581  27.383  21.061  1.00  0.00     0.230 C 
ATOM     21  C   UNL A   1      49.858  28.205  21.035  1.00  0.00     0.049 C 
ENDBRANCH  19  20
ENDBRANCH  17  19
ENDBRANCH  12  17
BRANCH  13  22
ATOM     22  C   UNL A   1      51.048  27.209  24.322  1.00  0.00    -0.016 A 
ATOM     23  C   UNL A   1      51.893  26.463  23.502  1.00  0.00     0.009 A 
ATOM     24  C   UNL A   1      51.287  28.578  24.495  1.00  0.00     0.012 A 
ATOM     25  C   UNL A   1      52.974  27.084  22.874  1.00  0.00     0.004 A 
ATOM     26  C   UNL A   1      52.355  29.220  23.851  1.00  0.00    -0.048 A 
ATOM     27  C   UNL A   1      53.217  28.461  23.038  1.00  0.00    -0.048 A 
ATOM     28  C   UNL A   1      52.537  30.698  24.059  1.00  0.00     0.044 C 
ATOM     29  C   UNL A   1      54.422  29.046  22.352  1.00  0.00     0.044 C 
ENDBRANCH  13  22
ENDBRANCH   8  11
ENDBRANCH   6   7
ENDBRANCH   3   5
ENDBRANCH   2   3
ENDBRANCH   1   2
BRANCH   1  30
ATOM     30  C   UNL A   1      43.181  18.890  25.434  1.00  0.00     0.202 C 
BRANCH  30  31
ATOM     31  O   UNL A   1      42.998  19.906  26.420  1.00  0.00    -0.374 OA
BRANCH  31  32
ATOM     32  C   UNL A   1      42.033  20.914  26.124  1.00  0.00     0.202 C 
BRANCH  32  33
ATOM     33  C   UNL A   1      40.617  20.682  26.662  1.00  0.00     0.261 C 
BRANCH  33  34
ATOM     34  O   UNL A   1      40.101  21.854  27.314  1.00  0.00    -0.460 OA
BRANCH  34  35
ATOM     35  C   UNL A   1      39.359  22.663  26.521  1.00  0.00     0.338 C 
ATOM     36  O   UNL A   1      38.580  22.336  25.642  1.00  0.00    -0.246 OA
BRANCH  35  37
ATOM     37  C   UNL A   1      39.475  24.053  26.998  1.00  0.00     0.060 A 
ATOM     38  C   UNL A   1      40.114  24.971  26.156  1.00  0.00     0.016 A 
ATOM     39  C   UNL A   1      39.018  24.438  28.259  1.00  0.00     0.016 A 
ATOM     40  C   UNL A   1      40.336  26.275  26.590  1.00  0.00     0.010 A 
ATOM     41  C   UNL A   1      39.254  25.744  28.698  1.00  0.00     0.010 A 
ATOM     42  C   UNL A   1      39.940  26.657  27.878  1.00  0.00    -0.014 A 
BRANCH  42  43
ATOM     43  C   UNL A   1      40.379  27.966  28.415  1.00  0.00     0.031 A 
ATOM     44  C   UNL A   1      41.839  28.183  28.693  1.00  0.00     0.074 A 
ATOM     45  C   UNL A   1      39.494  28.955  28.622  1.00  0.00     0.049 A 
ATOM     46  N   UNL A   1      42.447  29.231  29.189  1.00  0.00    -0.248 NA
ATOM     47  C   UNL A   1      42.739  27.064  28.368  1.00  0.00     0.031 C 
ATOM     48  C   UNL A   1      38.061  28.877  28.348  1.00  0.00     0.029 A 
ATOM     49  N   UNL A   1      39.675  30.223  29.116  1.00  0.00    -0.354 N 
ATOM     50  C   UNL A   1      43.794  28.899  29.236  1.00  0.00     0.074 A 
ATOM     51  C   UNL A   1      43.914  27.542  28.750  1.00  0.00     0.031 C 
ATOM     52  C   UNL A   1      37.489  30.044  28.687  1.00  0.00     0.029 A 
ATOM     53  C   UNL A   1      38.510  30.939  29.228  1.00  0.00     0.049 A 
ATOM     54  H   UNL A   1      40.556  30.584  29.365  1.00  0.00     0.167 HD
ATOM     55  C   UNL A   1      44.836  29.663  29.639  1.00  0.00     0.037 A 
ATOM     56  C   UNL A   1      38.294  32.169  29.733  1.00  0.00     0.037 A 
ATOM     57  C   UNL A   1      44.711  31.010  30.127  1.00  0.00     0.049 A 
ATOM     58  C   UNL A   1      39.463  32.968  30.252  1.00  0.00     0.074 A 
ATOM     59  C   UNL A   1      45.708  31.872  30.551  1.00  0.00     0.029 A 
ATOM     60  N   UNL A   1      43.509  31.690  30.265  1.00  0.00    -0.354 N 
ATOM     61  N   UNL A   1      40.736  32.658  30.273  1.00  0.00    -0.248 NA
ATOM     62  C   UNL A   1      39.161  34.291  30.817  1.00  0.00     0.031 C 
ATOM     63  C   UNL A   1      45.104  33.055  30.990  1.00  0.00     0.029 A 
ATOM     64  C   UNL A   1      43.737  32.951  30.791  1.00  0.00     0.049 A 
ATOM     65  H   UNL A   1      42.625  31.329  30.024  1.00  0.00     0.167 HD
ATOM     66  C   UNL A   1      41.389  33.754  30.822  1.00  0.00     0.074 A 
ATOM     67  C   UNL A   1      40.371  34.743  31.112  1.00  0.00     0.031 C 
ATOM     68  C   UNL A   1      42.713  33.927  31.064  1.00  0.00     0.037 A 
BRANCH  55  69
ATOM     69  C   UNL A   1      46.203  29.044  29.592  1.00  0.00     0.064 A 
ATOM     70  C   UNL A   1      47.041  29.193  28.477  1.00  0.00     0.173 A 
ATOM     71  C   UNL A   1      46.689  28.312  30.686  1.00  0.00     0.173 A 
ATOM     72  F   UNL A   1      46.618  29.871  27.400  1.00  0.00    -0.203 F 
ATOM     73  C   UNL A   1      48.306  28.610  28.449  1.00  0.00     0.198 A 
ATOM     74  C   UNL A   1      47.964  27.754  30.666  1.00  0.00     0.198 A 
ATOM     75  F   UNL A   1      45.928  28.143  31.778  1.00  0.00    -0.203 F 
ATOM     76  F   UNL A   1      49.071  28.724  27.354  1.00  0.00    -0.200 F 
ATOM     77  C   UNL A   1      48.768  27.897  29.545  1.00  0.00     0.200 A 
ATOM     78  F   UNL A   1      48.415  27.075  31.729  1.00  0.00    -0.200 F 
ATOM     79  F   UNL A   1      49.987  27.339  29.518  1.00  0.00    -0.200 F 
ENDBRANCH  55  69
BRANCH  56  80
ATOM     80  C   UNL A   1      36.917  32.723  29.779  1.00  0.00     0.064 A 
ATOM     81  C   UNL A   1      36.396  33.457  28.704  1.00  0.00     0.173 A 
ATOM     82  C   UNL A   1      36.099  32.546  30.906  1.00  0.00     0.173 A 
ATOM     83  F   UNL A   1      37.149  33.675  27.616  1.00  0.00    -0.203 F 
ATOM     84  C   UNL A   1      35.116  34.006  28.761  1.00  0.00     0.198 A 
ATOM     85  C   UNL A   1      34.811  33.072  30.950  1.00  0.00     0.198 A 
ATOM     86  F   UNL A   1      36.552  31.855  31.962  1.00  0.00    -0.203 F 
ATOM     87  F   UNL A   1      34.660  34.742  27.738  1.00  0.00    -0.200 F 
ATOM     88  C   UNL A   1      34.323  33.809  29.880  1.00  0.00     0.200 A 
ATOM     89  F   UNL A   1      34.043  32.871  32.030  1.00  0.00    -0.200 F 
ATOM     90  F   UNL A   1      33.092  34.336  29.934  1.00  0.00    -0.200 F 
ENDBRANCH  56  80
BRANCH  68  91
ATOM     91  C   UNL A   1      43.142  35.247  31.635  1.00  0.00     0.064 A 
ATOM     92  C   UNL A   1      43.116  35.498  33.015  1.00  0.00     0.173 A 
ATOM     93  C   UNL A   1      43.625  36.260  30.792  1.00  0.00     0.173 A 
ATOM     94  F   UNL A   1      42.649  34.568  33.861  1.00  0.00    -0.203 F 
ATOM     95  C   UNL A   1      43.535  36.724  33.527  1.00  0.00     0.198 A 
ATOM     96  C   UNL A   1      44.071  37.472  31.311  1.00  0.00     0.198 A 
ATOM     97  F   UNL A   1      43.678  36.069  29.466  1.00  0.00    -0.203 F 
ATOM     98  F   UNL A   1      43.457  36.959  34.844  1.00  0.00    -0.200 F 
ATOM     99  C   UNL A   1      44.019  37.706  32.676  1.00  0.00     0.200 A 
ATOM    100  F   UNL A   1      44.551  38.415  30.488  1.00  0.00    -0.200 F 
ATOM    101  F   UNL A   1      44.428  38.882  33.172  1.00  0.00    -0.200 F 
ENDBRANCH  68  91
ENDBRANCH  42  43
ENDBRANCH  35  37
ENDBRANCH  34  35
ENDBRANCH  33  34
ENDBRANCH  32  33
ENDBRANCH  31  32
ENDBRANCH  30  31
ENDBRANCH   1  30
TORSDOF 20
ENDMDL
