MODEL 1
REMARK VINA RESULT:     -11.2      0.000      0.000
REMARK SMILES CC/C(C(=O)OCCOCCOC(=O)c1ccc(-c2c3nc(c(-c4c(F)c(F)c(F)c(F)c4F)c4ccc([nH]4)c(-c4c(F)c(F)c(F)c(F)c4F)c4nc(c(-c5c(F)c(F)c(F)c(F)c5F)c5ccc2[nH]5)C=C4)C=C3)cc1)=C1\CCc2ccccc21
REMARK SMILES IDX 10 1 9 2 8 3 7 4 6 5 4 6 5 7 3 8 78 9 79 10 86 11 80 12
REMARK SMILES IDX 81 13 85 14 82 15 84 16 83 17 2 18 1 19 11 20 12 21 13 22
REMARK SMILES IDX 14 23 15 24 16 25 77 26 17 27 76 28 18 29 19 30 20 31 70 32
REMARK SMILES IDX 21 33 75 34 69 35 71 36 22 37 74 38 68 39 67 40 23 42 55 43
REMARK SMILES IDX 35 44 54 45 36 46 39 47 53 48 72 49 37 50 38 51 52 53 73 54
REMARK SMILES IDX 40 55 24 56 25 57 33 58 26 59 27 60 31 61 34 62 28 63 29 64
REMARK SMILES IDX 32 65 30 66 56 67 57 68 65 69 58 70 59 71 63 72 66 73 60 74
REMARK SMILES IDX 61 75 64 76 62 77 41 78 42 79 50 80 43 81 44 82 48 83 51 84
REMARK SMILES IDX 45 85 46 86 49 87 47 88
REMARK H PARENT 71 41 39 52
REMARK Flexibility Score: inf
ROOT
ATOM      1  C   UNL A   1      31.573  31.503  26.413  1.00  0.00     0.202 C 
ENDROOT
BRANCH   1   2
ATOM      2  O   UNL A   1      32.017  30.434  27.248  1.00  0.00    -0.374 OA
BRANCH   2   3
ATOM      3  C   UNL A   1      32.603  29.306  26.593  1.00  0.00     0.202 C 
BRANCH   3   4
ATOM      4  C   UNL A   1      32.312  27.951  27.246  1.00  0.00     0.261 C 
BRANCH   4   5
ATOM      5  O   UNL A   1      31.066  27.441  26.741  1.00  0.00    -0.460 OA
BRANCH   5   6
ATOM      6  C   UNL A   1      31.100  26.280  26.065  1.00  0.00     0.334 C 
ATOM      7  O   UNL A   1      30.825  25.188  26.545  1.00  0.00    -0.247 OA
BRANCH   6   8
ATOM      8  C   UNL A   1      31.384  26.465  24.597  1.00  0.00     0.041 C 
ATOM      9  C   UNL A   1      32.384  25.897  23.876  1.00  0.00    -0.030 C 
ATOM     10  C   UNL A   1      32.372  25.781  22.352  1.00  0.00     0.041 C 
ATOM     11  C   UNL A   1      33.559  25.083  24.253  1.00  0.00    -0.019 A 
ATOM     12  C   UNL A   1      32.912  24.372  22.067  1.00  0.00     0.041 C 
ATOM     13  C   UNL A   1      33.833  24.176  23.224  1.00  0.00    -0.040 A 
ATOM     14  C   UNL A   1      34.458  25.187  25.304  1.00  0.00     0.009 A 
ATOM     15  C   UNL A   1      34.866  23.250  23.315  1.00  0.00     0.004 A 
ATOM     16  C   UNL A   1      35.516  24.276  25.404  1.00  0.00     0.001 A 
ATOM     17  C   UNL A   1      35.701  23.292  24.428  1.00  0.00     0.000 A 
BRANCH   8  18
ATOM     18  C   UNL A   1      30.326  27.359  23.957  1.00  0.00     0.040 C 
ATOM     19  C   UNL A   1      28.962  26.671  23.875  1.00  0.00     0.009 C 
ENDBRANCH   8  18
ENDBRANCH   6   8
ENDBRANCH   5   6
ENDBRANCH   4   5
ENDBRANCH   3   4
ENDBRANCH   2   3
ENDBRANCH   1   2
BRANCH   1  20
ATOM     20  C   UNL A   1      31.950  32.910  26.880  1.00  0.00     0.261 C 
BRANCH  20  21
ATOM     21  O   UNL A   1      32.839  32.870  28.007  1.00  0.00    -0.460 OA
BRANCH  21  22
ATOM     22  C   UNL A   1      33.939  33.645  27.878  1.00  0.00     0.338 C 
ATOM     23  O   UNL A   1      33.985  34.834  27.592  1.00  0.00    -0.246 OA
BRANCH  22  24
ATOM     24  C   UNL A   1      35.129  32.885  28.292  1.00  0.00     0.060 A 
ATOM     25  C   UNL A   1      34.935  31.563  28.713  1.00  0.00     0.016 A 
ATOM     26  C   UNL A   1      36.398  33.466  28.328  1.00  0.00     0.016 A 
ATOM     27  C   UNL A   1      36.004  30.832  29.222  1.00  0.00     0.010 A 
ATOM     28  C   UNL A   1      37.469  32.732  28.842  1.00  0.00     0.010 A 
ATOM     29  C   UNL A   1      37.269  31.426  29.326  1.00  0.00    -0.014 A 
BRANCH  29  30
ATOM     30  C   UNL A   1      38.345  30.732  30.071  1.00  0.00     0.031 A 
ATOM     31  C   UNL A   1      38.563  31.075  31.519  1.00  0.00     0.074 A 
ATOM     32  C   UNL A   1      39.100  29.793  29.475  1.00  0.00     0.049 A 
ATOM     33  N   UNL A   1      39.468  30.627  32.353  1.00  0.00    -0.248 NA
ATOM     34  C   UNL A   1      37.636  32.055  32.106  1.00  0.00     0.031 C 
ATOM     35  C   UNL A   1      38.952  29.345  28.092  1.00  0.00     0.029 A 
ATOM     36  N   UNL A   1      40.146  29.051  29.961  1.00  0.00    -0.354 N 
ATOM     37  C   UNL A   1      39.225  31.276  33.556  1.00  0.00     0.074 A 
ATOM     38  C   UNL A   1      38.111  32.174  33.337  1.00  0.00     0.031 C 
ATOM     39  C   UNL A   1      39.882  28.410  27.837  1.00  0.00     0.029 A 
ATOM     40  C   UNL A   1      40.709  28.220  29.027  1.00  0.00     0.049 A 
ATOM     41  H   UNL A   1      40.462  29.109  30.892  1.00  0.00     0.167 HD
ATOM     42  C   UNL A   1      39.864  31.127  34.740  1.00  0.00     0.037 A 
ATOM     43  C   UNL A   1      41.785  27.413  29.119  1.00  0.00     0.037 A 
ATOM     44  C   UNL A   1      40.971  30.230  34.953  1.00  0.00     0.049 A 
ATOM     45  C   UNL A   1      42.530  27.324  30.427  1.00  0.00     0.074 A 
ATOM     46  C   UNL A   1      41.676  29.992  36.120  1.00  0.00     0.029 A 
ATOM     47  N   UNL A   1      41.538  29.430  33.973  1.00  0.00    -0.354 N 
ATOM     48  N   UNL A   1      42.280  27.920  31.567  1.00  0.00    -0.248 NA
ATOM     49  C   UNL A   1      43.709  26.446  30.458  1.00  0.00     0.031 C 
ATOM     50  C   UNL A   1      42.706  29.091  35.832  1.00  0.00     0.029 A 
ATOM     51  C   UNL A   1      42.603  28.719  34.500  1.00  0.00     0.049 A 
ATOM     52  H   UNL A   1      41.229  29.375  33.040  1.00  0.00     0.167 HD
ATOM     53  C   UNL A   1      43.243  27.466  32.457  1.00  0.00     0.074 A 
ATOM     54  C   UNL A   1      44.078  26.535  31.728  1.00  0.00     0.031 C 
ATOM     55  C   UNL A   1      43.419  27.788  33.763  1.00  0.00     0.037 A 
BRANCH  42  56
ATOM     56  C   UNL A   1      39.400  31.972  35.892  1.00  0.00     0.064 A 
ATOM     57  C   UNL A   1      38.392  31.540  36.767  1.00  0.00     0.173 A 
ATOM     58  C   UNL A   1      39.995  33.219  36.141  1.00  0.00     0.173 A 
ATOM     59  F   UNL A   1      37.782  30.362  36.566  1.00  0.00    -0.203 F 
ATOM     60  C   UNL A   1      37.977  32.337  37.831  1.00  0.00     0.198 A 
ATOM     61  C   UNL A   1      39.599  33.998  37.225  1.00  0.00     0.198 A 
ATOM     62  F   UNL A   1      40.965  33.678  35.338  1.00  0.00    -0.203 F 
ATOM     63  F   UNL A   1      36.977  31.926  38.624  1.00  0.00    -0.200 F 
ATOM     64  C   UNL A   1      38.586  33.561  38.063  1.00  0.00     0.200 A 
ATOM     65  F   UNL A   1      40.198  35.175  37.455  1.00  0.00    -0.200 F 
ATOM     66  F   UNL A   1      38.189  34.324  39.092  1.00  0.00    -0.200 F 
ENDBRANCH  42  56
BRANCH  43  67
ATOM     67  C   UNL A   1      42.229  26.629  27.936  1.00  0.00     0.064 A 
ATOM     68  C   UNL A   1      43.148  27.159  27.020  1.00  0.00     0.173 A 
ATOM     69  C   UNL A   1      41.731  25.341  27.689  1.00  0.00     0.173 A 
ATOM     70  F   UNL A   1      43.633  28.397  27.201  1.00  0.00    -0.203 F 
ATOM     71  C   UNL A   1      43.534  26.441  25.891  1.00  0.00     0.198 A 
ATOM     72  C   UNL A   1      42.141  24.611  26.575  1.00  0.00     0.198 A 
ATOM     73  F   UNL A   1      40.848  24.787  28.534  1.00  0.00    -0.203 F 
ATOM     74  F   UNL A   1      44.375  26.992  25.005  1.00  0.00    -0.200 F 
ATOM     75  C   UNL A   1      43.036  25.165  25.672  1.00  0.00     0.200 A 
ATOM     76  F   UNL A   1      41.666  23.374  26.375  1.00  0.00    -0.200 F 
ATOM     77  F   UNL A   1      43.410  24.474  24.587  1.00  0.00    -0.200 F 
ENDBRANCH  43  67
BRANCH  55  78
ATOM     78  C   UNL A   1      44.531  27.099  34.504  1.00  0.00     0.064 A 
ATOM     79  C   UNL A   1      45.818  27.650  34.586  1.00  0.00     0.173 A 
ATOM     80  C   UNL A   1      44.290  25.893  35.181  1.00  0.00     0.173 A 
ATOM     81  F   UNL A   1      46.104  28.793  33.944  1.00  0.00    -0.203 F 
ATOM     82  C   UNL A   1      46.828  27.008  35.297  1.00  0.00     0.198 A 
ATOM     83  C   UNL A   1      45.293  25.270  35.918  1.00  0.00     0.198 A 
ATOM     84  F   UNL A   1      43.074  25.327  35.142  1.00  0.00    -0.203 F 
ATOM     85  F   UNL A   1      48.063  27.528  35.321  1.00  0.00    -0.200 F 
ATOM     86  C   UNL A   1      46.563  25.824  35.969  1.00  0.00     0.200 A 
ATOM     87  F   UNL A   1      45.030  24.135  36.581  1.00  0.00    -0.200 F 
ATOM     88  F   UNL A   1      47.534  25.212  36.662  1.00  0.00    -0.200 F 
ENDBRANCH  55  78
ENDBRANCH  29  30
ENDBRANCH  22  24
ENDBRANCH  21  22
ENDBRANCH  20  21
ENDBRANCH   1  20
TORSDOF 15
ENDMDL
MODEL 2
REMARK VINA RESULT:     -11.1      1.571      8.130
REMARK SMILES CC/C(C(=O)OCCOCCOC(=O)c1ccc(-c2c3nc(c(-c4c(F)c(F)c(F)c(F)c4F)c4ccc([nH]4)c(-c4c(F)c(F)c(F)c(F)c4F)c4nc(c(-c5c(F)c(F)c(F)c(F)c5F)c5ccc2[nH]5)C=C4)C=C3)cc1)=C1\CCc2ccccc21
REMARK SMILES IDX 10 1 9 2 8 3 7 4 6 5 4 6 5 7 3 8 78 9 79 10 86 11 80 12
REMARK SMILES IDX 81 13 85 14 82 15 84 16 83 17 2 18 1 19 11 20 12 21 13 22
REMARK SMILES IDX 14 23 15 24 16 25 77 26 17 27 76 28 18 29 19 30 20 31 70 32
REMARK SMILES IDX 21 33 75 34 69 35 71 36 22 37 74 38 68 39 67 40 23 42 55 43
REMARK SMILES IDX 35 44 54 45 36 46 39 47 53 48 72 49 37 50 38 51 52 53 73 54
REMARK SMILES IDX 40 55 24 56 25 57 33 58 26 59 27 60 31 61 34 62 28 63 29 64
REMARK SMILES IDX 32 65 30 66 56 67 57 68 65 69 58 70 59 71 63 72 66 73 60 74
REMARK SMILES IDX 61 75 64 76 62 77 41 78 42 79 50 80 43 81 44 82 48 83 51 84
REMARK SMILES IDX 45 85 46 86 49 87 47 88
REMARK H PARENT 71 41 39 52
REMARK Flexibility Score: inf
ROOT
ATOM      1  C   UNL A   1      33.238  29.036  24.615  1.00  0.00     0.202 C 
ENDROOT
BRANCH   1   2
ATOM      2  O   UNL A   1      33.620  29.444  23.303  1.00  0.00    -0.374 OA
BRANCH   2   3
ATOM      3  C   UNL A   1      34.028  28.412  22.400  1.00  0.00     0.202 C 
BRANCH   3   4
ATOM      4  C   UNL A   1      33.943  26.988  22.959  1.00  0.00     0.261 C 
BRANCH   4   5
ATOM      5  O   UNL A   1      33.503  26.097  21.920  1.00  0.00    -0.460 OA
BRANCH   5   6
ATOM      6  C   UNL A   1      32.181  26.014  21.694  1.00  0.00     0.334 C 
ATOM      7  O   UNL A   1      31.668  25.953  20.584  1.00  0.00    -0.247 OA
BRANCH   6   8
ATOM      8  C   UNL A   1      31.379  25.864  22.960  1.00  0.00     0.041 C 
ATOM      9  C   UNL A   1      30.348  26.643  23.376  1.00  0.00    -0.030 C 
ATOM     10  C   UNL A   1      29.321  26.206  24.421  1.00  0.00     0.041 C 
ATOM     11  C   UNL A   1      29.777  27.910  22.872  1.00  0.00    -0.019 A 
ATOM     12  C   UNL A   1      27.975  26.702  23.873  1.00  0.00     0.041 C 
ATOM     13  C   UNL A   1      28.400  27.920  23.123  1.00  0.00    -0.040 A 
ATOM     14  C   UNL A   1      30.371  29.064  22.384  1.00  0.00     0.009 A 
ATOM     15  C   UNL A   1      27.587  28.975  22.724  1.00  0.00     0.004 A 
ATOM     16  C   UNL A   1      29.572  30.144  21.994  1.00  0.00     0.001 A 
ATOM     17  C   UNL A   1      28.183  30.087  22.135  1.00  0.00     0.000 A 
BRANCH   8  18
ATOM     18  C   UNL A   1      31.832  24.631  23.738  1.00  0.00     0.040 C 
ATOM     19  C   UNL A   1      31.232  23.342  23.175  1.00  0.00     0.009 C 
ENDBRANCH   8  18
ENDBRANCH   6   8
ENDBRANCH   5   6
ENDBRANCH   4   5
ENDBRANCH   3   4
ENDBRANCH   2   3
ENDBRANCH   1   2
BRANCH   1  20
ATOM     20  C   UNL A   1      32.340  30.012  25.379  1.00  0.00     0.261 C 
BRANCH  20  21
ATOM     21  O   UNL A   1      32.681  30.058  26.774  1.00  0.00    -0.460 OA
BRANCH  21  22
ATOM     22  C   UNL A   1      33.265  31.212  27.167  1.00  0.00     0.338 C 
ATOM     23  O   UNL A   1      32.761  32.327  27.207  1.00  0.00    -0.246 OA
BRANCH  22  24
ATOM     24  C   UNL A   1      34.602  30.928  27.711  1.00  0.00     0.060 A 
ATOM     25  C   UNL A   1      34.914  29.591  27.988  1.00  0.00     0.016 A 
ATOM     26  C   UNL A   1      35.511  31.947  28.001  1.00  0.00     0.016 A 
ATOM     27  C   UNL A   1      36.119  29.273  28.608  1.00  0.00     0.010 A 
ATOM     28  C   UNL A   1      36.718  31.627  28.627  1.00  0.00     0.010 A 
ATOM     29  C   UNL A   1      37.011  30.293  28.966  1.00  0.00    -0.014 A 
BRANCH  29  30
ATOM     30  C   UNL A   1      38.177  29.979  29.823  1.00  0.00     0.031 A 
ATOM     31  C   UNL A   1      39.234  29.048  29.299  1.00  0.00     0.074 A 
ATOM     32  C   UNL A   1      38.305  30.535  31.041  1.00  0.00     0.049 A 
ATOM     33  N   UNL A   1      40.315  28.600  29.887  1.00  0.00    -0.248 NA
ATOM     34  C   UNL A   1      39.048  28.553  27.926  1.00  0.00     0.031 C 
ATOM     35  C   UNL A   1      37.369  31.484  31.637  1.00  0.00     0.029 A 
ATOM     36  N   UNL A   1      39.277  30.372  31.995  1.00  0.00    -0.354 N 
ATOM     37  C   UNL A   1      40.930  27.768  28.961  1.00  0.00     0.074 A 
ATOM     38  C   UNL A   1      40.087  27.743  27.786  1.00  0.00     0.031 C 
ATOM     39  C   UNL A   1      37.808  31.815  32.863  1.00  0.00     0.029 A 
ATOM     40  C   UNL A   1      39.035  31.074  33.149  1.00  0.00     0.049 A 
ATOM     41  H   UNL A   1      40.072  29.806  31.865  1.00  0.00     0.167 HD
ATOM     42  C   UNL A   1      42.100  27.094  29.076  1.00  0.00     0.037 A 
ATOM     43  C   UNL A   1      39.718  31.098  34.310  1.00  0.00     0.037 A 
ATOM     44  C   UNL A   1      42.936  27.124  30.248  1.00  0.00     0.049 A 
ATOM     45  C   UNL A   1      40.976  30.276  34.442  1.00  0.00     0.074 A 
ATOM     46  C   UNL A   1      44.149  26.492  30.459  1.00  0.00     0.029 A 
ATOM     47  N   UNL A   1      42.641  27.819  31.412  1.00  0.00    -0.354 N 
ATOM     48  N   UNL A   1      41.566  29.513  33.555  1.00  0.00    -0.248 NA
ATOM     49  C   UNL A   1      41.664  30.324  35.741  1.00  0.00     0.031 C 
ATOM     50  C   UNL A   1      44.559  26.758  31.769  1.00  0.00     0.029 A 
ATOM     51  C   UNL A   1      43.633  27.607  32.354  1.00  0.00     0.049 A 
ATOM     52  H   UNL A   1      41.843  28.380  31.547  1.00  0.00     0.167 HD
ATOM     53  C   UNL A   1      42.707  29.018  34.172  1.00  0.00     0.074 A 
ATOM     54  C   UNL A   1      42.734  29.577  35.507  1.00  0.00     0.031 C 
ATOM     55  C   UNL A   1      43.650  28.179  33.677  1.00  0.00     0.037 A 
BRANCH  42  56
ATOM     56  C   UNL A   1      42.531  26.247  27.914  1.00  0.00     0.064 A 
ATOM     57  C   UNL A   1      43.436  26.718  26.951  1.00  0.00     0.173 A 
ATOM     58  C   UNL A   1      42.055  24.933  27.780  1.00  0.00     0.173 A 
ATOM     59  F   UNL A   1      43.910  27.971  27.026  1.00  0.00    -0.203 F 
ATOM     60  C   UNL A   1      43.826  25.916  25.882  1.00  0.00     0.198 A 
ATOM     61  C   UNL A   1      42.473  24.124  26.727  1.00  0.00     0.198 A 
ATOM     62  F   UNL A   1      41.192  24.432  28.675  1.00  0.00    -0.203 F 
ATOM     63  F   UNL A   1      44.652  26.405  24.945  1.00  0.00    -0.200 F 
ATOM     64  C   UNL A   1      43.350  24.617  25.775  1.00  0.00     0.200 A 
ATOM     65  F   UNL A   1      42.022  22.864  26.634  1.00  0.00    -0.200 F 
ATOM     66  F   UNL A   1      43.732  23.845  24.748  1.00  0.00    -0.200 F 
ENDBRANCH  42  56
BRANCH  43  67
ATOM     67  C   UNL A   1      39.226  31.921  35.446  1.00  0.00     0.064 A 
ATOM     68  C   UNL A   1      38.404  31.368  36.437  1.00  0.00     0.173 A 
ATOM     69  C   UNL A   1      39.552  33.281  35.553  1.00  0.00     0.173 A 
ATOM     70  F   UNL A   1      38.043  30.078  36.364  1.00  0.00    -0.203 F 
ATOM     71  C   UNL A   1      37.909  32.149  37.479  1.00  0.00     0.198 A 
ATOM     72  C   UNL A   1      39.082  34.054  36.613  1.00  0.00     0.198 A 
ATOM     73  F   UNL A   1      40.335  33.861  34.631  1.00  0.00    -0.203 F 
ATOM     74  F   UNL A   1      37.084  31.606  38.386  1.00  0.00    -0.200 F 
ATOM     75  C   UNL A   1      38.253  33.489  37.571  1.00  0.00     0.200 A 
ATOM     76  F   UNL A   1      39.428  35.345  36.703  1.00  0.00    -0.200 F 
ATOM     77  F   UNL A   1      37.779  34.238  38.575  1.00  0.00    -0.200 F 
ENDBRANCH  43  67
BRANCH  55  78
ATOM     78  C   UNL A   1      44.816  27.844  34.565  1.00  0.00     0.064 A 
ATOM     79  C   UNL A   1      44.808  26.720  35.403  1.00  0.00     0.173 A 
ATOM     80  C   UNL A   1      45.975  28.634  34.539  1.00  0.00     0.173 A 
ATOM     81  F   UNL A   1      43.719  25.940  35.476  1.00  0.00    -0.203 F 
ATOM     82  C   UNL A   1      45.908  26.414  36.201  1.00  0.00     0.198 A 
ATOM     83  C   UNL A   1      47.086  28.307  35.312  1.00  0.00     0.198 A 
ATOM     84  F   UNL A   1      46.039  29.717  33.748  1.00  0.00    -0.203 F 
ATOM     85  F   UNL A   1      45.860  25.363  37.030  1.00  0.00    -0.200 F 
ATOM     86  C   UNL A   1      47.048  27.202  36.148  1.00  0.00     0.200 A 
ATOM     87  F   UNL A   1      48.192  29.061  35.247  1.00  0.00    -0.200 F 
ATOM     88  F   UNL A   1      48.110  26.900  36.909  1.00  0.00    -0.200 F 
ENDBRANCH  55  78
ENDBRANCH  29  30
ENDBRANCH  22  24
ENDBRANCH  21  22
ENDBRANCH  20  21
ENDBRANCH   1  20
TORSDOF 15
ENDMDL
MODEL 3
REMARK VINA RESULT:     -11.1      1.329      2.453
REMARK SMILES CC/C(C(=O)OCCOCCOC(=O)c1ccc(-c2c3nc(c(-c4c(F)c(F)c(F)c(F)c4F)c4ccc([nH]4)c(-c4c(F)c(F)c(F)c(F)c4F)c4nc(c(-c5c(F)c(F)c(F)c(F)c5F)c5ccc2[nH]5)C=C4)C=C3)cc1)=C1\CCc2ccccc21
REMARK SMILES IDX 10 1 9 2 8 3 7 4 6 5 4 6 5 7 3 8 78 9 79 10 86 11 80 12
REMARK SMILES IDX 81 13 85 14 82 15 84 16 83 17 2 18 1 19 11 20 12 21 13 22
REMARK SMILES IDX 14 23 15 24 16 25 77 26 17 27 76 28 18 29 19 30 20 31 70 32
REMARK SMILES IDX 21 33 75 34 69 35 71 36 22 37 74 38 68 39 67 40 23 42 55 43
REMARK SMILES IDX 35 44 54 45 36 46 39 47 53 48 72 49 37 50 38 51 52 53 73 54
REMARK SMILES IDX 40 55 24 56 25 57 33 58 26 59 27 60 31 61 34 62 28 63 29 64
REMARK SMILES IDX 32 65 30 66 56 67 57 68 65 69 58 70 59 71 63 72 66 73 60 74
REMARK SMILES IDX 61 75 64 76 62 77 41 78 42 79 50 80 43 81 44 82 48 83 51 84
REMARK SMILES IDX 45 85 46 86 49 87 47 88
REMARK H PARENT 71 41 39 52
REMARK Flexibility Score: inf
ROOT
ATOM      1  C   UNL A   1      31.625  29.950  25.258  1.00  0.00     0.202 C 
ENDROOT
BRANCH   1   2
ATOM      2  O   UNL A   1      31.420  28.602  25.677  1.00  0.00    -0.374 OA
BRANCH   2   3
ATOM      3  C   UNL A   1      32.280  27.612  25.106  1.00  0.00     0.202 C 
BRANCH   3   4
ATOM      4  C   UNL A   1      32.787  26.549  26.085  1.00  0.00     0.261 C 
BRANCH   4   5
ATOM      5  O   UNL A   1      34.037  26.023  25.607  1.00  0.00    -0.460 OA
BRANCH   5   6
ATOM      6  C   UNL A   1      34.257  24.706  25.765  1.00  0.00     0.334 C 
ATOM      7  O   UNL A   1      33.865  24.046  26.719  1.00  0.00    -0.247 OA
BRANCH   6   8
ATOM      8  C   UNL A   1      34.927  24.077  24.572  1.00  0.00     0.041 C 
ATOM      9  C   UNL A   1      36.163  23.518  24.525  1.00  0.00    -0.030 C 
ATOM     10  C   UNL A   1      36.612  22.540  23.439  1.00  0.00     0.041 C 
ATOM     11  C   UNL A   1      37.278  23.460  25.493  1.00  0.00    -0.019 A 
ATOM     12  C   UNL A   1      37.403  21.461  24.191  1.00  0.00     0.041 C 
ATOM     13  C   UNL A   1      37.965  22.252  25.325  1.00  0.00    -0.040 A 
ATOM     14  C   UNL A   1      37.809  24.411  26.351  1.00  0.00     0.009 A 
ATOM     15  C   UNL A   1      39.045  21.902  26.126  1.00  0.00     0.004 A 
ATOM     16  C   UNL A   1      38.908  24.084  27.154  1.00  0.00     0.001 A 
ATOM     17  C   UNL A   1      39.504  22.823  27.063  1.00  0.00     0.000 A 
BRANCH   8  18
ATOM     18  C   UNL A   1      33.987  24.076  23.369  1.00  0.00     0.040 C 
ATOM     19  C   UNL A   1      33.058  22.862  23.364  1.00  0.00     0.009 C 
ENDBRANCH   8  18
ENDBRANCH   6   8
ENDBRANCH   5   6
ENDBRANCH   4   5
ENDBRANCH   3   4
ENDBRANCH   2   3
ENDBRANCH   1   2
BRANCH   1  20
ATOM     20  C   UNL A   1      31.773  30.980  26.380  1.00  0.00     0.261 C 
BRANCH  20  21
ATOM     21  O   UNL A   1      32.876  30.663  27.242  1.00  0.00    -0.460 OA
BRANCH  21  22
ATOM     22  C   UNL A   1      33.653  31.721  27.565  1.00  0.00     0.338 C 
ATOM     23  O   UNL A   1      33.324  32.898  27.625  1.00  0.00    -0.246 OA
BRANCH  22  24
ATOM     24  C   UNL A   1      34.974  31.246  28.006  1.00  0.00     0.060 A 
ATOM     25  C   UNL A   1      35.094  29.891  28.341  1.00  0.00     0.016 A 
ATOM     26  C   UNL A   1      36.059  32.113  28.148  1.00  0.00     0.016 A 
ATOM     27  C   UNL A   1      36.286  29.409  28.871  1.00  0.00     0.010 A 
ATOM     28  C   UNL A   1      37.255  31.629  28.684  1.00  0.00     0.010 A 
ATOM     29  C   UNL A   1      37.361  30.283  29.082  1.00  0.00    -0.014 A 
BRANCH  29  30
ATOM     30  C   UNL A   1      38.540  29.822  29.850  1.00  0.00     0.031 A 
ATOM     31  C   UNL A   1      38.749  30.344  31.245  1.00  0.00     0.074 A 
ATOM     32  C   UNL A   1      39.400  28.933  29.323  1.00  0.00     0.049 A 
ATOM     33  N   UNL A   1      39.728  30.113  32.082  1.00  0.00    -0.248 NA
ATOM     34  C   UNL A   1      37.713  31.251  31.765  1.00  0.00     0.031 C 
ATOM     35  C   UNL A   1      39.278  28.324  28.001  1.00  0.00     0.029 A 
ATOM     36  N   UNL A   1      40.550  28.393  29.840  1.00  0.00    -0.354 N 
ATOM     37  C   UNL A   1      39.431  30.849  33.221  1.00  0.00     0.074 A 
ATOM     38  C   UNL A   1      38.200  31.562  32.957  1.00  0.00     0.031 C 
ATOM     39  C   UNL A   1      40.320  27.499  27.805  1.00  0.00     0.029 A 
ATOM     40  C   UNL A   1      41.196  27.548  28.973  1.00  0.00     0.049 A 
ATOM     41  H   UNL A   1      40.880  28.593  30.745  1.00  0.00     0.167 HD
ATOM     42  C   UNL A   1      40.117  30.915  34.388  1.00  0.00     0.037 A 
ATOM     43  C   UNL A   1      42.374  26.906  29.103  1.00  0.00     0.037 A 
ATOM     44  C   UNL A   1      41.340  30.200  34.646  1.00  0.00     0.049 A 
ATOM     45  C   UNL A   1      43.159  27.058  30.382  1.00  0.00     0.074 A 
ATOM     46  C   UNL A   1      42.102  30.184  35.801  1.00  0.00     0.029 A 
ATOM     47  N   UNL A   1      41.984  29.381  33.731  1.00  0.00    -0.354 N 
ATOM     48  N   UNL A   1      42.860  27.734  31.464  1.00  0.00    -0.248 NA
ATOM     49  C   UNL A   1      44.447  26.352  30.455  1.00  0.00     0.031 C 
ATOM     50  C   UNL A   1      43.237  29.402  35.565  1.00  0.00     0.029 A 
ATOM     51  C   UNL A   1      43.151  28.879  34.284  1.00  0.00     0.049 A 
ATOM     52  H   UNL A   1      41.661  29.187  32.822  1.00  0.00     0.167 HD
ATOM     53  C   UNL A   1      43.900  27.510  32.356  1.00  0.00     0.074 A 
ATOM     54  C   UNL A   1      44.835  26.625  31.693  1.00  0.00     0.031 C 
ATOM     55  C   UNL A   1      44.066  27.990  33.613  1.00  0.00     0.037 A 
BRANCH  42  56
ATOM     56  C   UNL A   1      39.572  31.809  35.465  1.00  0.00     0.064 A 
ATOM     57  C   UNL A   1      40.001  33.137  35.610  1.00  0.00     0.173 A 
ATOM     58  C   UNL A   1      38.585  31.338  36.344  1.00  0.00     0.173 A 
ATOM     59  F   UNL A   1      40.953  33.631  34.804  1.00  0.00    -0.203 F 
ATOM     60  C   UNL A   1      39.483  33.951  36.614  1.00  0.00     0.198 A 
ATOM     61  C   UNL A   1      38.046  32.166  37.325  1.00  0.00     0.198 A 
ATOM     62  F   UNL A   1      38.136  30.079  36.246  1.00  0.00    -0.203 F 
ATOM     63  F   UNL A   1      39.944  35.200  36.766  1.00  0.00    -0.200 F 
ATOM     64  C   UNL A   1      38.500  33.467  37.465  1.00  0.00     0.200 A 
ATOM     65  F   UNL A   1      37.087  31.701  38.138  1.00  0.00    -0.200 F 
ATOM     66  F   UNL A   1      37.998  34.255  38.426  1.00  0.00    -0.200 F 
ENDBRANCH  42  56
BRANCH  43  67
ATOM     67  C   UNL A   1      42.889  26.066  27.991  1.00  0.00     0.064 A 
ATOM     68  C   UNL A   1      43.669  26.620  26.966  1.00  0.00     0.173 A 
ATOM     69  C   UNL A   1      42.598  24.695  27.919  1.00  0.00     0.173 A 
ATOM     70  F   UNL A   1      43.953  27.931  26.977  1.00  0.00    -0.203 F 
ATOM     71  C   UNL A   1      44.118  25.841  25.903  1.00  0.00     0.198 A 
ATOM     72  C   UNL A   1      43.073  23.911  26.870  1.00  0.00     0.198 A 
ATOM     73  F   UNL A   1      41.855  24.114  28.873  1.00  0.00    -0.203 F 
ATOM     74  F   UNL A   1      44.820  26.408  24.911  1.00  0.00    -0.200 F 
ATOM     75  C   UNL A   1      43.826  24.486  25.858  1.00  0.00     0.200 A 
ATOM     76  F   UNL A   1      42.798  22.600  26.839  1.00  0.00    -0.200 F 
ATOM     77  F   UNL A   1      44.261  23.737  24.835  1.00  0.00    -0.200 F 
ENDBRANCH  43  67
BRANCH  55  78
ATOM     78  C   UNL A   1      45.281  27.538  34.375  1.00  0.00     0.064 A 
ATOM     79  C   UNL A   1      46.478  28.268  34.358  1.00  0.00     0.173 A 
ATOM     80  C   UNL A   1      45.228  26.384  35.171  1.00  0.00     0.173 A 
ATOM     81  F   UNL A   1      46.585  29.372  33.602  1.00  0.00    -0.203 F 
ATOM     82  C   UNL A   1      47.585  27.846  35.089  1.00  0.00     0.198 A 
ATOM     83  C   UNL A   1      46.325  25.982  35.927  1.00  0.00     0.198 A 
ATOM     84  F   UNL A   1      44.104  25.653  35.230  1.00  0.00    -0.203 F 
ATOM     85  F   UNL A   1      48.734  28.531  35.019  1.00  0.00    -0.200 F 
ATOM     86  C   UNL A   1      47.505  26.708  35.879  1.00  0.00     0.200 A 
ATOM     87  F   UNL A   1      46.241  24.892  36.703  1.00  0.00    -0.200 F 
ATOM     88  F   UNL A   1      48.569  26.308  36.591  1.00  0.00    -0.200 F 
ENDBRANCH  55  78
ENDBRANCH  29  30
ENDBRANCH  22  24
ENDBRANCH  21  22
ENDBRANCH  20  21
ENDBRANCH   1  20
TORSDOF 15
ENDMDL
