MODEL 1
REMARK VINA RESULT:     -11.6      0.000      0.000
REMARK SMILES CCCCN(c1ccccc1C(=O)OCCOCCOC(=O)c1ccc(-c2c3nc(c(-c4c(F)c(F)c(F)c(F)c4F)c4ccc([nH]4)c(-c4c(F)c(F)c(F)c(F)c4F)c4nc(c(-c5c(F)c(F)c(F)c(F)c5F)c5ccc2[nH]5)C=C4)C=C3)cc1)S(=O)(=O)c1ccc2c(c1)oc(=O)n2C
REMARK SMILES IDX 16 1 15 2 14 3 12 4 13 5 11 6 6 7 7 8 8 9 10 10 9 11 5 12
REMARK SMILES IDX 4 13 3 14 2 15 1 16 86 17 87 18 88 19 89 20 90 21 94 22
REMARK SMILES IDX 91 23 93 24 92 25 95 26 98 27 96 28 99 29 97 30 17 31 18 32
REMARK SMILES IDX 19 33 20 34 21 35 22 36 23 37 24 38 85 39 25 40 84 41 26 42
REMARK SMILES IDX 27 43 28 44 78 45 29 46 83 47 77 48 79 49 30 50 82 51 76 52
REMARK SMILES IDX 75 53 31 55 63 56 43 57 62 58 44 59 47 60 61 61 80 62 45 63
REMARK SMILES IDX 46 64 60 66 81 67 48 68 32 69 33 70 41 71 34 72 35 73 39 74
REMARK SMILES IDX 42 75 36 76 37 77 40 78 38 79 64 80 65 81 73 82 66 83 67 84
REMARK SMILES IDX 71 85 74 86 68 87 69 88 72 89 70 90 49 91 50 92 58 93 51 94
REMARK SMILES IDX 52 95 56 96 59 97 53 98 54 99 57 100 55 101
REMARK H PARENT 79 54 47 65
REMARK Flexibility Score: inf
ROOT
ATOM      1  C   UNL A   1      33.661  30.279  26.893  1.00  0.00     0.202 C 
ENDROOT
BRANCH   1   2
ATOM      2  C   UNL A   1      33.704  28.928  26.177  1.00  0.00     0.261 C 
BRANCH   2   3
ATOM      3  O   UNL A   1      33.222  27.856  27.005  1.00  0.00    -0.460 OA
BRANCH   3   4
ATOM      4  C   UNL A   1      31.923  27.540  26.805  1.00  0.00     0.340 C 
ATOM      5  O   UNL A   1      31.046  27.503  27.656  1.00  0.00    -0.246 OA
BRANCH   4   6
ATOM      6  C   UNL A   1      31.598  27.356  25.378  1.00  0.00     0.084 A 
ATOM      7  C   UNL A   1      31.655  26.144  24.664  1.00  0.00     0.066 A 
ATOM      8  C   UNL A   1      30.881  26.084  23.491  1.00  0.00     0.028 A 
ATOM      9  C   UNL A   1      30.263  27.211  22.934  1.00  0.00     0.002 A 
ATOM     10  C   UNL A   1      30.963  28.491  24.822  1.00  0.00     0.018 A 
ATOM     11  C   UNL A   1      30.338  28.430  23.583  1.00  0.00     0.001 A 
BRANCH   7  12
ATOM     12  N   UNL A   1      32.398  24.937  25.012  1.00  0.00    -0.265 N 
BRANCH  12  13
ATOM     13  C   UNL A   1      33.550  24.492  24.169  1.00  0.00     0.136 C 
BRANCH  13  14
ATOM     14  C   UNL A   1      34.950  24.712  24.749  1.00  0.00     0.022 C 
BRANCH  14  15
ATOM     15  C   UNL A   1      36.029  23.650  24.519  1.00  0.00    -0.002 C 
ATOM     16  C   UNL A   1      37.105  23.581  25.586  1.00  0.00     0.004 C 
ENDBRANCH  14  15
ENDBRANCH  13  14
ENDBRANCH  12  13
BRANCH  12  17
ATOM     17  S   UNL A   1      31.630  23.682  25.914  1.00  0.00     0.264 S 
ATOM     18  O   UNL A   1      31.929  23.890  27.317  1.00  0.00    -0.201 OA
ATOM     19  O   UNL A   1      30.256  23.616  25.458  1.00  0.00    -0.201 OA
BRANCH  17  20
ATOM     20  C   UNL A   1      32.328  22.085  25.528  1.00  0.00     0.091 A 
ATOM     21  C   UNL A   1      33.528  21.680  26.166  1.00  0.00     0.025 A 
ATOM     22  C   UNL A   1      31.793  21.344  24.468  1.00  0.00     0.071 A 
ATOM     23  C   UNL A   1      34.141  20.468  25.833  1.00  0.00     0.032 A 
ATOM     24  C   UNL A   1      32.444  20.175  24.137  1.00  0.00     0.157 A 
ATOM     25  C   UNL A   1      33.568  19.738  24.816  1.00  0.00     0.090 A 
ATOM     26  O   UNL A   1      32.067  19.314  23.118  1.00  0.00    -0.408 OA
ATOM     27  N   UNL A   1      33.902  18.533  24.251  1.00  0.00    -0.277 N 
ATOM     28  C   UNL A   1      33.009  18.281  23.230  1.00  0.00     0.419 A 
ATOM     29  C   UNL A   1      34.929  17.629  24.682  1.00  0.00     0.157 C 
ATOM     30  O   UNL A   1      33.000  17.290  22.508  1.00  0.00    -0.223 OA
ENDBRANCH  17  20
ENDBRANCH  12  17
ENDBRANCH   7  12
ENDBRANCH   4   6
ENDBRANCH   3   4
ENDBRANCH   2   3
ENDBRANCH   1   2
BRANCH   1  31
ATOM     31  O   UNL A   1      32.412  30.729  27.405  1.00  0.00    -0.374 OA
BRANCH  31  32
ATOM     32  C   UNL A   1      31.712  31.750  26.702  1.00  0.00     0.202 C 
BRANCH  32  33
ATOM     33  C   UNL A   1      32.186  33.209  26.815  1.00  0.00     0.261 C 
BRANCH  33  34
ATOM     34  O   UNL A   1      32.346  33.711  28.154  1.00  0.00    -0.460 OA
BRANCH  34  35
ATOM     35  C   UNL A   1      33.507  34.383  28.355  1.00  0.00     0.338 C 
ATOM     36  O   UNL A   1      33.660  35.592  28.412  1.00  0.00    -0.246 OA
BRANCH  35  37
ATOM     37  C   UNL A   1      34.619  33.461  28.648  1.00  0.00     0.060 A 
ATOM     38  C   UNL A   1      34.373  32.390  29.518  1.00  0.00     0.016 A 
ATOM     39  C   UNL A   1      35.917  33.752  28.233  1.00  0.00     0.016 A 
ATOM     40  C   UNL A   1      35.434  31.636  30.015  1.00  0.00     0.010 A 
ATOM     41  C   UNL A   1      36.981  32.993  28.735  1.00  0.00     0.010 A 
ATOM     42  C   UNL A   1      36.750  31.958  29.661  1.00  0.00    -0.014 A 
BRANCH  42  43
ATOM     43  C   UNL A   1      37.883  31.293  30.354  1.00  0.00     0.031 A 
ATOM     44  C   UNL A   1      38.261  31.727  31.742  1.00  0.00     0.074 A 
ATOM     45  C   UNL A   1      38.564  30.298  29.759  1.00  0.00     0.049 A 
ATOM     46  N   UNL A   1      39.234  31.303  32.510  1.00  0.00    -0.248 NA
ATOM     47  C   UNL A   1      37.427  32.773  32.351  1.00  0.00     0.031 C 
ATOM     48  C   UNL A   1      38.260  29.747  28.443  1.00  0.00     0.029 A 
ATOM     49  N   UNL A   1      39.664  29.589  30.172  1.00  0.00    -0.354 N 
ATOM     50  C   UNL A   1      39.133  32.034  33.686  1.00  0.00     0.074 A 
ATOM     51  C   UNL A   1      38.029  32.956  33.516  1.00  0.00     0.031 C 
ATOM     52  C   UNL A   1      39.190  28.834  28.122  1.00  0.00     0.029 A 
ATOM     53  C   UNL A   1      40.152  28.733  29.215  1.00  0.00     0.049 A 
ATOM     54  H   UNL A   1      40.065  29.686  31.066  1.00  0.00     0.167 HD
ATOM     55  C   UNL A   1      39.884  31.934  34.809  1.00  0.00     0.037 A 
ATOM     56  C   UNL A   1      41.259  27.966  29.213  1.00  0.00     0.037 A 
ATOM     57  C   UNL A   1      40.980  31.011  34.970  1.00  0.00     0.049 A 
ATOM     58  C   UNL A   1      42.117  27.914  30.446  1.00  0.00     0.074 A 
ATOM     59  C   UNL A   1      41.770  30.795  36.086  1.00  0.00     0.029 A 
ATOM     60  N   UNL A   1      41.455  30.165  33.976  1.00  0.00    -0.354 N 
ATOM     61  N   UNL A   1      41.981  28.563  31.577  1.00  0.00    -0.248 NA
ATOM     62  C   UNL A   1      43.266  27.000  30.415  1.00  0.00     0.031 C 
ATOM     63  C   UNL A   1      42.768  29.876  35.744  1.00  0.00     0.029 A 
ATOM     64  C   UNL A   1      42.554  29.457  34.440  1.00  0.00     0.049 A 
ATOM     65  H   UNL A   1      41.067  30.080  33.075  1.00  0.00     0.167 HD
ATOM     66  C   UNL A   1      43.003  28.116  32.402  1.00  0.00     0.074 A 
ATOM     67  C   UNL A   1      43.745  27.129  31.644  1.00  0.00     0.031 C 
ATOM     68  C   UNL A   1      43.294  28.483  33.675  1.00  0.00     0.037 A 
BRANCH  55  69
ATOM     69  C   UNL A   1      39.570  32.875  35.939  1.00  0.00     0.064 A 
ATOM     70  C   UNL A   1      40.225  34.108  36.089  1.00  0.00     0.173 A 
ATOM     71  C   UNL A   1      38.583  32.542  36.881  1.00  0.00     0.173 A 
ATOM     72  F   UNL A   1      41.182  34.474  35.222  1.00  0.00    -0.203 F 
ATOM     73  C   UNL A   1      39.936  34.949  37.160  1.00  0.00     0.198 A 
ATOM     74  C   UNL A   1      38.271  33.402  37.930  1.00  0.00     0.198 A 
ATOM     75  F   UNL A   1      37.917  31.382  36.782  1.00  0.00    -0.203 F 
ATOM     76  F   UNL A   1      40.619  36.091  37.318  1.00  0.00    -0.200 F 
ATOM     77  C   UNL A   1      38.955  34.598  38.077  1.00  0.00     0.200 A 
ATOM     78  F   UNL A   1      37.310  33.070  38.803  1.00  0.00    -0.200 F 
ATOM     79  F   UNL A   1      38.676  35.410  39.106  1.00  0.00    -0.200 F 
ENDBRANCH  55  69
BRANCH  56  80
ATOM     80  C   UNL A   1      41.601  27.184  27.997  1.00  0.00     0.064 A 
ATOM     81  C   UNL A   1      42.342  27.748  26.951  1.00  0.00     0.173 A 
ATOM     82  C   UNL A   1      41.207  25.843  27.870  1.00  0.00     0.173 A 
ATOM     83  F   UNL A   1      42.726  29.031  27.020  1.00  0.00    -0.203 F 
ATOM     84  C   UNL A   1      42.666  27.006  25.818  1.00  0.00     0.198 A 
ATOM     85  C   UNL A   1      41.555  25.093  26.748  1.00  0.00     0.198 A 
ATOM     86  F   UNL A   1      40.499  25.254  28.845  1.00  0.00    -0.203 F 
ATOM     87  F   UNL A   1      43.344  27.580  24.815  1.00  0.00    -0.200 F 
ATOM     88  C   UNL A   1      42.279  25.677  25.720  1.00  0.00     0.200 A 
ATOM     89  F   UNL A   1      41.193  23.806  26.666  1.00  0.00    -0.200 F 
ATOM     90  F   UNL A   1      42.601  24.961  24.634  1.00  0.00    -0.200 F 
ENDBRANCH  56  80
BRANCH  68  91
ATOM     91  C   UNL A   1      44.449  27.792  34.345  1.00  0.00     0.064 A 
ATOM     92  C   UNL A   1      45.744  28.331  34.333  1.00  0.00     0.173 A 
ATOM     93  C   UNL A   1      44.249  26.584  35.033  1.00  0.00     0.173 A 
ATOM     94  F   UNL A   1      45.994  29.475  33.678  1.00  0.00    -0.203 F 
ATOM     95  C   UNL A   1      46.802  27.670  34.955  1.00  0.00     0.198 A 
ATOM     96  C   UNL A   1      45.301  25.947  35.686  1.00  0.00     0.198 A 
ATOM     97  F   UNL A   1      43.030  26.027  35.084  1.00  0.00    -0.203 F 
ATOM     98  F   UNL A   1      48.041  28.174  34.879  1.00  0.00    -0.200 F 
ATOM     99  C   UNL A   1      46.577  26.484  35.636  1.00  0.00     0.200 A 
ATOM    100  F   UNL A   1      45.078  24.810  36.359  1.00  0.00    -0.200 F 
ATOM    101  F   UNL A   1      47.595  25.853  36.240  1.00  0.00    -0.200 F 
ENDBRANCH  68  91
ENDBRANCH  42  43
ENDBRANCH  35  37
ENDBRANCH  34  35
ENDBRANCH  33  34
ENDBRANCH  32  33
ENDBRANCH  31  32
ENDBRANCH   1  31
TORSDOF 20
ENDMDL
MODEL 2
REMARK VINA RESULT:     -11.3      4.186      6.088
REMARK SMILES CCCCN(c1ccccc1C(=O)OCCOCCOC(=O)c1ccc(-c2c3nc(c(-c4c(F)c(F)c(F)c(F)c4F)c4ccc([nH]4)c(-c4c(F)c(F)c(F)c(F)c4F)c4nc(c(-c5c(F)c(F)c(F)c(F)c5F)c5ccc2[nH]5)C=C4)C=C3)cc1)S(=O)(=O)c1ccc2c(c1)oc(=O)n2C
REMARK SMILES IDX 16 1 15 2 14 3 12 4 13 5 11 6 6 7 7 8 8 9 10 10 9 11 5 12
REMARK SMILES IDX 4 13 3 14 2 15 1 16 86 17 87 18 88 19 89 20 90 21 94 22
REMARK SMILES IDX 91 23 93 24 92 25 95 26 98 27 96 28 99 29 97 30 17 31 18 32
REMARK SMILES IDX 19 33 20 34 21 35 22 36 23 37 24 38 85 39 25 40 84 41 26 42
REMARK SMILES IDX 27 43 28 44 78 45 29 46 83 47 77 48 79 49 30 50 82 51 76 52
REMARK SMILES IDX 75 53 31 55 63 56 43 57 62 58 44 59 47 60 61 61 80 62 45 63
REMARK SMILES IDX 46 64 60 66 81 67 48 68 32 69 33 70 41 71 34 72 35 73 39 74
REMARK SMILES IDX 42 75 36 76 37 77 40 78 38 79 64 80 65 81 73 82 66 83 67 84
REMARK SMILES IDX 71 85 74 86 68 87 69 88 72 89 70 90 49 91 50 92 58 93 51 94
REMARK SMILES IDX 52 95 56 96 59 97 53 98 54 99 57 100 55 101
REMARK H PARENT 79 54 47 65
REMARK Flexibility Score: inf
ROOT
ATOM      1  C   UNL A   1      35.085  30.833  27.856  1.00  0.00     0.202 C 
ENDROOT
BRANCH   1   2
ATOM      2  C   UNL A   1      34.646  29.385  27.636  1.00  0.00     0.261 C 
BRANCH   2   3
ATOM      3  O   UNL A   1      34.437  29.083  26.246  1.00  0.00    -0.460 OA
BRANCH   3   4
ATOM      4  C   UNL A   1      33.639  28.014  26.024  1.00  0.00     0.340 C 
ATOM      5  O   UNL A   1      32.778  27.583  26.777  1.00  0.00    -0.246 OA
BRANCH   4   6
ATOM      6  C   UNL A   1      33.810  27.451  24.671  1.00  0.00     0.084 A 
ATOM      7  C   UNL A   1      33.679  26.094  24.314  1.00  0.00     0.066 A 
ATOM      8  C   UNL A   1      33.418  25.838  22.957  1.00  0.00     0.028 A 
ATOM      9  C   UNL A   1      33.495  26.829  21.971  1.00  0.00     0.002 A 
ATOM     10  C   UNL A   1      33.876  28.454  23.676  1.00  0.00     0.018 A 
ATOM     11  C   UNL A   1      33.765  28.139  22.328  1.00  0.00     0.001 A 
BRANCH   7  12
ATOM     12  N   UNL A   1      33.757  24.930  25.191  1.00  0.00    -0.265 N 
BRANCH  12  13
ATOM     13  C   UNL A   1      34.998  24.099  25.232  1.00  0.00     0.136 C 
BRANCH  13  14
ATOM     14  C   UNL A   1      35.548  23.619  23.886  1.00  0.00     0.022 C 
BRANCH  14  15
ATOM     15  C   UNL A   1      36.378  22.333  23.833  1.00  0.00    -0.002 C 
ATOM     16  C   UNL A   1      36.422  21.538  25.123  1.00  0.00     0.004 C 
ENDBRANCH  14  15
ENDBRANCH  13  14
ENDBRANCH  12  13
BRANCH  12  17
ATOM     17  S   UNL A   1      32.314  24.105  25.656  1.00  0.00     0.264 S 
ATOM     18  O   UNL A   1      32.211  24.159  27.100  1.00  0.00    -0.201 OA
ATOM     19  O   UNL A   1      31.246  24.622  24.824  1.00  0.00    -0.201 OA
BRANCH  17  20
ATOM     20  C   UNL A   1      32.408  22.365  25.268  1.00  0.00     0.091 A 
ATOM     21  C   UNL A   1      32.955  21.470  26.222  1.00  0.00     0.025 A 
ATOM     22  C   UNL A   1      32.121  21.939  23.966  1.00  0.00     0.071 A 
ATOM     23  C   UNL A   1      33.111  20.113  25.923  1.00  0.00     0.032 A 
ATOM     24  C   UNL A   1      32.324  20.604  23.690  1.00  0.00     0.157 A 
ATOM     25  C   UNL A   1      32.780  19.714  24.647  1.00  0.00     0.090 A 
ATOM     26  O   UNL A   1      32.102  20.000  22.462  1.00  0.00    -0.408 OA
ATOM     27  N   UNL A   1      32.809  18.486  24.033  1.00  0.00    -0.277 N 
ATOM     28  C   UNL A   1      32.410  18.658  22.724  1.00  0.00     0.419 A 
ATOM     29  C   UNL A   1      33.103  17.221  24.641  1.00  0.00     0.157 C 
ATOM     30  O   UNL A   1      32.311  17.775  21.879  1.00  0.00    -0.223 OA
ENDBRANCH  17  20
ENDBRANCH  12  17
ENDBRANCH   7  12
ENDBRANCH   4   6
ENDBRANCH   3   4
ENDBRANCH   2   3
ENDBRANCH   1   2
BRANCH   1  31
ATOM     31  O   UNL A   1      34.082  31.842  27.894  1.00  0.00    -0.374 OA
BRANCH  31  32
ATOM     32  C   UNL A   1      34.413  33.116  28.436  1.00  0.00     0.202 C 
BRANCH  32  33
ATOM     33  C   UNL A   1      34.218  33.372  29.941  1.00  0.00     0.261 C 
BRANCH  33  34
ATOM     34  O   UNL A   1      35.415  33.656  30.685  1.00  0.00    -0.460 OA
BRANCH  34  35
ATOM     35  C   UNL A   1      35.863  32.613  31.428  1.00  0.00     0.338 C 
ATOM     36  O   UNL A   1      35.207  31.894  32.163  1.00  0.00    -0.246 OA
BRANCH  35  37
ATOM     37  C   UNL A   1      37.282  32.326  31.150  1.00  0.00     0.060 A 
ATOM     38  C   UNL A   1      37.767  32.595  29.863  1.00  0.00     0.016 A 
ATOM     39  C   UNL A   1      38.063  31.629  32.070  1.00  0.00     0.016 A 
ATOM     40  C   UNL A   1      39.020  32.124  29.477  1.00  0.00     0.010 A 
ATOM     41  C   UNL A   1      39.322  31.157  31.678  1.00  0.00     0.010 A 
ATOM     42  C   UNL A   1      39.790  31.366  30.367  1.00  0.00    -0.014 A 
BRANCH  42  43
ATOM     43  C   UNL A   1      41.023  30.690  29.885  1.00  0.00     0.031 A 
ATOM     44  C   UNL A   1      42.309  31.462  29.806  1.00  0.00     0.074 A 
ATOM     45  C   UNL A   1      41.002  29.393  29.533  1.00  0.00     0.049 A 
ATOM     46  N   UNL A   1      43.487  31.074  29.385  1.00  0.00    -0.248 NA
ATOM     47  C   UNL A   1      42.266  32.856  30.273  1.00  0.00     0.031 C 
ATOM     48  C   UNL A   1      39.836  28.521  29.618  1.00  0.00     0.029 A 
ATOM     49  N   UNL A   1      41.983  28.587  29.011  1.00  0.00    -0.354 N 
ATOM     50  C   UNL A   1      44.321  32.176  29.528  1.00  0.00     0.074 A 
ATOM     51  C   UNL A   1      43.506  33.258  30.039  1.00  0.00     0.031 C 
ATOM     52  C   UNL A   1      40.143  27.321  29.102  1.00  0.00     0.029 A 
ATOM     53  C   UNL A   1      41.532  27.340  28.656  1.00  0.00     0.049 A 
ATOM     54  H   UNL A   1      42.918  28.876  28.902  1.00  0.00     0.167 HD
ATOM     55  C   UNL A   1      45.648  32.268  29.271  1.00  0.00     0.037 A 
ATOM     56  C   UNL A   1      42.163  26.331  28.025  1.00  0.00     0.037 A 
ATOM     57  C   UNL A   1      46.451  31.184  28.765  1.00  0.00     0.049 A 
ATOM     58  C   UNL A   1      43.622  26.474  27.690  1.00  0.00     0.074 A 
ATOM     59  C   UNL A   1      47.814  31.160  28.520  1.00  0.00     0.029 A 
ATOM     60  N   UNL A   1      45.961  29.936  28.405  1.00  0.00    -0.354 N 
ATOM     61  N   UNL A   1      44.419  27.497  27.884  1.00  0.00    -0.248 NA
ATOM     62  C   UNL A   1      44.277  25.312  27.076  1.00  0.00     0.031 C 
ATOM     63  C   UNL A   1      48.133  29.927  27.942  1.00  0.00     0.029 A 
ATOM     64  C   UNL A   1      46.986  29.150  27.900  1.00  0.00     0.049 A 
ATOM     65  H   UNL A   1      45.023  29.650  28.496  1.00  0.00     0.167 HD
ATOM     66  C   UNL A   1      45.673  27.094  27.447  1.00  0.00     0.074 A 
ATOM     67  C   UNL A   1      45.533  25.727  26.989  1.00  0.00     0.031 C 
ATOM     68  C   UNL A   1      46.836  27.792  27.435  1.00  0.00     0.037 A 
BRANCH  55  69
ATOM     69  C   UNL A   1      46.305  33.602  29.496  1.00  0.00     0.064 A 
ATOM     70  C   UNL A   1      46.395  34.570  28.484  1.00  0.00     0.173 A 
ATOM     71  C   UNL A   1      46.843  33.920  30.754  1.00  0.00     0.173 A 
ATOM     72  F   UNL A   1      45.906  34.317  27.260  1.00  0.00    -0.203 F 
ATOM     73  C   UNL A   1      47.035  35.787  28.709  1.00  0.00     0.198 A 
ATOM     74  C   UNL A   1      47.448  35.152  30.986  1.00  0.00     0.198 A 
ATOM     75  F   UNL A   1      46.776  33.038  31.761  1.00  0.00    -0.203 F 
ATOM     76  F   UNL A   1      47.165  36.670  27.709  1.00  0.00    -0.200 F 
ATOM     77  C   UNL A   1      47.555  36.079  29.962  1.00  0.00     0.200 A 
ATOM     78  F   UNL A   1      47.934  35.439  32.201  1.00  0.00    -0.200 F 
ATOM     79  F   UNL A   1      48.168  37.251  30.177  1.00  0.00    -0.200 F 
ENDBRANCH  55  69
BRANCH  56  80
ATOM     80  C   UNL A   1      41.407  25.098  27.684  1.00  0.00     0.064 A 
ATOM     81  C   UNL A   1      41.651  23.887  28.341  1.00  0.00     0.173 A 
ATOM     82  C   UNL A   1      40.406  25.118  26.701  1.00  0.00     0.173 A 
ATOM     83  F   UNL A   1      42.611  23.815  29.276  1.00  0.00    -0.203 F 
ATOM     84  C   UNL A   1      40.933  22.737  28.022  1.00  0.00     0.198 A 
ATOM     85  C   UNL A   1      39.668  23.975  26.401  1.00  0.00     0.198 A 
ATOM     86  F   UNL A   1      40.129  26.254  26.044  1.00  0.00    -0.203 F 
ATOM     87  F   UNL A   1      41.211  21.581  28.640  1.00  0.00    -0.200 F 
ATOM     88  C   UNL A   1      39.937  22.784  27.057  1.00  0.00     0.200 A 
ATOM     89  F   UNL A   1      38.696  24.029  25.480  1.00  0.00    -0.200 F 
ATOM     90  F   UNL A   1      39.238  21.680  26.759  1.00  0.00    -0.200 F 
ENDBRANCH  56  80
BRANCH  68  91
ATOM     91  C   UNL A   1      48.063  27.078  26.939  1.00  0.00     0.064 A 
ATOM     92  C   UNL A   1      48.483  27.167  25.603  1.00  0.00     0.173 A 
ATOM     93  C   UNL A   1      48.845  26.316  27.821  1.00  0.00     0.173 A 
ATOM     94  F   UNL A   1      47.765  27.870  24.714  1.00  0.00    -0.203 F 
ATOM     95  C   UNL A   1      49.619  26.492  25.162  1.00  0.00     0.198 A 
ATOM     96  C   UNL A   1      50.002  25.675  27.386  1.00  0.00     0.198 A 
ATOM     97  F   UNL A   1      48.496  26.203  29.111  1.00  0.00    -0.203 F 
ATOM     98  F   UNL A   1      49.967  26.543  23.869  1.00  0.00    -0.200 F 
ATOM     99  C   UNL A   1      50.381  25.753  26.055  1.00  0.00     0.200 A 
ATOM    100  F   UNL A   1      50.746  24.976  28.254  1.00  0.00    -0.200 F 
ATOM    101  F   UNL A   1      51.478  25.111  25.631  1.00  0.00    -0.200 F 
ENDBRANCH  68  91
ENDBRANCH  42  43
ENDBRANCH  35  37
ENDBRANCH  34  35
ENDBRANCH  33  34
ENDBRANCH  32  33
ENDBRANCH  31  32
ENDBRANCH   1  31
TORSDOF 20
ENDMDL
MODEL 3
REMARK VINA RESULT:     -11.2      5.054     10.695
REMARK SMILES CCCCN(c1ccccc1C(=O)OCCOCCOC(=O)c1ccc(-c2c3nc(c(-c4c(F)c(F)c(F)c(F)c4F)c4ccc([nH]4)c(-c4c(F)c(F)c(F)c(F)c4F)c4nc(c(-c5c(F)c(F)c(F)c(F)c5F)c5ccc2[nH]5)C=C4)C=C3)cc1)S(=O)(=O)c1ccc2c(c1)oc(=O)n2C
REMARK SMILES IDX 16 1 15 2 14 3 12 4 13 5 11 6 6 7 7 8 8 9 10 10 9 11 5 12
REMARK SMILES IDX 4 13 3 14 2 15 1 16 86 17 87 18 88 19 89 20 90 21 94 22
REMARK SMILES IDX 91 23 93 24 92 25 95 26 98 27 96 28 99 29 97 30 17 31 18 32
REMARK SMILES IDX 19 33 20 34 21 35 22 36 23 37 24 38 85 39 25 40 84 41 26 42
REMARK SMILES IDX 27 43 28 44 78 45 29 46 83 47 77 48 79 49 30 50 82 51 76 52
REMARK SMILES IDX 75 53 31 55 63 56 43 57 62 58 44 59 47 60 61 61 80 62 45 63
REMARK SMILES IDX 46 64 60 66 81 67 48 68 32 69 33 70 41 71 34 72 35 73 39 74
REMARK SMILES IDX 42 75 36 76 37 77 40 78 38 79 64 80 65 81 73 82 66 83 67 84
REMARK SMILES IDX 71 85 74 86 68 87 69 88 72 89 70 90 49 91 50 92 58 93 51 94
REMARK SMILES IDX 52 95 56 96 59 97 53 98 54 99 57 100 55 101
REMARK H PARENT 79 54 47 65
REMARK Flexibility Score: inf
ROOT
ATOM      1  C   UNL A   1      37.035  20.786  25.368  1.00  0.00     0.202 C 
ENDROOT
BRANCH   1   2
ATOM      2  C   UNL A   1      35.774  21.239  24.631  1.00  0.00     0.261 C 
BRANCH   2   3
ATOM      3  O   UNL A   1      35.812  22.635  24.289  1.00  0.00    -0.460 OA
BRANCH   3   4
ATOM      4  C   UNL A   1      35.703  23.469  25.348  1.00  0.00     0.340 C 
ATOM      5  O   UNL A   1      36.553  24.253  25.744  1.00  0.00    -0.246 OA
BRANCH   4   6
ATOM      6  C   UNL A   1      34.355  23.450  25.947  1.00  0.00     0.084 A 
ATOM      7  C   UNL A   1      33.137  23.609  25.257  1.00  0.00     0.066 A 
ATOM      8  C   UNL A   1      31.994  23.103  25.902  1.00  0.00     0.028 A 
ATOM      9  C   UNL A   1      32.007  22.664  27.231  1.00  0.00     0.002 A 
ATOM     10  C   UNL A   1      34.369  22.995  27.287  1.00  0.00     0.018 A 
ATOM     11  C   UNL A   1      33.195  22.647  27.941  1.00  0.00     0.001 A 
BRANCH   7  12
ATOM     12  N   UNL A   1      32.928  24.212  23.945  1.00  0.00    -0.265 N 
BRANCH  12  13
ATOM     13  C   UNL A   1      33.031  23.380  22.708  1.00  0.00     0.136 C 
BRANCH  13  14
ATOM     14  C   UNL A   1      31.781  22.593  22.304  1.00  0.00     0.022 C 
BRANCH  14  15
ATOM     15  C   UNL A   1      31.809  21.063  22.362  1.00  0.00    -0.002 C 
ATOM     16  C   UNL A   1      32.526  20.475  23.561  1.00  0.00     0.004 C 
ENDBRANCH  14  15
ENDBRANCH  13  14
ENDBRANCH  12  13
BRANCH  12  17
ATOM     17  S   UNL A   1      33.224  25.897  23.713  1.00  0.00     0.264 S 
ATOM     18  O   UNL A   1      33.834  26.416  24.921  1.00  0.00    -0.201 OA
ATOM     19  O   UNL A   1      33.893  26.035  22.435  1.00  0.00    -0.201 OA
BRANCH  17  20
ATOM     20  C   UNL A   1      31.698  26.806  23.543  1.00  0.00     0.091 A 
ATOM     21  C   UNL A   1      30.501  26.259  24.071  1.00  0.00     0.025 A 
ATOM     22  C   UNL A   1      31.668  27.945  22.730  1.00  0.00     0.071 A 
ATOM     23  C   UNL A   1      29.276  26.908  23.892  1.00  0.00     0.032 A 
ATOM     24  C   UNL A   1      30.439  28.539  22.538  1.00  0.00     0.157 A 
ATOM     25  C   UNL A   1      29.284  28.051  23.123  1.00  0.00     0.090 A 
ATOM     26  O   UNL A   1      30.211  29.667  21.764  1.00  0.00    -0.408 OA
ATOM     27  N   UNL A   1      28.283  28.916  22.755  1.00  0.00    -0.277 N 
ATOM     28  C   UNL A   1      28.836  29.879  21.937  1.00  0.00     0.419 A 
ATOM     29  C   UNL A   1      26.921  28.904  23.201  1.00  0.00     0.157 C 
ATOM     30  O   UNL A   1      28.238  30.819  21.424  1.00  0.00    -0.223 OA
ENDBRANCH  17  20
ENDBRANCH  12  17
ENDBRANCH   7  12
ENDBRANCH   4   6
ENDBRANCH   3   4
ENDBRANCH   2   3
ENDBRANCH   1   2
BRANCH   1  31
ATOM     31  O   UNL A   1      38.272  21.401  25.025  1.00  0.00    -0.374 OA
BRANCH  31  32
ATOM     32  C   UNL A   1      39.381  21.241  25.901  1.00  0.00     0.202 C 
BRANCH  32  33
ATOM     33  C   UNL A   1      39.920  19.829  26.193  1.00  0.00     0.261 C 
BRANCH  33  34
ATOM     34  O   UNL A   1      41.017  19.398  25.369  1.00  0.00    -0.460 OA
BRANCH  34  35
ATOM     35  C   UNL A   1      42.167  19.177  26.055  1.00  0.00     0.338 C 
ATOM     36  O   UNL A   1      42.667  18.100  26.333  1.00  0.00    -0.246 OA
BRANCH  35  37
ATOM     37  C   UNL A   1      42.873  20.440  26.340  1.00  0.00     0.060 A 
ATOM     38  C   UNL A   1      42.776  20.970  27.633  1.00  0.00     0.016 A 
ATOM     39  C   UNL A   1      43.451  21.182  25.312  1.00  0.00     0.016 A 
ATOM     40  C   UNL A   1      43.215  22.266  27.892  1.00  0.00     0.010 A 
ATOM     41  C   UNL A   1      43.892  22.485  25.575  1.00  0.00     0.010 A 
ATOM     42  C   UNL A   1      43.738  23.049  26.855  1.00  0.00    -0.014 A 
BRANCH  42  43
ATOM     43  C   UNL A   1      44.006  24.493  27.086  1.00  0.00     0.031 A 
ATOM     44  C   UNL A   1      45.408  25.016  26.954  1.00  0.00     0.074 A 
ATOM     45  C   UNL A   1      43.007  25.336  27.395  1.00  0.00     0.049 A 
ATOM     46  N   UNL A   1      45.864  26.230  27.143  1.00  0.00    -0.248 NA
ATOM     47  C   UNL A   1      46.434  24.046  26.545  1.00  0.00     0.031 C 
ATOM     48  C   UNL A   1      41.600  24.965  27.496  1.00  0.00     0.029 A 
ATOM     49  N   UNL A   1      43.022  26.673  27.706  1.00  0.00    -0.354 N 
ATOM     50  C   UNL A   1      47.227  26.167  26.885  1.00  0.00     0.074 A 
ATOM     51  C   UNL A   1      47.531  24.788  26.564  1.00  0.00     0.031 C 
ATOM     52  C   UNL A   1      40.892  26.027  27.911  1.00  0.00     0.029 A 
ATOM     53  C   UNL A   1      41.798  27.156  28.099  1.00  0.00     0.049 A 
ATOM     54  H   UNL A   1      43.832  27.231  27.653  1.00  0.00     0.167 HD
ATOM     55  C   UNL A   1      48.136  27.171  26.901  1.00  0.00     0.037 A 
ATOM     56  C   UNL A   1      41.449  28.367  28.574  1.00  0.00     0.037 A 
ATOM     57  C   UNL A   1      47.823  28.541  27.220  1.00  0.00     0.049 A 
ATOM     58  C   UNL A   1      42.485  29.454  28.643  1.00  0.00     0.074 A 
ATOM     59  C   UNL A   1      48.661  29.643  27.213  1.00  0.00     0.029 A 
ATOM     60  N   UNL A   1      46.574  28.994  27.624  1.00  0.00    -0.354 N 
ATOM     61  N   UNL A   1      43.760  29.402  28.340  1.00  0.00    -0.248 NA
ATOM     62  C   UNL A   1      42.029  30.775  29.093  1.00  0.00     0.031 C 
ATOM     63  C   UNL A   1      47.940  30.745  27.686  1.00  0.00     0.029 A 
ATOM     64  C   UNL A   1      46.630  30.350  27.911  1.00  0.00     0.049 A 
ATOM     65  H   UNL A   1      45.766  28.435  27.695  1.00  0.00     0.167 HD
ATOM     66  C   UNL A   1      44.251  30.686  28.530  1.00  0.00     0.074 A 
ATOM     67  C   UNL A   1      43.133  31.498  28.964  1.00  0.00     0.031 C 
ATOM     68  C   UNL A   1      45.513  31.150  28.353  1.00  0.00     0.037 A 
BRANCH  55  69
ATOM     69  C   UNL A   1      49.566  26.815  26.602  1.00  0.00     0.064 A 
ATOM     70  C   UNL A   1      50.484  26.495  27.615  1.00  0.00     0.173 A 
ATOM     71  C   UNL A   1      50.021  26.779  25.274  1.00  0.00     0.173 A 
ATOM     72  F   UNL A   1      50.106  26.521  28.902  1.00  0.00    -0.203 F 
ATOM     73  C   UNL A   1      51.811  26.197  27.314  1.00  0.00     0.198 A 
ATOM     74  C   UNL A   1      51.339  26.444  24.974  1.00  0.00     0.198 A 
ATOM     75  F   UNL A   1      49.187  27.065  24.264  1.00  0.00    -0.203 F 
ATOM     76  F   UNL A   1      52.683  25.958  28.302  1.00  0.00    -0.200 F 
ATOM     77  C   UNL A   1      52.235  26.166  25.994  1.00  0.00     0.200 A 
ATOM     78  F   UNL A   1      51.742  26.397  23.698  1.00  0.00    -0.200 F 
ATOM     79  F   UNL A   1      53.512  25.876  25.706  1.00  0.00    -0.200 F 
ENDBRANCH  55  69
BRANCH  56  80
ATOM     80  C   UNL A   1      40.048  28.603  29.008  1.00  0.00     0.064 A 
ATOM     81  C   UNL A   1      39.080  29.086  28.119  1.00  0.00     0.173 A 
ATOM     82  C   UNL A   1      39.647  28.328  30.324  1.00  0.00     0.173 A 
ATOM     83  F   UNL A   1      39.420  29.380  26.855  1.00  0.00    -0.203 F 
ATOM     84  C   UNL A   1      37.766  29.297  28.531  1.00  0.00     0.198 A 
ATOM     85  C   UNL A   1      38.326  28.513  30.729  1.00  0.00     0.198 A 
ATOM     86  F   UNL A   1      40.534  27.859  31.214  1.00  0.00    -0.203 F 
ATOM     87  F   UNL A   1      36.868  29.795  27.670  1.00  0.00    -0.200 F 
ATOM     88  C   UNL A   1      37.389  29.004  29.834  1.00  0.00     0.200 A 
ATOM     89  F   UNL A   1      37.963  28.212  31.983  1.00  0.00    -0.200 F 
ATOM     90  F   UNL A   1      36.122  29.197  30.226  1.00  0.00    -0.200 F 
ENDBRANCH  56  80
BRANCH  68  91
ATOM     91  C   UNL A   1      45.749  32.615  28.597  1.00  0.00     0.064 A 
ATOM     92  C   UNL A   1      46.159  33.102  29.848  1.00  0.00     0.173 A 
ATOM     93  C   UNL A   1      45.591  33.542  27.554  1.00  0.00     0.173 A 
ATOM     94  F   UNL A   1      46.311  32.262  30.883  1.00  0.00    -0.203 F 
ATOM     95  C   UNL A   1      46.365  34.464  30.055  1.00  0.00     0.198 A 
ATOM     96  C   UNL A   1      45.836  34.898  27.754  1.00  0.00     0.198 A 
ATOM     97  F   UNL A   1      45.210  33.131  26.336  1.00  0.00    -0.203 F 
ATOM     98  F   UNL A   1      46.696  34.912  31.273  1.00  0.00    -0.200 F 
ATOM     99  C   UNL A   1      46.211  35.359  29.006  1.00  0.00     0.200 A 
ATOM    100  F   UNL A   1      45.704  35.758  26.736  1.00  0.00    -0.200 F 
ATOM    101  F   UNL A   1      46.418  36.668  29.205  1.00  0.00    -0.200 F 
ENDBRANCH  68  91
ENDBRANCH  42  43
ENDBRANCH  35  37
ENDBRANCH  34  35
ENDBRANCH  33  34
ENDBRANCH  32  33
ENDBRANCH  31  32
ENDBRANCH   1  31
TORSDOF 20
ENDMDL
