MODEL 1
REMARK VINA RESULT:     -12.9      0.000      0.000
REMARK SMILES C[C@@H](CCC(=O)OCCOCCOC(=O)c1ccc(-c2c3nc(c(-c4c(F)c(F)c(F)c(F)c4F)c4ccc([nH]4)c(-c4c(F)c(F)c(F)c(F)c4F)c4nc(c(-c5c(F)c(F)c(F)c(F)c5F)c5ccc2[nH]5)C=C4)C=C3)cc1)[C@@H]1CC[C@@H]2[C@H]3CC[C@@H]4CC(=O)CC[C@]4(C)[C@@H]3CC(=O)[C@]21C
REMARK SMILES IDX 9 1 8 2 7 3 5 4 6 5 4 6 3 7 2 8 1 9 79 10 80 11 98 12 81 13
REMARK SMILES IDX 82 14 96 15 99 16 83 17 95 18 97 19 84 20 94 21 85 22 92 23
REMARK SMILES IDX 86 24 91 25 93 26 87 27 90 28 88 29 89 30 10 31 11 32 12 33
REMARK SMILES IDX 13 34 14 35 15 36 16 37 17 38 78 39 18 40 77 41 19 42 20 43
REMARK SMILES IDX 21 44 71 45 22 46 76 47 70 48 72 49 23 50 75 51 69 52 68 53
REMARK SMILES IDX 24 55 56 56 36 57 55 58 37 59 40 60 54 61 73 62 38 63 39 64
REMARK SMILES IDX 53 66 74 67 41 68 25 69 26 70 34 71 27 72 28 73 32 74 35 75
REMARK SMILES IDX 29 76 30 77 33 78 31 79 57 80 58 81 66 82 59 83 60 84 64 85
REMARK SMILES IDX 67 86 61 87 62 88 65 89 63 90 42 91 43 92 51 93 44 94 45 95
REMARK SMILES IDX 49 96 52 97 46 98 47 99 50 100 48 101
REMARK H PARENT 72 54 40 65
REMARK Flexibility Score: inf
ROOT
ATOM      1  C   UNL A   1      34.208  29.703  27.335  1.00  0.00     0.202 C 
ENDROOT
BRANCH   1   2
ATOM      2  C   UNL A   1      34.101  29.001  25.981  1.00  0.00     0.261 C 
BRANCH   2   3
ATOM      3  O   UNL A   1      33.138  29.596  25.074  1.00  0.00    -0.463 OA
BRANCH   3   4
ATOM      4  C   UNL A   1      31.817  29.294  25.221  1.00  0.00     0.305 C 
ATOM      5  O   UNL A   1      31.330  28.769  26.213  1.00  0.00    -0.252 OA
BRANCH   4   6
ATOM      6  C   UNL A   1      31.026  29.582  23.932  1.00  0.00     0.123 C 
BRANCH   6   7
ATOM      7  C   UNL A   1      29.803  28.702  23.501  1.00  0.00     0.015 C 
BRANCH   7   8
ATOM      8  C   UNL A   1      29.958  27.137  23.193  1.00  0.00    -0.010 C 
ATOM      9  C   UNL A   1      28.888  26.403  24.035  1.00  0.00     0.008 C 
BRANCH   8  10
ATOM     10  C   UNL A   1      31.352  26.429  23.431  1.00  0.00     0.005 C 
ATOM     11  C   UNL A   1      32.025  26.367  22.077  1.00  0.00     0.005 C 
ATOM     12  C   UNL A   1      31.637  24.959  24.000  1.00  0.00     0.032 C 
ATOM     13  C   UNL A   1      33.021  25.256  22.113  1.00  0.00     0.005 C 
ATOM     14  C   UNL A   1      33.116  24.786  23.522  1.00  0.00     0.006 C 
ATOM     15  C   UNL A   1      31.818  24.721  25.508  1.00  0.00     0.139 C 
ATOM     16  C   UNL A   1      30.652  23.935  23.431  1.00  0.00     0.020 C 
ATOM     17  C   UNL A   1      33.780  23.392  23.751  1.00  0.00    -0.003 C 
ATOM     18  C   UNL A   1      32.549  23.397  25.941  1.00  0.00     0.080 C 
ATOM     19  O   UNL A   1      31.407  25.527  26.341  1.00  0.00    -0.299 OA
ATOM     20  C   UNL A   1      35.107  23.193  22.999  1.00  0.00     0.004 C 
ATOM     21  C   UNL A   1      33.934  23.224  25.262  1.00  0.00     0.006 C 
ATOM     22  C   UNL A   1      36.387  22.751  23.708  1.00  0.00     0.005 C 
ATOM     23  C   UNL A   1      34.936  22.038  25.660  1.00  0.00    -0.025 C 
ATOM     24  C   UNL A   1      36.315  22.584  25.229  1.00  0.00     0.002 C 
ATOM     25  C   UNL A   1      34.808  20.639  24.970  1.00  0.00     0.015 C 
ATOM     26  C   UNL A   1      34.835  21.830  27.183  1.00  0.00     0.012 C 
ATOM     27  C   UNL A   1      37.484  21.755  25.752  1.00  0.00     0.079 C 
ATOM     28  C   UNL A   1      36.121  19.825  24.705  1.00  0.00     0.076 C 
ATOM     29  C   UNL A   1      37.460  20.396  25.138  1.00  0.00     0.133 C 
ATOM     30  O   UNL A   1      38.506  19.759  24.998  1.00  0.00    -0.300 OA
ENDBRANCH   8  10
ENDBRANCH   7   8
ENDBRANCH   6   7
ENDBRANCH   4   6
ENDBRANCH   3   4
ENDBRANCH   2   3
ENDBRANCH   1   2
BRANCH   1  31
ATOM     31  O   UNL A   1      34.313  31.119  27.251  1.00  0.00    -0.374 OA
BRANCH  31  32
ATOM     32  C   UNL A   1      33.145  31.809  27.681  1.00  0.00     0.202 C 
BRANCH  32  33
ATOM     33  C   UNL A   1      33.186  33.347  27.480  1.00  0.00     0.261 C 
BRANCH  33  34
ATOM     34  O   UNL A   1      32.428  34.126  28.460  1.00  0.00    -0.460 OA
BRANCH  34  35
ATOM     35  C   UNL A   1      32.960  35.095  29.261  1.00  0.00     0.338 C 
ATOM     36  O   UNL A   1      32.528  36.211  29.372  1.00  0.00    -0.246 OA
BRANCH  35  37
ATOM     37  C   UNL A   1      34.274  34.618  29.883  1.00  0.00     0.060 A 
ATOM     38  C   UNL A   1      35.413  34.585  29.073  1.00  0.00     0.016 A 
ATOM     39  C   UNL A   1      34.409  34.088  31.177  1.00  0.00     0.016 A 
ATOM     40  C   UNL A   1      36.596  33.924  29.495  1.00  0.00     0.010 A 
ATOM     41  C   UNL A   1      35.525  33.306  31.542  1.00  0.00     0.010 A 
ATOM     42  C   UNL A   1      36.647  33.210  30.706  1.00  0.00    -0.014 A 
BRANCH  42  43
ATOM     43  C   UNL A   1      37.918  32.647  31.235  1.00  0.00     0.031 A 
ATOM     44  C   UNL A   1      38.752  33.166  32.361  1.00  0.00     0.074 A 
ATOM     45  C   UNL A   1      38.476  31.624  30.575  1.00  0.00     0.049 A 
ATOM     46  N   UNL A   1      39.035  32.597  33.504  1.00  0.00    -0.248 NA
ATOM     47  C   UNL A   1      39.497  34.413  32.140  1.00  0.00     0.031 C 
ATOM     48  C   UNL A   1      38.011  31.078  29.304  1.00  0.00     0.029 A 
ATOM     49  N   UNL A   1      39.582  30.888  30.889  1.00  0.00    -0.354 N 
ATOM     50  C   UNL A   1      39.740  33.548  34.232  1.00  0.00     0.074 A 
ATOM     51  C   UNL A   1      40.019  34.650  33.344  1.00  0.00     0.031 C 
ATOM     52  C   UNL A   1      38.844  30.102  28.926  1.00  0.00     0.029 A 
ATOM     53  C   UNL A   1      39.822  29.894  29.985  1.00  0.00     0.049 A 
ATOM     54  H   UNL A   1      40.144  31.057  31.680  1.00  0.00     0.167 HD
ATOM     55  C   UNL A   1      40.308  33.417  35.452  1.00  0.00     0.037 A 
ATOM     56  C   UNL A   1      40.676  28.865  30.069  1.00  0.00     0.037 A 
ATOM     57  C   UNL A   1      40.989  32.200  35.799  1.00  0.00     0.049 A 
ATOM     58  C   UNL A   1      41.386  28.656  31.375  1.00  0.00     0.074 A 
ATOM     59  C   UNL A   1      41.772  31.905  36.898  1.00  0.00     0.029 A 
ATOM     60  N   UNL A   1      41.130  31.145  34.905  1.00  0.00    -0.354 N 
ATOM     61  N   UNL A   1      41.393  29.411  32.452  1.00  0.00    -0.248 NA
ATOM     62  C   UNL A   1      42.142  27.410  31.502  1.00  0.00     0.031 C 
ATOM     63  C   UNL A   1      42.504  30.745  36.594  1.00  0.00     0.029 A 
ATOM     64  C   UNL A   1      42.092  30.267  35.357  1.00  0.00     0.049 A 
ATOM     65  H   UNL A   1      40.619  31.041  34.071  1.00  0.00     0.167 HD
ATOM     66  C   UNL A   1      42.150  28.725  33.393  1.00  0.00     0.074 A 
ATOM     67  C   UNL A   1      42.538  27.475  32.764  1.00  0.00     0.031 C 
ATOM     68  C   UNL A   1      42.503  29.077  34.657  1.00  0.00     0.037 A 
BRANCH  55  69
ATOM     69  C   UNL A   1      40.376  34.607  36.366  1.00  0.00     0.064 A 
ATOM     70  C   UNL A   1      39.375  34.775  37.343  1.00  0.00     0.173 A 
ATOM     71  C   UNL A   1      41.476  35.472  36.420  1.00  0.00     0.173 A 
ATOM     72  F   UNL A   1      38.318  33.950  37.369  1.00  0.00    -0.203 F 
ATOM     73  C   UNL A   1      39.478  35.756  38.332  1.00  0.00     0.198 A 
ATOM     74  C   UNL A   1      41.579  36.451  37.413  1.00  0.00     0.198 A 
ATOM     75  F   UNL A   1      42.471  35.353  35.529  1.00  0.00    -0.203 F 
ATOM     76  F   UNL A   1      38.527  35.873  39.270  1.00  0.00    -0.200 F 
ATOM     77  C   UNL A   1      40.583  36.590  38.369  1.00  0.00     0.200 A 
ATOM     78  F   UNL A   1      42.657  37.246  37.458  1.00  0.00    -0.200 F 
ATOM     79  F   UNL A   1      40.698  37.517  39.331  1.00  0.00    -0.200 F 
ENDBRANCH  55  69
BRANCH  56  80
ATOM     80  C   UNL A   1      40.698  27.898  28.950  1.00  0.00     0.064 A 
ATOM     81  C   UNL A   1      39.816  26.811  28.925  1.00  0.00     0.173 A 
ATOM     82  C   UNL A   1      41.486  28.133  27.814  1.00  0.00     0.173 A 
ATOM     83  F   UNL A   1      39.017  26.572  29.976  1.00  0.00    -0.203 F 
ATOM     84  C   UNL A   1      39.741  25.976  27.814  1.00  0.00     0.198 A 
ATOM     85  C   UNL A   1      41.387  27.316  26.692  1.00  0.00     0.198 A 
ATOM     86  F   UNL A   1      42.300  29.200  27.770  1.00  0.00    -0.203 F 
ATOM     87  F   UNL A   1      38.901  24.933  27.821  1.00  0.00    -0.200 F 
ATOM     88  C   UNL A   1      40.521  26.234  26.696  1.00  0.00     0.200 A 
ATOM     89  F   UNL A   1      42.107  27.596  25.597  1.00  0.00    -0.200 F 
ATOM     90  F   UNL A   1      40.426  25.446  25.616  1.00  0.00    -0.200 F 
ENDBRANCH  56  80
BRANCH  68  91
ATOM     91  C   UNL A   1      43.400  28.127  35.389  1.00  0.00     0.064 A 
ATOM     92  C   UNL A   1      44.796  28.207  35.277  1.00  0.00     0.173 A 
ATOM     93  C   UNL A   1      42.857  27.134  36.216  1.00  0.00     0.173 A 
ATOM     94  F   UNL A   1      45.361  29.142  34.496  1.00  0.00    -0.203 F 
ATOM     95  C   UNL A   1      45.616  27.285  35.918  1.00  0.00     0.198 A 
ATOM     96  C   UNL A   1      43.681  26.241  36.889  1.00  0.00     0.198 A 
ATOM     97  F   UNL A   1      41.528  27.030  36.368  1.00  0.00    -0.203 F 
ATOM     98  F   UNL A   1      46.942  27.329  35.733  1.00  0.00    -0.200 F 
ATOM     99  C   UNL A   1      45.058  26.306  36.727  1.00  0.00     0.200 A 
ATOM    100  F   UNL A   1      43.143  25.307  37.684  1.00  0.00    -0.200 F 
ATOM    101  F   UNL A   1      45.847  25.414  37.339  1.00  0.00    -0.200 F 
ENDBRANCH  68  91
ENDBRANCH  42  43
ENDBRANCH  35  37
ENDBRANCH  34  35
ENDBRANCH  33  34
ENDBRANCH  32  33
ENDBRANCH  31  32
ENDBRANCH   1  31
TORSDOF 17
ENDMDL
MODEL 2
REMARK VINA RESULT:     -12.8      2.838      4.716
REMARK SMILES C[C@@H](CCC(=O)OCCOCCOC(=O)c1ccc(-c2c3nc(c(-c4c(F)c(F)c(F)c(F)c4F)c4ccc([nH]4)c(-c4c(F)c(F)c(F)c(F)c4F)c4nc(c(-c5c(F)c(F)c(F)c(F)c5F)c5ccc2[nH]5)C=C4)C=C3)cc1)[C@@H]1CC[C@@H]2[C@H]3CC[C@@H]4CC(=O)CC[C@]4(C)[C@@H]3CC(=O)[C@]21C
REMARK SMILES IDX 9 1 8 2 7 3 5 4 6 5 4 6 3 7 2 8 1 9 79 10 80 11 98 12 81 13
REMARK SMILES IDX 82 14 96 15 99 16 83 17 95 18 97 19 84 20 94 21 85 22 92 23
REMARK SMILES IDX 86 24 91 25 93 26 87 27 90 28 88 29 89 30 10 31 11 32 12 33
REMARK SMILES IDX 13 34 14 35 15 36 16 37 17 38 78 39 18 40 77 41 19 42 20 43
REMARK SMILES IDX 21 44 71 45 22 46 76 47 70 48 72 49 23 50 75 51 69 52 68 53
REMARK SMILES IDX 24 55 56 56 36 57 55 58 37 59 40 60 54 61 73 62 38 63 39 64
REMARK SMILES IDX 53 66 74 67 41 68 25 69 26 70 34 71 27 72 28 73 32 74 35 75
REMARK SMILES IDX 29 76 30 77 33 78 31 79 57 80 58 81 66 82 59 83 60 84 64 85
REMARK SMILES IDX 67 86 61 87 62 88 65 89 63 90 42 91 43 92 51 93 44 94 45 95
REMARK SMILES IDX 49 96 52 97 46 98 47 99 50 100 48 101
REMARK H PARENT 72 54 40 65
REMARK Flexibility Score: inf
ROOT
ATOM      1  C   UNL A   1      30.630  28.980  24.354  1.00  0.00     0.202 C 
ENDROOT
BRANCH   1   2
ATOM      2  C   UNL A   1      30.120  29.254  22.938  1.00  0.00     0.261 C 
BRANCH   2   3
ATOM      3  O   UNL A   1      30.415  28.203  21.982  1.00  0.00    -0.463 OA
BRANCH   3   4
ATOM      4  C   UNL A   1      30.708  26.954  22.443  1.00  0.00     0.305 C 
ATOM      5  O   UNL A   1      29.937  26.248  23.077  1.00  0.00    -0.252 OA
BRANCH   4   6
ATOM      6  C   UNL A   1      32.179  26.587  22.175  1.00  0.00     0.123 C 
BRANCH   6   7
ATOM      7  C   UNL A   1      33.234  26.509  23.331  1.00  0.00     0.015 C 
BRANCH   7   8
ATOM      8  C   UNL A   1      32.827  26.054  24.813  1.00  0.00    -0.010 C 
ATOM      9  C   UNL A   1      33.908  26.612  25.769  1.00  0.00     0.008 C 
BRANCH   8  10
ATOM     10  C   UNL A   1      32.627  24.518  25.130  1.00  0.00     0.005 C 
ATOM     11  C   UNL A   1      33.233  24.292  26.498  1.00  0.00     0.005 C 
ATOM     12  C   UNL A   1      33.183  23.254  24.318  1.00  0.00     0.032 C 
ATOM     13  C   UNL A   1      33.590  22.846  26.605  1.00  0.00     0.005 C 
ATOM     14  C   UNL A   1      33.017  22.155  25.418  1.00  0.00     0.006 C 
ATOM     15  C   UNL A   1      32.356  22.620  23.186  1.00  0.00     0.139 C 
ATOM     16  C   UNL A   1      34.620  23.478  23.844  1.00  0.00     0.020 C 
ATOM     17  C   UNL A   1      33.580  20.735  25.096  1.00  0.00    -0.003 C 
ATOM     18  C   UNL A   1      32.721  21.147  22.773  1.00  0.00     0.080 C 
ATOM     19  O   UNL A   1      31.452  23.238  22.626  1.00  0.00    -0.299 OA
ATOM     20  C   UNL A   1      33.658  19.797  26.313  1.00  0.00     0.004 C 
ATOM     21  C   UNL A   1      32.714  20.165  23.974  1.00  0.00     0.006 C 
ATOM     22  C   UNL A   1      33.032  18.402  26.307  1.00  0.00     0.005 C 
ATOM     23  C   UNL A   1      32.899  18.585  23.783  1.00  0.00    -0.025 C 
ATOM     24  C   UNL A   1      32.247  17.999  25.055  1.00  0.00     0.002 C 
ATOM     25  C   UNL A   1      34.335  17.963  23.728  1.00  0.00     0.015 C 
ATOM     26  C   UNL A   1      32.153  18.176  22.499  1.00  0.00     0.012 C 
ATOM     27  C   UNL A   1      32.045  16.488  24.990  1.00  0.00     0.079 C 
ATOM     28  C   UNL A   1      34.546  16.538  24.343  1.00  0.00     0.076 C 
ATOM     29  C   UNL A   1      33.366  15.798  24.948  1.00  0.00     0.133 C 
ATOM     30  O   UNL A   1      33.483  14.653  25.388  1.00  0.00    -0.300 OA
ENDBRANCH   8  10
ENDBRANCH   7   8
ENDBRANCH   6   7
ENDBRANCH   4   6
ENDBRANCH   3   4
ENDBRANCH   2   3
ENDBRANCH   1   2
BRANCH   1  31
ATOM     31  O   UNL A   1      31.081  30.138  25.046  1.00  0.00    -0.374 OA
BRANCH  31  32
ATOM     32  C   UNL A   1      32.394  30.015  25.580  1.00  0.00     0.202 C 
BRANCH  32  33
ATOM     33  C   UNL A   1      32.654  30.841  26.868  1.00  0.00     0.261 C 
BRANCH  33  34
ATOM     34  O   UNL A   1      33.958  30.627  27.495  1.00  0.00    -0.460 OA
BRANCH  34  35
ATOM     35  C   UNL A   1      34.782  31.623  27.934  1.00  0.00     0.338 C 
ATOM     36  O   UNL A   1      34.624  32.794  27.718  1.00  0.00    -0.246 OA
BRANCH  35  37
ATOM     37  C   UNL A   1      36.022  31.035  28.611  1.00  0.00     0.060 A 
ATOM     38  C   UNL A   1      37.165  31.835  28.701  1.00  0.00     0.016 A 
ATOM     39  C   UNL A   1      36.151  29.705  29.045  1.00  0.00     0.016 A 
ATOM     40  C   UNL A   1      38.418  31.286  29.079  1.00  0.00     0.010 A 
ATOM     41  C   UNL A   1      37.416  29.124  29.278  1.00  0.00     0.010 A 
ATOM     42  C   UNL A   1      38.579  29.907  29.303  1.00  0.00    -0.014 A 
BRANCH  42  43
ATOM     43  C   UNL A   1      39.841  29.340  29.849  1.00  0.00     0.031 A 
ATOM     44  C   UNL A   1      40.558  29.737  31.099  1.00  0.00     0.074 A 
ATOM     45  C   UNL A   1      40.507  28.449  29.103  1.00  0.00     0.049 A 
ATOM     46  N   UNL A   1      40.792  29.028  32.172  1.00  0.00    -0.248 NA
ATOM     47  C   UNL A   1      41.239  31.038  31.109  1.00  0.00     0.031 C 
ATOM     48  C   UNL A   1      40.168  28.064  27.737  1.00  0.00     0.029 A 
ATOM     49  N   UNL A   1      41.630  27.733  29.401  1.00  0.00    -0.354 N 
ATOM     50  C   UNL A   1      41.384  29.902  33.076  1.00  0.00     0.074 A 
ATOM     51  C   UNL A   1      41.659  31.131  32.372  1.00  0.00     0.031 C 
ATOM     52  C   UNL A   1      41.084  27.194  27.297  1.00  0.00     0.029 A 
ATOM     53  C   UNL A   1      41.994  26.889  28.393  1.00  0.00     0.049 A 
ATOM     54  H   UNL A   1      42.122  27.817  30.250  1.00  0.00     0.167 HD
ATOM     55  C   UNL A   1      41.869  29.630  34.309  1.00  0.00     0.037 A 
ATOM     56  C   UNL A   1      42.901  25.903  28.404  1.00  0.00     0.037 A 
ATOM     57  C   UNL A   1      42.597  28.412  34.540  1.00  0.00     0.049 A 
ATOM     58  C   UNL A   1      43.527  25.549  29.722  1.00  0.00     0.074 A 
ATOM     59  C   UNL A   1      43.315  28.005  35.648  1.00  0.00     0.029 A 
ATOM     60  N   UNL A   1      42.866  27.502  33.526  1.00  0.00    -0.354 N 
ATOM     61  N   UNL A   1      43.410  26.144  30.888  1.00  0.00    -0.248 NA
ATOM     62  C   UNL A   1      44.346  24.336  29.737  1.00  0.00     0.031 C 
ATOM     63  C   UNL A   1      44.136  26.938  35.248  1.00  0.00     0.029 A 
ATOM     64  C   UNL A   1      43.844  26.618  33.929  1.00  0.00     0.049 A 
ATOM     65  H   UNL A   1      42.423  27.490  32.647  1.00  0.00     0.167 HD
ATOM     66  C   UNL A   1      44.137  25.372  31.784  1.00  0.00     0.074 A 
ATOM     67  C   UNL A   1      44.646  24.244  31.024  1.00  0.00     0.031 C 
ATOM     68  C   UNL A   1      44.376  25.561  33.109  1.00  0.00     0.037 A 
BRANCH  55  69
ATOM     69  C   UNL A   1      41.799  30.682  35.380  1.00  0.00     0.064 A 
ATOM     70  C   UNL A   1      42.934  31.478  35.629  1.00  0.00     0.173 A 
ATOM     71  C   UNL A   1      40.611  31.037  36.029  1.00  0.00     0.173 A 
ATOM     72  F   UNL A   1      44.090  31.213  35.003  1.00  0.00    -0.203 F 
ATOM     73  C   UNL A   1      42.876  32.582  36.482  1.00  0.00     0.198 A 
ATOM     74  C   UNL A   1      40.555  32.146  36.880  1.00  0.00     0.198 A 
ATOM     75  F   UNL A   1      39.491  30.330  35.821  1.00  0.00    -0.203 F 
ATOM     76  F   UNL A   1      43.964  33.343  36.676  1.00  0.00    -0.200 F 
ATOM     77  C   UNL A   1      41.685  32.919  37.103  1.00  0.00     0.200 A 
ATOM     78  F   UNL A   1      39.397  32.480  37.467  1.00  0.00    -0.200 F 
ATOM     79  F   UNL A   1      41.619  33.993  37.903  1.00  0.00    -0.200 F 
ENDBRANCH  55  69
BRANCH  56  80
ATOM     80  C   UNL A   1      43.062  25.104  27.169  1.00  0.00     0.064 A 
ATOM     81  C   UNL A   1      44.147  25.321  26.312  1.00  0.00     0.173 A 
ATOM     82  C   UNL A   1      42.227  24.007  26.910  1.00  0.00     0.173 A 
ATOM     83  F   UNL A   1      44.992  26.337  26.545  1.00  0.00    -0.203 F 
ATOM     84  C   UNL A   1      44.376  24.487  25.222  1.00  0.00     0.198 A 
ATOM     85  C   UNL A   1      42.476  23.155  25.838  1.00  0.00     0.198 A 
ATOM     86  F   UNL A   1      41.212  23.724  27.741  1.00  0.00    -0.203 F 
ATOM     87  F   UNL A   1      45.411  24.726  24.406  1.00  0.00    -0.200 F 
ATOM     88  C   UNL A   1      43.545  23.401  24.991  1.00  0.00     0.200 A 
ATOM     89  F   UNL A   1      41.699  22.080  25.646  1.00  0.00    -0.200 F 
ATOM     90  F   UNL A   1      43.785  22.581  23.958  1.00  0.00    -0.200 F 
ENDBRANCH  56  80
BRANCH  68  91
ATOM     91  C   UNL A   1      45.275  24.564  33.773  1.00  0.00     0.064 A 
ATOM     92  C   UNL A   1      44.763  23.404  34.374  1.00  0.00     0.173 A 
ATOM     93  C   UNL A   1      46.661  24.769  33.802  1.00  0.00     0.173 A 
ATOM     94  F   UNL A   1      43.441  23.167  34.371  1.00  0.00    -0.203 F 
ATOM     95  C   UNL A   1      45.602  22.515  35.035  1.00  0.00     0.198 A 
ATOM     96  C   UNL A   1      47.502  23.856  34.427  1.00  0.00     0.198 A 
ATOM     97  F   UNL A   1      47.198  25.855  33.226  1.00  0.00    -0.203 F 
ATOM     98  F   UNL A   1      45.084  21.456  35.672  1.00  0.00    -0.200 F 
ATOM     99  C   UNL A   1      46.971  22.739  35.058  1.00  0.00     0.200 A 
ATOM    100  F   UNL A   1      48.825  24.063  34.433  1.00  0.00    -0.200 F 
ATOM    101  F   UNL A   1      47.778  21.886  35.701  1.00  0.00    -0.200 F 
ENDBRANCH  68  91
ENDBRANCH  42  43
ENDBRANCH  35  37
ENDBRANCH  34  35
ENDBRANCH  33  34
ENDBRANCH  32  33
ENDBRANCH  31  32
ENDBRANCH   1  31
TORSDOF 17
ENDMDL
MODEL 3
REMARK VINA RESULT:     -12.2      1.929      3.093
REMARK SMILES C[C@@H](CCC(=O)OCCOCCOC(=O)c1ccc(-c2c3nc(c(-c4c(F)c(F)c(F)c(F)c4F)c4ccc([nH]4)c(-c4c(F)c(F)c(F)c(F)c4F)c4nc(c(-c5c(F)c(F)c(F)c(F)c5F)c5ccc2[nH]5)C=C4)C=C3)cc1)[C@@H]1CC[C@@H]2[C@H]3CC[C@@H]4CC(=O)CC[C@]4(C)[C@@H]3CC(=O)[C@]21C
REMARK SMILES IDX 9 1 8 2 7 3 5 4 6 5 4 6 3 7 2 8 1 9 79 10 80 11 98 12 81 13
REMARK SMILES IDX 82 14 96 15 99 16 83 17 95 18 97 19 84 20 94 21 85 22 92 23
REMARK SMILES IDX 86 24 91 25 93 26 87 27 90 28 88 29 89 30 10 31 11 32 12 33
REMARK SMILES IDX 13 34 14 35 15 36 16 37 17 38 78 39 18 40 77 41 19 42 20 43
REMARK SMILES IDX 21 44 71 45 22 46 76 47 70 48 72 49 23 50 75 51 69 52 68 53
REMARK SMILES IDX 24 55 56 56 36 57 55 58 37 59 40 60 54 61 73 62 38 63 39 64
REMARK SMILES IDX 53 66 74 67 41 68 25 69 26 70 34 71 27 72 28 73 32 74 35 75
REMARK SMILES IDX 29 76 30 77 33 78 31 79 57 80 58 81 66 82 59 83 60 84 64 85
REMARK SMILES IDX 67 86 61 87 62 88 65 89 63 90 42 91 43 92 51 93 44 94 45 95
REMARK SMILES IDX 49 96 52 97 46 98 47 99 50 100 48 101
REMARK H PARENT 72 54 40 65
REMARK Flexibility Score: inf
ROOT
ATOM      1  C   UNL A   1      32.138  29.584  26.161  1.00  0.00     0.202 C 
ENDROOT
BRANCH   1   2
ATOM      2  C   UNL A   1      32.026  29.621  24.636  1.00  0.00     0.261 C 
BRANCH   2   3
ATOM      3  O   UNL A   1      30.666  29.565  24.135  1.00  0.00    -0.463 OA
BRANCH   3   4
ATOM      4  C   UNL A   1      30.396  28.794  23.043  1.00  0.00     0.305 C 
ATOM      5  O   UNL A   1      30.324  29.214  21.896  1.00  0.00    -0.252 OA
BRANCH   4   6
ATOM      6  C   UNL A   1      30.069  27.344  23.444  1.00  0.00     0.123 C 
BRANCH   6   7
ATOM      7  C   UNL A   1      31.194  26.316  23.810  1.00  0.00     0.015 C 
BRANCH   7   8
ATOM      8  C   UNL A   1      31.339  25.719  25.290  1.00  0.00    -0.010 C 
ATOM      9  C   UNL A   1      32.615  26.341  25.905  1.00  0.00     0.008 C 
BRANCH   8  10
ATOM     10  C   UNL A   1      31.398  24.152  25.497  1.00  0.00     0.005 C 
ATOM     11  C   UNL A   1      31.870  23.937  26.919  1.00  0.00     0.005 C 
ATOM     12  C   UNL A   1      32.277  23.076  24.700  1.00  0.00     0.032 C 
ATOM     13  C   UNL A   1      32.480  22.577  26.996  1.00  0.00     0.005 C 
ATOM     14  C   UNL A   1      32.194  21.885  25.709  1.00  0.00     0.006 C 
ATOM     15  C   UNL A   1      31.727  22.391  23.438  1.00  0.00     0.139 C 
ATOM     16  C   UNL A   1      33.692  23.594  24.430  1.00  0.00     0.020 C 
ATOM     17  C   UNL A   1      33.052  20.620  25.389  1.00  0.00    -0.003 C 
ATOM     18  C   UNL A   1      32.412  21.045  22.998  1.00  0.00     0.080 C 
ATOM     19  O   UNL A   1      30.795  22.874  22.797  1.00  0.00    -0.299 OA
ATOM     20  C   UNL A   1      33.163  19.622  26.554  1.00  0.00     0.004 C 
ATOM     21  C   UNL A   1      32.450  19.989  24.135  1.00  0.00     0.006 C 
ATOM     22  C   UNL A   1      32.818  18.141  26.394  1.00  0.00     0.005 C 
ATOM     23  C   UNL A   1      32.954  18.488  23.887  1.00  0.00    -0.025 C 
ATOM     24  C   UNL A   1      32.279  17.698  25.030  1.00  0.00     0.002 C 
ATOM     25  C   UNL A   1      34.478  18.145  23.987  1.00  0.00     0.015 C 
ATOM     26  C   UNL A   1      32.456  18.050  22.496  1.00  0.00     0.012 C 
ATOM     27  C   UNL A   1      32.377  16.185  24.860  1.00  0.00     0.079 C 
ATOM     28  C   UNL A   1      34.882  16.739  24.549  1.00  0.00     0.076 C 
ATOM     29  C   UNL A   1      33.801  15.753  24.954  1.00  0.00     0.133 C 
ATOM     30  O   UNL A   1      34.081  14.618  25.346  1.00  0.00    -0.300 OA
ENDBRANCH   8  10
ENDBRANCH   7   8
ENDBRANCH   6   7
ENDBRANCH   4   6
ENDBRANCH   3   4
ENDBRANCH   2   3
ENDBRANCH   1   2
BRANCH   1  31
ATOM     31  O   UNL A   1      32.430  30.843  26.755  1.00  0.00    -0.374 OA
BRANCH  31  32
ATOM     32  C   UNL A   1      31.426  31.828  26.541  1.00  0.00     0.202 C 
BRANCH  32  33
ATOM     33  C   UNL A   1      31.829  33.269  26.949  1.00  0.00     0.261 C 
BRANCH  33  34
ATOM     34  O   UNL A   1      33.121  33.390  27.625  1.00  0.00    -0.460 OA
BRANCH  34  35
ATOM     35  C   UNL A   1      33.311  33.987  28.838  1.00  0.00     0.338 C 
ATOM     36  O   UNL A   1      32.597  34.828  29.311  1.00  0.00    -0.246 OA
BRANCH  35  37
ATOM     37  C   UNL A   1      34.645  33.550  29.449  1.00  0.00     0.060 A 
ATOM     38  C   UNL A   1      35.821  33.875  28.767  1.00  0.00     0.016 A 
ATOM     39  C   UNL A   1      34.784  32.735  30.585  1.00  0.00     0.016 A 
ATOM     40  C   UNL A   1      37.064  33.295  29.129  1.00  0.00     0.010 A 
ATOM     41  C   UNL A   1      35.984  32.044  30.856  1.00  0.00     0.010 A 
ATOM     42  C   UNL A   1      37.153  32.313  30.132  1.00  0.00    -0.014 A 
BRANCH  42  43
ATOM     43  C   UNL A   1      38.463  31.812  30.628  1.00  0.00     0.031 A 
ATOM     44  C   UNL A   1      39.239  32.291  31.813  1.00  0.00     0.074 A 
ATOM     45  C   UNL A   1      39.113  30.906  29.886  1.00  0.00     0.049 A 
ATOM     46  N   UNL A   1      39.558  31.643  32.902  1.00  0.00    -0.248 NA
ATOM     47  C   UNL A   1      39.876  33.611  31.721  1.00  0.00     0.031 C 
ATOM     48  C   UNL A   1      38.709  30.446  28.562  1.00  0.00     0.029 A 
ATOM     49  N   UNL A   1      40.275  30.241  30.150  1.00  0.00    -0.354 N 
ATOM     50  C   UNL A   1      40.172  32.576  33.728  1.00  0.00     0.074 A 
ATOM     51  C   UNL A   1      40.365  33.777  32.951  1.00  0.00     0.031 C 
ATOM     52  C   UNL A   1      39.626  29.584  28.109  1.00  0.00     0.029 A 
ATOM     53  C   UNL A   1      40.608  29.360  29.162  1.00  0.00     0.049 A 
ATOM     54  H   UNL A   1      40.813  30.380  30.962  1.00  0.00     0.167 HD
ATOM     55  C   UNL A   1      40.737  32.380  34.941  1.00  0.00     0.037 A 
ATOM     56  C   UNL A   1      41.546  28.403  29.164  1.00  0.00     0.037 A 
ATOM     57  C   UNL A   1      41.517  31.197  35.184  1.00  0.00     0.049 A 
ATOM     58  C   UNL A   1      42.258  28.132  30.458  1.00  0.00     0.074 A 
ATOM     59  C   UNL A   1      42.311  30.866  36.265  1.00  0.00     0.029 A 
ATOM     60  N   UNL A   1      41.756  30.247  34.199  1.00  0.00    -0.354 N 
ATOM     61  N   UNL A   1      42.190  28.780  31.600  1.00  0.00    -0.248 NA
ATOM     62  C   UNL A   1      43.117  26.948  30.481  1.00  0.00     0.031 C 
ATOM     63  C   UNL A   1      43.143  29.806  35.867  1.00  0.00     0.029 A 
ATOM     64  C   UNL A   1      42.785  29.414  34.584  1.00  0.00     0.049 A 
ATOM     65  H   UNL A   1      41.264  30.179  33.349  1.00  0.00     0.167 HD
ATOM     66  C   UNL A   1      42.994  28.074  32.486  1.00  0.00     0.074 A 
ATOM     67  C   UNL A   1      43.494  26.927  31.751  1.00  0.00     0.031 C 
ATOM     68  C   UNL A   1      43.303  28.334  33.783  1.00  0.00     0.037 A 
BRANCH  55  69
ATOM     69  C   UNL A   1      40.694  33.480  35.963  1.00  0.00     0.064 A 
ATOM     70  C   UNL A   1      41.696  34.469  35.942  1.00  0.00     0.173 A 
ATOM     71  C   UNL A   1      39.615  33.678  36.832  1.00  0.00     0.173 A 
ATOM     72  F   UNL A   1      42.734  34.356  35.099  1.00  0.00    -0.203 F 
ATOM     73  C   UNL A   1      41.613  35.608  36.747  1.00  0.00     0.198 A 
ATOM     74  C   UNL A   1      39.532  34.820  37.635  1.00  0.00     0.198 A 
ATOM     75  F   UNL A   1      38.620  32.780  36.887  1.00  0.00    -0.203 F 
ATOM     76  F   UNL A   1      42.565  36.551  36.683  1.00  0.00    -0.200 F 
ATOM     77  C   UNL A   1      40.529  35.785  37.589  1.00  0.00     0.200 A 
ATOM     78  F   UNL A   1      38.473  34.998  38.437  1.00  0.00    -0.200 F 
ATOM     79  F   UNL A   1      40.433  36.888  38.345  1.00  0.00    -0.200 F 
ENDBRANCH  55  69
BRANCH  56  80
ATOM     80  C   UNL A   1      41.661  27.551  27.961  1.00  0.00     0.064 A 
ATOM     81  C   UNL A   1      42.589  27.850  26.957  1.00  0.00     0.173 A 
ATOM     82  C   UNL A   1      40.962  26.338  27.871  1.00  0.00     0.173 A 
ATOM     83  F   UNL A   1      43.306  28.982  27.024  1.00  0.00    -0.203 F 
ATOM     84  C   UNL A   1      42.794  26.982  25.889  1.00  0.00     0.198 A 
ATOM     85  C   UNL A   1      41.191  25.456  26.819  1.00  0.00     0.198 A 
ATOM     86  F   UNL A   1      40.108  25.981  28.843  1.00  0.00    -0.203 F 
ATOM     87  F   UNL A   1      43.676  27.299  24.932  1.00  0.00    -0.200 F 
ATOM     88  C   UNL A   1      42.100  25.782  25.826  1.00  0.00     0.200 A 
ATOM     89  F   UNL A   1      40.554  24.277  26.787  1.00  0.00    -0.200 F 
ATOM     90  F   UNL A   1      42.321  24.933  24.813  1.00  0.00    -0.200 F 
ENDBRANCH  56  80
BRANCH  68  91
ATOM     91  C   UNL A   1      44.271  27.399  34.439  1.00  0.00     0.064 A 
ATOM     92  C   UNL A   1      45.652  27.651  34.433  1.00  0.00     0.173 A 
ATOM     93  C   UNL A   1      43.812  26.244  35.087  1.00  0.00     0.173 A 
ATOM     94  F   UNL A   1      46.136  28.746  33.824  1.00  0.00    -0.203 F 
ATOM     95  C   UNL A   1      46.543  26.748  34.998  1.00  0.00     0.198 A 
ATOM     96  C   UNL A   1      44.704  25.363  35.688  1.00  0.00     0.198 A 
ATOM     97  F   UNL A   1      42.500  25.969  35.134  1.00  0.00    -0.203 F 
ATOM     98  F   UNL A   1      47.862  26.968  34.909  1.00  0.00    -0.200 F 
ATOM     99  C   UNL A   1      46.069  25.607  35.628  1.00  0.00     0.200 A 
ATOM    100  F   UNL A   1      44.244  24.272  36.313  1.00  0.00    -0.200 F 
ATOM    101  F   UNL A   1      46.929  24.733  36.166  1.00  0.00    -0.200 F 
ENDBRANCH  68  91
ENDBRANCH  42  43
ENDBRANCH  35  37
ENDBRANCH  34  35
ENDBRANCH  33  34
ENDBRANCH  32  33
ENDBRANCH  31  32
ENDBRANCH   1  31
TORSDOF 17
ENDMDL
