MODEL 1
REMARK VINA RESULT:     -10.5      0.000      0.000
REMARK SMILES CC(C)C[C@H](NC(=O)CNC(=O)[C@@H](NC(=O)OCc1ccccc1)C(C)C)C(=O)OCCOCCOC(=O)c1ccc(-c2c3nc(c(-c4c(F)c(F)c(F)c(F)c4F)c4ccc([nH]4)c(-c4c(F)c(F)c(F)c(F)c4F)c4nc(c(-c5c(F)c(F)c(F)c(F)c5F)c5ccc2[nH]5)C=C4)C=C3)cc1
REMARK SMILES IDX 30 1 28 2 29 3 5 4 4 5 2 6 1 7 3 8 6 9 7 10 8 12 9 13 10 14
REMARK SMILES IDX 11 15 12 17 13 18 14 19 15 20 16 22 17 23 18 24 19 25 20 26
REMARK SMILES IDX 24 27 21 28 23 29 22 30 25 31 26 32 27 33 31 34 32 35 33 36
REMARK SMILES IDX 34 37 35 38 36 39 37 40 38 41 39 42 40 43 101 44 41 45
REMARK SMILES IDX 100 46 42 47 43 48 44 49 94 50 45 51 99 52 93 53 95 54 46 55
REMARK SMILES IDX 98 56 92 57 91 58 47 60 79 61 59 62 78 63 60 64 63 65 77 66
REMARK SMILES IDX 96 67 61 68 62 69 76 71 97 72 64 73 48 74 49 75 57 76 50 77
REMARK SMILES IDX 51 78 55 79 58 80 52 81 53 82 56 83 54 84 80 85 81 86 89 87
REMARK SMILES IDX 82 88 83 89 87 90 90 91 84 92 85 93 88 94 86 95 65 96 66 97
REMARK SMILES IDX 74 98 67 99 68 100 72 101 75 102 69 103 70 104 73 105 71 106
REMARK H PARENT 6 11 10 16 14 21 95 59 63 70
REMARK Flexibility Score: inf
ROOT
ATOM      1  O   UNL A   1      34.154  23.747  24.932  1.00  0.00    -0.462 OA
ENDROOT
BRANCH   1   2
ATOM      2  C   UNL A   1      34.182  23.507  23.593  1.00  0.00     0.328 C 
ATOM      3  O   UNL A   1      35.201  23.256  22.955  1.00  0.00    -0.250 OA
BRANCH   2   4
ATOM      4  C   UNL A   1      32.828  23.707  22.907  1.00  0.00     0.192 C 
BRANCH   4   5
ATOM      5  C   UNL A   1      31.911  22.500  23.140  1.00  0.00     0.040 C 
BRANCH   5   6
ATOM      6  C   UNL A   1      32.465  21.126  22.695  1.00  0.00    -0.015 C 
ATOM      7  C   UNL A   1      32.385  20.006  23.737  1.00  0.00     0.007 C 
ATOM      8  C   UNL A   1      31.730  20.663  21.437  1.00  0.00     0.007 C 
ENDBRANCH   5   6
ENDBRANCH   4   5
BRANCH   4   9
ATOM      9  N   UNL A   1      32.913  24.058  21.491  1.00  0.00    -0.341 N 
ATOM     10  C   UNL A   1      32.651  25.252  20.881  1.00  0.00     0.240 C 
ATOM     11  H   UNL A   1      33.199  23.331  20.891  1.00  0.00     0.164 HD
ATOM     12  O   UNL A   1      33.033  25.381  19.713  1.00  0.00    -0.273 OA
BRANCH  10  13
ATOM     13  C   UNL A   1      32.042  26.469  21.624  1.00  0.00     0.216 C 
BRANCH  13  14
ATOM     14  N   UNL A   1      32.960  27.421  22.222  1.00  0.00    -0.345 N 
ATOM     15  C   UNL A   1      32.909  28.251  23.292  1.00  0.00     0.243 C 
ATOM     16  H   UNL A   1      33.817  27.476  21.741  1.00  0.00     0.164 HD
ATOM     17  O   UNL A   1      33.952  28.887  23.496  1.00  0.00    -0.273 OA
BRANCH  15  18
ATOM     18  C   UNL A   1      31.721  28.389  24.298  1.00  0.00     0.177 C 
BRANCH  18  19
ATOM     19  N   UNL A   1      30.825  27.226  24.327  1.00  0.00    -0.309 N 
ATOM     20  C   UNL A   1      29.556  27.033  23.894  1.00  0.00     0.408 C 
ATOM     21  H   UNL A   1      31.225  26.429  24.744  1.00  0.00     0.167 HD
ATOM     22  O   UNL A   1      28.877  26.126  24.359  1.00  0.00    -0.225 OA
BRANCH  20  23
ATOM     23  O   UNL A   1      29.184  27.851  22.892  1.00  0.00    -0.445 OA
BRANCH  23  24
ATOM     24  C   UNL A   1      28.069  28.702  23.190  1.00  0.00     0.270 C 
BRANCH  24  25
ATOM     25  C   UNL A   1      28.171  30.110  22.625  1.00  0.00    -0.011 A 
ATOM     26  C   UNL A   1      28.061  30.409  21.257  1.00  0.00     0.007 A 
ATOM     27  C   UNL A   1      28.320  31.181  23.520  1.00  0.00     0.007 A 
ATOM     28  C   UNL A   1      28.089  31.726  20.797  1.00  0.00     0.000 A 
ATOM     29  C   UNL A   1      28.357  32.500  23.059  1.00  0.00     0.000 A 
ATOM     30  C   UNL A   1      28.237  32.773  21.699  1.00  0.00     0.000 A 
ENDBRANCH  24  25
ENDBRANCH  23  24
ENDBRANCH  20  23
ENDBRANCH  18  19
BRANCH  18  31
ATOM     31  C   UNL A   1      32.146  28.993  25.657  1.00  0.00     0.015 C 
ATOM     32  C   UNL A   1      31.644  30.436  25.832  1.00  0.00     0.010 C 
ATOM     33  C   UNL A   1      31.581  28.177  26.830  1.00  0.00     0.010 C 
ENDBRANCH  18  31
ENDBRANCH  15  18
ENDBRANCH  13  14
ENDBRANCH  10  13
ENDBRANCH   4   9
ENDBRANCH   2   4
ENDBRANCH   1   2
BRANCH   1  34
ATOM     34  C   UNL A   1      33.784  22.592  25.702  1.00  0.00     0.261 C 
BRANCH  34  35
ATOM     35  C   UNL A   1      34.951  21.698  26.128  1.00  0.00     0.202 C 
BRANCH  35  36
ATOM     36  O   UNL A   1      35.747  21.079  25.130  1.00  0.00    -0.374 OA
BRANCH  36  37
ATOM     37  C   UNL A   1      37.069  20.654  25.457  1.00  0.00     0.202 C 
BRANCH  37  38
ATOM     38  C   UNL A   1      38.238  21.616  25.210  1.00  0.00     0.261 C 
BRANCH  38  39
ATOM     39  O   UNL A   1      38.517  22.464  26.339  1.00  0.00    -0.460 OA
BRANCH  39  40
ATOM     40  C   UNL A   1      38.163  23.761  26.167  1.00  0.00     0.338 C 
ATOM     41  O   UNL A   1      37.108  24.201  25.743  1.00  0.00    -0.246 OA
BRANCH  40  42
ATOM     42  C   UNL A   1      39.188  24.635  26.760  1.00  0.00     0.060 A 
ATOM     43  C   UNL A   1      39.173  24.813  28.150  1.00  0.00     0.016 A 
ATOM     44  C   UNL A   1      40.069  25.356  25.955  1.00  0.00     0.016 A 
ATOM     45  C   UNL A   1      40.012  25.753  28.742  1.00  0.00     0.010 A 
ATOM     46  C   UNL A   1      40.896  26.314  26.546  1.00  0.00     0.010 A 
ATOM     47  C   UNL A   1      40.838  26.542  27.935  1.00  0.00    -0.014 A 
BRANCH  47  48
ATOM     48  C   UNL A   1      41.488  27.741  28.510  1.00  0.00     0.031 A 
ATOM     49  C   UNL A   1      40.616  28.856  29.013  1.00  0.00     0.074 A 
ATOM     50  C   UNL A   1      42.826  27.827  28.596  1.00  0.00     0.049 A 
ATOM     51  N   UNL A   1      40.951  30.035  29.467  1.00  0.00    -0.248 NA
ATOM     52  C   UNL A   1      39.166  28.605  28.993  1.00  0.00     0.031 C 
ATOM     53  C   UNL A   1      43.766  26.785  28.195  1.00  0.00     0.029 A 
ATOM     54  N   UNL A   1      43.622  28.854  29.037  1.00  0.00    -0.354 N 
ATOM     55  C   UNL A   1      39.755  30.672  29.772  1.00  0.00     0.074 A 
ATOM     56  C   UNL A   1      38.686  29.759  29.430  1.00  0.00     0.031 C 
ATOM     57  C   UNL A   1      45.019  27.233  28.389  1.00  0.00     0.029 A 
ATOM     58  C   UNL A   1      44.963  28.606  28.889  1.00  0.00     0.049 A 
ATOM     59  H   UNL A   1      43.265  29.686  29.423  1.00  0.00     0.167 HD
ATOM     60  C   UNL A   1      39.568  31.908  30.293  1.00  0.00     0.037 A 
ATOM     61  C   UNL A   1      46.020  29.412  29.104  1.00  0.00     0.037 A 
ATOM     62  C   UNL A   1      40.639  32.808  30.631  1.00  0.00     0.049 A 
ATOM     63  C   UNL A   1      45.786  30.811  29.615  1.00  0.00     0.074 A 
ATOM     64  C   UNL A   1      40.562  34.076  31.174  1.00  0.00     0.029 A 
ATOM     65  N   UNL A   1      41.986  32.531  30.445  1.00  0.00    -0.354 N 
ATOM     66  N   UNL A   1      44.655  31.407  29.909  1.00  0.00    -0.248 NA
ATOM     67  C   UNL A   1      46.976  31.648  29.824  1.00  0.00     0.031 C 
ATOM     68  C   UNL A   1      41.860  34.590  31.269  1.00  0.00     0.029 A 
ATOM     69  C   UNL A   1      42.751  33.617  30.842  1.00  0.00     0.049 A 
ATOM     70  H   UNL A   1      42.346  31.688  30.086  1.00  0.00     0.167 HD
ATOM     71  C   UNL A   1      44.998  32.673  30.368  1.00  0.00     0.074 A 
ATOM     72  C   UNL A   1      46.443  32.756  30.318  1.00  0.00     0.031 C 
ATOM     73  C   UNL A   1      44.190  33.674  30.797  1.00  0.00     0.037 A 
BRANCH  60  74
ATOM     74  C   UNL A   1      38.153  32.368  30.490  1.00  0.00     0.064 A 
ATOM     75  C   UNL A   1      37.492  33.161  29.540  1.00  0.00     0.173 A 
ATOM     76  C   UNL A   1      37.444  31.997  31.643  1.00  0.00     0.173 A 
ATOM     77  F   UNL A   1      38.130  33.556  28.427  1.00  0.00    -0.203 F 
ATOM     78  C   UNL A   1      36.184  33.593  29.752  1.00  0.00     0.198 A 
ATOM     79  C   UNL A   1      36.126  32.405  31.836  1.00  0.00     0.198 A 
ATOM     80  F   UNL A   1      38.027  31.238  32.581  1.00  0.00    -0.203 F 
ATOM     81  F   UNL A   1      35.592  34.395  28.857  1.00  0.00    -0.200 F 
ATOM     82  C   UNL A   1      35.501  33.210  30.896  1.00  0.00     0.200 A 
ATOM     83  F   UNL A   1      35.464  32.023  32.937  1.00  0.00    -0.200 F 
ATOM     84  F   UNL A   1      34.242  33.623  31.097  1.00  0.00    -0.200 F 
ENDBRANCH  60  74
BRANCH  61  85
ATOM     85  C   UNL A   1      47.393  28.920  28.822  1.00  0.00     0.064 A 
ATOM     86  C   UNL A   1      47.960  29.052  27.547  1.00  0.00     0.173 A 
ATOM     87  C   UNL A   1      48.165  28.307  29.819  1.00  0.00     0.173 A 
ATOM     88  F   UNL A   1      47.252  29.608  26.554  1.00  0.00    -0.203 F 
ATOM     89  C   UNL A   1      49.242  28.576  27.278  1.00  0.00     0.198 A 
ATOM     90  C   UNL A   1      49.458  27.858  29.556  1.00  0.00     0.198 A 
ATOM     91  F   UNL A   1      47.669  28.157  31.057  1.00  0.00    -0.203 F 
ATOM     92  F   UNL A   1      49.744  28.678  26.040  1.00  0.00    -0.200 F 
ATOM     93  C   UNL A   1      49.992  27.986  28.284  1.00  0.00     0.200 A 
ATOM     94  F   UNL A   1      50.183  27.301  30.535  1.00  0.00    -0.200 F 
ATOM     95  F   UNL A   1      51.228  27.538  28.026  1.00  0.00    -0.200 F 
ENDBRANCH  61  85
BRANCH  73  96
ATOM     96  C   UNL A   1      44.847  34.928  31.297  1.00  0.00     0.064 A 
ATOM     97  C   UNL A   1      45.218  35.084  32.640  1.00  0.00     0.173 A 
ATOM     98  C   UNL A   1      45.161  35.965  30.404  1.00  0.00     0.173 A 
ATOM     99  F   UNL A   1      44.929  34.128  33.536  1.00  0.00    -0.203 F 
ATOM    100  C   UNL A   1      45.858  36.242  33.076  1.00  0.00     0.198 A 
ATOM    101  C   UNL A   1      45.827  37.107  30.836  1.00  0.00     0.198 A 
ATOM    102  F   UNL A   1      44.835  35.862  29.107  1.00  0.00    -0.203 F 
ATOM    103  F   UNL A   1      46.164  36.389  34.373  1.00  0.00    -0.200 F 
ATOM    104  C   UNL A   1      46.170  37.248  32.173  1.00  0.00     0.200 A 
ATOM    105  F   UNL A   1      46.142  38.070  29.959  1.00  0.00    -0.200 F 
ATOM    106  F   UNL A   1      46.796  38.356  32.591  1.00  0.00    -0.200 F 
ENDBRANCH  73  96
ENDBRANCH  47  48
ENDBRANCH  40  42
ENDBRANCH  39  40
ENDBRANCH  38  39
ENDBRANCH  37  38
ENDBRANCH  36  37
ENDBRANCH  35  36
ENDBRANCH  34  35
ENDBRANCH   1  34
TORSDOF 25
ENDMDL
MODEL 2
REMARK VINA RESULT:     -10.2      4.061      9.175
REMARK SMILES CC(C)C[C@H](NC(=O)CNC(=O)[C@@H](NC(=O)OCc1ccccc1)C(C)C)C(=O)OCCOCCOC(=O)c1ccc(-c2c3nc(c(-c4c(F)c(F)c(F)c(F)c4F)c4ccc([nH]4)c(-c4c(F)c(F)c(F)c(F)c4F)c4nc(c(-c5c(F)c(F)c(F)c(F)c5F)c5ccc2[nH]5)C=C4)C=C3)cc1
REMARK SMILES IDX 30 1 28 2 29 3 5 4 4 5 2 6 1 7 3 8 6 9 7 10 8 12 9 13 10 14
REMARK SMILES IDX 11 15 12 17 13 18 14 19 15 20 16 22 17 23 18 24 19 25 20 26
REMARK SMILES IDX 24 27 21 28 23 29 22 30 25 31 26 32 27 33 31 34 32 35 33 36
REMARK SMILES IDX 34 37 35 38 36 39 37 40 38 41 39 42 40 43 101 44 41 45
REMARK SMILES IDX 100 46 42 47 43 48 44 49 94 50 45 51 99 52 93 53 95 54 46 55
REMARK SMILES IDX 98 56 92 57 91 58 47 60 79 61 59 62 78 63 60 64 63 65 77 66
REMARK SMILES IDX 96 67 61 68 62 69 76 71 97 72 64 73 48 74 49 75 57 76 50 77
REMARK SMILES IDX 51 78 55 79 58 80 52 81 53 82 56 83 54 84 80 85 81 86 89 87
REMARK SMILES IDX 82 88 83 89 87 90 90 91 84 92 85 93 88 94 86 95 65 96 66 97
REMARK SMILES IDX 74 98 67 99 68 100 72 101 75 102 69 103 70 104 73 105 71 106
REMARK H PARENT 6 11 10 16 14 21 95 59 63 70
REMARK Flexibility Score: inf
ROOT
ATOM      1  O   UNL A   1      36.586  20.734  24.885  1.00  0.00    -0.462 OA
ENDROOT
BRANCH   1   2
ATOM      2  C   UNL A   1      35.355  20.975  25.411  1.00  0.00     0.328 C 
ATOM      3  O   UNL A   1      35.131  21.780  26.312  1.00  0.00    -0.250 OA
BRANCH   2   4
ATOM      4  C   UNL A   1      34.265  20.047  24.869  1.00  0.00     0.192 C 
BRANCH   4   5
ATOM      5  C   UNL A   1      34.831  18.654  24.566  1.00  0.00     0.040 C 
BRANCH   5   6
ATOM      6  C   UNL A   1      33.881  17.460  24.826  1.00  0.00    -0.015 C 
ATOM      7  C   UNL A   1      32.534  17.808  25.466  1.00  0.00     0.007 C 
ATOM      8  C   UNL A   1      33.611  16.728  23.511  1.00  0.00     0.007 C 
ENDBRANCH   5   6
ENDBRANCH   4   5
BRANCH   4   9
ATOM      9  N   UNL A   1      33.519  20.587  23.735  1.00  0.00    -0.341 N 
ATOM     10  C   UNL A   1      32.526  21.525  23.724  1.00  0.00     0.240 C 
ATOM     11  H   UNL A   1      33.767  20.224  22.853  1.00  0.00     0.164 HD
ATOM     12  O   UNL A   1      32.220  22.005  22.627  1.00  0.00    -0.273 OA
BRANCH  10  13
ATOM     13  C   UNL A   1      31.887  22.101  25.014  1.00  0.00     0.216 C 
BRANCH  13  14
ATOM     14  N   UNL A   1      32.593  23.170  25.696  1.00  0.00    -0.345 N 
ATOM     15  C   UNL A   1      32.720  24.505  25.500  1.00  0.00     0.243 C 
ATOM     16  H   UNL A   1      33.095  22.853  26.481  1.00  0.00     0.164 HD
ATOM     17  O   UNL A   1      33.398  25.086  26.359  1.00  0.00    -0.273 OA
BRANCH  15  18
ATOM     18  C   UNL A   1      32.029  25.343  24.377  1.00  0.00     0.177 C 
BRANCH  18  19
ATOM     19  N   UNL A   1      32.580  25.113  23.035  1.00  0.00    -0.309 N 
ATOM     20  C   UNL A   1      33.261  25.906  22.174  1.00  0.00     0.408 C 
ATOM     21  H   UNL A   1      32.422  24.203  22.694  1.00  0.00     0.167 HD
ATOM     22  O   UNL A   1      33.283  25.642  20.979  1.00  0.00    -0.225 OA
BRANCH  20  23
ATOM     23  O   UNL A   1      33.941  26.906  22.764  1.00  0.00    -0.445 OA
BRANCH  23  24
ATOM     24  C   UNL A   1      33.222  28.142  22.876  1.00  0.00     0.270 C 
BRANCH  24  25
ATOM     25  C   UNL A   1      33.024  28.640  24.299  1.00  0.00    -0.011 A 
ATOM     26  C   UNL A   1      33.904  28.348  25.354  1.00  0.00     0.007 A 
ATOM     27  C   UNL A   1      31.940  29.490  24.566  1.00  0.00     0.007 A 
ATOM     28  C   UNL A   1      33.717  28.889  26.626  1.00  0.00     0.000 A 
ATOM     29  C   UNL A   1      31.747  30.026  25.843  1.00  0.00     0.000 A 
ATOM     30  C   UNL A   1      32.637  29.729  26.871  1.00  0.00     0.000 A 
ENDBRANCH  24  25
ENDBRANCH  23  24
ENDBRANCH  20  23
ENDBRANCH  18  19
BRANCH  18  31
ATOM     31  C   UNL A   1      30.489  25.386  24.516  1.00  0.00     0.015 C 
ATOM     32  C   UNL A   1      30.043  25.664  25.960  1.00  0.00     0.010 C 
ATOM     33  C   UNL A   1      29.882  26.493  23.639  1.00  0.00     0.010 C 
ENDBRANCH  18  31
ENDBRANCH  15  18
ENDBRANCH  13  14
ENDBRANCH  10  13
ENDBRANCH   4   9
ENDBRANCH   2   4
ENDBRANCH   1   2
BRANCH   1  34
ATOM     34  C   UNL A   1      37.517  21.802  25.123  1.00  0.00     0.261 C 
BRANCH  34  35
ATOM     35  C   UNL A   1      38.832  21.378  25.781  1.00  0.00     0.202 C 
BRANCH  35  36
ATOM     36  O   UNL A   1      39.710  22.375  26.277  1.00  0.00    -0.374 OA
BRANCH  36  37
ATOM     37  C   UNL A   1      40.998  21.993  26.760  1.00  0.00     0.202 C 
BRANCH  37  38
ATOM     38  C   UNL A   1      42.066  23.076  26.958  1.00  0.00     0.261 C 
BRANCH  38  39
ATOM     39  O   UNL A   1      43.039  23.105  25.898  1.00  0.00    -0.460 OA
BRANCH  39  40
ATOM     40  C   UNL A   1      44.323  23.205  26.318  1.00  0.00     0.338 C 
ATOM     41  O   UNL A   1      45.143  22.311  26.442  1.00  0.00    -0.246 OA
BRANCH  40  42
ATOM     42  C   UNL A   1      44.695  24.624  26.439  1.00  0.00     0.060 A 
ATOM     43  C   UNL A   1      44.722  25.396  25.270  1.00  0.00     0.016 A 
ATOM     44  C   UNL A   1      45.120  25.153  27.658  1.00  0.00     0.016 A 
ATOM     45  C   UNL A   1      45.223  26.694  25.303  1.00  0.00     0.010 A 
ATOM     46  C   UNL A   1      45.642  26.448  27.686  1.00  0.00     0.010 A 
ATOM     47  C   UNL A   1      45.733  27.205  26.502  1.00  0.00    -0.014 A 
BRANCH  47  48
ATOM     48  C   UNL A   1      46.543  28.442  26.480  1.00  0.00     0.031 A 
ATOM     49  C   UNL A   1      48.020  28.325  26.231  1.00  0.00     0.074 A 
ATOM     50  C   UNL A   1      45.974  29.645  26.664  1.00  0.00     0.049 A 
ATOM     51  N   UNL A   1      48.946  29.249  26.260  1.00  0.00    -0.248 NA
ATOM     52  C   UNL A   1      48.520  26.978  25.912  1.00  0.00     0.031 C 
ATOM     53  C   UNL A   1      44.546  29.882  26.854  1.00  0.00     0.029 A 
ATOM     54  N   UNL A   1      46.540  30.892  26.735  1.00  0.00    -0.354 N 
ATOM     55  C   UNL A   1      50.137  28.593  25.979  1.00  0.00     0.074 A 
ATOM     56  C   UNL A   1      49.823  27.192  25.806  1.00  0.00     0.031 C 
ATOM     57  C   UNL A   1      44.346  31.198  27.043  1.00  0.00     0.029 A 
ATOM     58  C   UNL A   1      45.637  31.884  27.025  1.00  0.00     0.049 A 
ATOM     59  H   UNL A   1      47.499  31.059  26.592  1.00  0.00     0.167 HD
ATOM     60  C   UNL A   1      51.382  29.117  25.873  1.00  0.00     0.037 A 
ATOM     61  C   UNL A   1      45.841  33.191  27.279  1.00  0.00     0.037 A 
ATOM     62  C   UNL A   1      51.683  30.513  26.047  1.00  0.00     0.049 A 
ATOM     63  C   UNL A   1      47.244  33.740  27.229  1.00  0.00     0.074 A 
ATOM     64  C   UNL A   1      52.906  31.151  25.951  1.00  0.00     0.029 A 
ATOM     65  N   UNL A   1      50.745  31.486  26.363  1.00  0.00    -0.354 N 
ATOM     66  N   UNL A   1      48.367  33.120  26.956  1.00  0.00    -0.248 NA
ATOM     67  C   UNL A   1      47.407  35.171  27.522  1.00  0.00     0.031 C 
ATOM     68  C   UNL A   1      52.718  32.503  26.260  1.00  0.00     0.029 A 
ATOM     69  C   UNL A   1      51.368  32.718  26.490  1.00  0.00     0.049 A 
ATOM     70  H   UNL A   1      49.782  31.326  26.480  1.00  0.00     0.167 HD
ATOM     71  C   UNL A   1      49.363  34.087  27.010  1.00  0.00     0.074 A 
ATOM     72  C   UNL A   1      48.709  35.338  27.337  1.00  0.00     0.031 C 
ATOM     73  C   UNL A   1      50.696  33.955  26.803  1.00  0.00     0.037 A 
BRANCH  60  74
ATOM     74  C   UNL A   1      52.510  28.166  25.595  1.00  0.00     0.064 A 
ATOM     75  C   UNL A   1      52.890  27.830  24.287  1.00  0.00     0.173 A 
ATOM     76  C   UNL A   1      53.228  27.593  26.656  1.00  0.00     0.173 A 
ATOM     77  F   UNL A   1      52.226  28.338  23.238  1.00  0.00    -0.203 F 
ATOM     78  C   UNL A   1      53.928  26.931  24.052  1.00  0.00     0.198 A 
ATOM     79  C   UNL A   1      54.285  26.719  26.416  1.00  0.00     0.198 A 
ATOM     80  F   UNL A   1      52.907  27.883  27.925  1.00  0.00    -0.203 F 
ATOM     81  F   UNL A   1      54.238  26.582  22.796  1.00  0.00    -0.200 F 
ATOM     82  C   UNL A   1      54.628  26.381  25.115  1.00  0.00     0.200 A 
ATOM     83  F   UNL A   1      54.968  26.199  27.445  1.00  0.00    -0.200 F 
ATOM     84  F   UNL A   1      55.628  25.518  24.888  1.00  0.00    -0.200 F 
ENDBRANCH  60  74
BRANCH  61  85
ATOM     85  C   UNL A   1      44.689  34.065  27.618  1.00  0.00     0.064 A 
ATOM     86  C   UNL A   1      44.083  34.871  26.646  1.00  0.00     0.173 A 
ATOM     87  C   UNL A   1      44.172  34.114  28.921  1.00  0.00     0.173 A 
ATOM     88  F   UNL A   1      44.557  34.879  25.392  1.00  0.00    -0.203 F 
ATOM     89  C   UNL A   1      43.011  35.703  26.967  1.00  0.00     0.198 A 
ATOM     90  C   UNL A   1      43.082  34.923  29.234  1.00  0.00     0.198 A 
ATOM     91  F   UNL A   1      44.716  33.361  29.889  1.00  0.00    -0.203 F 
ATOM     92  F   UNL A   1      42.476  36.494  26.027  1.00  0.00    -0.200 F 
ATOM     93  C   UNL A   1      42.507  35.723  28.259  1.00  0.00     0.200 A 
ATOM     94  F   UNL A   1      42.591  34.929  30.481  1.00  0.00    -0.200 F 
ATOM     95  F   UNL A   1      41.472  36.516  28.564  1.00  0.00    -0.200 F 
ENDBRANCH  61  85
BRANCH  73  96
ATOM     96  C   UNL A   1      51.535  35.198  26.871  1.00  0.00     0.064 A 
ATOM     97  C   UNL A   1      52.236  35.554  28.031  1.00  0.00     0.173 A 
ATOM     98  C   UNL A   1      51.682  36.013  25.736  1.00  0.00     0.173 A 
ATOM     99  F   UNL A   1      52.119  34.817  29.145  1.00  0.00    -0.203 F 
ATOM    100  C   UNL A   1      53.037  36.694  28.061  1.00  0.00     0.198 A 
ATOM    101  C   UNL A   1      52.507  37.133  25.760  1.00  0.00     0.198 A 
ATOM    102  F   UNL A   1      51.039  35.710  24.599  1.00  0.00    -0.203 F 
ATOM    103  F   UNL A   1      53.664  37.041  29.194  1.00  0.00    -0.200 F 
ATOM    104  C   UNL A   1      53.179  37.477  26.924  1.00  0.00     0.200 A 
ATOM    105  F   UNL A   1      52.655  37.878  24.656  1.00  0.00    -0.200 F 
ATOM    106  F   UNL A   1      53.958  38.566  26.951  1.00  0.00    -0.200 F 
ENDBRANCH  73  96
ENDBRANCH  47  48
ENDBRANCH  40  42
ENDBRANCH  39  40
ENDBRANCH  38  39
ENDBRANCH  37  38
ENDBRANCH  36  37
ENDBRANCH  35  36
ENDBRANCH  34  35
ENDBRANCH   1  34
TORSDOF 25
ENDMDL
MODEL 3
REMARK VINA RESULT:     -10.1      3.937      6.296
REMARK SMILES CC(C)C[C@H](NC(=O)CNC(=O)[C@@H](NC(=O)OCc1ccccc1)C(C)C)C(=O)OCCOCCOC(=O)c1ccc(-c2c3nc(c(-c4c(F)c(F)c(F)c(F)c4F)c4ccc([nH]4)c(-c4c(F)c(F)c(F)c(F)c4F)c4nc(c(-c5c(F)c(F)c(F)c(F)c5F)c5ccc2[nH]5)C=C4)C=C3)cc1
REMARK SMILES IDX 30 1 28 2 29 3 5 4 4 5 2 6 1 7 3 8 6 9 7 10 8 12 9 13 10 14
REMARK SMILES IDX 11 15 12 17 13 18 14 19 15 20 16 22 17 23 18 24 19 25 20 26
REMARK SMILES IDX 24 27 21 28 23 29 22 30 25 31 26 32 27 33 31 34 32 35 33 36
REMARK SMILES IDX 34 37 35 38 36 39 37 40 38 41 39 42 40 43 101 44 41 45
REMARK SMILES IDX 100 46 42 47 43 48 44 49 94 50 45 51 99 52 93 53 95 54 46 55
REMARK SMILES IDX 98 56 92 57 91 58 47 60 79 61 59 62 78 63 60 64 63 65 77 66
REMARK SMILES IDX 96 67 61 68 62 69 76 71 97 72 64 73 48 74 49 75 57 76 50 77
REMARK SMILES IDX 51 78 55 79 58 80 52 81 53 82 56 83 54 84 80 85 81 86 89 87
REMARK SMILES IDX 82 88 83 89 87 90 90 91 84 92 85 93 88 94 86 95 65 96 66 97
REMARK SMILES IDX 74 98 67 99 68 100 72 101 75 102 69 103 70 104 73 105 71 106
REMARK H PARENT 6 11 10 16 14 21 95 59 63 70
REMARK Flexibility Score: inf
ROOT
ATOM      1  O   UNL A   1      36.170  21.034  24.872  1.00  0.00    -0.462 OA
ENDROOT
BRANCH   1   2
ATOM      2  C   UNL A   1      34.996  20.947  25.554  1.00  0.00     0.328 C 
ATOM      3  O   UNL A   1      34.789  21.466  26.648  1.00  0.00    -0.250 OA
BRANCH   2   4
ATOM      4  C   UNL A   1      33.971  20.021  24.894  1.00  0.00     0.192 C 
BRANCH   4   5
ATOM      5  C   UNL A   1      34.602  18.668  24.539  1.00  0.00     0.040 C 
BRANCH   5   6
ATOM      6  C   UNL A   1      33.624  17.553  24.103  1.00  0.00    -0.015 C 
ATOM      7  C   UNL A   1      32.348  18.023  23.398  1.00  0.00     0.007 C 
ATOM      8  C   UNL A   1      34.347  16.572  23.180  1.00  0.00     0.007 C 
ENDBRANCH   5   6
ENDBRANCH   4   5
BRANCH   4   9
ATOM      9  N   UNL A   1      33.271  20.607  23.754  1.00  0.00    -0.341 N 
ATOM     10  C   UNL A   1      32.385  21.647  23.729  1.00  0.00     0.240 C 
ATOM     11  H   UNL A   1      33.464  20.196  22.880  1.00  0.00     0.164 HD
ATOM     12  O   UNL A   1      32.116  22.128  22.622  1.00  0.00    -0.273 OA
BRANCH  10  13
ATOM     13  C   UNL A   1      31.832  22.323  25.010  1.00  0.00     0.216 C 
BRANCH  13  14
ATOM     14  N   UNL A   1      32.620  23.388  25.603  1.00  0.00    -0.345 N 
ATOM     15  C   UNL A   1      32.770  24.712  25.359  1.00  0.00     0.243 C 
ATOM     16  H   UNL A   1      33.173  23.076  26.356  1.00  0.00     0.164 HD
ATOM     17  O   UNL A   1      33.530  25.294  26.145  1.00  0.00    -0.273 OA
BRANCH  15  18
ATOM     18  C   UNL A   1      32.018  25.541  24.269  1.00  0.00     0.177 C 
BRANCH  18  19
ATOM     19  N   UNL A   1      32.457  25.260  22.896  1.00  0.00    -0.309 N 
ATOM     20  C   UNL A   1      33.185  25.970  22.001  1.00  0.00     0.408 C 
ATOM     21  H   UNL A   1      32.164  24.382  22.559  1.00  0.00     0.167 HD
ATOM     22  O   UNL A   1      33.104  25.721  20.805  1.00  0.00    -0.225 OA
BRANCH  20  23
ATOM     23  O   UNL A   1      34.021  26.866  22.556  1.00  0.00    -0.445 OA
BRANCH  23  24
ATOM     24  C   UNL A   1      33.547  28.220  22.550  1.00  0.00     0.270 C 
BRANCH  24  25
ATOM     25  C   UNL A   1      33.077  28.738  23.899  1.00  0.00    -0.011 A 
ATOM     26  C   UNL A   1      31.827  29.346  24.106  1.00  0.00     0.007 A 
ATOM     27  C   UNL A   1      33.904  28.546  25.017  1.00  0.00     0.007 A 
ATOM     28  C   UNL A   1      31.413  29.739  25.378  1.00  0.00     0.000 A 
ATOM     29  C   UNL A   1      33.493  28.948  26.290  1.00  0.00     0.000 A 
ATOM     30  C   UNL A   1      32.246  29.540  26.472  1.00  0.00     0.000 A 
ENDBRANCH  24  25
ENDBRANCH  23  24
ENDBRANCH  20  23
ENDBRANCH  18  19
BRANCH  18  31
ATOM     31  C   UNL A   1      30.495  25.634  24.523  1.00  0.00     0.015 C 
ATOM     32  C   UNL A   1      30.173  26.229  25.904  1.00  0.00     0.010 C 
ATOM     33  C   UNL A   1      29.810  26.530  23.479  1.00  0.00     0.010 C 
ENDBRANCH  18  31
ENDBRANCH  15  18
ENDBRANCH  13  14
ENDBRANCH  10  13
ENDBRANCH   4   9
ENDBRANCH   2   4
ENDBRANCH   1   2
BRANCH   1  34
ATOM     34  C   UNL A   1      37.123  21.905  25.502  1.00  0.00     0.261 C 
BRANCH  34  35
ATOM     35  C   UNL A   1      38.532  21.324  25.647  1.00  0.00     0.202 C 
BRANCH  35  36
ATOM     36  O   UNL A   1      39.484  22.010  26.444  1.00  0.00    -0.374 OA
BRANCH  36  37
ATOM     37  C   UNL A   1      40.825  21.527  26.498  1.00  0.00     0.202 C 
BRANCH  37  38
ATOM     38  C   UNL A   1      41.964  22.527  26.736  1.00  0.00     0.261 C 
BRANCH  38  39
ATOM     39  O   UNL A   1      41.542  23.695  27.463  1.00  0.00    -0.460 OA
BRANCH  39  40
ATOM     40  C   UNL A   1      41.447  24.819  26.712  1.00  0.00     0.338 C 
ATOM     41  O   UNL A   1      40.439  25.342  26.269  1.00  0.00    -0.246 OA
BRANCH  40  42
ATOM     42  C   UNL A   1      42.761  25.479  26.643  1.00  0.00     0.060 A 
ATOM     43  C   UNL A   1      43.431  25.732  27.849  1.00  0.00     0.016 A 
ATOM     44  C   UNL A   1      43.268  25.945  25.430  1.00  0.00     0.016 A 
ATOM     45  C   UNL A   1      44.593  26.497  27.853  1.00  0.00     0.010 A 
ATOM     46  C   UNL A   1      44.423  26.730  25.438  1.00  0.00     0.010 A 
ATOM     47  C   UNL A   1      45.064  27.041  26.653  1.00  0.00    -0.014 A 
BRANCH  47  48
ATOM     48  C   UNL A   1      46.098  28.099  26.688  1.00  0.00     0.031 A 
ATOM     49  C   UNL A   1      45.663  29.517  26.924  1.00  0.00     0.074 A 
ATOM     50  C   UNL A   1      47.398  27.799  26.529  1.00  0.00     0.049 A 
ATOM     51  N   UNL A   1      46.368  30.619  26.903  1.00  0.00    -0.248 NA
ATOM     52  C   UNL A   1      44.235  29.718  27.217  1.00  0.00     0.031 C 
ATOM     53  C   UNL A   1      47.938  26.454  26.353  1.00  0.00     0.029 A 
ATOM     54  N   UNL A   1      48.496  28.618  26.474  1.00  0.00    -0.354 N 
ATOM     55  C   UNL A   1      45.467  31.643  27.164  1.00  0.00     0.074 A 
ATOM     56  C   UNL A   1      44.163  31.037  27.317  1.00  0.00     0.031 C 
ATOM     57  C   UNL A   1      49.270  26.540  26.188  1.00  0.00     0.029 A 
ATOM     58  C   UNL A   1      49.664  27.948  26.207  1.00  0.00     0.049 A 
ATOM     59  H   UNL A   1      48.452  29.592  26.613  1.00  0.00     0.167 HD
ATOM     60  C   UNL A   1      45.711  32.971  27.269  1.00  0.00     0.037 A 
ATOM     61  C   UNL A   1      50.901  28.427  25.973  1.00  0.00     0.037 A 
ATOM     62  C   UNL A   1      47.013  33.564  27.116  1.00  0.00     0.049 A 
ATOM     63  C   UNL A   1      51.135  29.915  26.022  1.00  0.00     0.074 A 
ATOM     64  C   UNL A   1      47.373  34.895  27.213  1.00  0.00     0.029 A 
ATOM     65  N   UNL A   1      48.170  32.855  26.823  1.00  0.00    -0.354 N 
ATOM     66  N   UNL A   1      50.284  30.880  26.276  1.00  0.00    -0.248 NA
ATOM     67  C   UNL A   1      52.503  30.379  25.751  1.00  0.00     0.031 C 
ATOM     68  C   UNL A   1      48.738  35.000  26.927  1.00  0.00     0.029 A 
ATOM     69  C   UNL A   1      49.242  33.726  26.712  1.00  0.00     0.049 A 
ATOM     70  H   UNL A   1      48.221  31.879  26.711  1.00  0.00     0.167 HD
ATOM     71  C   UNL A   1      51.017  32.059  26.230  1.00  0.00     0.074 A 
ATOM     72  C   UNL A   1      52.384  31.687  25.928  1.00  0.00     0.031 C 
ATOM     73  C   UNL A   1      50.599  33.334  26.424  1.00  0.00     0.037 A 
BRANCH  60  74
ATOM     74  C   UNL A   1      44.536  33.871  27.523  1.00  0.00     0.064 A 
ATOM     75  C   UNL A   1      43.905  34.577  26.487  1.00  0.00     0.173 A 
ATOM     76  C   UNL A   1      44.027  34.018  28.822  1.00  0.00     0.173 A 
ATOM     77  F   UNL A   1      44.362  34.483  25.228  1.00  0.00    -0.203 F 
ATOM     78  C   UNL A   1      42.828  35.421  26.747  1.00  0.00     0.198 A 
ATOM     79  C   UNL A   1      42.931  34.839  29.073  1.00  0.00     0.198 A 
ATOM     80  F   UNL A   1      44.591  33.364  29.847  1.00  0.00    -0.203 F 
ATOM     81  F   UNL A   1      42.276  36.127  25.751  1.00  0.00    -0.200 F 
ATOM     82  C   UNL A   1      42.338  35.547  28.038  1.00  0.00     0.200 A 
ATOM     83  F   UNL A   1      42.451  34.949  30.320  1.00  0.00    -0.200 F 
ATOM     84  F   UNL A   1      41.300  36.357  28.288  1.00  0.00    -0.200 F 
ENDBRANCH  60  74
BRANCH  61  85
ATOM     85  C   UNL A   1      52.007  27.487  25.658  1.00  0.00     0.064 A 
ATOM     86  C   UNL A   1      52.762  26.891  26.676  1.00  0.00     0.173 A 
ATOM     87  C   UNL A   1      52.333  27.167  24.332  1.00  0.00     0.173 A 
ATOM     88  F   UNL A   1      52.505  27.185  27.959  1.00  0.00    -0.203 F 
ATOM     89  C   UNL A   1      53.810  26.021  26.380  1.00  0.00     0.198 A 
ATOM     90  C   UNL A   1      53.362  26.274  24.037  1.00  0.00     0.198 A 
ATOM     91  F   UNL A   1      51.640  27.710  23.319  1.00  0.00    -0.203 F 
ATOM     92  F   UNL A   1      54.542  25.496  27.372  1.00  0.00    -0.200 F 
ATOM     93  C   UNL A   1      54.104  25.708  25.062  1.00  0.00     0.200 A 
ATOM     94  F   UNL A   1      53.633  25.965  22.762  1.00  0.00    -0.200 F 
ATOM     95  F   UNL A   1      55.106  24.864  24.778  1.00  0.00    -0.200 F 
ENDBRANCH  61  85
BRANCH  73  96
ATOM     96  C   UNL A   1      51.635  34.419  26.371  1.00  0.00     0.064 A 
ATOM     97  C   UNL A   1      51.899  35.131  25.192  1.00  0.00     0.173 A 
ATOM     98  C   UNL A   1      52.331  34.789  27.533  1.00  0.00     0.173 A 
ATOM     99  F   UNL A   1      51.271  34.808  24.052  1.00  0.00    -0.203 F 
ATOM    100  C   UNL A   1      52.841  36.158  25.173  1.00  0.00     0.198 A 
ATOM    101  C   UNL A   1      53.247  35.835  27.518  1.00  0.00     0.198 A 
ATOM    102  F   UNL A   1      52.108  34.144  28.688  1.00  0.00    -0.203 F 
ATOM    103  F   UNL A   1      53.110  36.797  24.026  1.00  0.00    -0.200 F 
ATOM    104  C   UNL A   1      53.506  36.515  26.337  1.00  0.00     0.200 A 
ATOM    105  F   UNL A   1      53.877  36.189  28.647  1.00  0.00    -0.200 F 
ATOM    106  F   UNL A   1      54.403  37.511  26.320  1.00  0.00    -0.200 F 
ENDBRANCH  73  96
ENDBRANCH  47  48
ENDBRANCH  40  42
ENDBRANCH  39  40
ENDBRANCH  38  39
ENDBRANCH  37  38
ENDBRANCH  36  37
ENDBRANCH  35  36
ENDBRANCH  34  35
ENDBRANCH   1  34
TORSDOF 25
ENDMDL
