MODEL 1
REMARK VINA RESULT:     -11.3      0.000      0.000
REMARK SMILES COc1ccc(C)cc1[C@@H](C)[C@@](O)(C(=O)OCCOCCOC(=O)c1ccc(-c2c3nc(c(-c4c(F)c(F)c(F)c(F)c4F)c4ccc([nH]4)c(-c4c(F)c(F)c(F)c(F)c4F)c4nc(c(-c5c(F)c(F)c(F)c(F)c5F)c5ccc2[nH]5)C=C4)C=C3)cc1)C(C)C
REMARK SMILES IDX 18 1 17 2 16 3 14 4 15 5 12 6 10 7 11 8 9 9 3 10 4 11 5 12
REMARK SMILES IDX 8 13 6 14 7 15 2 16 1 17 13 18 88 20 89 21 90 22 19 23 20 24
REMARK SMILES IDX 21 25 22 26 23 27 24 28 25 29 26 30 87 31 27 32 86 33 28 34
REMARK SMILES IDX 29 35 30 36 80 37 31 38 85 39 79 40 81 41 32 42 84 43 78 44
REMARK SMILES IDX 77 45 33 47 65 48 45 49 64 50 46 51 49 52 63 53 82 54 47 55
REMARK SMILES IDX 48 56 62 58 83 59 50 60 34 61 35 62 43 63 36 64 37 65 41 66
REMARK SMILES IDX 44 67 38 68 39 69 42 70 40 71 66 72 67 73 75 74 68 75 69 76
REMARK SMILES IDX 73 77 76 78 70 79 71 80 74 81 72 82 51 83 52 84 60 85 53 86
REMARK SMILES IDX 54 87 58 88 61 89 55 90 56 91 59 92 57 93
REMARK H PARENT 13 19 81 46 49 57
REMARK Flexibility Score: inf
ROOT
ATOM      1  C   UNL A   1      31.581  29.751  25.246  1.00  0.00     0.202 C 
ENDROOT
BRANCH   1   2
ATOM      2  C   UNL A   1      31.026  28.721  24.304  1.00  0.00     0.261 C 
BRANCH   2   3
ATOM      3  O   UNL A   1      31.178  27.375  24.783  1.00  0.00    -0.461 OA
BRANCH   3   4
ATOM      4  C   UNL A   1      30.782  26.329  23.980  1.00  0.00     0.339 C 
ATOM      5  O   UNL A   1      29.736  26.298  23.363  1.00  0.00    -0.249 OA
BRANCH   4   6
ATOM      6  C   UNL A   1      31.849  25.198  23.999  1.00  0.00     0.170 C 
BRANCH   6   7
ATOM      7  C   UNL A   1      32.716  25.443  25.306  1.00  0.00     0.063 C 
ATOM      8  C   UNL A   1      33.908  26.400  25.188  1.00  0.00     0.016 C 
BRANCH   7   9
ATOM      9  C   UNL A   1      33.162  24.219  26.067  1.00  0.00     0.001 A 
ATOM     10  C   UNL A   1      32.331  23.569  26.991  1.00  0.00     0.122 A 
ATOM     11  C   UNL A   1      32.735  22.376  27.582  1.00  0.00     0.047 A 
ATOM     12  C   UNL A   1      33.981  21.828  27.264  1.00  0.00     0.007 A 
ATOM     13  C   UNL A   1      34.445  23.716  25.853  1.00  0.00     0.011 A 
ATOM     14  C   UNL A   1      34.845  22.501  26.397  1.00  0.00    -0.051 A 
ATOM     15  C   UNL A   1      36.133  21.912  25.912  1.00  0.00     0.044 C 
BRANCH  10  16
ATOM     16  O   UNL A   1      31.071  24.045  27.243  1.00  0.00    -0.496 OA
ATOM     17  C   UNL A   1      30.093  23.016  27.058  1.00  0.00     0.278 C 
ENDBRANCH  10  16
ENDBRANCH   7   9
ENDBRANCH   6   7
BRANCH   6  18
ATOM     18  O   UNL A   1      31.095  23.969  24.158  1.00  0.00    -0.377 OA
ATOM     19  H   UNL A   1      30.471  23.875  23.421  1.00  0.00     0.212 HD
ENDBRANCH   6  18
BRANCH   6  20
ATOM     20  C   UNL A   1      32.478  25.127  22.561  1.00  0.00     0.027 C 
ATOM     21  C   UNL A   1      33.052  26.440  22.020  1.00  0.00     0.011 C 
ATOM     22  C   UNL A   1      33.413  23.932  22.300  1.00  0.00     0.011 C 
ENDBRANCH   6  20
ENDBRANCH   4   6
ENDBRANCH   3   4
ENDBRANCH   2   3
ENDBRANCH   1   2
BRANCH   1  23
ATOM     23  O   UNL A   1      31.754  29.055  26.469  1.00  0.00    -0.374 OA
BRANCH  23  24
ATOM     24  C   UNL A   1      32.872  29.376  27.266  1.00  0.00     0.202 C 
BRANCH  24  25
ATOM     25  C   UNL A   1      33.129  30.879  27.402  1.00  0.00     0.261 C 
BRANCH  25  26
ATOM     26  O   UNL A   1      34.547  31.156  27.358  1.00  0.00    -0.460 OA
BRANCH  26  27
ATOM     27  C   UNL A   1      35.196  31.185  28.553  1.00  0.00     0.338 C 
ATOM     28  O   UNL A   1      35.164  32.124  29.349  1.00  0.00    -0.246 OA
BRANCH  27  29
ATOM     29  C   UNL A   1      36.181  30.068  28.625  1.00  0.00     0.060 A 
ATOM     30  C   UNL A   1      36.574  29.533  29.870  1.00  0.00     0.016 A 
ATOM     31  C   UNL A   1      36.957  29.829  27.496  1.00  0.00     0.016 A 
ATOM     32  C   UNL A   1      37.809  28.873  30.001  1.00  0.00     0.010 A 
ATOM     33  C   UNL A   1      38.227  29.331  27.666  1.00  0.00     0.010 A 
ATOM     34  C   UNL A   1      38.669  28.837  28.905  1.00  0.00    -0.014 A 
BRANCH  34  35
ATOM     35  C   UNL A   1      40.066  28.388  28.900  1.00  0.00     0.031 A 
ATOM     36  C   UNL A   1      40.314  26.941  28.698  1.00  0.00     0.074 A 
ATOM     37  C   UNL A   1      41.107  29.254  28.830  1.00  0.00     0.049 A 
ATOM     38  N   UNL A   1      41.415  26.347  29.002  1.00  0.00    -0.248 NA
ATOM     39  C   UNL A   1      39.309  26.011  28.188  1.00  0.00     0.031 C 
ATOM     40  C   UNL A   1      42.463  28.990  28.341  1.00  0.00     0.029 A 
ATOM     41  N   UNL A   1      41.158  30.617  29.155  1.00  0.00    -0.354 N 
ATOM     42  C   UNL A   1      41.395  25.102  28.413  1.00  0.00     0.074 A 
ATOM     43  C   UNL A   1      40.017  24.889  28.066  1.00  0.00     0.031 C 
ATOM     44  C   UNL A   1      43.263  30.025  28.654  1.00  0.00     0.029 A 
ATOM     45  C   UNL A   1      42.485  30.965  29.442  1.00  0.00     0.049 A 
ATOM     46  H   UNL A   1      40.388  31.229  29.177  1.00  0.00     0.167 HD
ATOM     47  C   UNL A   1      42.586  24.491  28.149  1.00  0.00     0.037 A 
ATOM     48  C   UNL A   1      42.800  31.512  30.643  1.00  0.00     0.037 A 
ATOM     49  C   UNL A   1      43.699  25.325  28.650  1.00  0.00     0.049 A 
ATOM     50  C   UNL A   1      43.602  30.505  31.407  1.00  0.00     0.074 A 
ATOM     51  C   UNL A   1      44.628  26.133  28.012  1.00  0.00     0.029 A 
ATOM     52  N   UNL A   1      43.737  25.693  30.001  1.00  0.00    -0.354 N 
ATOM     53  N   UNL A   1      43.578  29.234  31.104  1.00  0.00    -0.248 NA
ATOM     54  C   UNL A   1      44.556  30.813  32.463  1.00  0.00     0.031 C 
ATOM     55  C   UNL A   1      45.172  27.029  28.976  1.00  0.00     0.029 A 
ATOM     56  C   UNL A   1      44.597  26.758  30.209  1.00  0.00     0.049 A 
ATOM     57  H   UNL A   1      43.219  25.251  30.712  1.00  0.00     0.167 HD
ATOM     58  C   UNL A   1      44.554  28.587  31.787  1.00  0.00     0.074 A 
ATOM     59  C   UNL A   1      45.103  29.600  32.673  1.00  0.00     0.031 C 
ATOM     60  C   UNL A   1      44.853  27.279  31.551  1.00  0.00     0.037 A 
BRANCH  47  61
ATOM     61  C   UNL A   1      42.778  23.302  27.206  1.00  0.00     0.064 A 
ATOM     62  C   UNL A   1      42.337  22.014  27.582  1.00  0.00     0.173 A 
ATOM     63  C   UNL A   1      43.412  23.332  25.943  1.00  0.00     0.173 A 
ATOM     64  F   UNL A   1      41.644  21.814  28.711  1.00  0.00    -0.203 F 
ATOM     65  C   UNL A   1      42.573  20.868  26.807  1.00  0.00     0.198 A 
ATOM     66  C   UNL A   1      43.677  22.186  25.183  1.00  0.00     0.198 A 
ATOM     67  F   UNL A   1      43.753  24.467  25.337  1.00  0.00    -0.203 F 
ATOM     68  F   UNL A   1      42.126  19.677  27.228  1.00  0.00    -0.200 F 
ATOM     69  C   UNL A   1      43.260  20.951  25.616  1.00  0.00     0.200 A 
ATOM     70  F   UNL A   1      44.326  22.304  24.015  1.00  0.00    -0.200 F 
ATOM     71  F   UNL A   1      43.492  19.859  24.876  1.00  0.00    -0.200 F 
ENDBRANCH  47  61
BRANCH  48  72
ATOM     72  C   UNL A   1      41.780  32.498  31.105  1.00  0.00     0.064 A 
ATOM     73  C   UNL A   1      41.634  33.664  30.315  1.00  0.00     0.173 A 
ATOM     74  C   UNL A   1      40.689  32.140  31.913  1.00  0.00     0.173 A 
ATOM     75  F   UNL A   1      42.624  34.038  29.490  1.00  0.00    -0.203 F 
ATOM     76  C   UNL A   1      40.429  34.368  30.256  1.00  0.00     0.198 A 
ATOM     77  C   UNL A   1      39.478  32.844  31.842  1.00  0.00     0.198 A 
ATOM     78  F   UNL A   1      40.738  31.029  32.661  1.00  0.00    -0.203 F 
ATOM     79  F   UNL A   1      40.279  35.366  29.371  1.00  0.00    -0.200 F 
ATOM     80  C   UNL A   1      39.343  33.941  31.001  1.00  0.00     0.200 A 
ATOM     81  F   UNL A   1      38.400  32.388  32.496  1.00  0.00    -0.200 F 
ATOM     82  F   UNL A   1      38.140  34.505  30.810  1.00  0.00    -0.200 F 
ENDBRANCH  48  72
BRANCH  60  83
ATOM     83  C   UNL A   1      45.524  26.408  32.565  1.00  0.00     0.064 A 
ATOM     84  C   UNL A   1      44.803  25.614  33.473  1.00  0.00     0.173 A 
ATOM     85  C   UNL A   1      46.918  26.196  32.522  1.00  0.00     0.173 A 
ATOM     86  F   UNL A   1      43.463  25.634  33.515  1.00  0.00    -0.203 F 
ATOM     87  C   UNL A   1      45.440  24.724  34.332  1.00  0.00     0.198 A 
ATOM     88  C   UNL A   1      47.542  25.253  33.330  1.00  0.00     0.198 A 
ATOM     89  F   UNL A   1      47.709  26.866  31.671  1.00  0.00    -0.203 F 
ATOM     90  F   UNL A   1      44.716  24.027  35.217  1.00  0.00    -0.200 F 
ATOM     91  C   UNL A   1      46.807  24.533  34.250  1.00  0.00     0.200 A 
ATOM     92  F   UNL A   1      48.855  25.028  33.194  1.00  0.00    -0.200 F 
ATOM     93  F   UNL A   1      47.410  23.638  35.042  1.00  0.00    -0.200 F 
ENDBRANCH  60  83
ENDBRANCH  34  35
ENDBRANCH  27  29
ENDBRANCH  26  27
ENDBRANCH  25  26
ENDBRANCH  24  25
ENDBRANCH  23  24
ENDBRANCH   1  23
TORSDOF 19
ENDMDL
MODEL 2
REMARK VINA RESULT:     -11.1      1.591      2.425
REMARK SMILES COc1ccc(C)cc1[C@@H](C)[C@@](O)(C(=O)OCCOCCOC(=O)c1ccc(-c2c3nc(c(-c4c(F)c(F)c(F)c(F)c4F)c4ccc([nH]4)c(-c4c(F)c(F)c(F)c(F)c4F)c4nc(c(-c5c(F)c(F)c(F)c(F)c5F)c5ccc2[nH]5)C=C4)C=C3)cc1)C(C)C
REMARK SMILES IDX 18 1 17 2 16 3 14 4 15 5 12 6 10 7 11 8 9 9 3 10 4 11 5 12
REMARK SMILES IDX 8 13 6 14 7 15 2 16 1 17 13 18 88 20 89 21 90 22 19 23 20 24
REMARK SMILES IDX 21 25 22 26 23 27 24 28 25 29 26 30 87 31 27 32 86 33 28 34
REMARK SMILES IDX 29 35 30 36 80 37 31 38 85 39 79 40 81 41 32 42 84 43 78 44
REMARK SMILES IDX 77 45 33 47 65 48 45 49 64 50 46 51 49 52 63 53 82 54 47 55
REMARK SMILES IDX 48 56 62 58 83 59 50 60 34 61 35 62 43 63 36 64 37 65 41 66
REMARK SMILES IDX 44 67 38 68 39 69 42 70 40 71 66 72 67 73 75 74 68 75 69 76
REMARK SMILES IDX 73 77 76 78 70 79 71 80 74 81 72 82 51 83 52 84 60 85 53 86
REMARK SMILES IDX 54 87 58 88 61 89 55 90 56 91 59 92 57 93
REMARK H PARENT 13 19 81 46 49 57
REMARK Flexibility Score: inf
ROOT
ATOM      1  C   UNL A   1      32.102  29.037  24.318  1.00  0.00     0.202 C 
ENDROOT
BRANCH   1   2
ATOM      2  C   UNL A   1      32.953  28.560  23.176  1.00  0.00     0.261 C 
BRANCH   2   3
ATOM      3  O   UNL A   1      33.492  27.244  23.383  1.00  0.00    -0.461 OA
BRANCH   3   4
ATOM      4  C   UNL A   1      32.660  26.153  23.261  1.00  0.00     0.339 C 
ATOM      5  O   UNL A   1      31.668  26.125  22.560  1.00  0.00    -0.249 OA
BRANCH   4   6
ATOM      6  C   UNL A   1      33.161  24.988  24.161  1.00  0.00     0.170 C 
BRANCH   6   7
ATOM      7  C   UNL A   1      33.846  23.946  23.179  1.00  0.00     0.063 C 
ATOM      8  C   UNL A   1      33.108  23.622  21.875  1.00  0.00     0.016 C 
BRANCH   7   9
ATOM      9  C   UNL A   1      34.327  22.652  23.787  1.00  0.00     0.001 A 
ATOM     10  C   UNL A   1      35.633  22.495  24.274  1.00  0.00     0.122 A 
ATOM     11  C   UNL A   1      36.002  21.328  24.936  1.00  0.00     0.047 A 
ATOM     12  C   UNL A   1      35.070  20.300  25.104  1.00  0.00     0.007 A 
ATOM     13  C   UNL A   1      33.451  21.570  23.865  1.00  0.00     0.011 A 
ATOM     14  C   UNL A   1      33.787  20.416  24.565  1.00  0.00    -0.051 A 
ATOM     15  C   UNL A   1      32.703  19.416  24.818  1.00  0.00     0.044 C 
BRANCH  10  16
ATOM     16  O   UNL A   1      36.529  23.530  24.198  1.00  0.00    -0.496 OA
ATOM     17  C   UNL A   1      37.138  23.769  25.471  1.00  0.00     0.278 C 
ENDBRANCH  10  16
ENDBRANCH   7   9
ENDBRANCH   6   7
BRANCH   6  18
ATOM     18  O   UNL A   1      34.181  25.576  25.009  1.00  0.00    -0.377 OA
ATOM     19  H   UNL A   1      34.896  25.930  24.458  1.00  0.00     0.212 HD
ENDBRANCH   6  18
BRANCH   6  20
ATOM     20  C   UNL A   1      31.980  24.603  25.123  1.00  0.00     0.027 C 
ATOM     21  C   UNL A   1      30.871  23.747  24.505  1.00  0.00     0.011 C 
ATOM     22  C   UNL A   1      32.392  24.102  26.518  1.00  0.00     0.011 C 
ENDBRANCH   6  20
ENDBRANCH   4   6
ENDBRANCH   3   4
ENDBRANCH   2   3
ENDBRANCH   1   2
BRANCH   1  23
ATOM     23  O   UNL A   1      33.014  29.668  25.200  1.00  0.00    -0.374 OA
BRANCH  23  24
ATOM     24  C   UNL A   1      32.757  29.600  26.585  1.00  0.00     0.202 C 
BRANCH  24  25
ATOM     25  C   UNL A   1      33.085  30.889  27.343  1.00  0.00     0.261 C 
BRANCH  25  26
ATOM     26  O   UNL A   1      34.502  31.167  27.279  1.00  0.00    -0.460 OA
BRANCH  26  27
ATOM     27  C   UNL A   1      35.155  31.262  28.468  1.00  0.00     0.338 C 
ATOM     28  O   UNL A   1      35.115  32.237  29.218  1.00  0.00    -0.246 OA
BRANCH  27  29
ATOM     29  C   UNL A   1      36.153  30.160  28.590  1.00  0.00     0.060 A 
ATOM     30  C   UNL A   1      36.417  29.561  29.840  1.00  0.00     0.016 A 
ATOM     31  C   UNL A   1      37.057  30.000  27.545  1.00  0.00     0.016 A 
ATOM     32  C   UNL A   1      37.645  28.917  30.074  1.00  0.00     0.010 A 
ATOM     33  C   UNL A   1      38.311  29.516  27.831  1.00  0.00     0.010 A 
ATOM     34  C   UNL A   1      38.623  28.960  29.083  1.00  0.00    -0.014 A 
BRANCH  34  35
ATOM     35  C   UNL A   1      40.023  28.537  29.211  1.00  0.00     0.031 A 
ATOM     36  C   UNL A   1      40.354  27.151  28.804  1.00  0.00     0.074 A 
ATOM     37  C   UNL A   1      41.028  29.415  29.448  1.00  0.00     0.049 A 
ATOM     38  N   UNL A   1      41.421  26.528  29.164  1.00  0.00    -0.248 NA
ATOM     39  C   UNL A   1      39.472  26.312  27.997  1.00  0.00     0.031 C 
ATOM     40  C   UNL A   1      42.449  29.260  29.132  1.00  0.00     0.029 A 
ATOM     41  N   UNL A   1      40.977  30.701  30.006  1.00  0.00    -0.354 N 
ATOM     42  C   UNL A   1      41.536  25.406  28.374  1.00  0.00     0.074 A 
ATOM     43  C   UNL A   1      40.233  25.238  27.792  1.00  0.00     0.031 C 
ATOM     44  C   UNL A   1      43.154  30.234  29.734  1.00  0.00     0.029 A 
ATOM     45  C   UNL A   1      42.233  31.011  30.545  1.00  0.00     0.049 A 
ATOM     46  H   UNL A   1      40.188  31.290  30.017  1.00  0.00     0.167 HD
ATOM     47  C   UNL A   1      42.776  24.866  28.192  1.00  0.00     0.037 A 
ATOM     48  C   UNL A   1      42.347  31.343  31.856  1.00  0.00     0.037 A 
ATOM     49  C   UNL A   1      43.770  25.614  28.990  1.00  0.00     0.049 A 
ATOM     50  C   UNL A   1      43.067  30.227  32.548  1.00  0.00     0.074 A 
ATOM     51  C   UNL A   1      44.750  26.533  28.648  1.00  0.00     0.029 A 
ATOM     52  N   UNL A   1      43.595  25.740  30.374  1.00  0.00    -0.354 N 
ATOM     53  N   UNL A   1      43.139  29.029  32.031  1.00  0.00    -0.248 NA
ATOM     54  C   UNL A   1      43.844  30.358  33.773  1.00  0.00     0.031 C 
ATOM     55  C   UNL A   1      45.111  27.253  29.822  1.00  0.00     0.029 A 
ATOM     56  C   UNL A   1      44.374  26.762  30.889  1.00  0.00     0.049 A 
ATOM     57  H   UNL A   1      42.997  25.173  30.912  1.00  0.00     0.167 HD
ATOM     58  C   UNL A   1      44.028  28.286  32.732  1.00  0.00     0.074 A 
ATOM     59  C   UNL A   1      44.402  29.134  33.852  1.00  0.00     0.031 C 
ATOM     60  C   UNL A   1      44.410  27.044  32.324  1.00  0.00     0.037 A 
BRANCH  47  61
ATOM     61  C   UNL A   1      43.151  23.864  27.098  1.00  0.00     0.064 A 
ATOM     62  C   UNL A   1      42.838  22.494  27.249  1.00  0.00     0.173 A 
ATOM     63  C   UNL A   1      43.842  24.154  25.901  1.00  0.00     0.173 A 
ATOM     64  F   UNL A   1      42.115  22.051  28.285  1.00  0.00    -0.203 F 
ATOM     65  C   UNL A   1      43.243  21.512  26.331  1.00  0.00     0.198 A 
ATOM     66  C   UNL A   1      44.274  23.173  25.000  1.00  0.00     0.198 A 
ATOM     67  F   UNL A   1      44.084  25.398  25.494  1.00  0.00    -0.203 F 
ATOM     68  F   UNL A   1      42.912  20.231  26.540  1.00  0.00    -0.200 F 
ATOM     69  C   UNL A   1      43.978  21.849  25.215  1.00  0.00     0.200 A 
ATOM     70  F   UNL A   1      44.967  23.537  23.910  1.00  0.00    -0.200 F 
ATOM     71  F   UNL A   1      44.371  20.915  24.340  1.00  0.00    -0.200 F 
ENDBRANCH  47  61
BRANCH  48  72
ATOM     72  C   UNL A   1      41.233  32.219  32.321  1.00  0.00     0.064 A 
ATOM     73  C   UNL A   1      40.182  31.577  33.019  1.00  0.00     0.173 A 
ATOM     74  C   UNL A   1      41.390  33.596  32.541  1.00  0.00     0.173 A 
ATOM     75  F   UNL A   1      40.004  30.253  32.885  1.00  0.00    -0.203 F 
ATOM     76  C   UNL A   1      39.404  32.250  33.964  1.00  0.00     0.198 A 
ATOM     77  C   UNL A   1      40.613  34.266  33.498  1.00  0.00     0.198 A 
ATOM     78  F   UNL A   1      42.385  34.267  31.944  1.00  0.00    -0.203 F 
ATOM     79  F   UNL A   1      38.533  31.568  34.725  1.00  0.00    -0.200 F 
ATOM     80  C   UNL A   1      39.640  33.590  34.221  1.00  0.00     0.200 A 
ATOM     81  F   UNL A   1      40.891  35.540  33.810  1.00  0.00    -0.200 F 
ATOM     82  F   UNL A   1      39.019  34.191  35.250  1.00  0.00    -0.200 F 
ENDBRANCH  48  72
BRANCH  60  83
ATOM     83  C   UNL A   1      44.959  26.017  33.263  1.00  0.00     0.064 A 
ATOM     84  C   UNL A   1      44.145  25.299  34.156  1.00  0.00     0.173 A 
ATOM     85  C   UNL A   1      46.297  25.584  33.153  1.00  0.00     0.173 A 
ATOM     86  F   UNL A   1      42.829  25.535  34.252  1.00  0.00    -0.203 F 
ATOM     87  C   UNL A   1      44.654  24.268  34.940  1.00  0.00     0.198 A 
ATOM     88  C   UNL A   1      46.782  24.506  33.884  1.00  0.00     0.198 A 
ATOM     89  F   UNL A   1      47.161  26.165  32.308  1.00  0.00    -0.203 F 
ATOM     90  F   UNL A   1      43.852  23.648  35.815  1.00  0.00    -0.200 F 
ATOM     91  C   UNL A   1      45.967  23.862  34.794  1.00  0.00     0.200 A 
ATOM     92  F   UNL A   1      48.036  24.079  33.684  1.00  0.00    -0.200 F 
ATOM     93  F   UNL A   1      46.439  22.837  35.513  1.00  0.00    -0.200 F 
ENDBRANCH  60  83
ENDBRANCH  34  35
ENDBRANCH  27  29
ENDBRANCH  26  27
ENDBRANCH  25  26
ENDBRANCH  24  25
ENDBRANCH  23  24
ENDBRANCH   1  23
TORSDOF 19
ENDMDL
MODEL 3
REMARK VINA RESULT:     -10.4      1.980      2.527
REMARK SMILES COc1ccc(C)cc1[C@@H](C)[C@@](O)(C(=O)OCCOCCOC(=O)c1ccc(-c2c3nc(c(-c4c(F)c(F)c(F)c(F)c4F)c4ccc([nH]4)c(-c4c(F)c(F)c(F)c(F)c4F)c4nc(c(-c5c(F)c(F)c(F)c(F)c5F)c5ccc2[nH]5)C=C4)C=C3)cc1)C(C)C
REMARK SMILES IDX 18 1 17 2 16 3 14 4 15 5 12 6 10 7 11 8 9 9 3 10 4 11 5 12
REMARK SMILES IDX 8 13 6 14 7 15 2 16 1 17 13 18 88 20 89 21 90 22 19 23 20 24
REMARK SMILES IDX 21 25 22 26 23 27 24 28 25 29 26 30 87 31 27 32 86 33 28 34
REMARK SMILES IDX 29 35 30 36 80 37 31 38 85 39 79 40 81 41 32 42 84 43 78 44
REMARK SMILES IDX 77 45 33 47 65 48 45 49 64 50 46 51 49 52 63 53 82 54 47 55
REMARK SMILES IDX 48 56 62 58 83 59 50 60 34 61 35 62 43 63 36 64 37 65 41 66
REMARK SMILES IDX 44 67 38 68 39 69 42 70 40 71 66 72 67 73 75 74 68 75 69 76
REMARK SMILES IDX 73 77 76 78 70 79 71 80 74 81 72 82 51 83 52 84 60 85 53 86
REMARK SMILES IDX 54 87 58 88 61 89 55 90 56 91 59 92 57 93
REMARK H PARENT 13 19 81 46 49 57
REMARK Flexibility Score: inf
ROOT
ATOM      1  C   UNL A   1      31.638  29.058  24.280  1.00  0.00     0.202 C 
ENDROOT
BRANCH   1   2
ATOM      2  C   UNL A   1      30.741  28.081  23.576  1.00  0.00     0.261 C 
BRANCH   2   3
ATOM      3  O   UNL A   1      31.416  26.873  23.185  1.00  0.00    -0.461 OA
BRANCH   3   4
ATOM      4  C   UNL A   1      30.925  25.662  23.618  1.00  0.00     0.339 C 
ATOM      5  O   UNL A   1      29.797  25.492  24.038  1.00  0.00    -0.249 OA
BRANCH   4   6
ATOM      6  C   UNL A   1      32.023  24.566  23.515  1.00  0.00     0.170 C 
BRANCH   6   7
ATOM      7  C   UNL A   1      32.354  24.143  25.010  1.00  0.00     0.063 C 
ATOM      8  C   UNL A   1      32.425  25.262  26.055  1.00  0.00     0.016 C 
BRANCH   7   9
ATOM      9  C   UNL A   1      33.536  23.228  25.212  1.00  0.00     0.001 A 
ATOM     10  C   UNL A   1      33.448  21.841  25.023  1.00  0.00     0.122 A 
ATOM     11  C   UNL A   1      34.588  21.046  25.102  1.00  0.00     0.047 A 
ATOM     12  C   UNL A   1      35.825  21.631  25.386  1.00  0.00     0.007 A 
ATOM     13  C   UNL A   1      34.758  23.772  25.607  1.00  0.00     0.011 A 
ATOM     14  C   UNL A   1      35.914  23.001  25.644  1.00  0.00    -0.051 A 
ATOM     15  C   UNL A   1      37.219  23.713  25.824  1.00  0.00     0.044 C 
BRANCH  10  16
ATOM     16  O   UNL A   1      32.260  21.267  24.653  1.00  0.00    -0.496 OA
ATOM     17  C   UNL A   1      32.480  20.179  23.749  1.00  0.00     0.278 C 
ENDBRANCH  10  16
ENDBRANCH   7   9
ENDBRANCH   6   7
BRANCH   6  18
ATOM     18  O   UNL A   1      31.383  23.451  22.842  1.00  0.00    -0.377 OA
ATOM     19  H   UNL A   1      30.451  23.665  22.676  1.00  0.00     0.212 HD
ENDBRANCH   6  18
BRANCH   6  20
ATOM     20  C   UNL A   1      33.115  25.093  22.518  1.00  0.00     0.027 C 
ATOM     21  C   UNL A   1      32.658  25.281  21.069  1.00  0.00     0.011 C 
ATOM     22  C   UNL A   1      33.962  26.276  23.019  1.00  0.00     0.011 C 
ENDBRANCH   6  20
ENDBRANCH   4   6
ENDBRANCH   3   4
ENDBRANCH   2   3
ENDBRANCH   1   2
BRANCH   1  23
ATOM     23  O   UNL A   1      31.504  28.736  25.654  1.00  0.00    -0.374 OA
BRANCH  23  24
ATOM     24  C   UNL A   1      31.934  29.684  26.606  1.00  0.00     0.202 C 
BRANCH  24  25
ATOM     25  C   UNL A   1      33.450  29.895  26.634  1.00  0.00     0.261 C 
BRANCH  25  26
ATOM     26  O   UNL A   1      33.865  30.414  27.918  1.00  0.00    -0.460 OA
BRANCH  26  27
ATOM     27  C   UNL A   1      35.060  31.061  27.953  1.00  0.00     0.338 C 
ATOM     28  O   UNL A   1      35.249  32.214  27.564  1.00  0.00    -0.246 OA
BRANCH  27  29
ATOM     29  C   UNL A   1      36.156  30.091  28.239  1.00  0.00     0.060 A 
ATOM     30  C   UNL A   1      36.270  29.485  29.508  1.00  0.00     0.016 A 
ATOM     31  C   UNL A   1      37.243  30.084  27.372  1.00  0.00     0.016 A 
ATOM     32  C   UNL A   1      37.511  28.994  29.951  1.00  0.00     0.010 A 
ATOM     33  C   UNL A   1      38.480  29.752  27.873  1.00  0.00     0.010 A 
ATOM     34  C   UNL A   1      38.635  29.196  29.154  1.00  0.00    -0.014 A 
BRANCH  34  35
ATOM     35  C   UNL A   1      40.033  28.949  29.527  1.00  0.00     0.031 A 
ATOM     36  C   UNL A   1      40.717  27.806  28.878  1.00  0.00     0.074 A 
ATOM     37  C   UNL A   1      40.765  29.845  30.233  1.00  0.00     0.049 A 
ATOM     38  N   UNL A   1      41.790  27.255  29.330  1.00  0.00    -0.248 NA
ATOM     39  C   UNL A   1      40.214  27.133  27.684  1.00  0.00     0.031 C 
ATOM     40  C   UNL A   1      42.223  29.986  30.266  1.00  0.00     0.029 A 
ATOM     41  N   UNL A   1      40.338  30.887  31.068  1.00  0.00    -0.354 N 
ATOM     42  C   UNL A   1      42.295  26.445  28.337  1.00  0.00     0.074 A 
ATOM     43  C   UNL A   1      41.204  26.282  27.415  1.00  0.00     0.031 C 
ATOM     44  C   UNL A   1      42.572  30.824  31.259  1.00  0.00     0.029 A 
ATOM     45  C   UNL A   1      41.362  31.191  31.974  1.00  0.00     0.049 A 
ATOM     46  H   UNL A   1      39.461  31.332  31.025  1.00  0.00     0.167 HD
ATOM     47  C   UNL A   1      43.628  26.158  28.350  1.00  0.00     0.037 A 
ATOM     48  C   UNL A   1      41.129  31.130  33.310  1.00  0.00     0.037 A 
ATOM     49  C   UNL A   1      44.259  26.764  29.542  1.00  0.00     0.049 A 
ATOM     50  C   UNL A   1      41.900  29.968  33.856  1.00  0.00     0.074 A 
ATOM     51  C   UNL A   1      45.080  27.868  29.712  1.00  0.00     0.029 A 
ATOM     52  N   UNL A   1      43.777  26.447  30.818  1.00  0.00    -0.354 N 
ATOM     53  N   UNL A   1      42.322  29.000  33.086  1.00  0.00    -0.248 NA
ATOM     54  C   UNL A   1      42.360  29.833  35.230  1.00  0.00     0.031 C 
ATOM     55  C   UNL A   1      45.033  28.248  31.084  1.00  0.00     0.029 A 
ATOM     56  C   UNL A   1      44.204  27.366  31.761  1.00  0.00     0.049 A 
ATOM     57  H   UNL A   1      43.208  25.669  31.020  1.00  0.00     0.167 HD
ATOM     58  C   UNL A   1      43.177  28.210  33.778  1.00  0.00     0.074 A 
ATOM     59  C   UNL A   1      43.127  28.730  35.135  1.00  0.00     0.031 C 
ATOM     60  C   UNL A   1      43.882  27.210  33.179  1.00  0.00     0.037 A 
BRANCH  47  61
ATOM     61  C   UNL A   1      44.420  25.588  27.172  1.00  0.00     0.064 A 
ATOM     62  C   UNL A   1      44.573  24.191  27.025  1.00  0.00     0.173 A 
ATOM     63  C   UNL A   1      45.085  26.334  26.173  1.00  0.00     0.173 A 
ATOM     64  F   UNL A   1      43.945  23.330  27.835  1.00  0.00    -0.203 F 
ATOM     65  C   UNL A   1      45.369  23.610  26.026  1.00  0.00     0.198 A 
ATOM     66  C   UNL A   1      45.906  25.759  25.195  1.00  0.00     0.198 A 
ATOM     67  F   UNL A   1      44.933  27.650  26.038  1.00  0.00    -0.203 F 
ATOM     68  F   UNL A   1      45.470  22.277  25.948  1.00  0.00    -0.200 F 
ATOM     69  C   UNL A   1      46.052  24.395  25.122  1.00  0.00     0.200 A 
ATOM     70  F   UNL A   1      46.536  26.549  24.314  1.00  0.00    -0.200 F 
ATOM     71  F   UNL A   1      46.817  23.844  24.170  1.00  0.00    -0.200 F 
ENDBRANCH  47  61
BRANCH  48  72
ATOM     72  C   UNL A   1      39.787  31.667  33.679  1.00  0.00     0.064 A 
ATOM     73  C   UNL A   1      39.680  33.076  33.770  1.00  0.00     0.173 A 
ATOM     74  C   UNL A   1      38.598  30.955  33.459  1.00  0.00     0.173 A 
ATOM     75  F   UNL A   1      40.786  33.818  33.938  1.00  0.00    -0.203 F 
ATOM     76  C   UNL A   1      38.472  33.740  33.547  1.00  0.00     0.198 A 
ATOM     77  C   UNL A   1      37.388  31.627  33.225  1.00  0.00     0.198 A 
ATOM     78  F   UNL A   1      38.622  29.622  33.324  1.00  0.00    -0.203 F 
ATOM     79  F   UNL A   1      38.447  35.080  33.476  1.00  0.00    -0.200 F 
ATOM     80  C   UNL A   1      37.332  33.014  33.248  1.00  0.00     0.200 A 
ATOM     81  F   UNL A   1      36.301  30.936  32.854  1.00  0.00    -0.200 F 
ATOM     82  F   UNL A   1      36.217  33.654  32.858  1.00  0.00    -0.200 F 
ENDBRANCH  48  72
BRANCH  60  83
ATOM     83  C   UNL A   1      44.419  26.035  33.933  1.00  0.00     0.064 A 
ATOM     84  C   UNL A   1      43.584  25.086  34.547  1.00  0.00     0.173 A 
ATOM     85  C   UNL A   1      45.794  25.722  33.891  1.00  0.00     0.173 A 
ATOM     86  F   UNL A   1      42.250  25.212  34.536  1.00  0.00    -0.203 F 
ATOM     87  C   UNL A   1      44.098  23.940  35.146  1.00  0.00     0.198 A 
ATOM     88  C   UNL A   1      46.294  24.540  34.425  1.00  0.00     0.198 A 
ATOM     89  F   UNL A   1      46.686  26.530  33.298  1.00  0.00    -0.203 F 
ATOM     90  F   UNL A   1      43.268  23.091  35.765  1.00  0.00    -0.200 F 
ATOM     91  C   UNL A   1      45.449  23.660  35.071  1.00  0.00     0.200 A 
ATOM     92  F   UNL A   1      47.594  24.248  34.286  1.00  0.00    -0.200 F 
ATOM     93  F   UNL A   1      45.933  22.531  35.603  1.00  0.00    -0.200 F 
ENDBRANCH  60  83
ENDBRANCH  34  35
ENDBRANCH  27  29
ENDBRANCH  26  27
ENDBRANCH  25  26
ENDBRANCH  24  25
ENDBRANCH  23  24
ENDBRANCH   1  23
TORSDOF 19
ENDMDL
