MODEL 1
REMARK VINA RESULT:     -11.3      0.000      0.000
REMARK SMILES N#C[C@@]1([C@@H](O)C(=O)OCCOCCOC(=O)c2ccc(-c3c4nc(c(-c5c(F)c(F)c(F)c(F)c5F)c5ccc([nH]5)c(-c5c(F)c(F)c(F)c(F)c5F)c5nc(c(-c6c(F)c(F)c(F)c(F)c6F)c6ccc3[nH]6)C=C5)C=C4)cc2)CCCc2ccccc21
REMARK SMILES IDX 11 1 10 2 9 3 8 4 6 5 7 6 4 7 3 8 80 9 88 10 81 11 83 12
REMARK SMILES IDX 87 13 82 14 84 15 86 16 85 17 2 18 1 19 5 20 12 22 13 23
REMARK SMILES IDX 14 24 15 25 16 26 17 27 18 28 79 29 19 30 78 31 20 32 21 33
REMARK SMILES IDX 22 34 72 35 23 36 77 37 71 38 73 39 24 40 76 41 70 42 69 43
REMARK SMILES IDX 25 45 57 46 37 47 56 48 38 49 41 50 55 51 74 52 39 53 40 54
REMARK SMILES IDX 54 56 75 57 42 58 26 59 27 60 35 61 28 62 29 63 33 64 36 65
REMARK SMILES IDX 30 66 31 67 34 68 32 69 58 70 59 71 67 72 60 73 61 74 65 75
REMARK SMILES IDX 68 76 62 77 63 78 66 79 64 80 43 81 44 82 52 83 45 84 46 85
REMARK SMILES IDX 50 86 53 87 47 88 48 89 51 90 49 91
REMARK H PARENT 5 21 73 44 41 55
REMARK Flexibility Score: inf
ROOT
ATOM      1  O   UNL A   1      32.570  29.219  24.446  1.00  0.00    -0.374 OA
ENDROOT
BRANCH   1   2
ATOM      2  C   UNL A   1      32.537  27.840  24.099  1.00  0.00     0.202 C 
BRANCH   2   3
ATOM      3  C   UNL A   1      31.839  27.489  22.783  1.00  0.00     0.261 C 
BRANCH   3   4
ATOM      4  O   UNL A   1      31.103  26.246  22.852  1.00  0.00    -0.461 OA
BRANCH   4   5
ATOM      5  C   UNL A   1      31.827  25.114  23.060  1.00  0.00     0.337 C 
ATOM      6  O   UNL A   1      32.798  24.788  22.384  1.00  0.00    -0.249 OA
BRANCH   5   7
ATOM      7  C   UNL A   1      31.220  24.185  24.121  1.00  0.00     0.248 C 
BRANCH   7   8
ATOM      8  C   UNL A   1      32.047  23.734  25.377  1.00  0.00     0.119 C 
ATOM      9  C   UNL A   1      32.949  24.853  25.968  1.00  0.00     0.031 C 
ATOM     10  C   UNL A   1      32.813  22.412  25.138  1.00  0.00    -0.021 A 
ATOM     11  C   UNL A   1      34.384  24.798  25.481  1.00  0.00     0.007 C 
ATOM     12  C   UNL A   1      34.210  22.310  25.308  1.00  0.00    -0.043 A 
ATOM     13  C   UNL A   1      32.102  21.230  24.832  1.00  0.00     0.006 A 
ATOM     14  C   UNL A   1      35.030  23.465  25.811  1.00  0.00     0.036 C 
ATOM     15  C   UNL A   1      34.856  21.073  25.124  1.00  0.00     0.004 A 
ATOM     16  C   UNL A   1      32.751  20.003  24.684  1.00  0.00     0.000 A 
ATOM     17  C   UNL A   1      34.131  19.926  24.812  1.00  0.00     0.000 A 
BRANCH   8  18
ATOM     18  C   UNL A   1      31.030  23.461  26.453  1.00  0.00     0.077 C 
ATOM     19  N   UNL A   1      30.241  23.238  27.271  1.00  0.00    -0.197 NA
ENDBRANCH   8  18
ENDBRANCH   7   8
BRANCH   7  20
ATOM     20  O   UNL A   1      29.977  24.799  24.520  1.00  0.00    -0.380 OA
ATOM     21  H   UNL A   1      29.313  24.110  24.677  1.00  0.00     0.211 HD
ENDBRANCH   7  20
ENDBRANCH   5   7
ENDBRANCH   4   5
ENDBRANCH   3   4
ENDBRANCH   2   3
ENDBRANCH   1   2
BRANCH   1  22
ATOM     22  C   UNL A   1      31.330  29.821  24.815  1.00  0.00     0.202 C 
BRANCH  22  23
ATOM     23  C   UNL A   1      31.402  30.829  25.978  1.00  0.00     0.261 C 
BRANCH  23  24
ATOM     24  O   UNL A   1      32.594  30.658  26.783  1.00  0.00    -0.460 OA
BRANCH  24  25
ATOM     25  C   UNL A   1      33.211  31.789  27.206  1.00  0.00     0.338 C 
ATOM     26  O   UNL A   1      32.714  32.899  27.288  1.00  0.00    -0.246 OA
BRANCH  25  27
ATOM     27  C   UNL A   1      34.543  31.459  27.791  1.00  0.00     0.060 A 
ATOM     28  C   UNL A   1      35.558  32.399  27.976  1.00  0.00     0.016 A 
ATOM     29  C   UNL A   1      34.770  30.129  28.162  1.00  0.00     0.016 A 
ATOM     30  C   UNL A   1      36.791  32.004  28.533  1.00  0.00     0.010 A 
ATOM     31  C   UNL A   1      35.984  29.745  28.748  1.00  0.00     0.010 A 
ATOM     32  C   UNL A   1      37.009  30.679  28.961  1.00  0.00    -0.014 A 
BRANCH  32  33
ATOM     33  C   UNL A   1      38.224  30.285  29.749  1.00  0.00     0.031 A 
ATOM     34  C   UNL A   1      39.236  29.289  29.237  1.00  0.00     0.074 A 
ATOM     35  C   UNL A   1      38.375  30.759  31.005  1.00  0.00     0.049 A 
ATOM     36  N   UNL A   1      40.288  28.788  29.845  1.00  0.00    -0.248 NA
ATOM     37  C   UNL A   1      39.039  28.781  27.874  1.00  0.00     0.031 C 
ATOM     38  C   UNL A   1      37.468  31.695  31.664  1.00  0.00     0.029 A 
ATOM     39  N   UNL A   1      39.338  30.507  31.957  1.00  0.00    -0.354 N 
ATOM     40  C   UNL A   1      40.877  27.910  28.943  1.00  0.00     0.074 A 
ATOM     41  C   UNL A   1      40.037  27.912  27.761  1.00  0.00     0.031 C 
ATOM     42  C   UNL A   1      37.926  31.959  32.896  1.00  0.00     0.029 A 
ATOM     43  C   UNL A   1      39.129  31.170  33.143  1.00  0.00     0.049 A 
ATOM     44  H   UNL A   1      40.104  29.907  31.803  1.00  0.00     0.167 HD
ATOM     45  C   UNL A   1      42.018  27.184  29.074  1.00  0.00     0.037 A 
ATOM     46  C   UNL A   1      39.808  31.145  34.308  1.00  0.00     0.037 A 
ATOM     47  C   UNL A   1      42.862  27.169  30.247  1.00  0.00     0.049 A 
ATOM     48  C   UNL A   1      41.034  30.283  34.453  1.00  0.00     0.074 A 
ATOM     49  C   UNL A   1      44.059  26.494  30.437  1.00  0.00     0.029 A 
ATOM     50  N   UNL A   1      42.600  27.840  31.431  1.00  0.00    -0.354 N 
ATOM     51  N   UNL A   1      41.613  29.513  33.566  1.00  0.00    -0.248 NA
ATOM     52  C   UNL A   1      41.701  30.292  35.765  1.00  0.00     0.031 C 
ATOM     53  C   UNL A   1      44.482  26.699  31.753  1.00  0.00     0.029 A 
ATOM     54  C   UNL A   1      43.591  27.563  32.365  1.00  0.00     0.049 A 
ATOM     55  H   UNL A   1      41.826  28.426  31.588  1.00  0.00     0.167 HD
ATOM     56  C   UNL A   1      42.722  28.967  34.201  1.00  0.00     0.074 A 
ATOM     57  C   UNL A   1      42.748  29.508  35.542  1.00  0.00     0.031 C 
ATOM     58  C   UNL A   1      43.632  28.094  33.705  1.00  0.00     0.037 A 
BRANCH  45  59
ATOM     59  C   UNL A   1      42.449  26.331  27.910  1.00  0.00     0.064 A 
ATOM     60  C   UNL A   1      41.914  25.050  27.703  1.00  0.00     0.173 A 
ATOM     61  C   UNL A   1      43.330  26.833  26.938  1.00  0.00     0.173 A 
ATOM     62  F   UNL A   1      41.064  24.521  28.596  1.00  0.00    -0.203 F 
ATOM     63  C   UNL A   1      42.267  24.293  26.587  1.00  0.00     0.198 A 
ATOM     64  C   UNL A   1      43.653  26.088  25.805  1.00  0.00     0.198 A 
ATOM     65  F   UNL A   1      43.856  28.059  27.069  1.00  0.00    -0.203 F 
ATOM     66  F   UNL A   1      41.775  23.056  26.435  1.00  0.00    -0.200 F 
ATOM     67  C   UNL A   1      43.128  24.817  25.634  1.00  0.00     0.200 A 
ATOM     68  F   UNL A   1      44.463  26.607  24.872  1.00  0.00    -0.200 F 
ATOM     69  F   UNL A   1      43.452  24.096  24.552  1.00  0.00    -0.200 F 
ENDBRANCH  45  59
BRANCH  46  70
ATOM     70  C   UNL A   1      39.348  31.999  35.435  1.00  0.00     0.064 A 
ATOM     71  C   UNL A   1      38.489  31.486  36.416  1.00  0.00     0.173 A 
ATOM     72  C   UNL A   1      39.779  33.327  35.575  1.00  0.00     0.173 A 
ATOM     73  F   UNL A   1      38.028  30.230  36.312  1.00  0.00    -0.203 F 
ATOM     74  C   UNL A   1      38.078  32.267  37.494  1.00  0.00     0.198 A 
ATOM     75  C   UNL A   1      39.393  34.096  36.671  1.00  0.00     0.198 A 
ATOM     76  F   UNL A   1      40.601  33.866  34.663  1.00  0.00    -0.203 F 
ATOM     77  F   UNL A   1      37.230  31.761  38.400  1.00  0.00    -0.200 F 
ATOM     78  C   UNL A   1      38.541  33.567  37.627  1.00  0.00     0.200 A 
ATOM     79  F   UNL A   1      39.858  35.346  36.806  1.00  0.00    -0.200 F 
ATOM     80  F   UNL A   1      38.163  34.310  38.676  1.00  0.00    -0.200 F 
ENDBRANCH  46  70
BRANCH  58  81
ATOM     81  C   UNL A   1      44.765  27.666  34.600  1.00  0.00     0.064 A 
ATOM     82  C   UNL A   1      45.952  28.409  34.696  1.00  0.00     0.173 A 
ATOM     83  C   UNL A   1      44.636  26.539  35.429  1.00  0.00     0.173 A 
ATOM     84  F   UNL A   1      46.137  29.487  33.919  1.00  0.00    -0.203 F 
ATOM     85  C   UNL A   1      46.968  28.034  35.574  1.00  0.00     0.198 A 
ATOM     86  C   UNL A   1      45.638  26.187  36.330  1.00  0.00     0.198 A 
ATOM     87  F   UNL A   1      43.522  25.792  35.385  1.00  0.00    -0.203 F 
ATOM     88  F   UNL A   1      48.106  28.740  35.619  1.00  0.00    -0.200 F 
ATOM     89  C   UNL A   1      46.804  26.932  36.399  1.00  0.00     0.200 A 
ATOM     90  F   UNL A   1      45.469  25.132  37.139  1.00  0.00    -0.200 F 
ATOM     91  F   UNL A   1      47.773  26.586  37.259  1.00  0.00    -0.200 F 
ENDBRANCH  58  81
ENDBRANCH  32  33
ENDBRANCH  25  27
ENDBRANCH  24  25
ENDBRANCH  23  24
ENDBRANCH  22  23
ENDBRANCH   1  22
TORSDOF 17
ENDMDL
MODEL 2
REMARK VINA RESULT:     -11.2      0.361      1.994
REMARK SMILES N#C[C@@]1([C@@H](O)C(=O)OCCOCCOC(=O)c2ccc(-c3c4nc(c(-c5c(F)c(F)c(F)c(F)c5F)c5ccc([nH]5)c(-c5c(F)c(F)c(F)c(F)c5F)c5nc(c(-c6c(F)c(F)c(F)c(F)c6F)c6ccc3[nH]6)C=C5)C=C4)cc2)CCCc2ccccc21
REMARK SMILES IDX 11 1 10 2 9 3 8 4 6 5 7 6 4 7 3 8 80 9 88 10 81 11 83 12
REMARK SMILES IDX 87 13 82 14 84 15 86 16 85 17 2 18 1 19 5 20 12 22 13 23
REMARK SMILES IDX 14 24 15 25 16 26 17 27 18 28 79 29 19 30 78 31 20 32 21 33
REMARK SMILES IDX 22 34 72 35 23 36 77 37 71 38 73 39 24 40 76 41 70 42 69 43
REMARK SMILES IDX 25 45 57 46 37 47 56 48 38 49 41 50 55 51 74 52 39 53 40 54
REMARK SMILES IDX 54 56 75 57 42 58 26 59 27 60 35 61 28 62 29 63 33 64 36 65
REMARK SMILES IDX 30 66 31 67 34 68 32 69 58 70 59 71 67 72 60 73 61 74 65 75
REMARK SMILES IDX 68 76 62 77 63 78 66 79 64 80 43 81 44 82 52 83 45 84 46 85
REMARK SMILES IDX 50 86 53 87 47 88 48 89 51 90 49 91
REMARK H PARENT 5 21 73 44 41 55
REMARK Flexibility Score: inf
ROOT
ATOM      1  O   UNL A   1      31.796  29.061  23.795  1.00  0.00    -0.374 OA
ENDROOT
BRANCH   1   2
ATOM      2  C   UNL A   1      31.409  27.693  23.749  1.00  0.00     0.202 C 
BRANCH   2   3
ATOM      3  C   UNL A   1      31.475  27.016  22.379  1.00  0.00     0.261 C 
BRANCH   3   4
ATOM      4  O   UNL A   1      30.955  25.666  22.393  1.00  0.00    -0.461 OA
BRANCH   4   5
ATOM      5  C   UNL A   1      31.756  24.705  22.924  1.00  0.00     0.337 C 
ATOM      6  O   UNL A   1      32.836  24.373  22.447  1.00  0.00    -0.249 OA
BRANCH   5   7
ATOM      7  C   UNL A   1      31.110  23.946  24.092  1.00  0.00     0.248 C 
BRANCH   7   8
ATOM      8  C   UNL A   1      31.929  23.588  25.383  1.00  0.00     0.119 C 
ATOM      9  C   UNL A   1      32.744  24.780  25.958  1.00  0.00     0.031 C 
ATOM     10  C   UNL A   1      32.781  22.309  25.208  1.00  0.00    -0.021 A 
ATOM     11  C   UNL A   1      34.192  24.799  25.509  1.00  0.00     0.007 C 
ATOM     12  C   UNL A   1      34.176  22.300  25.416  1.00  0.00    -0.043 A 
ATOM     13  C   UNL A   1      32.153  21.076  24.924  1.00  0.00     0.006 A 
ATOM     14  C   UNL A   1      34.910  23.520  25.899  1.00  0.00     0.036 C 
ATOM     15  C   UNL A   1      34.902  21.100  25.290  1.00  0.00     0.004 A 
ATOM     16  C   UNL A   1      32.880  19.887  24.834  1.00  0.00     0.000 A 
ATOM     17  C   UNL A   1      34.257  19.901  24.999  1.00  0.00     0.000 A 
BRANCH   8  18
ATOM     18  C   UNL A   1      30.902  23.287  26.442  1.00  0.00     0.077 C 
ATOM     19  N   UNL A   1      30.103  23.069  27.251  1.00  0.00    -0.197 NA
ENDBRANCH   8  18
ENDBRANCH   7   8
BRANCH   7  20
ATOM     20  O   UNL A   1      29.917  24.681  24.430  1.00  0.00    -0.380 OA
ATOM     21  H   UNL A   1      29.844  24.753  25.395  1.00  0.00     0.211 HD
ENDBRANCH   7  20
ENDBRANCH   5   7
ENDBRANCH   4   5
ENDBRANCH   3   4
ENDBRANCH   2   3
ENDBRANCH   1   2
BRANCH   1  22
ATOM     22  C   UNL A   1      32.509  29.491  24.954  1.00  0.00     0.202 C 
BRANCH  22  23
ATOM     23  C   UNL A   1      31.783  30.528  25.833  1.00  0.00     0.261 C 
BRANCH  23  24
ATOM     24  O   UNL A   1      32.406  30.685  27.130  1.00  0.00    -0.460 OA
BRANCH  24  25
ATOM     25  C   UNL A   1      33.138  31.810  27.321  1.00  0.00     0.338 C 
ATOM     26  O   UNL A   1      32.736  32.959  27.247  1.00  0.00    -0.246 OA
BRANCH  25  27
ATOM     27  C   UNL A   1      34.480  31.463  27.873  1.00  0.00     0.060 A 
ATOM     28  C   UNL A   1      35.501  32.396  28.064  1.00  0.00     0.016 A 
ATOM     29  C   UNL A   1      34.711  30.122  28.204  1.00  0.00     0.016 A 
ATOM     30  C   UNL A   1      36.743  31.984  28.587  1.00  0.00     0.010 A 
ATOM     31  C   UNL A   1      35.934  29.721  28.758  1.00  0.00     0.010 A 
ATOM     32  C   UNL A   1      36.965  30.647  28.976  1.00  0.00    -0.014 A 
BRANCH  32  33
ATOM     33  C   UNL A   1      38.194  30.230  29.731  1.00  0.00     0.031 A 
ATOM     34  C   UNL A   1      39.189  29.238  29.177  1.00  0.00     0.074 A 
ATOM     35  C   UNL A   1      38.374  30.678  30.991  1.00  0.00     0.049 A 
ATOM     36  N   UNL A   1      40.250  28.719  29.753  1.00  0.00    -0.248 NA
ATOM     37  C   UNL A   1      38.960  28.759  27.809  1.00  0.00     0.031 C 
ATOM     38  C   UNL A   1      37.487  31.606  31.688  1.00  0.00     0.029 A 
ATOM     39  N   UNL A   1      39.355  30.401  31.918  1.00  0.00    -0.354 N 
ATOM     40  C   UNL A   1      40.814  27.855  28.821  1.00  0.00     0.074 A 
ATOM     41  C   UNL A   1      39.950  27.886  27.658  1.00  0.00     0.031 C 
ATOM     42  C   UNL A   1      37.972  31.843  32.915  1.00  0.00     0.029 A 
ATOM     43  C   UNL A   1      39.175  31.042  33.121  1.00  0.00     0.049 A 
ATOM     44  H   UNL A   1      40.114  29.800  31.736  1.00  0.00     0.167 HD
ATOM     45  C   UNL A   1      41.953  27.120  28.915  1.00  0.00     0.037 A 
ATOM     46  C   UNL A   1      39.878  30.989  34.271  1.00  0.00     0.037 A 
ATOM     47  C   UNL A   1      42.821  27.076  30.069  1.00  0.00     0.049 A 
ATOM     48  C   UNL A   1      41.100  30.117  34.373  1.00  0.00     0.074 A 
ATOM     49  C   UNL A   1      44.017  26.391  30.220  1.00  0.00     0.029 A 
ATOM     50  N   UNL A   1      42.588  27.725  31.272  1.00  0.00    -0.354 N 
ATOM     51  N   UNL A   1      41.656  29.361  33.460  1.00  0.00    -0.248 NA
ATOM     52  C   UNL A   1      41.795  30.095  35.671  1.00  0.00     0.031 C 
ATOM     53  C   UNL A   1      44.469  26.567  31.531  1.00  0.00     0.029 A 
ATOM     54  C   UNL A   1      43.596  27.424  32.179  1.00  0.00     0.049 A 
ATOM     55  H   UNL A   1      41.821  28.313  31.457  1.00  0.00     0.167 HD
ATOM     56  C   UNL A   1      42.775  28.796  34.060  1.00  0.00     0.074 A 
ATOM     57  C   UNL A   1      42.832  29.310  35.411  1.00  0.00     0.031 C 
ATOM     58  C   UNL A   1      43.669  27.928  33.528  1.00  0.00     0.037 A 
BRANCH  45  59
ATOM     59  C   UNL A   1      42.354  26.288  27.725  1.00  0.00     0.064 A 
ATOM     60  C   UNL A   1      43.342  26.722  26.827  1.00  0.00     0.173 A 
ATOM     61  C   UNL A   1      41.820  25.003  27.533  1.00  0.00     0.173 A 
ATOM     62  F   UNL A   1      43.892  27.938  26.966  1.00  0.00    -0.203 F 
ATOM     63  C   UNL A   1      43.756  25.918  25.767  1.00  0.00     0.198 A 
ATOM     64  C   UNL A   1      42.262  24.187  26.493  1.00  0.00     0.198 A 
ATOM     65  F   UNL A   1      40.889  24.524  28.371  1.00  0.00    -0.203 F 
ATOM     66  F   UNL A   1      44.670  26.373  24.900  1.00  0.00    -0.200 F 
ATOM     67  C   UNL A   1      43.223  24.648  25.608  1.00  0.00     0.200 A 
ATOM     68  F   UNL A   1      41.765  22.950  26.356  1.00  0.00    -0.200 F 
ATOM     69  F   UNL A   1      43.635  23.868  24.598  1.00  0.00    -0.200 F 
ENDBRANCH  45  59
BRANCH  46  70
ATOM     70  C   UNL A   1      39.447  31.824  35.424  1.00  0.00     0.064 A 
ATOM     71  C   UNL A   1      39.902  33.142  35.561  1.00  0.00     0.173 A 
ATOM     72  C   UNL A   1      38.552  31.339  36.390  1.00  0.00     0.173 A 
ATOM     73  F   UNL A   1      40.779  33.642  34.677  1.00  0.00    -0.203 F 
ATOM     74  C   UNL A   1      39.479  33.944  36.618  1.00  0.00     0.198 A 
ATOM     75  C   UNL A   1      38.105  32.153  37.429  1.00  0.00     0.198 A 
ATOM     76  F   UNL A   1      38.087  30.084  36.306  1.00  0.00    -0.203 F 
ATOM     77  F   UNL A   1      39.956  35.190  36.743  1.00  0.00    -0.200 F 
ATOM     78  C   UNL A   1      38.571  33.453  37.544  1.00  0.00     0.200 A 
ATOM     79  F   UNL A   1      37.213  31.680  38.311  1.00  0.00    -0.200 F 
ATOM     80  F   UNL A   1      38.148  34.232  38.549  1.00  0.00    -0.200 F 
ENDBRANCH  46  70
BRANCH  58  81
ATOM     81  C   UNL A   1      44.817  27.475  34.391  1.00  0.00     0.064 A 
ATOM     82  C   UNL A   1      44.748  26.301  35.157  1.00  0.00     0.173 A 
ATOM     83  C   UNL A   1      46.031  28.182  34.395  1.00  0.00     0.173 A 
ATOM     84  F   UNL A   1      43.610  25.591  35.201  1.00  0.00    -0.203 F 
ATOM     85  C   UNL A   1      45.840  25.862  35.903  1.00  0.00     0.198 A 
ATOM     86  C   UNL A   1      47.132  27.722  35.114  1.00  0.00     0.198 A 
ATOM     87  F   UNL A   1      46.159  29.310  33.679  1.00  0.00    -0.203 F 
ATOM     88  F   UNL A   1      45.735  24.758  36.655  1.00  0.00    -0.200 F 
ATOM     89  C   UNL A   1      47.034  26.566  35.871  1.00  0.00     0.200 A 
ATOM     90  F   UNL A   1      48.290  28.395  35.066  1.00  0.00    -0.200 F 
ATOM     91  F   UNL A   1      48.091  26.129  36.572  1.00  0.00    -0.200 F 
ENDBRANCH  58  81
ENDBRANCH  32  33
ENDBRANCH  25  27
ENDBRANCH  24  25
ENDBRANCH  23  24
ENDBRANCH  22  23
ENDBRANCH   1  22
TORSDOF 17
ENDMDL
MODEL 3
REMARK VINA RESULT:     -11.2      1.169      2.137
REMARK SMILES N#C[C@@]1([C@@H](O)C(=O)OCCOCCOC(=O)c2ccc(-c3c4nc(c(-c5c(F)c(F)c(F)c(F)c5F)c5ccc([nH]5)c(-c5c(F)c(F)c(F)c(F)c5F)c5nc(c(-c6c(F)c(F)c(F)c(F)c6F)c6ccc3[nH]6)C=C5)C=C4)cc2)CCCc2ccccc21
REMARK SMILES IDX 11 1 10 2 9 3 8 4 6 5 7 6 4 7 3 8 80 9 88 10 81 11 83 12
REMARK SMILES IDX 87 13 82 14 84 15 86 16 85 17 2 18 1 19 5 20 12 22 13 23
REMARK SMILES IDX 14 24 15 25 16 26 17 27 18 28 79 29 19 30 78 31 20 32 21 33
REMARK SMILES IDX 22 34 72 35 23 36 77 37 71 38 73 39 24 40 76 41 70 42 69 43
REMARK SMILES IDX 25 45 57 46 37 47 56 48 38 49 41 50 55 51 74 52 39 53 40 54
REMARK SMILES IDX 54 56 75 57 42 58 26 59 27 60 35 61 28 62 29 63 33 64 36 65
REMARK SMILES IDX 30 66 31 67 34 68 32 69 58 70 59 71 67 72 60 73 61 74 65 75
REMARK SMILES IDX 68 76 62 77 63 78 66 79 64 80 43 81 44 82 52 83 45 84 46 85
REMARK SMILES IDX 50 86 53 87 47 88 48 89 51 90 49 91
REMARK H PARENT 5 21 73 44 41 55
REMARK Flexibility Score: inf
ROOT
ATOM      1  O   UNL A   1      31.456  27.632  25.614  1.00  0.00    -0.374 OA
ENDROOT
BRANCH   1   2
ATOM      2  C   UNL A   1      30.541  26.786  24.929  1.00  0.00     0.202 C 
BRANCH   2   3
ATOM      3  C   UNL A   1      30.415  25.356  25.457  1.00  0.00     0.261 C 
BRANCH   3   4
ATOM      4  O   UNL A   1      31.088  25.163  26.723  1.00  0.00    -0.461 OA
BRANCH   4   5
ATOM      5  C   UNL A   1      31.780  24.003  26.880  1.00  0.00     0.337 C 
ATOM      6  O   UNL A   1      31.369  23.042  27.522  1.00  0.00    -0.249 OA
BRANCH   5   7
ATOM      7  C   UNL A   1      33.206  24.061  26.316  1.00  0.00     0.248 C 
BRANCH   7   8
ATOM      8  C   UNL A   1      33.601  23.270  25.018  1.00  0.00     0.119 C 
ATOM      9  C   UNL A   1      32.508  22.276  24.534  1.00  0.00     0.031 C 
ATOM     10  C   UNL A   1      34.999  22.617  25.124  1.00  0.00    -0.021 A 
ATOM     11  C   UNL A   1      32.729  20.853  25.006  1.00  0.00     0.007 C 
ATOM     12  C   UNL A   1      35.200  21.234  24.938  1.00  0.00    -0.043 A 
ATOM     13  C   UNL A   1      36.141  23.425  25.317  1.00  0.00     0.006 A 
ATOM     14  C   UNL A   1      34.073  20.318  24.545  1.00  0.00     0.036 C 
ATOM     15  C   UNL A   1      36.498  20.693  24.998  1.00  0.00     0.004 A 
ATOM     16  C   UNL A   1      37.427  22.881  25.343  1.00  0.00     0.000 A 
ATOM     17  C   UNL A   1      37.605  21.512  25.201  1.00  0.00     0.000 A 
BRANCH   8  18
ATOM     18  C   UNL A   1      33.682  24.303  23.925  1.00  0.00     0.077 C 
ATOM     19  N   UNL A   1      33.732  25.090  23.077  1.00  0.00    -0.197 NA
ENDBRANCH   8  18
ENDBRANCH   7   8
BRANCH   7  20
ATOM     20  O   UNL A   1      33.521  25.461  26.177  1.00  0.00    -0.380 OA
ATOM     21  H   UNL A   1      34.434  25.558  25.863  1.00  0.00     0.211 HD
ENDBRANCH   7  20
ENDBRANCH   5   7
ENDBRANCH   4   5
ENDBRANCH   3   4
ENDBRANCH   2   3
ENDBRANCH   1   2
BRANCH   1  22
ATOM     22  C   UNL A   1      31.418  29.021  25.288  1.00  0.00     0.202 C 
BRANCH  22  23
ATOM     23  C   UNL A   1      31.809  29.981  26.429  1.00  0.00     0.261 C 
BRANCH  23  24
ATOM     24  O   UNL A   1      33.139  30.528  26.258  1.00  0.00    -0.460 OA
BRANCH  24  25
ATOM     25  C   UNL A   1      33.500  31.525  27.103  1.00  0.00     0.338 C 
ATOM     26  O   UNL A   1      32.798  32.447  27.479  1.00  0.00    -0.246 OA
BRANCH  25  27
ATOM     27  C   UNL A   1      34.827  31.224  27.714  1.00  0.00     0.060 A 
ATOM     28  C   UNL A   1      35.796  32.195  27.972  1.00  0.00     0.016 A 
ATOM     29  C   UNL A   1      35.099  29.888  28.034  1.00  0.00     0.016 A 
ATOM     30  C   UNL A   1      37.028  31.825  28.549  1.00  0.00     0.010 A 
ATOM     31  C   UNL A   1      36.310  29.528  28.640  1.00  0.00     0.010 A 
ATOM     32  C   UNL A   1      37.288  30.492  28.925  1.00  0.00    -0.014 A 
BRANCH  32  33
ATOM     33  C   UNL A   1      38.495  30.113  29.732  1.00  0.00     0.031 A 
ATOM     34  C   UNL A   1      39.522  29.120  29.241  1.00  0.00     0.074 A 
ATOM     35  C   UNL A   1      38.627  30.597  30.986  1.00  0.00     0.049 A 
ATOM     36  N   UNL A   1      40.569  28.631  29.867  1.00  0.00    -0.248 NA
ATOM     37  C   UNL A   1      39.346  28.600  27.880  1.00  0.00     0.031 C 
ATOM     38  C   UNL A   1      37.704  31.532  31.626  1.00  0.00     0.029 A 
ATOM     39  N   UNL A   1      39.578  30.359  31.953  1.00  0.00    -0.354 N 
ATOM     40  C   UNL A   1      41.176  27.750  28.980  1.00  0.00     0.074 A 
ATOM     41  C   UNL A   1      40.352  27.737  27.787  1.00  0.00     0.031 C 
ATOM     42  C   UNL A   1      38.143  31.808  32.862  1.00  0.00     0.029 A 
ATOM     43  C   UNL A   1      39.349  31.030  33.131  1.00  0.00     0.049 A 
ATOM     44  H   UNL A   1      40.350  29.763  31.814  1.00  0.00     0.167 HD
ATOM     45  C   UNL A   1      42.320  27.033  29.132  1.00  0.00     0.037 A 
ATOM     46  C   UNL A   1      40.012  31.018  34.305  1.00  0.00     0.037 A 
ATOM     47  C   UNL A   1      43.148  27.033  30.316  1.00  0.00     0.049 A 
ATOM     48  C   UNL A   1      41.241  30.166  34.473  1.00  0.00     0.074 A 
ATOM     49  C   UNL A   1      44.347  26.368  30.527  1.00  0.00     0.029 A 
ATOM     50  N   UNL A   1      42.865  27.711  31.492  1.00  0.00    -0.354 N 
ATOM     51  N   UNL A   1      41.838  29.393  33.600  1.00  0.00    -0.248 NA
ATOM     52  C   UNL A   1      41.891  30.189  35.794  1.00  0.00     0.031 C 
ATOM     53  C   UNL A   1      44.751  26.586  31.847  1.00  0.00     0.029 A 
ATOM     54  C   UNL A   1      43.846  27.449  32.441  1.00  0.00     0.049 A 
ATOM     55  H   UNL A   1      42.085  28.293  31.634  1.00  0.00     0.167 HD
ATOM     56  C   UNL A   1      42.942  28.860  34.254  1.00  0.00     0.074 A 
ATOM     57  C   UNL A   1      42.946  29.411  35.591  1.00  0.00     0.031 C 
ATOM     58  C   UNL A   1      43.865  27.990  33.777  1.00  0.00     0.037 A 
BRANCH  45  59
ATOM     59  C   UNL A   1      42.772  26.174  27.980  1.00  0.00     0.064 A 
ATOM     60  C   UNL A   1      42.306  24.861  27.818  1.00  0.00     0.173 A 
ATOM     61  C   UNL A   1      43.603  26.698  26.976  1.00  0.00     0.173 A 
ATOM     62  F   UNL A   1      41.505  24.310  28.744  1.00  0.00    -0.203 F 
ATOM     63  C   UNL A   1      42.676  24.096  26.714  1.00  0.00     0.198 A 
ATOM     64  C   UNL A   1      43.942  25.943  25.855  1.00  0.00     0.198 A 
ATOM     65  F   UNL A   1      44.062  27.955  27.064  1.00  0.00    -0.203 F 
ATOM     66  F   UNL A   1      42.250  22.830  26.605  1.00  0.00    -0.200 F 
ATOM     67  C   UNL A   1      43.485  24.641  25.729  1.00  0.00     0.200 A 
ATOM     68  F   UNL A   1      44.702  26.480  24.890  1.00  0.00    -0.200 F 
ATOM     69  F   UNL A   1      43.825  23.909  24.658  1.00  0.00    -0.200 F 
ENDBRANCH  45  59
BRANCH  46  70
ATOM     70  C   UNL A   1      39.531  31.878  35.419  1.00  0.00     0.064 A 
ATOM     71  C   UNL A   1      38.578  31.401  36.329  1.00  0.00     0.173 A 
ATOM     72  C   UNL A   1      40.033  33.172  35.619  1.00  0.00     0.173 A 
ATOM     73  F   UNL A   1      38.048  30.179  36.165  1.00  0.00    -0.203 F 
ATOM     74  C   UNL A   1      38.144  32.185  37.396  1.00  0.00     0.198 A 
ATOM     75  C   UNL A   1      39.622  33.943  36.705  1.00  0.00     0.198 A 
ATOM     76  F   UNL A   1      40.946  33.676  34.776  1.00  0.00    -0.203 F 
ATOM     77  F   UNL A   1      37.207  31.716  38.232  1.00  0.00    -0.200 F 
ATOM     78  C   UNL A   1      38.676  33.450  37.590  1.00  0.00     0.200 A 
ATOM     79  F   UNL A   1      40.153  35.158  36.900  1.00  0.00    -0.200 F 
ATOM     80  F   UNL A   1      38.275  34.196  38.629  1.00  0.00    -0.200 F 
ENDBRANCH  46  70
BRANCH  58  81
ATOM     81  C   UNL A   1      44.989  27.576  34.690  1.00  0.00     0.064 A 
ATOM     82  C   UNL A   1      44.904  26.427  35.492  1.00  0.00     0.173 A 
ATOM     83  C   UNL A   1      46.195  28.295  34.711  1.00  0.00     0.173 A 
ATOM     84  F   UNL A   1      43.772  25.709  35.524  1.00  0.00    -0.203 F 
ATOM     85  C   UNL A   1      45.976  26.023  36.287  1.00  0.00     0.198 A 
ATOM     86  C   UNL A   1      47.276  27.869  35.479  1.00  0.00     0.198 A 
ATOM     87  F   UNL A   1      46.337  29.400  33.962  1.00  0.00    -0.203 F 
ATOM     88  F   UNL A   1      45.855  24.944  37.072  1.00  0.00    -0.200 F 
ATOM     89  C   UNL A   1      47.164  26.737  36.270  1.00  0.00     0.200 A 
ATOM     90  F   UNL A   1      48.430  28.550  35.446  1.00  0.00    -0.200 F 
ATOM     91  F   UNL A   1      48.201  26.334  37.019  1.00  0.00    -0.200 F 
ENDBRANCH  58  81
ENDBRANCH  32  33
ENDBRANCH  25  27
ENDBRANCH  24  25
ENDBRANCH  23  24
ENDBRANCH  22  23
ENDBRANCH   1  22
TORSDOF 17
ENDMDL
