MODEL 1
REMARK VINA RESULT:     -11.6      0.000      0.000
REMARK SMILES C[C@H](NC(=O)CCN1C(=O)/C(=C/c2ccc([N+](=O)[O-])cc2)SC1=S)C(=O)OCCOCCOC(=O)c1ccc(-c2c3nc(c(-c4c(F)c(F)c(F)c(F)c4F)c4ccc([nH]4)c(-c4c(F)c(F)c(F)c(F)c4F)c4nc(c(-c5c(F)c(F)c(F)c(F)c5F)c5ccc2[nH]5)C=C4)C=C3)cc1
REMARK SMILES IDX 28 1 27 2 25 3 26 4 2 5 1 6 3 7 4 8 5 10 6 11 7 12 8 13 9 14
REMARK SMILES IDX 23 15 10 16 11 17 22 18 24 19 12 20 13 21 14 22 21 23 15 24
REMARK SMILES IDX 20 25 16 26 17 27 18 28 19 29 29 30 30 31 31 32 32 33 33 34
REMARK SMILES IDX 34 35 35 36 36 37 37 38 98 39 38 40 97 41 39 42 40 43 41 44
REMARK SMILES IDX 91 45 42 46 96 47 90 48 92 49 43 50 95 51 89 52 88 53 44 55
REMARK SMILES IDX 76 56 56 57 75 58 57 59 60 60 74 61 93 62 58 63 59 64 73 66
REMARK SMILES IDX 94 67 61 68 45 69 46 70 54 71 47 72 48 73 52 74 55 75 49 76
REMARK SMILES IDX 50 77 53 78 51 79 77 80 78 81 86 82 79 83 80 84 84 85 87 86
REMARK SMILES IDX 81 87 82 88 85 89 83 90 62 91 63 92 71 93 64 94 65 95 69 96
REMARK SMILES IDX 72 97 66 98 67 99 70 100 68 101
REMARK H PARENT 3 9 92 54 60 65
REMARK Flexibility Score: inf
ROOT
ATOM      1  C   UNL A   1      35.542  32.203  28.335  1.00  0.00     0.261 C 
ENDROOT
BRANCH   1   2
ATOM      2  O   UNL A   1      34.249  31.957  27.761  1.00  0.00    -0.462 OA
BRANCH   2   3
ATOM      3  C   UNL A   1      34.152  30.678  27.356  1.00  0.00     0.328 C 
ATOM      4  O   UNL A   1      34.969  29.831  27.684  1.00  0.00    -0.250 OA
BRANCH   3   5
ATOM      5  C   UNL A   1      32.985  30.269  26.483  1.00  0.00     0.189 C 
ATOM      6  C   UNL A   1      31.771  29.669  27.166  1.00  0.00     0.043 C 
BRANCH   5   7
ATOM      7  N   UNL A   1      33.425  29.605  25.277  1.00  0.00    -0.343 N 
ATOM      8  C   UNL A   1      33.639  28.273  25.084  1.00  0.00     0.222 C 
ATOM      9  H   UNL A   1      33.588  30.186  24.500  1.00  0.00     0.164 HD
ATOM     10  O   UNL A   1      34.097  27.949  23.982  1.00  0.00    -0.275 OA
BRANCH   8  11
ATOM     11  C   UNL A   1      33.228  27.191  26.097  1.00  0.00     0.122 C 
BRANCH  11  12
ATOM     12  C   UNL A   1      31.825  26.547  26.041  1.00  0.00     0.137 C 
BRANCH  12  13
ATOM     13  N   UNL A   1      31.679  25.222  25.372  1.00  0.00    -0.292 N 
ATOM     14  C   UNL A   1      31.677  24.031  26.097  1.00  0.00     0.266 C 
ATOM     15  C   UNL A   1      31.395  25.061  24.029  1.00  0.00     0.148 C 
ATOM     16  O   UNL A   1      31.540  23.933  27.309  1.00  0.00    -0.268 OA
ATOM     17  C   UNL A   1      31.893  22.857  25.162  1.00  0.00     0.081 C 
ATOM     18  S   UNL A   1      31.544  23.366  23.564  1.00  0.00    -0.054 SA
ATOM     19  S   UNL A   1      30.998  26.232  22.908  1.00  0.00    -0.052 S 
ATOM     20  C   UNL A   1      32.473  21.716  25.582  1.00  0.00     0.029 C 
BRANCH  20  21
ATOM     21  C   UNL A   1      33.112  20.559  24.880  1.00  0.00    -0.024 A 
ATOM     22  C   UNL A   1      32.261  19.663  24.196  1.00  0.00     0.015 A 
ATOM     23  C   UNL A   1      34.441  20.146  25.081  1.00  0.00     0.015 A 
ATOM     24  C   UNL A   1      32.689  18.383  23.800  1.00  0.00     0.086 A 
ATOM     25  C   UNL A   1      34.884  18.867  24.689  1.00  0.00     0.086 A 
ATOM     26  C   UNL A   1      33.998  17.979  24.074  1.00  0.00     0.269 A 
BRANCH  26  27
ATOM     27  N   UNL A   1      34.418  16.597  23.794  1.00  0.00     0.062 N 
ATOM     28  O   UNL A   1      34.274  16.172  22.639  1.00  0.00    -0.258 OA
ATOM     29  O   UNL A   1      34.850  15.924  24.741  1.00  0.00    -0.258 OA
ENDBRANCH  26  27
ENDBRANCH  20  21
ENDBRANCH  12  13
ENDBRANCH  11  12
ENDBRANCH   8  11
ENDBRANCH   5   7
ENDBRANCH   3   5
ENDBRANCH   2   3
ENDBRANCH   1   2
BRANCH   1  30
ATOM     30  C   UNL A   1      35.841  33.448  29.210  1.00  0.00     0.202 C 
BRANCH  30  31
ATOM     31  O   UNL A   1      35.595  34.777  28.817  1.00  0.00    -0.374 OA
BRANCH  31  32
ATOM     32  C   UNL A   1      34.288  35.218  28.479  1.00  0.00     0.202 C 
BRANCH  32  33
ATOM     33  C   UNL A   1      33.126  35.324  29.486  1.00  0.00     0.261 C 
BRANCH  33  34
ATOM     34  O   UNL A   1      33.363  36.118  30.651  1.00  0.00    -0.460 OA
BRANCH  34  35
ATOM     35  C   UNL A   1      32.902  35.592  31.817  1.00  0.00     0.338 C 
ATOM     36  O   UNL A   1      31.742  35.507  32.188  1.00  0.00    -0.246 OA
BRANCH  35  37
ATOM     37  C   UNL A   1      34.019  34.864  32.450  1.00  0.00     0.060 A 
ATOM     38  C   UNL A   1      35.312  35.418  32.392  1.00  0.00     0.016 A 
ATOM     39  C   UNL A   1      33.780  33.681  33.146  1.00  0.00     0.016 A 
ATOM     40  C   UNL A   1      36.375  34.787  33.031  1.00  0.00     0.010 A 
ATOM     41  C   UNL A   1      34.853  33.022  33.739  1.00  0.00     0.010 A 
ATOM     42  C   UNL A   1      36.155  33.557  33.658  1.00  0.00    -0.014 A 
BRANCH  42  43
ATOM     43  C   UNL A   1      37.291  32.667  33.967  1.00  0.00     0.031 A 
ATOM     44  C   UNL A   1      38.054  32.954  35.227  1.00  0.00     0.074 A 
ATOM     45  C   UNL A   1      37.687  31.699  33.127  1.00  0.00     0.049 A 
ATOM     46  N   UNL A   1      39.211  32.501  35.624  1.00  0.00    -0.248 NA
ATOM     47  C   UNL A   1      37.426  33.912  36.153  1.00  0.00     0.031 C 
ATOM     48  C   UNL A   1      36.990  31.298  31.910  1.00  0.00     0.029 A 
ATOM     49  N   UNL A   1      38.806  30.906  33.161  1.00  0.00    -0.354 N 
ATOM     50  C   UNL A   1      39.464  33.142  36.829  1.00  0.00     0.074 A 
ATOM     51  C   UNL A   1      38.352  34.027  37.088  1.00  0.00     0.031 C 
ATOM     52  C   UNL A   1      37.724  30.362  31.283  1.00  0.00     0.029 A 
ATOM     53  C   UNL A   1      38.961  30.142  32.032  1.00  0.00     0.049 A 
ATOM     54  H   UNL A   1      39.434  30.888  33.918  1.00  0.00     0.167 HD
ATOM     55  C   UNL A   1      40.538  33.008  37.640  1.00  0.00     0.037 A 
ATOM     56  C   UNL A   1      40.009  29.395  31.633  1.00  0.00     0.037 A 
ATOM     57  C   UNL A   1      41.641  32.132  37.359  1.00  0.00     0.049 A 
ATOM     58  C   UNL A   1      41.231  29.306  32.515  1.00  0.00     0.074 A 
ATOM     59  C   UNL A   1      42.769  31.894  38.122  1.00  0.00     0.029 A 
ATOM     60  N   UNL A   1      41.761  31.362  36.210  1.00  0.00    -0.354 N 
ATOM     61  N   UNL A   1      41.468  29.896  33.663  1.00  0.00    -0.248 NA
ATOM     62  C   UNL A   1      42.332  28.452  32.047  1.00  0.00     0.031 C 
ATOM     63  C   UNL A   1      43.606  31.037  37.400  1.00  0.00     0.029 A 
ATOM     64  C   UNL A   1      42.963  30.676  36.225  1.00  0.00     0.049 A 
ATOM     65  H   UNL A   1      41.090  31.312  35.491  1.00  0.00     0.167 HD
ATOM     66  C   UNL A   1      42.724  29.461  34.070  1.00  0.00     0.074 A 
ATOM     67  C   UNL A   1      43.201  28.558  33.043  1.00  0.00     0.031 C 
ATOM     68  C   UNL A   1      43.415  29.773  35.195  1.00  0.00     0.037 A 
BRANCH  55  69
ATOM     69  C   UNL A   1      40.588  33.880  38.861  1.00  0.00     0.064 A 
ATOM     70  C   UNL A   1      40.009  33.495  40.080  1.00  0.00     0.173 A 
ATOM     71  C   UNL A   1      41.206  35.139  38.800  1.00  0.00     0.173 A 
ATOM     72  F   UNL A   1      39.386  32.311  40.188  1.00  0.00    -0.203 F 
ATOM     73  C   UNL A   1      40.003  34.355  41.175  1.00  0.00     0.198 A 
ATOM     74  C   UNL A   1      41.234  35.980  39.908  1.00  0.00     0.198 A 
ATOM     75  F   UNL A   1      41.775  35.559  37.660  1.00  0.00    -0.203 F 
ATOM     76  F   UNL A   1      39.374  33.998  42.303  1.00  0.00    -0.200 F 
ATOM     77  C   UNL A   1      40.621  35.594  41.090  1.00  0.00     0.200 A 
ATOM     78  F   UNL A   1      41.843  37.171  39.827  1.00  0.00    -0.200 F 
ATOM     79  F   UNL A   1      40.611  36.423  42.142  1.00  0.00    -0.200 F 
ENDBRANCH  55  69
BRANCH  56  80
ATOM     80  C   UNL A   1      39.957  28.705  30.318  1.00  0.00     0.064 A 
ATOM     81  C   UNL A   1      40.490  29.297  29.165  1.00  0.00     0.173 A 
ATOM     82  C   UNL A   1      39.393  27.426  30.192  1.00  0.00     0.173 A 
ATOM     83  F   UNL A   1      41.016  30.530  29.228  1.00  0.00    -0.203 F 
ATOM     84  C   UNL A   1      40.458  28.639  27.937  1.00  0.00     0.198 A 
ATOM     85  C   UNL A   1      39.388  26.756  28.970  1.00  0.00     0.198 A 
ATOM     86  F   UNL A   1      38.869  26.814  31.264  1.00  0.00    -0.203 F 
ATOM     87  F   UNL A   1      40.945  29.241  26.844  1.00  0.00    -0.200 F 
ATOM     88  C   UNL A   1      39.917  27.366  27.842  1.00  0.00     0.200 A 
ATOM     89  F   UNL A   1      38.878  25.520  28.889  1.00  0.00    -0.200 F 
ATOM     90  F   UNL A   1      39.902  26.726  26.665  1.00  0.00    -0.200 F 
ENDBRANCH  56  80
BRANCH  68  91
ATOM     91  C   UNL A   1      44.740  29.099  35.415  1.00  0.00     0.064 A 
ATOM     92  C   UNL A   1      45.950  29.705  35.051  1.00  0.00     0.173 A 
ATOM     93  C   UNL A   1      44.797  27.868  36.088  1.00  0.00     0.173 A 
ATOM     94  F   UNL A   1      45.951  30.875  34.397  1.00  0.00    -0.203 F 
ATOM     95  C   UNL A   1      47.169  29.096  35.344  1.00  0.00     0.198 A 
ATOM     96  C   UNL A   1      46.017  27.279  36.407  1.00  0.00     0.198 A 
ATOM     97  F   UNL A   1      43.667  27.252  36.467  1.00  0.00    -0.203 F 
ATOM     98  F   UNL A   1      48.315  29.676  34.959  1.00  0.00    -0.200 F 
ATOM     99  C   UNL A   1      47.202  27.892  36.032  1.00  0.00     0.200 A 
ATOM    100  F   UNL A   1      46.044  26.126  37.091  1.00  0.00    -0.200 F 
ATOM    101  F   UNL A   1      48.375  27.321  36.333  1.00  0.00    -0.200 F 
ENDBRANCH  68  91
ENDBRANCH  42  43
ENDBRANCH  35  37
ENDBRANCH  34  35
ENDBRANCH  33  34
ENDBRANCH  32  33
ENDBRANCH  31  32
ENDBRANCH  30  31
ENDBRANCH   1  30
TORSDOF 20
ENDMDL
MODEL 2
REMARK VINA RESULT:     -11.1      1.818      7.490
REMARK SMILES C[C@H](NC(=O)CCN1C(=O)/C(=C/c2ccc([N+](=O)[O-])cc2)SC1=S)C(=O)OCCOCCOC(=O)c1ccc(-c2c3nc(c(-c4c(F)c(F)c(F)c(F)c4F)c4ccc([nH]4)c(-c4c(F)c(F)c(F)c(F)c4F)c4nc(c(-c5c(F)c(F)c(F)c(F)c5F)c5ccc2[nH]5)C=C4)C=C3)cc1
REMARK SMILES IDX 28 1 27 2 25 3 26 4 2 5 1 6 3 7 4 8 5 10 6 11 7 12 8 13 9 14
REMARK SMILES IDX 23 15 10 16 11 17 22 18 24 19 12 20 13 21 14 22 21 23 15 24
REMARK SMILES IDX 20 25 16 26 17 27 18 28 19 29 29 30 30 31 31 32 32 33 33 34
REMARK SMILES IDX 34 35 35 36 36 37 37 38 98 39 38 40 97 41 39 42 40 43 41 44
REMARK SMILES IDX 91 45 42 46 96 47 90 48 92 49 43 50 95 51 89 52 88 53 44 55
REMARK SMILES IDX 76 56 56 57 75 58 57 59 60 60 74 61 93 62 58 63 59 64 73 66
REMARK SMILES IDX 94 67 61 68 45 69 46 70 54 71 47 72 48 73 52 74 55 75 49 76
REMARK SMILES IDX 50 77 53 78 51 79 77 80 78 81 86 82 79 83 80 84 84 85 87 86
REMARK SMILES IDX 81 87 82 88 85 89 83 90 62 91 63 92 71 93 64 94 65 95 69 96
REMARK SMILES IDX 72 97 66 98 67 99 70 100 68 101
REMARK H PARENT 3 9 92 54 60 65
REMARK Flexibility Score: inf
ROOT
ATOM      1  C   UNL A   1      32.335  27.203  26.798  1.00  0.00     0.261 C 
ENDROOT
BRANCH   1   2
ATOM      2  O   UNL A   1      32.762  26.671  25.535  1.00  0.00    -0.462 OA
BRANCH   2   3
ATOM      3  C   UNL A   1      33.565  27.548  24.904  1.00  0.00     0.328 C 
ATOM      4  O   UNL A   1      34.480  28.117  25.479  1.00  0.00    -0.250 OA
BRANCH   3   5
ATOM      5  C   UNL A   1      33.339  27.825  23.434  1.00  0.00     0.189 C 
ATOM      6  C   UNL A   1      34.367  28.676  22.712  1.00  0.00     0.043 C 
BRANCH   5   7
ATOM      7  N   UNL A   1      31.955  28.131  23.151  1.00  0.00    -0.343 N 
ATOM      8  C   UNL A   1      31.003  27.306  22.630  1.00  0.00     0.222 C 
ATOM      9  H   UNL A   1      31.665  29.046  23.362  1.00  0.00     0.164 HD
ATOM     10  O   UNL A   1      29.904  27.821  22.400  1.00  0.00    -0.275 OA
BRANCH   8  11
ATOM     11  C   UNL A   1      31.200  25.791  22.449  1.00  0.00     0.122 C 
BRANCH  11  12
ATOM     12  C   UNL A   1      30.359  24.781  23.262  1.00  0.00     0.137 C 
BRANCH  12  13
ATOM     13  N   UNL A   1      31.063  23.645  23.925  1.00  0.00    -0.292 N 
ATOM     14  C   UNL A   1      32.006  22.873  23.248  1.00  0.00     0.266 C 
ATOM     15  C   UNL A   1      30.959  23.352  25.271  1.00  0.00     0.148 C 
ATOM     16  O   UNL A   1      32.536  23.162  22.184  1.00  0.00    -0.268 OA
ATOM     17  C   UNL A   1      32.271  21.593  24.017  1.00  0.00     0.081 C 
ATOM     18  S   UNL A   1      31.732  21.807  25.629  1.00  0.00    -0.054 SA
ATOM     19  S   UNL A   1      30.200  24.235  26.467  1.00  0.00    -0.052 S 
ATOM     20  C   UNL A   1      32.663  20.463  23.396  1.00  0.00     0.029 C 
BRANCH  20  21
ATOM     21  C   UNL A   1      32.677  19.018  23.786  1.00  0.00    -0.024 A 
ATOM     22  C   UNL A   1      32.702  18.717  25.165  1.00  0.00     0.015 A 
ATOM     23  C   UNL A   1      32.949  17.961  22.899  1.00  0.00     0.015 A 
ATOM     24  C   UNL A   1      33.058  17.444  25.645  1.00  0.00     0.086 A 
ATOM     25  C   UNL A   1      33.306  16.680  23.365  1.00  0.00     0.086 A 
ATOM     26  C   UNL A   1      33.386  16.433  24.738  1.00  0.00     0.269 A 
BRANCH  26  27
ATOM     27  N   UNL A   1      33.895  15.142  25.225  1.00  0.00     0.062 N 
ATOM     28  O   UNL A   1      33.066  14.274  25.538  1.00  0.00    -0.258 OA
ATOM     29  O   UNL A   1      35.123  15.012  25.335  1.00  0.00    -0.258 OA
ENDBRANCH  26  27
ENDBRANCH  20  21
ENDBRANCH  12  13
ENDBRANCH  11  12
ENDBRANCH   8  11
ENDBRANCH   5   7
ENDBRANCH   3   5
ENDBRANCH   2   3
ENDBRANCH   1   2
BRANCH   1  30
ATOM     30  C   UNL A   1      31.673  28.599  26.933  1.00  0.00     0.202 C 
BRANCH  30  31
ATOM     31  O   UNL A   1      32.267  29.703  27.573  1.00  0.00    -0.374 OA
BRANCH  31  32
ATOM     32  C   UNL A   1      32.895  30.739  26.831  1.00  0.00     0.202 C 
BRANCH  32  33
ATOM     33  C   UNL A   1      33.623  31.938  27.469  1.00  0.00     0.261 C 
BRANCH  33  34
ATOM     34  O   UNL A   1      32.818  32.839  28.234  1.00  0.00    -0.460 OA
BRANCH  34  35
ATOM     35  C   UNL A   1      33.383  34.049  28.491  1.00  0.00     0.338 C 
ATOM     36  O   UNL A   1      32.899  35.153  28.304  1.00  0.00    -0.246 OA
BRANCH  35  37
ATOM     37  C   UNL A   1      34.584  33.812  29.317  1.00  0.00     0.060 A 
ATOM     38  C   UNL A   1      35.828  34.287  28.859  1.00  0.00     0.016 A 
ATOM     39  C   UNL A   1      34.472  33.186  30.556  1.00  0.00     0.016 A 
ATOM     40  C   UNL A   1      36.969  34.134  29.642  1.00  0.00     0.010 A 
ATOM     41  C   UNL A   1      35.621  32.985  31.315  1.00  0.00     0.010 A 
ATOM     42  C   UNL A   1      36.874  33.432  30.847  1.00  0.00    -0.014 A 
BRANCH  42  43
ATOM     43  C   UNL A   1      38.087  32.885  31.486  1.00  0.00     0.031 A 
ATOM     44  C   UNL A   1      38.731  31.704  30.820  1.00  0.00     0.074 A 
ATOM     45  C   UNL A   1      38.553  33.358  32.651  1.00  0.00     0.049 A 
ATOM     46  N   UNL A   1      39.643  30.887  31.270  1.00  0.00    -0.248 NA
ATOM     47  C   UNL A   1      38.248  31.390  29.465  1.00  0.00     0.031 C 
ATOM     48  C   UNL A   1      38.044  34.531  33.353  1.00  0.00     0.029 A 
ATOM     49  N   UNL A   1      39.542  32.870  33.468  1.00  0.00    -0.354 N 
ATOM     50  C   UNL A   1      39.822  29.945  30.266  1.00  0.00     0.074 A 
ATOM     51  C   UNL A   1      38.911  30.280  29.195  1.00  0.00     0.031 C 
ATOM     52  C   UNL A   1      38.694  34.648  34.524  1.00  0.00     0.029 A 
ATOM     53  C   UNL A   1      39.624  33.528  34.669  1.00  0.00     0.049 A 
ATOM     54  H   UNL A   1      40.133  32.124  33.217  1.00  0.00     0.167 HD
ATOM     55  C   UNL A   1      40.665  28.889  30.248  1.00  0.00     0.037 A 
ATOM     56  C   UNL A   1      40.333  33.222  35.774  1.00  0.00     0.037 A 
ATOM     57  C   UNL A   1      41.555  28.564  31.328  1.00  0.00     0.049 A 
ATOM     58  C   UNL A   1      41.220  32.001  35.766  1.00  0.00     0.074 A 
ATOM     59  C   UNL A   1      42.474  27.535  31.410  1.00  0.00     0.029 A 
ATOM     60  N   UNL A   1      41.621  29.259  32.528  1.00  0.00    -0.354 N 
ATOM     61  N   UNL A   1      41.405  31.117  34.815  1.00  0.00    -0.248 NA
ATOM     62  C   UNL A   1      41.995  31.732  36.986  1.00  0.00     0.031 C 
ATOM     63  C   UNL A   1      43.042  27.563  32.686  1.00  0.00     0.029 A 
ATOM     64  C   UNL A   1      42.538  28.658  33.372  1.00  0.00     0.049 A 
ATOM     65  H   UNL A   1      41.092  30.061  32.746  1.00  0.00     0.167 HD
ATOM     66  C   UNL A   1      42.338  30.210  35.303  1.00  0.00     0.074 A 
ATOM     67  C   UNL A   1      42.681  30.650  36.640  1.00  0.00     0.031 C 
ATOM     68  C   UNL A   1      42.871  29.119  34.698  1.00  0.00     0.037 A 
BRANCH  55  69
ATOM     69  C   UNL A   1      40.605  27.983  29.052  1.00  0.00     0.064 A 
ATOM     70  C   UNL A   1      41.341  28.236  27.884  1.00  0.00     0.173 A 
ATOM     71  C   UNL A   1      39.772  26.854  29.068  1.00  0.00     0.173 A 
ATOM     72  F   UNL A   1      42.137  29.313  27.807  1.00  0.00    -0.203 F 
ATOM     73  C   UNL A   1      41.208  27.421  26.763  1.00  0.00     0.198 A 
ATOM     74  C   UNL A   1      39.672  26.019  27.960  1.00  0.00     0.198 A 
ATOM     75  F   UNL A   1      39.044  26.565  30.158  1.00  0.00    -0.203 F 
ATOM     76  F   UNL A   1      41.860  27.728  25.633  1.00  0.00    -0.200 F 
ATOM     77  C   UNL A   1      40.379  26.311  26.803  1.00  0.00     0.200 A 
ATOM     78  F   UNL A   1      38.879  24.939  28.005  1.00  0.00    -0.200 F 
ATOM     79  F   UNL A   1      40.247  25.530  25.722  1.00  0.00    -0.200 F 
ENDBRANCH  55  69
BRANCH  56  80
ATOM     80  C   UNL A   1      40.197  34.068  36.987  1.00  0.00     0.064 A 
ATOM     81  C   UNL A   1      40.992  35.207  37.172  1.00  0.00     0.173 A 
ATOM     82  C   UNL A   1      39.249  33.767  37.978  1.00  0.00     0.173 A 
ATOM     83  F   UNL A   1      41.930  35.522  36.267  1.00  0.00    -0.203 F 
ATOM     84  C   UNL A   1      40.847  36.010  38.302  1.00  0.00     0.198 A 
ATOM     85  C   UNL A   1      39.086  34.587  39.093  1.00  0.00     0.198 A 
ATOM     86  F   UNL A   1      38.463  32.688  37.851  1.00  0.00    -0.203 F 
ATOM     87  F   UNL A   1      41.642  37.075  38.470  1.00  0.00    -0.200 F 
ATOM     88  C   UNL A   1      39.889  35.705  39.256  1.00  0.00     0.200 A 
ATOM     89  F   UNL A   1      38.146  34.296  40.003  1.00  0.00    -0.200 F 
ATOM     90  F   UNL A   1      39.738  36.488  40.334  1.00  0.00    -0.200 F 
ENDBRANCH  56  80
BRANCH  68  91
ATOM     91  C   UNL A   1      43.921  28.345  35.443  1.00  0.00     0.064 A 
ATOM     92  C   UNL A   1      45.277  28.698  35.396  1.00  0.00     0.173 A 
ATOM     93  C   UNL A   1      43.545  27.290  36.291  1.00  0.00     0.173 A 
ATOM     94  F   UNL A   1      45.690  29.690  34.594  1.00  0.00    -0.203 F 
ATOM     95  C   UNL A   1      46.219  28.016  36.164  1.00  0.00     0.198 A 
ATOM     96  C   UNL A   1      44.484  26.633  37.080  1.00  0.00     0.198 A 
ATOM     97  F   UNL A   1      42.259  26.920  36.380  1.00  0.00    -0.203 F 
ATOM     98  F   UNL A   1      47.515  28.348  36.081  1.00  0.00    -0.200 F 
ATOM     99  C   UNL A   1      45.821  26.994  37.013  1.00  0.00     0.200 A 
ATOM    100  F   UNL A   1      44.093  25.661  37.916  1.00  0.00    -0.200 F 
ATOM    101  F   UNL A   1      46.725  26.356  37.768  1.00  0.00    -0.200 F 
ENDBRANCH  68  91
ENDBRANCH  42  43
ENDBRANCH  35  37
ENDBRANCH  34  35
ENDBRANCH  33  34
ENDBRANCH  32  33
ENDBRANCH  31  32
ENDBRANCH  30  31
ENDBRANCH   1  30
TORSDOF 20
ENDMDL
MODEL 3
REMARK VINA RESULT:     -11.1      2.621      8.098
REMARK SMILES C[C@H](NC(=O)CCN1C(=O)/C(=C/c2ccc([N+](=O)[O-])cc2)SC1=S)C(=O)OCCOCCOC(=O)c1ccc(-c2c3nc(c(-c4c(F)c(F)c(F)c(F)c4F)c4ccc([nH]4)c(-c4c(F)c(F)c(F)c(F)c4F)c4nc(c(-c5c(F)c(F)c(F)c(F)c5F)c5ccc2[nH]5)C=C4)C=C3)cc1
REMARK SMILES IDX 28 1 27 2 25 3 26 4 2 5 1 6 3 7 4 8 5 10 6 11 7 12 8 13 9 14
REMARK SMILES IDX 23 15 10 16 11 17 22 18 24 19 12 20 13 21 14 22 21 23 15 24
REMARK SMILES IDX 20 25 16 26 17 27 18 28 19 29 29 30 30 31 31 32 32 33 33 34
REMARK SMILES IDX 34 35 35 36 36 37 37 38 98 39 38 40 97 41 39 42 40 43 41 44
REMARK SMILES IDX 91 45 42 46 96 47 90 48 92 49 43 50 95 51 89 52 88 53 44 55
REMARK SMILES IDX 76 56 56 57 75 58 57 59 60 60 74 61 93 62 58 63 59 64 73 66
REMARK SMILES IDX 94 67 61 68 45 69 46 70 54 71 47 72 48 73 52 74 55 75 49 76
REMARK SMILES IDX 50 77 53 78 51 79 77 80 78 81 86 82 79 83 80 84 84 85 87 86
REMARK SMILES IDX 81 87 82 88 85 89 83 90 62 91 63 92 71 93 64 94 65 95 69 96
REMARK SMILES IDX 72 97 66 98 67 99 70 100 68 101
REMARK H PARENT 3 9 92 54 60 65
REMARK Flexibility Score: inf
ROOT
ATOM      1  C   UNL A   1      33.021  28.375  22.293  1.00  0.00     0.261 C 
ENDROOT
BRANCH   1   2
ATOM      2  O   UNL A   1      32.334  27.176  22.681  1.00  0.00    -0.462 OA
BRANCH   2   3
ATOM      3  C   UNL A   1      33.189  26.136  22.718  1.00  0.00     0.328 C 
ATOM      4  O   UNL A   1      33.375  25.418  21.748  1.00  0.00    -0.250 OA
BRANCH   3   5
ATOM      5  C   UNL A   1      33.956  25.859  23.992  1.00  0.00     0.189 C 
ATOM      6  C   UNL A   1      34.534  24.469  24.177  1.00  0.00     0.043 C 
BRANCH   5   7
ATOM      7  N   UNL A   1      33.301  26.431  25.147  1.00  0.00    -0.343 N 
ATOM      8  C   UNL A   1      31.973  26.415  25.452  1.00  0.00     0.222 C 
ATOM      9  H   UNL A   1      33.887  26.886  25.792  1.00  0.00     0.164 HD
ATOM     10  O   UNL A   1      31.639  27.047  26.460  1.00  0.00    -0.275 OA
BRANCH   8  11
ATOM     11  C   UNL A   1      30.938  25.567  24.693  1.00  0.00     0.122 C 
BRANCH  11  12
ATOM     12  C   UNL A   1      30.500  24.186  25.230  1.00  0.00     0.137 C 
BRANCH  12  13
ATOM     13  N   UNL A   1      31.476  23.060  25.169  1.00  0.00    -0.292 N 
ATOM     14  C   UNL A   1      31.682  22.331  23.998  1.00  0.00     0.266 C 
ATOM     15  C   UNL A   1      32.348  22.738  26.191  1.00  0.00     0.148 C 
ATOM     16  O   UNL A   1      31.312  22.658  22.878  1.00  0.00    -0.268 OA
ATOM     17  C   UNL A   1      32.421  21.046  24.314  1.00  0.00     0.081 C 
ATOM     18  S   UNL A   1      33.164  21.211  25.849  1.00  0.00    -0.054 SA
ATOM     19  S   UNL A   1      32.638  23.573  27.607  1.00  0.00    -0.052 S 
ATOM     20  C   UNL A   1      32.275  19.941  23.556  1.00  0.00     0.029 C 
BRANCH  20  21
ATOM     21  C   UNL A   1      32.572  18.490  23.772  1.00  0.00    -0.024 A 
ATOM     22  C   UNL A   1      32.176  17.921  25.002  1.00  0.00     0.015 A 
ATOM     23  C   UNL A   1      33.452  17.735  22.975  1.00  0.00     0.015 A 
ATOM     24  C   UNL A   1      32.690  16.693  25.455  1.00  0.00     0.086 A 
ATOM     25  C   UNL A   1      33.974  16.503  23.416  1.00  0.00     0.086 A 
ATOM     26  C   UNL A   1      33.613  15.999  24.669  1.00  0.00     0.269 A 
BRANCH  26  27
ATOM     27  N   UNL A   1      34.264  14.788  25.191  1.00  0.00     0.062 N 
ATOM     28  O   UNL A   1      33.538  13.851  25.553  1.00  0.00    -0.258 OA
ATOM     29  O   UNL A   1      35.501  14.793  25.279  1.00  0.00    -0.258 OA
ENDBRANCH  26  27
ENDBRANCH  20  21
ENDBRANCH  12  13
ENDBRANCH  11  12
ENDBRANCH   8  11
ENDBRANCH   5   7
ENDBRANCH   3   5
ENDBRANCH   2   3
ENDBRANCH   1   2
BRANCH   1  30
ATOM     30  C   UNL A   1      33.684  29.326  23.323  1.00  0.00     0.202 C 
BRANCH  30  31
ATOM     31  O   UNL A   1      33.284  29.447  24.667  1.00  0.00    -0.374 OA
BRANCH  31  32
ATOM     32  C   UNL A   1      32.037  30.029  25.018  1.00  0.00     0.202 C 
BRANCH  32  33
ATOM     33  C   UNL A   1      31.771  30.766  26.346  1.00  0.00     0.261 C 
BRANCH  33  34
ATOM     34  O   UNL A   1      32.797  30.677  27.339  1.00  0.00    -0.460 OA
BRANCH  34  35
ATOM     35  C   UNL A   1      33.479  31.830  27.574  1.00  0.00     0.338 C 
ATOM     36  O   UNL A   1      33.031  32.965  27.622  1.00  0.00    -0.246 OA
BRANCH  35  37
ATOM     37  C   UNL A   1      34.824  31.461  28.057  1.00  0.00     0.060 A 
ATOM     38  C   UNL A   1      35.051  30.142  28.495  1.00  0.00     0.016 A 
ATOM     39  C   UNL A   1      35.863  32.389  28.019  1.00  0.00     0.016 A 
ATOM     40  C   UNL A   1      36.323  29.746  28.899  1.00  0.00     0.010 A 
ATOM     41  C   UNL A   1      37.122  32.008  28.474  1.00  0.00     0.010 A 
ATOM     42  C   UNL A   1      37.346  30.697  28.942  1.00  0.00    -0.014 A 
BRANCH  42  43
ATOM     43  C   UNL A   1      38.561  30.445  29.743  1.00  0.00     0.031 A 
ATOM     44  C   UNL A   1      39.549  29.464  29.185  1.00  0.00     0.074 A 
ATOM     45  C   UNL A   1      38.743  30.996  30.952  1.00  0.00     0.049 A 
ATOM     46  N   UNL A   1      40.564  28.881  29.763  1.00  0.00    -0.248 NA
ATOM     47  C   UNL A   1      39.338  29.067  27.783  1.00  0.00     0.031 C 
ATOM     48  C   UNL A   1      37.881  32.002  31.563  1.00  0.00     0.029 A 
ATOM     49  N   UNL A   1      39.704  30.744  31.899  1.00  0.00    -0.354 N 
ATOM     50  C   UNL A   1      41.092  28.026  28.805  1.00  0.00     0.074 A 
ATOM     51  C   UNL A   1      40.276  28.151  27.619  1.00  0.00     0.031 C 
ATOM     52  C   UNL A   1      38.325  32.250  32.808  1.00  0.00     0.029 A 
ATOM     53  C   UNL A   1      39.468  31.382  33.090  1.00  0.00     0.049 A 
ATOM     54  H   UNL A   1      40.484  30.166  31.739  1.00  0.00     0.167 HD
ATOM     55  C   UNL A   1      42.159  27.202  28.914  1.00  0.00     0.037 A 
ATOM     56  C   UNL A   1      40.079  31.235  34.283  1.00  0.00     0.037 A 
ATOM     57  C   UNL A   1      42.951  27.081  30.107  1.00  0.00     0.049 A 
ATOM     58  C   UNL A   1      41.225  30.262  34.411  1.00  0.00     0.074 A 
ATOM     59  C   UNL A   1      44.070  26.300  30.324  1.00  0.00     0.029 A 
ATOM     60  N   UNL A   1      42.690  27.751  31.294  1.00  0.00    -0.354 N 
ATOM     61  N   UNL A   1      41.739  29.464  33.505  1.00  0.00    -0.248 NA
ATOM     62  C   UNL A   1      41.875  30.166  35.726  1.00  0.00     0.031 C 
ATOM     63  C   UNL A   1      44.443  26.442  31.663  1.00  0.00     0.029 A 
ATOM     64  C   UNL A   1      43.606  27.372  32.260  1.00  0.00     0.049 A 
ATOM     65  H   UNL A   1      41.961  28.400  31.429  1.00  0.00     0.167 HD
ATOM     66  C   UNL A   1      42.789  28.799  34.125  1.00  0.00     0.074 A 
ATOM     67  C   UNL A   1      42.838  29.285  35.489  1.00  0.00     0.031 C 
ATOM     68  C   UNL A   1      43.642  27.877  33.611  1.00  0.00     0.037 A 
BRANCH  55  69
ATOM     69  C   UNL A   1      42.474  26.329  27.734  1.00  0.00     0.064 A 
ATOM     70  C   UNL A   1      41.852  25.086  27.537  1.00  0.00     0.173 A 
ATOM     71  C   UNL A   1      43.438  26.733  26.798  1.00  0.00     0.173 A 
ATOM     72  F   UNL A   1      40.939  24.641  28.414  1.00  0.00    -0.203 F 
ATOM     73  C   UNL A   1      42.218  24.261  26.476  1.00  0.00     0.198 A 
ATOM     74  C   UNL A   1      43.772  25.925  25.717  1.00  0.00     0.198 A 
ATOM     75  F   UNL A   1      44.065  27.911  26.938  1.00  0.00    -0.203 F 
ATOM     76  F   UNL A   1      41.668  23.046  26.354  1.00  0.00    -0.200 F 
ATOM     77  C   UNL A   1      43.173  24.684  25.564  1.00  0.00     0.200 A 
ATOM     78  F   UNL A   1      44.686  26.340  24.829  1.00  0.00    -0.200 F 
ATOM     79  F   UNL A   1      43.528  23.888  24.546  1.00  0.00    -0.200 F 
ENDBRANCH  55  69
BRANCH  56  80
ATOM     80  C   UNL A   1      39.586  32.004  35.456  1.00  0.00     0.064 A 
ATOM     81  C   UNL A   1      38.626  31.469  36.325  1.00  0.00     0.173 A 
ATOM     82  C   UNL A   1      40.086  33.284  35.745  1.00  0.00     0.173 A 
ATOM     83  F   UNL A   1      38.099  30.261  36.077  1.00  0.00    -0.203 F 
ATOM     84  C   UNL A   1      38.183  32.185  37.436  1.00  0.00     0.198 A 
ATOM     85  C   UNL A   1      39.663  33.986  36.871  1.00  0.00     0.198 A 
ATOM     86  F   UNL A   1      41.006  33.842  34.945  1.00  0.00    -0.203 F 
ATOM     87  F   UNL A   1      37.240  31.663  38.232  1.00  0.00    -0.200 F 
ATOM     88  C   UNL A   1      38.708  33.437  37.713  1.00  0.00     0.200 A 
ATOM     89  F   UNL A   1      40.187  35.189  37.143  1.00  0.00    -0.200 F 
ATOM     90  F   UNL A   1      38.293  34.117  38.791  1.00  0.00    -0.200 F 
ENDBRANCH  56  80
BRANCH  68  91
ATOM     91  C   UNL A   1      44.740  27.363  34.500  1.00  0.00     0.064 A 
ATOM     92  C   UNL A   1      44.588  26.203  35.272  1.00  0.00     0.173 A 
ATOM     93  C   UNL A   1      45.994  27.994  34.501  1.00  0.00     0.173 A 
ATOM     94  F   UNL A   1      43.407  25.568  35.314  1.00  0.00    -0.203 F 
ATOM     95  C   UNL A   1      45.650  25.700  36.021  1.00  0.00     0.198 A 
ATOM     96  C   UNL A   1      47.061  27.470  35.224  1.00  0.00     0.198 A 
ATOM     97  F   UNL A   1      46.194  29.102  33.770  1.00  0.00    -0.203 F 
ATOM     98  F   UNL A   1      45.475  24.608  36.778  1.00  0.00    -0.200 F 
ATOM     99  C   UNL A   1      46.888  26.326  35.987  1.00  0.00     0.200 A 
ATOM    100  F   UNL A   1      48.261  28.066  35.172  1.00  0.00    -0.200 F 
ATOM    101  F   UNL A   1      47.913  25.827  36.689  1.00  0.00    -0.200 F 
ENDBRANCH  68  91
ENDBRANCH  42  43
ENDBRANCH  35  37
ENDBRANCH  34  35
ENDBRANCH  33  34
ENDBRANCH  32  33
ENDBRANCH  31  32
ENDBRANCH  30  31
ENDBRANCH   1  30
TORSDOF 20
ENDMDL
