MODEL 1
REMARK VINA RESULT:     -11.9      0.000      0.000
REMARK SMILES Cc1ccc(C(=O)NC2(CC(=O)OCCOCCOC(=O)c3ccc(-c4c5nc(c(-c6c(F)c(F)c(F)c(F)c6F)c6ccc([nH]6)c(-c6c(F)c(F)c(F)c(F)c6F)c6nc(c(-c7c(F)c(F)c(F)c(F)c7F)c7ccc4[nH]7)C=C6)C=C5)cc3)CCC2)cc1
REMARK SMILES IDX 15 1 14 2 13 3 11 4 12 5 10 6 9 7 85 8 87 9 86 10 8 11 6 12
REMARK SMILES IDX 7 13 5 15 1 16 2 17 3 18 89 19 4 20 88 21 16 22 17 23 18 24
REMARK SMILES IDX 19 25 20 26 21 27 22 28 23 29 84 30 24 31 83 32 25 33 26 34
REMARK SMILES IDX 27 35 77 36 28 37 82 38 76 39 78 40 29 41 81 42 75 43 74 44
REMARK SMILES IDX 30 46 62 47 42 48 61 49 43 50 46 51 60 52 79 53 44 54 45 55
REMARK SMILES IDX 59 57 80 58 47 59 31 60 32 61 40 62 33 63 34 64 38 65 41 66
REMARK SMILES IDX 35 67 36 68 39 69 37 70 63 71 64 72 72 73 65 74 66 75 70 76
REMARK SMILES IDX 73 77 67 78 68 79 71 80 69 81 48 82 49 83 57 84 50 85 51 86
REMARK SMILES IDX 55 87 58 88 52 89 53 90 56 91 54 92
REMARK H PARENT 8 14 78 45 46 56
REMARK Flexibility Score: inf
ROOT
ATOM      1  C   UNL A   1      33.679  31.752  27.560  1.00  0.00     0.202 C 
ENDROOT
BRANCH   1   2
ATOM      2  C   UNL A   1      32.733  30.617  26.877  1.00  0.00     0.261 C 
BRANCH   2   3
ATOM      3  O   UNL A   1      32.935  29.656  25.055  1.00  0.00    -0.463 OA
BRANCH   3   4
ATOM      4  C   UNL A   1      33.046  28.435  24.239  1.00  0.00     0.308 C 
ATOM      5  O   UNL A   1      33.907  28.375  23.353  1.00  0.00    -0.252 OA
BRANCH   4   6
ATOM      6  C   UNL A   1      32.150  27.191  24.487  1.00  0.00     0.151 C 
BRANCH   6   7
ATOM      7  C   UNL A   1      31.150  26.637  23.405  1.00  0.00     0.051 C 
ATOM      8  C   UNL A   1      29.831  27.512  23.374  1.00  0.00     0.029 C 
ATOM      9  C   UNL A   1      30.046  25.445  23.532  1.00  0.00     0.029 C 
ATOM     10  C   UNL A   1      29.209  26.451  24.317  1.00  0.00     0.005 C 
BRANCH   7  11
ATOM     11  N   UNL A   1      31.793  26.519  22.087  1.00  0.00    -0.346 N 
ATOM     12  C   UNL A   1      32.654  25.522  21.737  1.00  0.00     0.251 C 
ATOM     13  O   UNL A   1      33.179  25.447  20.633  1.00  0.00    -0.269 OA
ATOM     14  H   UNL A   1      31.587  27.206  21.413  1.00  0.00     0.164 HD
BRANCH  12  15
ATOM     15  C   UNL A   1      33.101  24.638  22.810  1.00  0.00     0.039 A 
ATOM     16  C   UNL A   1      34.938  20.401  25.072  1.00  0.00     0.044 C 
ATOM     17  C   UNL A   1      34.473  21.723  24.507  1.00  0.00    -0.051 A 
ATOM     18  C   UNL A   1      33.030  21.631  23.516  1.00  0.00     0.004 A 
ATOM     19  C   UNL A   1      35.316  23.262  24.572  1.00  0.00     0.004 A 
ATOM     20  C   UNL A   1      32.332  23.038  22.640  1.00  0.00     0.014 A 
ATOM     21  C   UNL A   1      34.631  24.741  23.808  1.00  0.00     0.014 A 
ENDBRANCH  12  15
ENDBRANCH   7  11
ENDBRANCH   6   7
ENDBRANCH   4   6
ENDBRANCH   3   4
ENDBRANCH   2   3
ENDBRANCH   1   2
BRANCH   1  22
ATOM     22  O   UNL A   1      33.028  32.933  27.945  1.00  0.00    -0.374 OA
BRANCH  22  23
ATOM     23  C   UNL A   1      33.754  34.134  28.033  1.00  0.00     0.202 C 
BRANCH  23  24
ATOM     24  C   UNL A   1      33.464  34.577  29.451  1.00  0.00     0.261 C 
BRANCH  24  25
ATOM     25  O   UNL A   1      34.667  34.269  30.243  1.00  0.00    -0.460 OA
BRANCH  25  26
ATOM     26  C   UNL A   1      34.718  33.023  30.829  1.00  0.00     0.338 C 
ATOM     27  O   UNL A   1      34.044  32.696  31.797  1.00  0.00    -0.246 OA
BRANCH  26  28
ATOM     28  C   UNL A   1      35.873  32.169  30.307  1.00  0.00     0.060 A 
ATOM     29  C   UNL A   1      36.122  30.884  30.848  1.00  0.00     0.016 A 
ATOM     30  C   UNL A   1      36.898  32.756  29.563  1.00  0.00     0.016 A 
ATOM     31  C   UNL A   1      37.418  30.277  30.791  1.00  0.00     0.010 A 
ATOM     32  C   UNL A   1      38.197  32.203  29.597  1.00  0.00     0.010 A 
ATOM     33  C   UNL A   1      38.514  31.002  30.295  1.00  0.00    -0.014 A 
BRANCH  33  34
ATOM     34  C   UNL A   1      39.978  30.654  30.507  1.00  0.00     0.031 A 
ATOM     35  C   UNL A   1      40.319  29.459  29.719  1.00  0.00     0.074 A 
ATOM     36  C   UNL A   1      41.019  31.067  31.325  1.00  0.00     0.049 A 
ATOM     37  N   UNL A   1      40.791  28.379  30.257  1.00  0.00    -0.248 NA
ATOM     38  C   UNL A   1      39.935  29.327  28.311  1.00  0.00     0.031 C 
ATOM     39  C   UNL A   1      42.445  30.844  31.021  1.00  0.00     0.029 A 
ATOM     40  N   UNL A   1      41.131  31.931  32.444  1.00  0.00    -0.354 N 
ATOM     41  C   UNL A   1      41.045  27.565  29.190  1.00  0.00     0.074 A 
ATOM     42  C   UNL A   1      40.190  28.036  28.121  1.00  0.00     0.031 C 
ATOM     43  C   UNL A   1      43.233  31.463  31.924  1.00  0.00     0.029 A 
ATOM     44  C   UNL A   1      42.426  32.050  33.002  1.00  0.00     0.049 A 
ATOM     45  H   UNL A   1      40.357  32.419  32.809  1.00  0.00     0.167 HD
ATOM     46  C   UNL A   1      42.231  26.904  29.067  1.00  0.00     0.037 A 
ATOM     47  C   UNL A   1      42.842  32.200  34.319  1.00  0.00     0.037 A 
ATOM     48  C   UNL A   1      43.214  27.317  30.083  1.00  0.00     0.049 A 
ATOM     49  C   UNL A   1      43.326  30.819  34.717  1.00  0.00     0.074 A 
ATOM     50  C   UNL A   1      44.389  28.055  30.025  1.00  0.00     0.029 A 
ATOM     51  N   UNL A   1      42.903  27.280  31.441  1.00  0.00    -0.354 N 
ATOM     52  N   UNL A   1      43.770  29.948  33.860  1.00  0.00    -0.248 NA
ATOM     53  C   UNL A   1      43.178  30.258  36.057  1.00  0.00     0.031 C 
ATOM     54  C   UNL A   1      44.857  28.294  31.345  1.00  0.00     0.029 A 
ATOM     55  C   UNL A   1      43.957  27.730  32.226  1.00  0.00     0.049 A 
ATOM     56  H   UNL A   1      42.040  26.971  31.800  1.00  0.00     0.167 HD
ATOM     57  C   UNL A   1      43.710  28.713  34.416  1.00  0.00     0.074 A 
ATOM     58  C   UNL A   1      43.359  28.954  35.805  1.00  0.00     0.031 C 
ATOM     59  C   UNL A   1      43.899  27.585  33.675  1.00  0.00     0.037 A 
BRANCH  46  60
ATOM     60  C   UNL A   1      42.537  26.246  27.735  1.00  0.00     0.064 A 
ATOM     61  C   UNL A   1      42.135  24.940  27.427  1.00  0.00     0.173 A 
ATOM     62  C   UNL A   1      43.313  26.882  26.736  1.00  0.00     0.173 A 
ATOM     63  F   UNL A   1      41.265  24.274  28.192  1.00  0.00    -0.203 F 
ATOM     64  C   UNL A   1      42.614  24.261  26.305  1.00  0.00     0.198 A 
ATOM     65  C   UNL A   1      43.846  26.186  25.649  1.00  0.00     0.198 A 
ATOM     66  F   UNL A   1      43.601  28.192  26.816  1.00  0.00    -0.203 F 
ATOM     67  F   UNL A   1      42.213  23.003  26.075  1.00  0.00    -0.200 F 
ATOM     68  C   UNL A   1      43.507  24.866  25.443  1.00  0.00     0.200 A 
ATOM     69  F   UNL A   1      44.708  26.794  24.821  1.00  0.00    -0.200 F 
ATOM     70  F   UNL A   1      44.013  24.188  24.404  1.00  0.00    -0.200 F 
ENDBRANCH  46  60
BRANCH  47  71
ATOM     71  C   UNL A   1      42.317  33.161  35.392  1.00  0.00     0.064 A 
ATOM     72  C   UNL A   1      43.184  34.092  36.019  1.00  0.00     0.173 A 
ATOM     73  C   UNL A   1      40.961  33.318  35.734  1.00  0.00     0.173 A 
ATOM     74  F   UNL A   1      44.507  34.022  35.809  1.00  0.00    -0.203 F 
ATOM     75  C   UNL A   1      42.694  35.253  36.680  1.00  0.00     0.198 A 
ATOM     76  C   UNL A   1      40.466  34.495  36.327  1.00  0.00     0.198 A 
ATOM     77  F   UNL A   1      40.060  32.399  35.365  1.00  0.00    -0.203 F 
ATOM     78  F   UNL A   1      43.539  36.261  36.957  1.00  0.00    -0.200 F 
ATOM     79  C   UNL A   1      41.328  35.495  36.734  1.00  0.00     0.200 A 
ATOM     80  F   UNL A   1      39.143  34.714  36.357  1.00  0.00    -0.200 F 
ATOM     81  F   UNL A   1      40.860  36.724  37.010  1.00  0.00    -0.200 F 
ENDBRANCH  47  71
BRANCH  59  82
ATOM     82  C   UNL A   1      44.080  26.241  34.306  1.00  0.00     0.064 A 
ATOM     83  C   UNL A   1      42.994  25.494  34.795  1.00  0.00     0.173 A 
ATOM     84  C   UNL A   1      45.357  25.710  34.574  1.00  0.00     0.173 A 
ATOM     85  F   UNL A   1      41.745  25.984  34.785  1.00  0.00    -0.203 F 
ATOM     86  C   UNL A   1      43.163  24.237  35.363  1.00  0.00     0.198 A 
ATOM     87  C   UNL A   1      45.528  24.487  35.208  1.00  0.00     0.198 A 
ATOM     88  F   UNL A   1      46.483  26.356  34.247  1.00  0.00    -0.203 F 
ATOM     89  F   UNL A   1      42.087  23.526  35.727  1.00  0.00    -0.200 F 
ATOM     90  C   UNL A   1      44.432  23.732  35.568  1.00  0.00     0.200 A 
ATOM     91  F   UNL A   1      46.766  24.048  35.469  1.00  0.00    -0.200 F 
ATOM     92  F   UNL A   1      44.598  22.531  36.133  1.00  0.00    -0.200 F 
ENDBRANCH  59  82
ENDBRANCH  33  34
ENDBRANCH  26  28
ENDBRANCH  25  26
ENDBRANCH  24  25
ENDBRANCH  23  24
ENDBRANCH  22  23
ENDBRANCH   1  22
TORSDOF 17
ENDMDL
MODEL 2
REMARK VINA RESULT:     -11.6      3.994      9.013
REMARK SMILES Cc1ccc(C(=O)NC2(CC(=O)OCCOCCOC(=O)c3ccc(-c4c5nc(c(-c6c(F)c(F)c(F)c(F)c6F)c6ccc([nH]6)c(-c6c(F)c(F)c(F)c(F)c6F)c6nc(c(-c7c(F)c(F)c(F)c(F)c7F)c7ccc4[nH]7)C=C6)C=C5)cc3)CCC2)cc1
REMARK SMILES IDX 15 1 14 2 13 3 11 4 12 5 10 6 9 7 85 8 87 9 86 10 8 11 6 12
REMARK SMILES IDX 7 13 5 15 1 16 2 17 3 18 89 19 4 20 88 21 16 22 17 23 18 24
REMARK SMILES IDX 19 25 20 26 21 27 22 28 23 29 84 30 24 31 83 32 25 33 26 34
REMARK SMILES IDX 27 35 77 36 28 37 82 38 76 39 78 40 29 41 81 42 75 43 74 44
REMARK SMILES IDX 30 46 62 47 42 48 61 49 43 50 46 51 60 52 79 53 44 54 45 55
REMARK SMILES IDX 59 57 80 58 47 59 31 60 32 61 40 62 33 63 34 64 38 65 41 66
REMARK SMILES IDX 35 67 36 68 39 69 37 70 63 71 64 72 72 73 65 74 66 75 70 76
REMARK SMILES IDX 73 77 67 78 68 79 71 80 69 81 48 82 49 83 57 84 50 85 51 86
REMARK SMILES IDX 55 87 58 88 52 89 53 90 56 91 54 92
REMARK H PARENT 8 14 78 45 46 56
REMARK Flexibility Score: inf
ROOT
ATOM      1  C   UNL A   1      34.360  31.230  27.471  1.00  0.00     0.202 C 
ENDROOT
BRANCH   1   2
ATOM      2  C   UNL A   1      34.059  29.630  27.466  1.00  0.00     0.261 C 
BRANCH   2   3
ATOM      3  O   UNL A   1      34.040  28.298  25.883  1.00  0.00    -0.463 OA
BRANCH   3   4
ATOM      4  C   UNL A   1      33.444  27.760  24.648  1.00  0.00     0.308 C 
ATOM      5  O   UNL A   1      33.723  28.284  23.563  1.00  0.00    -0.252 OA
BRANCH   4   6
ATOM      6  C   UNL A   1      32.514  26.517  24.653  1.00  0.00     0.151 C 
BRANCH   6   7
ATOM      7  C   UNL A   1      31.402  26.286  23.563  1.00  0.00     0.051 C 
ATOM      8  C   UNL A   1      30.290  27.408  23.662  1.00  0.00     0.029 C 
ATOM      9  C   UNL A   1      30.080  25.335  23.620  1.00  0.00     0.029 C 
ATOM     10  C   UNL A   1      29.481  26.408  24.526  1.00  0.00     0.005 C 
BRANCH   7  11
ATOM     11  N   UNL A   1      31.983  26.171  22.216  1.00  0.00    -0.346 N 
ATOM     12  C   UNL A   1      32.737  25.118  21.790  1.00  0.00     0.251 C 
ATOM     13  O   UNL A   1      33.212  25.047  20.664  1.00  0.00    -0.269 OA
ATOM     14  H   UNL A   1      31.815  26.903  21.580  1.00  0.00     0.164 HD
BRANCH  12  15
ATOM     15  C   UNL A   1      33.140  24.151  22.807  1.00  0.00     0.039 A 
ATOM     16  C   UNL A   1      34.478  19.623  24.846  1.00  0.00     0.044 C 
ATOM     17  C   UNL A   1      34.183  21.015  24.338  1.00  0.00    -0.051 A 
ATOM     18  C   UNL A   1      32.649  21.181  23.505  1.00  0.00     0.004 A 
ATOM     19  C   UNL A   1      35.269  22.394  24.320  1.00  0.00     0.004 A 
ATOM     20  C   UNL A   1      32.105  22.701  22.713  1.00  0.00     0.014 A 
ATOM     21  C   UNL A   1      34.762  23.981  23.638  1.00  0.00     0.014 A 
ENDBRANCH  12  15
ENDBRANCH   7  11
ENDBRANCH   6   7
ENDBRANCH   4   6
ENDBRANCH   3   4
ENDBRANCH   2   3
ENDBRANCH   1   2
BRANCH   1  22
ATOM     22  O   UNL A   1      34.359  31.844  28.732  1.00  0.00    -0.374 OA
BRANCH  22  23
ATOM     23  C   UNL A   1      35.331  32.814  29.038  1.00  0.00     0.202 C 
BRANCH  23  24
ATOM     24  C   UNL A   1      36.073  32.168  30.188  1.00  0.00     0.261 C 
BRANCH  24  25
ATOM     25  O   UNL A   1      36.931  31.124  29.602  1.00  0.00    -0.460 OA
BRANCH  25  26
ATOM     26  C   UNL A   1      37.176  30.017  30.384  1.00  0.00     0.338 C 
ATOM     27  O   UNL A   1      36.304  29.378  30.957  1.00  0.00    -0.246 OA
BRANCH  26  28
ATOM     28  C   UNL A   1      38.664  29.807  30.665  1.00  0.00     0.060 A 
ATOM     29  C   UNL A   1      39.644  30.283  29.760  1.00  0.00     0.016 A 
ATOM     30  C   UNL A   1      39.073  28.859  31.605  1.00  0.00     0.016 A 
ATOM     31  C   UNL A   1      40.951  29.702  29.685  1.00  0.00     0.010 A 
ATOM     32  C   UNL A   1      40.325  28.221  31.461  1.00  0.00     0.010 A 
ATOM     33  C   UNL A   1      41.257  28.556  30.437  1.00  0.00    -0.014 A 
BRANCH  33  34
ATOM     34  C   UNL A   1      42.433  27.624  30.196  1.00  0.00     0.031 A 
ATOM     35  C   UNL A   1      43.685  28.314  30.544  1.00  0.00     0.074 A 
ATOM     36  C   UNL A   1      42.651  26.379  29.626  1.00  0.00     0.049 A 
ATOM     37  N   UNL A   1      44.649  28.482  29.695  1.00  0.00    -0.248 NA
ATOM     38  C   UNL A   1      43.836  29.054  31.800  1.00  0.00     0.031 C 
ATOM     39  C   UNL A   1      43.828  25.537  29.910  1.00  0.00     0.029 A 
ATOM     40  N   UNL A   1      41.863  25.468  28.878  1.00  0.00    -0.354 N 
ATOM     41  C   UNL A   1      45.635  29.076  30.431  1.00  0.00     0.074 A 
ATOM     42  C   UNL A   1      44.967  29.708  31.549  1.00  0.00     0.031 C 
ATOM     43  C   UNL A   1      43.712  24.331  29.317  1.00  0.00     0.029 A 
ATOM     44  C   UNL A   1      42.517  24.285  28.464  1.00  0.00     0.049 A 
ATOM     45  H   UNL A   1      40.919  25.647  28.661  1.00  0.00     0.167 HD
ATOM     46  C   UNL A   1      46.923  28.633  30.383  1.00  0.00     0.037 A 
ATOM     47  C   UNL A   1      42.395  23.533  27.302  1.00  0.00     0.037 A 
ATOM     48  C   UNL A   1      47.059  27.379  29.623  1.00  0.00     0.049 A 
ATOM     49  C   UNL A   1      43.612  23.914  26.481  1.00  0.00     0.074 A 
ATOM     50  C   UNL A   1      47.330  26.067  29.993  1.00  0.00     0.029 A 
ATOM     51  N   UNL A   1      46.577  27.271  28.320  1.00  0.00    -0.354 N 
ATOM     52  N   UNL A   1      44.718  24.345  27.010  1.00  0.00    -0.248 NA
ATOM     53  C   UNL A   1      43.616  24.012  25.024  1.00  0.00     0.031 C 
ATOM     54  C   UNL A   1      47.179  25.221  28.861  1.00  0.00     0.029 A 
ATOM     55  C   UNL A   1      46.784  26.002  27.794  1.00  0.00     0.049 A 
ATOM     56  H   UNL A   1      46.141  28.006  27.832  1.00  0.00     0.167 HD
ATOM     57  C   UNL A   1      45.434  25.000  26.063  1.00  0.00     0.074 A 
ATOM     58  C   UNL A   1      44.720  24.744  24.824  1.00  0.00     0.031 C 
ATOM     59  C   UNL A   1      46.527  25.749  26.382  1.00  0.00     0.037 A 
BRANCH  46  60
ATOM     60  C   UNL A   1      47.890  29.163  31.424  1.00  0.00     0.064 A 
ATOM     61  C   UNL A   1      48.656  30.319  31.224  1.00  0.00     0.173 A 
ATOM     62  C   UNL A   1      48.141  28.486  32.641  1.00  0.00     0.173 A 
ATOM     63  F   UNL A   1      48.418  31.152  30.207  1.00  0.00    -0.203 F 
ATOM     64  C   UNL A   1      49.705  30.671  32.076  1.00  0.00     0.198 A 
ATOM     65  C   UNL A   1      49.230  28.796  33.458  1.00  0.00     0.198 A 
ATOM     66  F   UNL A   1      47.348  27.478  33.045  1.00  0.00    -0.203 F 
ATOM     67  F   UNL A   1      50.419  31.776  31.821  1.00  0.00    -0.200 F 
ATOM     68  C   UNL A   1      50.024  29.884  33.164  1.00  0.00     0.200 A 
ATOM     69  F   UNL A   1      49.519  28.020  34.513  1.00  0.00    -0.200 F 
ATOM     70  F   UNL A   1      51.072  30.190  33.940  1.00  0.00    -0.200 F 
ENDBRANCH  46  60
BRANCH  47  71
ATOM     71  C   UNL A   1      41.123  23.047  26.596  1.00  0.00     0.064 A 
ATOM     72  C   UNL A   1      40.989  21.696  26.191  1.00  0.00     0.173 A 
ATOM     73  C   UNL A   1      39.956  23.816  26.429  1.00  0.00     0.173 A 
ATOM     74  F   UNL A   1      42.042  20.867  26.260  1.00  0.00    -0.203 F 
ATOM     75  C   UNL A   1      39.719  21.108  25.933  1.00  0.00     0.198 A 
ATOM     76  C   UNL A   1      38.690  23.230  26.241  1.00  0.00     0.198 A 
ATOM     77  F   UNL A   1      39.992  25.145  26.594  1.00  0.00    -0.203 F 
ATOM     78  F   UNL A   1      39.609  19.769  25.885  1.00  0.00    -0.200 F 
ATOM     79  C   UNL A   1      38.565  21.866  26.066  1.00  0.00     0.200 A 
ATOM     80  F   UNL A   1      37.587  23.980  26.387  1.00  0.00    -0.200 F 
ATOM     81  F   UNL A   1      37.366  21.273  26.193  1.00  0.00    -0.200 F 
ENDBRANCH  47  71
BRANCH  59  82
ATOM     82  C   UNL A   1      47.464  26.272  25.340  1.00  0.00     0.064 A 
ATOM     83  C   UNL A   1      48.844  26.003  25.374  1.00  0.00     0.173 A 
ATOM     84  C   UNL A   1      47.043  27.178  24.347  1.00  0.00     0.173 A 
ATOM     85  F   UNL A   1      49.400  25.322  26.388  1.00  0.00    -0.203 F 
ATOM     86  C   UNL A   1      49.709  26.473  24.395  1.00  0.00     0.198 A 
ATOM     87  C   UNL A   1      47.922  27.706  23.411  1.00  0.00     0.198 A 
ATOM     88  F   UNL A   1      45.774  27.595  24.251  1.00  0.00    -0.203 F 
ATOM     89  F   UNL A   1      50.998  26.110  24.422  1.00  0.00    -0.200 F 
ATOM     90  C   UNL A   1      49.247  27.325  23.410  1.00  0.00     0.200 A 
ATOM     91  F   UNL A   1      47.473  28.591  22.511  1.00  0.00    -0.200 F 
ATOM     92  F   UNL A   1      50.083  27.796  22.477  1.00  0.00    -0.200 F 
ENDBRANCH  59  82
ENDBRANCH  33  34
ENDBRANCH  26  28
ENDBRANCH  25  26
ENDBRANCH  24  25
ENDBRANCH  23  24
ENDBRANCH  22  23
ENDBRANCH   1  22
TORSDOF 17
ENDMDL
MODEL 3
REMARK VINA RESULT:     -11.5      4.932      9.902
REMARK SMILES Cc1ccc(C(=O)NC2(CC(=O)OCCOCCOC(=O)c3ccc(-c4c5nc(c(-c6c(F)c(F)c(F)c(F)c6F)c6ccc([nH]6)c(-c6c(F)c(F)c(F)c(F)c6F)c6nc(c(-c7c(F)c(F)c(F)c(F)c7F)c7ccc4[nH]7)C=C6)C=C5)cc3)CCC2)cc1
REMARK SMILES IDX 15 1 14 2 13 3 11 4 12 5 10 6 9 7 85 8 87 9 86 10 8 11 6 12
REMARK SMILES IDX 7 13 5 15 1 16 2 17 3 18 89 19 4 20 88 21 16 22 17 23 18 24
REMARK SMILES IDX 19 25 20 26 21 27 22 28 23 29 84 30 24 31 83 32 25 33 26 34
REMARK SMILES IDX 27 35 77 36 28 37 82 38 76 39 78 40 29 41 81 42 75 43 74 44
REMARK SMILES IDX 30 46 62 47 42 48 61 49 43 50 46 51 60 52 79 53 44 54 45 55
REMARK SMILES IDX 59 57 80 58 47 59 31 60 32 61 40 62 33 63 34 64 38 65 41 66
REMARK SMILES IDX 35 67 36 68 39 69 37 70 63 71 64 72 72 73 65 74 66 75 70 76
REMARK SMILES IDX 73 77 67 78 68 79 71 80 69 81 48 82 49 83 57 84 50 85 51 86
REMARK SMILES IDX 55 87 58 88 52 89 53 90 56 91 54 92
REMARK H PARENT 8 14 78 45 46 56
REMARK Flexibility Score: inf
ROOT
ATOM      1  C   UNL A   1      39.857  23.022  26.795  1.00  0.00     0.202 C 
ENDROOT
BRANCH   1   2
ATOM      2  C   UNL A   1      38.446  23.784  26.515  1.00  0.00     0.261 C 
BRANCH   2   3
ATOM      3  O   UNL A   1      36.754  23.105  25.537  1.00  0.00    -0.463 OA
BRANCH   3   4
ATOM      4  C   UNL A   1      35.888  22.019  25.046  1.00  0.00     0.308 C 
ATOM      5  O   UNL A   1      36.125  20.854  25.388  1.00  0.00    -0.252 OA
BRANCH   4   6
ATOM      6  C   UNL A   1      34.648  22.290  24.153  1.00  0.00     0.151 C 
BRANCH   6   7
ATOM      7  C   UNL A   1      33.196  21.836  24.557  1.00  0.00     0.051 C 
ATOM      8  C   UNL A   1      32.823  20.476  23.838  1.00  0.00     0.029 C 
ATOM      9  C   UNL A   1      31.761  22.268  23.916  1.00  0.00     0.029 C 
ATOM     10  C   UNL A   1      32.122  21.340  22.759  1.00  0.00     0.005 C 
BRANCH   7  11
ATOM     11  N   UNL A   1      33.037  21.775  26.019  1.00  0.00    -0.346 N 
ATOM     12  C   UNL A   1      32.680  22.835  26.799  1.00  0.00     0.251 C 
ATOM     13  O   UNL A   1      32.556  22.759  28.015  1.00  0.00    -0.269 OA
ATOM     14  H   UNL A   1      33.200  20.912  26.462  1.00  0.00     0.164 HD
BRANCH  12  15
ATOM     15  C   UNL A   1      32.645  24.142  26.149  1.00  0.00     0.039 A 
ATOM     16  C   UNL A   1      31.616  29.137  25.493  1.00  0.00     0.044 C 
ATOM     17  C   UNL A   1      32.046  27.694  25.617  1.00  0.00    -0.051 A 
ATOM     18  C   UNL A   1      30.740  26.563  25.913  1.00  0.00     0.004 A 
ATOM     19  C   UNL A   1      33.688  27.076  25.694  1.00  0.00     0.004 A 
ATOM     20  C   UNL A   1      30.991  24.806  26.207  1.00  0.00     0.014 A 
ATOM     21  C   UNL A   1      34.021  25.317  25.882  1.00  0.00     0.014 A 
ENDBRANCH  12  15
ENDBRANCH   7  11
ENDBRANCH   6   7
ENDBRANCH   4   6
ENDBRANCH   3   4
ENDBRANCH   2   3
ENDBRANCH   1   2
BRANCH   1  22
ATOM     22  O   UNL A   1      39.900  21.669  26.427  1.00  0.00    -0.374 OA
BRANCH  22  23
ATOM     23  C   UNL A   1      40.808  20.801  27.058  1.00  0.00     0.202 C 
BRANCH  23  24
ATOM     24  C   UNL A   1      42.127  21.515  26.850  1.00  0.00     0.261 C 
BRANCH  24  25
ATOM     25  O   UNL A   1      42.402  21.476  25.404  1.00  0.00    -0.460 OA
BRANCH  25  26
ATOM     26  C   UNL A   1      43.726  21.540  25.026  1.00  0.00     0.338 C 
ATOM     27  O   UNL A   1      44.348  20.597  24.556  1.00  0.00    -0.246 OA
BRANCH  26  28
ATOM     28  C   UNL A   1      44.409  22.832  25.475  1.00  0.00     0.060 A 
ATOM     29  C   UNL A   1      45.335  22.823  26.546  1.00  0.00     0.016 A 
ATOM     30  C   UNL A   1      43.888  24.069  25.094  1.00  0.00     0.016 A 
ATOM     31  C   UNL A   1      45.602  23.995  27.326  1.00  0.00     0.010 A 
ATOM     32  C   UNL A   1      44.074  25.197  25.925  1.00  0.00     0.010 A 
ATOM     33  C   UNL A   1      44.854  25.165  27.117  1.00  0.00    -0.014 A 
BRANCH  33  34
ATOM     34  C   UNL A   1      44.753  26.338  28.078  1.00  0.00     0.031 A 
ATOM     35  C   UNL A   1      43.366  26.827  28.114  1.00  0.00     0.074 A 
ATOM     36  C   UNL A   1      45.618  27.136  28.811  1.00  0.00     0.049 A 
ATOM     37  N   UNL A   1      43.048  28.048  27.821  1.00  0.00    -0.248 NA
ATOM     38  C   UNL A   1      42.229  25.914  28.260  1.00  0.00     0.031 C 
ATOM     39  C   UNL A   1      45.212  27.928  29.987  1.00  0.00     0.029 A 
ATOM     40  N   UNL A   1      47.026  27.290  28.876  1.00  0.00    -0.354 N 
ATOM     41  C   UNL A   1      41.704  28.103  28.058  1.00  0.00     0.074 A 
ATOM     42  C   UNL A   1      41.229  26.739  27.963  1.00  0.00     0.031 C 
ATOM     43  C   UNL A   1      46.283  28.503  30.574  1.00  0.00     0.029 A 
ATOM     44  C   UNL A   1      47.496  28.272  29.780  1.00  0.00     0.049 A 
ATOM     45  H   UNL A   1      47.638  26.748  28.328  1.00  0.00     0.167 HD
ATOM     46  C   UNL A   1      41.151  29.120  28.776  1.00  0.00     0.037 A 
ATOM     47  C   UNL A   1      48.576  29.143  29.702  1.00  0.00     0.037 A 
ATOM     48  C   UNL A   1      42.165  29.995  29.388  1.00  0.00     0.049 A 
ATOM     49  C   UNL A   1      47.955  30.476  29.335  1.00  0.00     0.074 A 
ATOM     50  C   UNL A   1      42.583  30.194  30.698  1.00  0.00     0.029 A 
ATOM     51  N   UNL A   1      43.168  30.581  28.619  1.00  0.00    -0.354 N 
ATOM     52  N   UNL A   1      46.727  30.791  29.625  1.00  0.00    -0.248 NA
ATOM     53  C   UNL A   1      48.595  31.465  28.471  1.00  0.00     0.031 C 
ATOM     54  C   UNL A   1      43.723  31.043  30.700  1.00  0.00     0.029 A 
ATOM     55  C   UNL A   1      44.033  31.347  29.390  1.00  0.00     0.049 A 
ATOM     56  H   UNL A   1      43.253  30.467  27.645  1.00  0.00     0.167 HD
ATOM     57  C   UNL A   1      46.332  31.809  28.821  1.00  0.00     0.074 A 
ATOM     58  C   UNL A   1      47.542  32.220  28.131  1.00  0.00     0.031 C 
ATOM     59  C   UNL A   1      45.027  32.195  28.745  1.00  0.00     0.037 A 
BRANCH  46  60
ATOM     60  C   UNL A   1      39.709  28.966  29.223  1.00  0.00     0.064 A 
ATOM     61  C   UNL A   1      38.625  29.346  28.421  1.00  0.00     0.173 A 
ATOM     62  C   UNL A   1      39.361  28.493  30.511  1.00  0.00     0.173 A 
ATOM     63  F   UNL A   1      38.779  29.654  27.130  1.00  0.00    -0.203 F 
ATOM     64  C   UNL A   1      37.323  29.419  28.920  1.00  0.00     0.198 A 
ATOM     65  C   UNL A   1      38.073  28.629  31.034  1.00  0.00     0.198 A 
ATOM     66  F   UNL A   1      40.280  27.920  31.307  1.00  0.00    -0.203 F 
ATOM     67  F   UNL A   1      36.329  29.813  28.113  1.00  0.00    -0.200 F 
ATOM     68  C   UNL A   1      37.054  29.109  30.239  1.00  0.00     0.200 A 
ATOM     69  F   UNL A   1      37.834  28.317  32.316  1.00  0.00    -0.200 F 
ATOM     70  F   UNL A   1      35.815  29.244  30.730  1.00  0.00    -0.200 F 
ENDBRANCH  46  60
BRANCH  47  71
ATOM     71  C   UNL A   1      50.028  28.845  29.308  1.00  0.00     0.064 A 
ATOM     72  C   UNL A   1      51.078  28.978  30.250  1.00  0.00     0.173 A 
ATOM     73  C   UNL A   1      50.427  28.288  28.078  1.00  0.00     0.173 A 
ATOM     74  F   UNL A   1      50.838  29.535  31.447  1.00  0.00    -0.203 F 
ATOM     75  C   UNL A   1      52.333  28.330  30.079  1.00  0.00     0.198 A 
ATOM     76  C   UNL A   1      51.639  27.588  27.927  1.00  0.00     0.198 A 
ATOM     77  F   UNL A   1      49.585  28.276  27.036  1.00  0.00    -0.203 F 
ATOM     78  F   UNL A   1      53.161  28.204  31.130  1.00  0.00    -0.200 F 
ATOM     79  C   UNL A   1      52.561  27.549  28.955  1.00  0.00     0.200 A 
ATOM     80  F   UNL A   1      51.833  26.829  26.839  1.00  0.00    -0.200 F 
ATOM     81  F   UNL A   1      53.559  26.649  28.936  1.00  0.00    -0.200 F 
ENDBRANCH  47  71
BRANCH  59  82
ATOM     82  C   UNL A   1      44.611  33.458  28.062  1.00  0.00     0.064 A 
ATOM     83  C   UNL A   1      44.582  34.694  28.731  1.00  0.00     0.173 A 
ATOM     84  C   UNL A   1      44.089  33.460  26.753  1.00  0.00     0.173 A 
ATOM     85  F   UNL A   1      44.858  34.788  30.041  1.00  0.00    -0.203 F 
ATOM     86  C   UNL A   1      44.213  35.869  28.089  1.00  0.00     0.198 A 
ATOM     87  C   UNL A   1      43.651  34.624  26.136  1.00  0.00     0.198 A 
ATOM     88  F   UNL A   1      43.971  32.340  26.028  1.00  0.00    -0.203 F 
ATOM     89  F   UNL A   1      44.293  37.035  28.745  1.00  0.00    -0.200 F 
ATOM     90  C   UNL A   1      43.749  35.835  26.788  1.00  0.00     0.200 A 
ATOM     91  F   UNL A   1      43.132  34.561  24.903  1.00  0.00    -0.200 F 
ATOM     92  F   UNL A   1      43.374  36.963  26.174  1.00  0.00    -0.200 F 
ENDBRANCH  59  82
ENDBRANCH  33  34
ENDBRANCH  26  28
ENDBRANCH  25  26
ENDBRANCH  24  25
ENDBRANCH  23  24
ENDBRANCH  22  23
ENDBRANCH   1  22
TORSDOF 17
ENDMDL
