MODEL 1
REMARK VINA RESULT:     -11.0      0.000      0.000
REMARK SMILES COC[C@@H](C)CC(=O)Nc1cccc(/C=C/C(=O)OCCOCCOC(=O)c2ccc(-c3c4nc(c(-c5c(F)c(F)c(F)c(F)c5F)c5ccc([nH]5)c(-c5c(F)c(F)c(F)c(F)c5F)c5nc(c(-c6c(F)c(F)c(F)c(F)c6F)c6ccc3[nH]6)C=C5)C=C4)cc2)c1
REMARK SMILES IDX 20 1 19 2 17 3 18 4 16 5 15 6 14 7 10 8 11 9 91 10 12 11
REMARK SMILES IDX 13 12 9 13 7 14 8 15 6 17 4 18 5 19 3 20 2 21 1 22 21 23
REMARK SMILES IDX 22 24 23 25 24 26 25 27 26 28 27 29 28 30 29 31 90 32 30 33
REMARK SMILES IDX 89 34 31 35 32 36 33 37 83 38 34 39 88 40 82 41 84 42 35 43
REMARK SMILES IDX 87 44 81 45 80 46 36 48 68 49 48 50 67 51 49 52 52 53 66 54
REMARK SMILES IDX 85 55 50 56 51 57 65 59 86 60 53 61 37 62 38 63 46 64 39 65
REMARK SMILES IDX 40 66 44 67 47 68 41 69 42 70 45 71 43 72 69 73 70 74 78 75
REMARK SMILES IDX 71 76 72 77 76 78 79 79 73 80 74 81 77 82 75 83 54 84 55 85
REMARK SMILES IDX 63 86 56 87 57 88 61 89 64 90 58 91 59 92 62 93 60 94
REMARK H PARENT 9 16 84 47 52 58
REMARK Flexibility Score: inf
ROOT
ATOM      1  C   UNL A   1      42.084  20.281  26.586  1.00  0.00     0.261 C 
ENDROOT
BRANCH   1   2
ATOM      2  O   UNL A   1      40.775  20.476  26.014  1.00  0.00    -0.460 OA
BRANCH   2   3
ATOM      3  C   UNL A   1      40.077  21.524  26.510  1.00  0.00     0.330 C 
ATOM      4  O   UNL A   1      40.442  22.286  27.394  1.00  0.00    -0.247 OA
BRANCH   3   5
ATOM      5  C   UNL A   1      38.740  21.652  25.901  1.00  0.00     0.094 C 
ATOM      6  C   UNL A   1      37.905  22.701  26.002  1.00  0.00     0.015 C 
BRANCH   6   7
ATOM      7  C   UNL A   1      36.651  22.734  25.234  1.00  0.00    -0.023 A 
ATOM      8  C   UNL A   1      34.216  22.813  25.332  1.00  0.00     0.041 A 
ATOM      9  C   UNL A   1      34.159  23.031  23.960  1.00  0.00     0.026 A 
ATOM     10  C   UNL A   1      35.451  22.569  25.929  1.00  0.00     0.034 A 
ATOM     11  C   UNL A   1      35.348  23.116  23.226  1.00  0.00     0.003 A 
ATOM     12  C   UNL A   1      36.588  22.989  23.863  1.00  0.00     0.008 A 
BRANCH   8  13
ATOM     13  N   UNL A   1      33.038  22.806  26.095  1.00  0.00    -0.326 N 
ATOM     14  C   UNL A   1      32.282  23.885  26.501  1.00  0.00     0.224 C 
ATOM     15  O   UNL A   1      31.521  23.766  27.463  1.00  0.00    -0.275 OA
ATOM     16  H   UNL A   1      32.712  21.921  26.377  1.00  0.00     0.169 HD
BRANCH  14  17
ATOM     17  C   UNL A   1      32.238  25.124  25.606  1.00  0.00     0.106 C 
BRANCH  17  18
ATOM     18  C   UNL A   1      33.111  26.315  26.044  1.00  0.00     0.021 C 
ATOM     19  C   UNL A   1      32.212  27.379  26.690  1.00  0.00     0.010 C 
BRANCH  18  20
ATOM     20  C   UNL A   1      33.857  26.923  24.850  1.00  0.00     0.163 C 
BRANCH  20  21
ATOM     21  O   UNL A   1      32.987  27.171  23.747  1.00  0.00    -0.384 OA
ATOM     22  C   UNL A   1      33.533  26.668  22.532  1.00  0.00     0.194 C 
ENDBRANCH  20  21
ENDBRANCH  18  20
ENDBRANCH  17  18
ENDBRANCH  14  17
ENDBRANCH   8  13
ENDBRANCH   6   7
ENDBRANCH   3   5
ENDBRANCH   2   3
ENDBRANCH   1   2
BRANCH   1  23
ATOM     23  C   UNL A   1      42.903  19.313  25.732  1.00  0.00     0.202 C 
BRANCH  23  24
ATOM     24  O   UNL A   1      43.577  19.924  24.630  1.00  0.00    -0.374 OA
BRANCH  24  25
ATOM     25  C   UNL A   1      44.502  20.963  24.950  1.00  0.00     0.202 C 
BRANCH  25  26
ATOM     26  C   UNL A   1      44.329  22.258  24.149  1.00  0.00     0.261 C 
BRANCH  26  27
ATOM     27  O   UNL A   1      43.549  23.239  24.855  1.00  0.00    -0.460 OA
BRANCH  27  28
ATOM     28  C   UNL A   1      44.173  24.426  25.039  1.00  0.00     0.338 C 
ATOM     29  O   UNL A   1      45.199  24.814  24.488  1.00  0.00    -0.246 OA
BRANCH  28  30
ATOM     30  C   UNL A   1      43.387  25.302  25.927  1.00  0.00     0.060 A 
ATOM     31  C   UNL A   1      43.886  26.589  26.171  1.00  0.00     0.016 A 
ATOM     32  C   UNL A   1      42.236  24.857  26.584  1.00  0.00     0.016 A 
ATOM     33  C   UNL A   1      43.276  27.409  27.118  1.00  0.00     0.010 A 
ATOM     34  C   UNL A   1      41.627  25.681  27.537  1.00  0.00     0.010 A 
ATOM     35  C   UNL A   1      42.167  26.944  27.838  1.00  0.00    -0.014 A 
BRANCH  35  36
ATOM     36  C   UNL A   1      41.676  27.717  29.006  1.00  0.00     0.031 A 
ATOM     37  C   UNL A   1      42.415  27.620  30.313  1.00  0.00     0.074 A 
ATOM     38  C   UNL A   1      40.611  28.532  28.895  1.00  0.00     0.049 A 
ATOM     39  N   UNL A   1      42.156  28.192  31.462  1.00  0.00    -0.248 NA
ATOM     40  C   UNL A   1      43.614  26.765  30.324  1.00  0.00     0.031 C 
ATOM     41  C   UNL A   1      39.836  28.747  27.676  1.00  0.00     0.029 A 
ATOM     42  N   UNL A   1      40.000  29.330  29.830  1.00  0.00    -0.354 N 
ATOM     43  C   UNL A   1      43.154  27.769  32.329  1.00  0.00     0.074 A 
ATOM     44  C   UNL A   1      44.008  26.867  31.585  1.00  0.00     0.031 C 
ATOM     45  C   UNL A   1      38.846  29.617  27.937  1.00  0.00     0.029 A 
ATOM     46  C   UNL A   1      38.900  29.996  29.348  1.00  0.00     0.049 A 
ATOM     47  H   UNL A   1      40.318  29.415  30.757  1.00  0.00     0.167 HD
ATOM     48  C   UNL A   1      43.350  28.111  33.625  1.00  0.00     0.037 A 
ATOM     49  C   UNL A   1      38.028  30.804  29.982  1.00  0.00     0.037 A 
ATOM     50  C   UNL A   1      42.501  29.002  34.369  1.00  0.00     0.049 A 
ATOM     51  C   UNL A   1      38.222  31.102  31.447  1.00  0.00     0.074 A 
ATOM     52  C   UNL A   1      42.613  29.402  35.689  1.00  0.00     0.029 A 
ATOM     53  N   UNL A   1      41.376  29.631  33.855  1.00  0.00    -0.354 N 
ATOM     54  N   UNL A   1      39.177  30.709  32.255  1.00  0.00    -0.248 NA
ATOM     55  C   UNL A   1      37.215  31.961  32.087  1.00  0.00     0.031 C 
ATOM     56  C   UNL A   1      41.536  30.244  35.985  1.00  0.00     0.029 A 
ATOM     57  C   UNL A   1      40.779  30.403  34.837  1.00  0.00     0.049 A 
ATOM     58  H   UNL A   1      41.053  29.540  32.930  1.00  0.00     0.167 HD
ATOM     59  C   UNL A   1      38.905  31.297  33.483  1.00  0.00     0.074 A 
ATOM     60  C   UNL A   1      37.700  32.082  33.315  1.00  0.00     0.031 C 
ATOM     61  C   UNL A   1      39.592  31.197  34.648  1.00  0.00     0.037 A 
BRANCH  48  62
ATOM     62  C   UNL A   1      44.528  27.506  34.329  1.00  0.00     0.064 A 
ATOM     63  C   UNL A   1      45.783  28.133  34.328  1.00  0.00     0.173 A 
ATOM     64  C   UNL A   1      44.392  26.308  35.048  1.00  0.00     0.173 A 
ATOM     65  F   UNL A   1      45.967  29.272  33.644  1.00  0.00    -0.203 F 
ATOM     66  C   UNL A   1      46.863  27.574  35.007  1.00  0.00     0.198 A 
ATOM     67  C   UNL A   1      45.467  25.766  35.745  1.00  0.00     0.198 A 
ATOM     68  F   UNL A   1      43.212  25.671  35.082  1.00  0.00    -0.203 F 
ATOM     69  F   UNL A   1      48.061  28.171  34.963  1.00  0.00    -0.200 F 
ATOM     70  C   UNL A   1      46.703  26.396  35.721  1.00  0.00     0.200 A 
ATOM     71  F   UNL A   1      45.309  24.633  36.443  1.00  0.00    -0.200 F 
ATOM     72  F   UNL A   1      47.741  25.863  36.380  1.00  0.00    -0.200 F 
ENDBRANCH  48  62
BRANCH  49  73
ATOM     73  C   UNL A   1      36.881  31.391  29.243  1.00  0.00     0.064 A 
ATOM     74  C   UNL A   1      36.847  32.757  28.929  1.00  0.00     0.173 A 
ATOM     75  C   UNL A   1      35.779  30.608  28.869  1.00  0.00     0.173 A 
ATOM     76  F   UNL A   1      37.864  33.553  29.291  1.00  0.00    -0.203 F 
ATOM     77  C   UNL A   1      35.745  33.321  28.289  1.00  0.00     0.198 A 
ATOM     78  C   UNL A   1      34.691  31.168  28.205  1.00  0.00     0.198 A 
ATOM     79  F   UNL A   1      35.760  29.298  29.152  1.00  0.00    -0.203 F 
ATOM     80  F   UNL A   1      35.716  34.639  28.049  1.00  0.00    -0.200 F 
ATOM     81  C   UNL A   1      34.670  32.526  27.924  1.00  0.00     0.200 A 
ATOM     82  F   UNL A   1      33.657  30.395  27.846  1.00  0.00    -0.200 F 
ATOM     83  F   UNL A   1      33.610  33.070  27.312  1.00  0.00    -0.200 F 
ENDBRANCH  49  73
BRANCH  61  84
ATOM     84  C   UNL A   1      39.091  31.993  35.817  1.00  0.00     0.064 A 
ATOM     85  C   UNL A   1      38.239  31.433  36.780  1.00  0.00     0.173 A 
ATOM     86  C   UNL A   1      39.502  33.322  35.997  1.00  0.00     0.173 A 
ATOM     87  F   UNL A   1      37.806  30.171  36.645  1.00  0.00    -0.203 F 
ATOM     88  C   UNL A   1      37.798  32.182  37.867  1.00  0.00     0.198 A 
ATOM     89  C   UNL A   1      39.082  34.061  37.100  1.00  0.00     0.198 A 
ATOM     90  F   UNL A   1      40.322  33.903  35.107  1.00  0.00    -0.203 F 
ATOM     91  F   UNL A   1      36.950  31.641  38.752  1.00  0.00    -0.200 F 
ATOM     92  C   UNL A   1      38.226  33.492  38.030  1.00  0.00     0.200 A 
ATOM     93  F   UNL A   1      39.505  35.322  37.261  1.00  0.00    -0.200 F 
ATOM     94  F   UNL A   1      37.805  34.210  39.081  1.00  0.00    -0.200 F 
ENDBRANCH  61  84
ENDBRANCH  35  36
ENDBRANCH  28  30
ENDBRANCH  27  28
ENDBRANCH  26  27
ENDBRANCH  25  26
ENDBRANCH  24  25
ENDBRANCH  23  24
ENDBRANCH   1  23
TORSDOF 20
ENDMDL
MODEL 2
REMARK VINA RESULT:     -10.7      1.033      2.290
REMARK SMILES COC[C@@H](C)CC(=O)Nc1cccc(/C=C/C(=O)OCCOCCOC(=O)c2ccc(-c3c4nc(c(-c5c(F)c(F)c(F)c(F)c5F)c5ccc([nH]5)c(-c5c(F)c(F)c(F)c(F)c5F)c5nc(c(-c6c(F)c(F)c(F)c(F)c6F)c6ccc3[nH]6)C=C5)C=C4)cc2)c1
REMARK SMILES IDX 20 1 19 2 17 3 18 4 16 5 15 6 14 7 10 8 11 9 91 10 12 11
REMARK SMILES IDX 13 12 9 13 7 14 8 15 6 17 4 18 5 19 3 20 2 21 1 22 21 23
REMARK SMILES IDX 22 24 23 25 24 26 25 27 26 28 27 29 28 30 29 31 90 32 30 33
REMARK SMILES IDX 89 34 31 35 32 36 33 37 83 38 34 39 88 40 82 41 84 42 35 43
REMARK SMILES IDX 87 44 81 45 80 46 36 48 68 49 48 50 67 51 49 52 52 53 66 54
REMARK SMILES IDX 85 55 50 56 51 57 65 59 86 60 53 61 37 62 38 63 46 64 39 65
REMARK SMILES IDX 40 66 44 67 47 68 41 69 42 70 45 71 43 72 69 73 70 74 78 75
REMARK SMILES IDX 71 76 72 77 76 78 79 79 73 80 74 81 77 82 75 83 54 84 55 85
REMARK SMILES IDX 63 86 56 87 57 88 61 89 64 90 58 91 59 92 62 93 60 94
REMARK H PARENT 9 16 84 47 52 58
REMARK Flexibility Score: inf
ROOT
ATOM      1  C   UNL A   1      42.859  20.182  26.390  1.00  0.00     0.261 C 
ENDROOT
BRANCH   1   2
ATOM      2  O   UNL A   1      41.537  20.670  26.087  1.00  0.00    -0.460 OA
BRANCH   2   3
ATOM      3  C   UNL A   1      41.026  21.552  26.977  1.00  0.00     0.330 C 
ATOM      4  O   UNL A   1      41.503  21.842  28.066  1.00  0.00    -0.247 OA
BRANCH   3   5
ATOM      5  C   UNL A   1      39.747  22.133  26.529  1.00  0.00     0.094 C 
ATOM      6  C   UNL A   1      38.751  21.495  25.891  1.00  0.00     0.015 C 
BRANCH   6   7
ATOM      7  C   UNL A   1      37.479  22.181  25.615  1.00  0.00    -0.023 A 
ATOM      8  C   UNL A   1      35.060  21.960  25.410  1.00  0.00     0.041 A 
ATOM      9  C   UNL A   1      34.931  23.343  25.341  1.00  0.00     0.026 A 
ATOM     10  C   UNL A   1      36.336  21.399  25.446  1.00  0.00     0.034 A 
ATOM     11  C   UNL A   1      36.073  24.147  25.424  1.00  0.00     0.003 A 
ATOM     12  C   UNL A   1      37.340  23.569  25.581  1.00  0.00     0.008 A 
BRANCH   8  13
ATOM     13  N   UNL A   1      33.919  21.143  25.411  1.00  0.00    -0.326 N 
ATOM     14  C   UNL A   1      32.739  21.329  24.723  1.00  0.00     0.224 C 
ATOM     15  O   UNL A   1      31.715  20.764  25.109  1.00  0.00    -0.275 OA
ATOM     16  H   UNL A   1      33.967  20.337  25.975  1.00  0.00     0.169 HD
BRANCH  14  17
ATOM     17  C   UNL A   1      32.787  22.042  23.371  1.00  0.00     0.106 C 
BRANCH  17  18
ATOM     18  C   UNL A   1      32.362  23.523  23.363  1.00  0.00     0.021 C 
ATOM     19  C   UNL A   1      30.831  23.600  23.451  1.00  0.00     0.010 C 
BRANCH  18  20
ATOM     20  C   UNL A   1      32.845  24.231  22.091  1.00  0.00     0.163 C 
BRANCH  20  21
ATOM     21  O   UNL A   1      33.993  25.042  22.335  1.00  0.00    -0.384 OA
ATOM     22  C   UNL A   1      33.627  26.314  22.859  1.00  0.00     0.194 C 
ENDBRANCH  20  21
ENDBRANCH  18  20
ENDBRANCH  17  18
ENDBRANCH  14  17
ENDBRANCH   8  13
ENDBRANCH   6   7
ENDBRANCH   3   5
ENDBRANCH   2   3
ENDBRANCH   1   2
BRANCH   1  23
ATOM     23  C   UNL A   1      43.421  19.388  25.211  1.00  0.00     0.202 C 
BRANCH  23  24
ATOM     24  O   UNL A   1      44.192  20.163  24.291  1.00  0.00    -0.374 OA
BRANCH  24  25
ATOM     25  C   UNL A   1      44.721  21.393  24.787  1.00  0.00     0.202 C 
BRANCH  25  26
ATOM     26  C   UNL A   1      44.380  22.632  23.952  1.00  0.00     0.261 C 
BRANCH  26  27
ATOM     27  O   UNL A   1      43.582  23.582  24.682  1.00  0.00    -0.460 OA
BRANCH  27  28
ATOM     28  C   UNL A   1      44.242  24.705  25.048  1.00  0.00     0.338 C 
ATOM     29  O   UNL A   1      45.325  25.097  24.623  1.00  0.00    -0.246 OA
BRANCH  28  30
ATOM     30  C   UNL A   1      43.427  25.517  25.971  1.00  0.00     0.060 A 
ATOM     31  C   UNL A   1      43.786  26.862  26.135  1.00  0.00     0.016 A 
ATOM     32  C   UNL A   1      42.393  24.966  26.732  1.00  0.00     0.016 A 
ATOM     33  C   UNL A   1      43.157  27.641  27.104  1.00  0.00     0.010 A 
ATOM     34  C   UNL A   1      41.765  25.749  27.707  1.00  0.00     0.010 A 
ATOM     35  C   UNL A   1      42.172  27.078  27.926  1.00  0.00    -0.014 A 
BRANCH  35  36
ATOM     36  C   UNL A   1      41.683  27.833  29.106  1.00  0.00     0.031 A 
ATOM     37  C   UNL A   1      42.437  27.730  30.405  1.00  0.00     0.074 A 
ATOM     38  C   UNL A   1      40.608  28.637  29.014  1.00  0.00     0.049 A 
ATOM     39  N   UNL A   1      42.182  28.287  31.563  1.00  0.00    -0.248 NA
ATOM     40  C   UNL A   1      43.644  26.889  30.395  1.00  0.00     0.031 C 
ATOM     41  C   UNL A   1      39.819  28.856  27.805  1.00  0.00     0.029 A 
ATOM     42  N   UNL A   1      39.997  29.418  29.964  1.00  0.00    -0.354 N 
ATOM     43  C   UNL A   1      43.193  27.866  32.415  1.00  0.00     0.074 A 
ATOM     44  C   UNL A   1      44.050  26.982  31.653  1.00  0.00     0.031 C 
ATOM     45  C   UNL A   1      38.822  29.712  28.085  1.00  0.00     0.029 A 
ATOM     46  C   UNL A   1      38.886  30.077  29.500  1.00  0.00     0.049 A 
ATOM     47  H   UNL A   1      40.324  29.496  30.889  1.00  0.00     0.167 HD
ATOM     48  C   UNL A   1      43.399  28.196  33.713  1.00  0.00     0.037 A 
ATOM     49  C   UNL A   1      38.011  30.868  30.151  1.00  0.00     0.037 A 
ATOM     50  C   UNL A   1      42.547  29.070  34.475  1.00  0.00     0.049 A 
ATOM     51  C   UNL A   1      38.216  31.153  31.618  1.00  0.00     0.074 A 
ATOM     52  C   UNL A   1      42.667  29.457  35.798  1.00  0.00     0.029 A 
ATOM     53  N   UNL A   1      41.410  29.691  33.979  1.00  0.00    -0.354 N 
ATOM     54  N   UNL A   1      39.184  30.762  32.412  1.00  0.00    -0.248 NA
ATOM     55  C   UNL A   1      37.205  31.993  32.276  1.00  0.00     0.031 C 
ATOM     56  C   UNL A   1      41.584  30.284  36.114  1.00  0.00     0.029 A 
ATOM     57  C   UNL A   1      40.814  30.446  34.975  1.00  0.00     0.049 A 
ATOM     58  H   UNL A   1      41.079  29.607  33.056  1.00  0.00     0.167 HD
ATOM     59  C   UNL A   1      38.917  31.334  33.648  1.00  0.00     0.074 A 
ATOM     60  C   UNL A   1      37.702  32.106  33.500  1.00  0.00     0.031 C 
ATOM     61  C   UNL A   1      39.617  31.229  34.805  1.00  0.00     0.037 A 
BRANCH  48  62
ATOM     62  C   UNL A   1      44.590  27.597  34.399  1.00  0.00     0.064 A 
ATOM     63  C   UNL A   1      44.495  26.394  35.114  1.00  0.00     0.173 A 
ATOM     64  C   UNL A   1      45.850  28.208  34.305  1.00  0.00     0.173 A 
ATOM     65  F   UNL A   1      43.310  25.779  35.244  1.00  0.00    -0.203 F 
ATOM     66  C   UNL A   1      45.615  25.834  35.725  1.00  0.00     0.198 A 
ATOM     67  C   UNL A   1      46.970  27.634  34.896  1.00  0.00     0.198 A 
ATOM     68  F   UNL A   1      45.994  29.359  33.629  1.00  0.00    -0.203 F 
ATOM     69  F   UNL A   1      45.494  24.704  36.434  1.00  0.00    -0.200 F 
ATOM     70  C   UNL A   1      46.852  26.450  35.610  1.00  0.00     0.200 A 
ATOM     71  F   UNL A   1      48.168  28.224  34.776  1.00  0.00    -0.200 F 
ATOM     72  F   UNL A   1      47.930  25.906  36.192  1.00  0.00    -0.200 F 
ENDBRANCH  48  62
BRANCH  49  73
ATOM     73  C   UNL A   1      36.850  31.450  29.429  1.00  0.00     0.064 A 
ATOM     74  C   UNL A   1      35.778  30.646  29.020  1.00  0.00     0.173 A 
ATOM     75  C   UNL A   1      36.807  32.813  29.102  1.00  0.00     0.173 A 
ATOM     76  F   UNL A   1      35.788  29.331  29.283  1.00  0.00    -0.203 F 
ATOM     77  C   UNL A   1      34.717  31.179  28.290  1.00  0.00     0.198 A 
ATOM     78  C   UNL A   1      35.732  33.350  28.397  1.00  0.00     0.198 A 
ATOM     79  F   UNL A   1      37.811  33.623  29.466  1.00  0.00    -0.203 F 
ATOM     80  F   UNL A   1      33.731  30.377  27.865  1.00  0.00    -0.200 F 
ATOM     81  C   UNL A   1      34.692  32.531  27.984  1.00  0.00     0.200 A 
ATOM     82  F   UNL A   1      35.708  34.658  28.110  1.00  0.00    -0.200 F 
ATOM     83  F   UNL A   1      33.674  33.041  27.279  1.00  0.00    -0.200 F 
ENDBRANCH  49  73
BRANCH  61  84
ATOM     84  C   UNL A   1      39.117  32.007  35.988  1.00  0.00     0.064 A 
ATOM     85  C   UNL A   1      39.495  33.341  36.206  1.00  0.00     0.173 A 
ATOM     86  C   UNL A   1      38.218  31.422  36.891  1.00  0.00     0.173 A 
ATOM     87  F   UNL A   1      40.364  33.940  35.379  1.00  0.00    -0.203 F 
ATOM     88  C   UNL A   1      39.007  34.051  37.299  1.00  0.00     0.198 A 
ATOM     89  C   UNL A   1      37.710  32.144  37.968  1.00  0.00     0.198 A 
ATOM     90  F   UNL A   1      37.821  30.151  36.723  1.00  0.00    -0.203 F 
ATOM     91  F   UNL A   1      39.414  35.310  37.512  1.00  0.00    -0.200 F 
ATOM     92  C   UNL A   1      38.110  33.456  38.174  1.00  0.00     0.200 A 
ATOM     93  F   UNL A   1      36.836  31.571  38.806  1.00  0.00    -0.200 F 
ATOM     94  F   UNL A   1      37.638  34.144  39.223  1.00  0.00    -0.200 F 
ENDBRANCH  61  84
ENDBRANCH  35  36
ENDBRANCH  28  30
ENDBRANCH  27  28
ENDBRANCH  26  27
ENDBRANCH  25  26
ENDBRANCH  24  25
ENDBRANCH  23  24
ENDBRANCH   1  23
TORSDOF 20
ENDMDL
MODEL 3
REMARK VINA RESULT:     -10.7      0.975      2.029
REMARK SMILES COC[C@@H](C)CC(=O)Nc1cccc(/C=C/C(=O)OCCOCCOC(=O)c2ccc(-c3c4nc(c(-c5c(F)c(F)c(F)c(F)c5F)c5ccc([nH]5)c(-c5c(F)c(F)c(F)c(F)c5F)c5nc(c(-c6c(F)c(F)c(F)c(F)c6F)c6ccc3[nH]6)C=C5)C=C4)cc2)c1
REMARK SMILES IDX 20 1 19 2 17 3 18 4 16 5 15 6 14 7 10 8 11 9 91 10 12 11
REMARK SMILES IDX 13 12 9 13 7 14 8 15 6 17 4 18 5 19 3 20 2 21 1 22 21 23
REMARK SMILES IDX 22 24 23 25 24 26 25 27 26 28 27 29 28 30 29 31 90 32 30 33
REMARK SMILES IDX 89 34 31 35 32 36 33 37 83 38 34 39 88 40 82 41 84 42 35 43
REMARK SMILES IDX 87 44 81 45 80 46 36 48 68 49 48 50 67 51 49 52 52 53 66 54
REMARK SMILES IDX 85 55 50 56 51 57 65 59 86 60 53 61 37 62 38 63 46 64 39 65
REMARK SMILES IDX 40 66 44 67 47 68 41 69 42 70 45 71 43 72 69 73 70 74 78 75
REMARK SMILES IDX 71 76 72 77 76 78 79 79 73 80 74 81 77 82 75 83 54 84 55 85
REMARK SMILES IDX 63 86 56 87 57 88 61 89 64 90 58 91 59 92 62 93 60 94
REMARK H PARENT 9 16 84 47 52 58
REMARK Flexibility Score: inf
ROOT
ATOM      1  C   UNL A   1      40.507  21.672  26.851  1.00  0.00     0.261 C 
ENDROOT
BRANCH   1   2
ATOM      2  O   UNL A   1      39.393  21.360  25.990  1.00  0.00    -0.460 OA
BRANCH   2   3
ATOM      3  C   UNL A   1      38.404  22.283  25.966  1.00  0.00     0.330 C 
ATOM      4  O   UNL A   1      38.526  23.484  26.161  1.00  0.00    -0.247 OA
BRANCH   3   5
ATOM      5  C   UNL A   1      37.078  21.685  25.722  1.00  0.00     0.094 C 
ATOM      6  C   UNL A   1      35.888  22.180  26.100  1.00  0.00     0.015 C 
BRANCH   6   7
ATOM      7  C   UNL A   1      34.637  21.531  25.675  1.00  0.00    -0.023 A 
ATOM      8  C   UNL A   1      32.204  21.528  25.821  1.00  0.00     0.041 A 
ATOM      9  C   UNL A   1      32.136  20.579  24.807  1.00  0.00     0.026 A 
ATOM     10  C   UNL A   1      33.452  21.914  26.306  1.00  0.00     0.034 A 
ATOM     11  C   UNL A   1      33.317  20.117  24.215  1.00  0.00     0.003 A 
ATOM     12  C   UNL A   1      34.561  20.605  24.634  1.00  0.00     0.008 A 
BRANCH   8  13
ATOM     13  N   UNL A   1      31.027  22.063  26.368  1.00  0.00    -0.326 N 
ATOM     14  C   UNL A   1      30.661  23.387  26.467  1.00  0.00     0.224 C 
ATOM     15  O   UNL A   1      29.812  23.724  27.294  1.00  0.00    -0.275 OA
ATOM     16  H   UNL A   1      30.383  21.409  26.727  1.00  0.00     0.169 HD
BRANCH  14  17
ATOM     17  C   UNL A   1      31.148  24.362  25.394  1.00  0.00     0.106 C 
BRANCH  17  18
ATOM     18  C   UNL A   1      30.412  25.713  25.312  1.00  0.00     0.021 C 
ATOM     19  C   UNL A   1      30.444  26.209  23.860  1.00  0.00     0.010 C 
BRANCH  18  20
ATOM     20  C   UNL A   1      31.064  26.754  26.231  1.00  0.00     0.163 C 
BRANCH  20  21
ATOM     21  O   UNL A   1      32.013  27.561  25.535  1.00  0.00    -0.384 OA
ATOM     22  C   UNL A   1      33.339  27.313  25.993  1.00  0.00     0.194 C 
ENDBRANCH  20  21
ENDBRANCH  18  20
ENDBRANCH  17  18
ENDBRANCH  14  17
ENDBRANCH   8  13
ENDBRANCH   6   7
ENDBRANCH   3   5
ENDBRANCH   2   3
ENDBRANCH   1   2
BRANCH   1  23
ATOM     23  C   UNL A   1      41.695  20.762  26.541  1.00  0.00     0.202 C 
BRANCH  23  24
ATOM     24  O   UNL A   1      42.955  21.435  26.486  1.00  0.00    -0.374 OA
BRANCH  24  25
ATOM     25  C   UNL A   1      43.799  21.109  25.382  1.00  0.00     0.202 C 
BRANCH  25  26
ATOM     26  C   UNL A   1      44.233  22.301  24.521  1.00  0.00     0.261 C 
BRANCH  26  27
ATOM     27  O   UNL A   1      43.392  23.452  24.716  1.00  0.00    -0.460 OA
BRANCH  27  28
ATOM     28  C   UNL A   1      44.056  24.580  25.059  1.00  0.00     0.338 C 
ATOM     29  O   UNL A   1      45.133  24.967  24.615  1.00  0.00    -0.246 OA
BRANCH  28  30
ATOM     30  C   UNL A   1      43.254  25.404  25.982  1.00  0.00     0.060 A 
ATOM     31  C   UNL A   1      43.629  26.744  26.144  1.00  0.00     0.016 A 
ATOM     32  C   UNL A   1      42.214  24.867  26.746  1.00  0.00     0.016 A 
ATOM     33  C   UNL A   1      43.012  27.533  27.113  1.00  0.00     0.010 A 
ATOM     34  C   UNL A   1      41.597  25.659  27.721  1.00  0.00     0.010 A 
ATOM     35  C   UNL A   1      42.021  26.983  27.937  1.00  0.00    -0.014 A 
BRANCH  35  36
ATOM     36  C   UNL A   1      41.543  27.746  29.117  1.00  0.00     0.031 A 
ATOM     37  C   UNL A   1      42.294  27.630  30.416  1.00  0.00     0.074 A 
ATOM     38  C   UNL A   1      40.482  28.568  29.024  1.00  0.00     0.049 A 
ATOM     39  N   UNL A   1      42.047  28.191  31.574  1.00  0.00    -0.248 NA
ATOM     40  C   UNL A   1      43.488  26.769  30.408  1.00  0.00     0.031 C 
ATOM     41  C   UNL A   1      39.698  28.800  27.814  1.00  0.00     0.029 A 
ATOM     42  N   UNL A   1      39.883  29.358  29.973  1.00  0.00    -0.354 N 
ATOM     43  C   UNL A   1      43.050  27.753  32.427  1.00  0.00     0.074 A 
ATOM     44  C   UNL A   1      43.893  26.855  31.666  1.00  0.00     0.031 C 
ATOM     45  C   UNL A   1      38.715  29.673  28.093  1.00  0.00     0.029 A 
ATOM     46  C   UNL A   1      38.783  30.036  29.508  1.00  0.00     0.049 A 
ATOM     47  H   UNL A   1      40.210  29.431  30.898  1.00  0.00     0.167 HD
ATOM     48  C   UNL A   1      43.260  28.080  33.725  1.00  0.00     0.037 A 
ATOM     49  C   UNL A   1      37.921  30.841  30.158  1.00  0.00     0.037 A 
ATOM     50  C   UNL A   1      42.422  28.968  34.486  1.00  0.00     0.049 A 
ATOM     51  C   UNL A   1      38.130  31.122  31.625  1.00  0.00     0.074 A 
ATOM     52  C   UNL A   1      42.548  29.352  35.810  1.00  0.00     0.029 A 
ATOM     53  N   UNL A   1      41.296  29.608  33.989  1.00  0.00    -0.354 N 
ATOM     54  N   UNL A   1      39.089  30.715  32.420  1.00  0.00    -0.248 NA
ATOM     55  C   UNL A   1      37.132  31.979  32.282  1.00  0.00     0.031 C 
ATOM     56  C   UNL A   1      41.478  30.197  36.125  1.00  0.00     0.029 A 
ATOM     57  C   UNL A   1      40.711  30.372  34.985  1.00  0.00     0.049 A 
ATOM     58  H   UNL A   1      40.964  29.529  33.066  1.00  0.00     0.167 HD
ATOM     59  C   UNL A   1      38.831  31.291  33.657  1.00  0.00     0.074 A 
ATOM     60  C   UNL A   1      37.629  32.084  33.508  1.00  0.00     0.031 C 
ATOM     61  C   UNL A   1      39.528  31.174  34.814  1.00  0.00     0.037 A 
BRANCH  48  62
ATOM     62  C   UNL A   1      44.441  27.461  34.412  1.00  0.00     0.064 A 
ATOM     63  C   UNL A   1      45.689  28.100  34.441  1.00  0.00     0.173 A 
ATOM     64  C   UNL A   1      44.313  26.237  35.087  1.00  0.00     0.173 A 
ATOM     65  F   UNL A   1      45.865  29.265  33.800  1.00  0.00    -0.203 F 
ATOM     66  C   UNL A   1      46.772  27.527  35.104  1.00  0.00     0.198 A 
ATOM     67  C   UNL A   1      45.390  25.679  35.769  1.00  0.00     0.198 A 
ATOM     68  F   UNL A   1      43.139  25.587  35.092  1.00  0.00    -0.203 F 
ATOM     69  F   UNL A   1      47.964  28.137  35.088  1.00  0.00    -0.200 F 
ATOM     70  C   UNL A   1      46.619  26.322  35.773  1.00  0.00     0.200 A 
ATOM     71  F   UNL A   1      45.240  24.520  36.424  1.00  0.00    -0.200 F 
ATOM     72  F   UNL A   1      47.660  25.775  36.418  1.00  0.00    -0.200 F 
ENDBRANCH  48  62
BRANCH  49  73
ATOM     73  C   UNL A   1      36.771  31.443  29.435  1.00  0.00     0.064 A 
ATOM     74  C   UNL A   1      35.699  30.652  28.999  1.00  0.00     0.173 A 
ATOM     75  C   UNL A   1      36.738  32.812  29.133  1.00  0.00     0.173 A 
ATOM     76  F   UNL A   1      35.700  29.332  29.239  1.00  0.00    -0.203 F 
ATOM     77  C   UNL A   1      34.649  31.204  28.269  1.00  0.00     0.198 A 
ATOM     78  C   UNL A   1      35.673  33.367  28.428  1.00  0.00     0.198 A 
ATOM     79  F   UNL A   1      37.742  33.610  29.523  1.00  0.00    -0.203 F 
ATOM     80  F   UNL A   1      33.663  30.415  27.818  1.00  0.00    -0.200 F 
ATOM     81  C   UNL A   1      34.634  32.561  27.988  1.00  0.00     0.200 A 
ATOM     82  F   UNL A   1      35.659  34.681  28.164  1.00  0.00    -0.200 F 
ATOM     83  F   UNL A   1      33.625  33.090  27.283  1.00  0.00    -0.200 F 
ENDBRANCH  49  73
BRANCH  61  84
ATOM     84  C   UNL A   1      39.040  31.961  35.997  1.00  0.00     0.064 A 
ATOM     85  C   UNL A   1      39.409  33.300  36.195  1.00  0.00     0.173 A 
ATOM     86  C   UNL A   1      38.160  31.377  36.920  1.00  0.00     0.173 A 
ATOM     87  F   UNL A   1      40.259  33.898  35.348  1.00  0.00    -0.203 F 
ATOM     88  C   UNL A   1      38.932  34.018  37.288  1.00  0.00     0.198 A 
ATOM     89  C   UNL A   1      37.664  32.106  37.997  1.00  0.00     0.198 A 
ATOM     90  F   UNL A   1      37.772  30.102  36.772  1.00  0.00    -0.203 F 
ATOM     91  F   UNL A   1      39.331  35.282  37.482  1.00  0.00    -0.200 F 
ATOM     92  C   UNL A   1      38.055  33.424  38.183  1.00  0.00     0.200 A 
ATOM     93  F   UNL A   1      36.807  31.534  38.855  1.00  0.00    -0.200 F 
ATOM     94  F   UNL A   1      37.592  34.118  39.232  1.00  0.00    -0.200 F 
ENDBRANCH  61  84
ENDBRANCH  35  36
ENDBRANCH  28  30
ENDBRANCH  27  28
ENDBRANCH  26  27
ENDBRANCH  25  26
ENDBRANCH  24  25
ENDBRANCH  23  24
ENDBRANCH   1  23
TORSDOF 20
ENDMDL
