MODEL 1
REMARK VINA RESULT:     -13.0      0.000      0.000
REMARK SMILES Cc1ccccc1C(=O)Nc1ccc(OCC(=O)OCCOCCOC(=O)c2ccc(-c3c4nc(c(-c5c(F)c(F)c(F)c(F)c5F)c5ccc([nH]5)c(-c5c(F)c(F)c(F)c(F)c5F)c5nc(c(-c6c(F)c(F)c(F)c(F)c6F)c6ccc3[nH]6)C=C5)C=C4)cc2)c(-c2nc3ccccc3s2)c1
REMARK SMILES IDX 21 1 20 2 19 3 17 4 18 5 16 6 15 7 14 8 11 9 12 10 101 11
REMARK SMILES IDX 13 12 91 13 10 14 8 15 9 16 7 18 1 19 2 20 3 21 4 22 6 23
REMARK SMILES IDX 5 24 92 25 93 26 100 27 94 28 99 29 95 30 98 31 96 32 97 33
REMARK SMILES IDX 22 34 23 35 24 36 25 37 26 38 27 39 28 40 29 41 90 42 30 43
REMARK SMILES IDX 89 44 31 45 32 46 33 47 83 48 34 49 88 50 82 51 84 52 35 53
REMARK SMILES IDX 87 54 81 55 80 56 36 58 68 59 48 60 67 61 49 62 52 63 66 64
REMARK SMILES IDX 85 65 50 66 51 67 65 69 86 70 53 71 37 72 38 73 46 74 39 75
REMARK SMILES IDX 40 76 44 77 47 78 41 79 42 80 45 81 43 82 69 83 70 84 78 85
REMARK SMILES IDX 71 86 72 87 76 88 79 89 73 90 74 91 77 92 75 93 54 94 55 95
REMARK SMILES IDX 63 96 56 97 57 98 61 99 64 100 58 101 59 102 62 103 60 104
REMARK H PARENT 10 17 84 57 52 68
REMARK Flexibility Score: inf
ROOT
ATOM      1  C   UNL A   1      31.914  32.298  27.096  1.00  0.00     0.202 C 
ENDROOT
BRANCH   1   2
ATOM      2  C   UNL A   1      31.892  30.979  26.361  1.00  0.00     0.261 C 
BRANCH   2   3
ATOM      3  O   UNL A   1      32.802  29.997  26.819  1.00  0.00    -0.461 OA
BRANCH   3   4
ATOM      4  C   UNL A   1      32.413  28.817  26.229  1.00  0.00     0.344 C 
ATOM      5  O   UNL A   1      31.450  28.164  26.553  1.00  0.00    -0.248 OA
BRANCH   4   6
ATOM      6  C   UNL A   1      33.345  28.377  25.114  1.00  0.00     0.352 C 
BRANCH   6   7
ATOM      7  O   UNL A   1      33.060  28.288  23.736  1.00  0.00    -0.481 OA
BRANCH   7   8
ATOM      8  C   UNL A   1      32.814  27.092  23.121  1.00  0.00     0.130 A 
ATOM      9  C   UNL A   1      32.158  24.356  22.731  1.00  0.00     0.042 A 
ATOM     10  C   UNL A   1      33.477  24.764  22.978  1.00  0.00     0.030 A 
ATOM     11  C   UNL A   1      31.181  25.342  22.596  1.00  0.00     0.041 A 
ATOM     12  C   UNL A   1      33.812  26.116  23.149  1.00  0.00     0.049 A 
ATOM     13  C   UNL A   1      31.484  26.728  22.798  1.00  0.00     0.055 A 
BRANCH   9  14
ATOM     14  N   UNL A   1      31.899  22.968  22.796  1.00  0.00    -0.322 N 
ATOM     15  C   UNL A   1      32.358  21.922  23.577  1.00  0.00     0.255 C 
ATOM     16  O   UNL A   1      32.316  20.775  23.134  1.00  0.00    -0.269 OA
ATOM     17  H   UNL A   1      31.236  22.676  22.129  1.00  0.00     0.170 HD
BRANCH  15  18
ATOM     18  C   UNL A   1      32.729  22.104  25.002  1.00  0.00     0.043 A 
ATOM     19  C   UNL A   1      35.201  21.864  24.495  1.00  0.00     0.045 C 
ATOM     20  C   UNL A   1      34.035  21.903  25.455  1.00  0.00    -0.038 A 
ATOM     21  C   UNL A   1      34.280  21.944  26.840  1.00  0.00     0.004 A 
ATOM     22  C   UNL A   1      33.312  22.384  27.734  1.00  0.00     0.000 A 
ATOM     23  C   UNL A   1      31.825  22.734  25.870  1.00  0.00     0.014 A 
ATOM     24  C   UNL A   1      32.124  22.887  27.228  1.00  0.00     0.001 A 
ENDBRANCH  15  18
ENDBRANCH   9  14
BRANCH  13  25
ATOM     25  C   UNL A   1      30.377  27.699  22.575  1.00  0.00     0.128 A 
ATOM     26  N   UNL A   1      30.490  28.757  21.798  1.00  0.00    -0.236 NA
ATOM     27  S   UNL A   1      28.930  27.690  23.513  1.00  0.00    -0.114 S 
ATOM     28  C   UNL A   1      29.494  29.680  22.077  1.00  0.00     0.082 A 
ATOM     29  C   UNL A   1      28.570  29.292  23.044  1.00  0.00     0.055 A 
ATOM     30  C   UNL A   1      29.380  30.965  21.517  1.00  0.00     0.030 A 
ATOM     31  C   UNL A   1      27.558  30.149  23.506  1.00  0.00     0.021 A 
ATOM     32  C   UNL A   1      28.387  31.838  21.975  1.00  0.00     0.002 A 
ATOM     33  C   UNL A   1      27.495  31.436  22.965  1.00  0.00     0.002 A 
ENDBRANCH  13  25
ENDBRANCH   7   8
ENDBRANCH   6   7
ENDBRANCH   4   6
ENDBRANCH   3   4
ENDBRANCH   2   3
ENDBRANCH   1   2
BRANCH   1  34
ATOM     34  O   UNL A   1      33.162  32.357  27.754  1.00  0.00    -0.374 OA
BRANCH  34  35
ATOM     35  C   UNL A   1      33.592  33.657  28.043  1.00  0.00     0.202 C 
BRANCH  35  36
ATOM     36  C   UNL A   1      35.089  33.720  27.990  1.00  0.00     0.261 C 
BRANCH  36  37
ATOM     37  O   UNL A   1      35.923  32.883  28.862  1.00  0.00    -0.460 OA
BRANCH  37  38
ATOM     38  C   UNL A   1      35.853  31.811  29.688  1.00  0.00     0.338 C 
ATOM     39  O   UNL A   1      35.248  31.882  30.752  1.00  0.00    -0.246 OA
BRANCH  38  40
ATOM     40  C   UNL A   1      36.531  30.549  29.366  1.00  0.00     0.060 A 
ATOM     41  C   UNL A   1      36.953  29.715  30.409  1.00  0.00     0.016 A 
ATOM     42  C   UNL A   1      36.868  30.258  28.057  1.00  0.00     0.016 A 
ATOM     43  C   UNL A   1      37.974  28.791  30.180  1.00  0.00     0.010 A 
ATOM     44  C   UNL A   1      37.952  29.416  27.852  1.00  0.00     0.010 A 
ATOM     45  C   UNL A   1      38.573  28.745  28.919  1.00  0.00    -0.014 A 
BRANCH  45  46
ATOM     46  C   UNL A   1      39.930  28.211  28.706  1.00  0.00     0.031 A 
ATOM     47  C   UNL A   1      40.147  26.792  28.439  1.00  0.00     0.074 A 
ATOM     48  C   UNL A   1      41.024  29.008  28.698  1.00  0.00     0.049 A 
ATOM     49  N   UNL A   1      41.065  26.113  29.041  1.00  0.00    -0.248 NA
ATOM     50  C   UNL A   1      39.356  26.009  27.501  1.00  0.00     0.031 C 
ATOM     51  C   UNL A   1      42.381  28.762  28.225  1.00  0.00     0.029 A 
ATOM     52  N   UNL A   1      41.064  30.333  29.094  1.00  0.00    -0.354 N 
ATOM     53  C   UNL A   1      41.188  24.944  28.336  1.00  0.00     0.074 A 
ATOM     54  C   UNL A   1      39.990  24.838  27.540  1.00  0.00     0.031 C 
ATOM     55  C   UNL A   1      43.168  29.813  28.538  1.00  0.00     0.029 A 
ATOM     56  C   UNL A   1      42.368  30.789  29.268  1.00  0.00     0.049 A 
ATOM     57  H   UNL A   1      40.264  30.888  29.236  1.00  0.00     0.167 HD
ATOM     58  C   UNL A   1      42.394  24.318  28.245  1.00  0.00     0.037 A 
ATOM     59  C   UNL A   1      42.694  31.455  30.412  1.00  0.00     0.037 A 
ATOM     60  C   UNL A   1      43.470  25.177  28.763  1.00  0.00     0.049 A 
ATOM     61  C   UNL A   1      43.434  30.486  31.280  1.00  0.00     0.074 A 
ATOM     62  C   UNL A   1      44.455  25.914  28.119  1.00  0.00     0.029 A 
ATOM     63  N   UNL A   1      43.425  25.673  30.070  1.00  0.00    -0.354 N 
ATOM     64  N   UNL A   1      43.359  29.202  31.061  1.00  0.00    -0.248 NA
ATOM     65  C   UNL A   1      44.385  30.823  32.333  1.00  0.00     0.031 C 
ATOM     66  C   UNL A   1      44.997  26.847  29.041  1.00  0.00     0.029 A 
ATOM     67  C   UNL A   1      44.348  26.689  30.254  1.00  0.00     0.049 A 
ATOM     68  H   UNL A   1      42.817  25.341  30.769  1.00  0.00     0.167 HD
ATOM     69  C   UNL A   1      44.320  28.571  31.770  1.00  0.00     0.074 A 
ATOM     70  C   UNL A   1      44.888  29.606  32.619  1.00  0.00     0.031 C 
ATOM     71  C   UNL A   1      44.601  27.257  31.572  1.00  0.00     0.037 A 
BRANCH  58  72
ATOM     72  C   UNL A   1      42.589  23.120  27.338  1.00  0.00     0.064 A 
ATOM     73  C   UNL A   1      42.071  21.849  27.652  1.00  0.00     0.173 A 
ATOM     74  C   UNL A   1      43.287  23.181  26.111  1.00  0.00     0.173 A 
ATOM     75  F   UNL A   1      41.281  21.658  28.714  1.00  0.00    -0.203 F 
ATOM     76  C   UNL A   1      42.331  20.719  26.871  1.00  0.00     0.198 A 
ATOM     77  C   UNL A   1      43.606  22.042  25.366  1.00  0.00     0.198 A 
ATOM     78  F   UNL A   1      43.651  24.357  25.577  1.00  0.00    -0.203 F 
ATOM     79  F   UNL A   1      41.801  19.538  27.219  1.00  0.00    -0.200 F 
ATOM     80  C   UNL A   1      43.129  20.808  25.748  1.00  0.00     0.200 A 
ATOM     81  F   UNL A   1      44.374  22.154  24.272  1.00  0.00    -0.200 F 
ATOM     82  F   UNL A   1      43.405  19.716  25.023  1.00  0.00    -0.200 F 
ENDBRANCH  58  72
BRANCH  59  83
ATOM     83  C   UNL A   1      41.701  32.509  30.784  1.00  0.00     0.064 A 
ATOM     84  C   UNL A   1      41.758  33.710  30.042  1.00  0.00     0.173 A 
ATOM     85  C   UNL A   1      40.497  32.246  31.455  1.00  0.00     0.173 A 
ATOM     86  F   UNL A   1      42.866  34.008  29.343  1.00  0.00    -0.203 F 
ATOM     87  C   UNL A   1      40.635  34.522  29.855  1.00  0.00     0.198 A 
ATOM     88  C   UNL A   1      39.375  33.073  31.279  1.00  0.00     0.198 A 
ATOM     89  F   UNL A   1      40.354  31.122  32.169  1.00  0.00    -0.203 F 
ATOM     90  F   UNL A   1      40.680  35.529  28.970  1.00  0.00    -0.200 F 
ATOM     91  C   UNL A   1      39.432  34.183  30.447  1.00  0.00     0.200 A 
ATOM     92  F   UNL A   1      38.198  32.730  31.822  1.00  0.00    -0.200 F 
ATOM     93  F   UNL A   1      38.317  34.856  30.128  1.00  0.00    -0.200 F 
ENDBRANCH  59  83
BRANCH  71  94
ATOM     94  C   UNL A   1      45.235  26.407  32.614  1.00  0.00     0.064 A 
ATOM     95  C   UNL A   1      44.473  25.737  33.585  1.00  0.00     0.173 A 
ATOM     96  C   UNL A   1      46.595  26.052  32.516  1.00  0.00     0.173 A 
ATOM     97  F   UNL A   1      43.151  25.928  33.693  1.00  0.00    -0.203 F 
ATOM     98  C   UNL A   1      45.049  24.797  34.431  1.00  0.00     0.198 A 
ATOM     99  C   UNL A   1      47.148  25.064  33.317  1.00  0.00     0.198 A 
ATOM    100  F   UNL A   1      47.408  26.618  31.611  1.00  0.00    -0.203 F 
ATOM    101  F   UNL A   1      44.294  24.202  35.364  1.00  0.00    -0.200 F 
ATOM    102  C   UNL A   1      46.378  24.447  34.283  1.00  0.00     0.200 A 
ATOM    103  F   UNL A   1      48.420  24.691  33.124  1.00  0.00    -0.200 F 
ATOM    104  F   UNL A   1      46.913  23.498  35.059  1.00  0.00    -0.200 F 
ENDBRANCH  71  94
ENDBRANCH  45  46
ENDBRANCH  38  40
ENDBRANCH  37  38
ENDBRANCH  36  37
ENDBRANCH  35  36
ENDBRANCH  34  35
ENDBRANCH   1  34
TORSDOF 19
ENDMDL
MODEL 2
REMARK VINA RESULT:     -13.0      3.154      9.774
REMARK SMILES Cc1ccccc1C(=O)Nc1ccc(OCC(=O)OCCOCCOC(=O)c2ccc(-c3c4nc(c(-c5c(F)c(F)c(F)c(F)c5F)c5ccc([nH]5)c(-c5c(F)c(F)c(F)c(F)c5F)c5nc(c(-c6c(F)c(F)c(F)c(F)c6F)c6ccc3[nH]6)C=C5)C=C4)cc2)c(-c2nc3ccccc3s2)c1
REMARK SMILES IDX 21 1 20 2 19 3 17 4 18 5 16 6 15 7 14 8 11 9 12 10 101 11
REMARK SMILES IDX 13 12 91 13 10 14 8 15 9 16 7 18 1 19 2 20 3 21 4 22 6 23
REMARK SMILES IDX 5 24 92 25 93 26 100 27 94 28 99 29 95 30 98 31 96 32 97 33
REMARK SMILES IDX 22 34 23 35 24 36 25 37 26 38 27 39 28 40 29 41 90 42 30 43
REMARK SMILES IDX 89 44 31 45 32 46 33 47 83 48 34 49 88 50 82 51 84 52 35 53
REMARK SMILES IDX 87 54 81 55 80 56 36 58 68 59 48 60 67 61 49 62 52 63 66 64
REMARK SMILES IDX 85 65 50 66 51 67 65 69 86 70 53 71 37 72 38 73 46 74 39 75
REMARK SMILES IDX 40 76 44 77 47 78 41 79 42 80 45 81 43 82 69 83 70 84 78 85
REMARK SMILES IDX 71 86 72 87 76 88 79 89 73 90 74 91 77 92 75 93 54 94 55 95
REMARK SMILES IDX 63 96 56 97 57 98 61 99 64 100 58 101 59 102 62 103 60 104
REMARK H PARENT 10 17 84 57 52 68
REMARK Flexibility Score: inf
ROOT
ATOM      1  C   UNL A   1      38.030  19.738  24.871  1.00  0.00     0.202 C 
ENDROOT
BRANCH   1   2
ATOM      2  C   UNL A   1      37.323  21.060  25.050  1.00  0.00     0.261 C 
BRANCH   2   3
ATOM      3  O   UNL A   1      36.163  21.256  24.264  1.00  0.00    -0.461 OA
BRANCH   3   4
ATOM      4  C   UNL A   1      35.618  22.446  24.686  1.00  0.00     0.344 C 
ATOM      5  O   UNL A   1      35.459  23.421  23.992  1.00  0.00    -0.248 OA
BRANCH   4   6
ATOM      6  C   UNL A   1      35.245  22.437  26.159  1.00  0.00     0.352 C 
BRANCH   6   7
ATOM      7  O   UNL A   1      34.043  21.985  26.740  1.00  0.00    -0.481 OA
BRANCH   7   8
ATOM      8  C   UNL A   1      32.829  22.517  26.403  1.00  0.00     0.130 A 
ATOM      9  C   UNL A   1      30.844  24.058  25.079  1.00  0.00     0.042 A 
ATOM     10  C   UNL A   1      31.560  24.571  26.171  1.00  0.00     0.030 A 
ATOM     11  C   UNL A   1      31.072  22.733  24.709  1.00  0.00     0.041 A 
ATOM     12  C   UNL A   1      32.525  23.807  26.845  1.00  0.00     0.049 A 
ATOM     13  C   UNL A   1      32.075  21.938  25.355  1.00  0.00     0.055 A 
BRANCH   9  14
ATOM     14  N   UNL A   1      30.064  24.978  24.341  1.00  0.00    -0.322 N 
ATOM     15  C   UNL A   1      30.118  26.341  24.109  1.00  0.00     0.255 C 
ATOM     16  O   UNL A   1      29.085  26.944  23.818  1.00  0.00    -0.269 OA
ATOM     17  H   UNL A   1      29.304  24.548  23.887  1.00  0.00     0.170 HD
BRANCH  15  18
ATOM     18  C   UNL A   1      31.403  27.076  24.014  1.00  0.00     0.043 A 
ATOM     19  C   UNL A   1      31.905  26.107  21.725  1.00  0.00     0.045 C 
ATOM     20  C   UNL A   1      32.317  26.833  22.985  1.00  0.00    -0.038 A 
ATOM     21  C   UNL A   1      33.578  27.455  23.045  1.00  0.00     0.004 A 
ATOM     22  C   UNL A   1      33.849  28.452  23.972  1.00  0.00     0.000 A 
ATOM     23  C   UNL A   1      31.603  28.211  24.812  1.00  0.00     0.014 A 
ATOM     24  C   UNL A   1      32.817  28.906  24.778  1.00  0.00     0.001 A 
ENDBRANCH  15  18
ENDBRANCH   9  14
BRANCH  13  25
ATOM     25  C   UNL A   1      32.195  20.520  24.916  1.00  0.00     0.128 A 
ATOM     26  N   UNL A   1      32.218  19.504  25.756  1.00  0.00    -0.236 NA
ATOM     27  S   UNL A   1      32.584  20.077  23.296  1.00  0.00    -0.114 S 
ATOM     28  C   UNL A   1      32.731  18.371  25.141  1.00  0.00     0.082 A 
ATOM     29  C   UNL A   1      33.049  18.512  23.793  1.00  0.00     0.055 A 
ATOM     30  C   UNL A   1      33.001  17.143  25.771  1.00  0.00     0.030 A 
ATOM     31  C   UNL A   1      33.664  17.489  23.053  1.00  0.00     0.021 A 
ATOM     32  C   UNL A   1      33.626  16.117  25.054  1.00  0.00     0.002 A 
ATOM     33  C   UNL A   1      33.962  16.294  23.715  1.00  0.00     0.002 A 
ENDBRANCH  13  25
ENDBRANCH   7   8
ENDBRANCH   6   7
ENDBRANCH   4   6
ENDBRANCH   3   4
ENDBRANCH   2   3
ENDBRANCH   1   2
BRANCH   1  34
ATOM     34  O   UNL A   1      39.245  19.846  25.582  1.00  0.00    -0.374 OA
BRANCH  34  35
ATOM     35  C   UNL A   1      39.477  21.114  26.125  1.00  0.00     0.202 C 
BRANCH  35  36
ATOM     36  C   UNL A   1      40.947  21.411  26.114  1.00  0.00     0.261 C 
BRANCH  36  37
ATOM     37  O   UNL A   1      41.471  22.704  26.571  1.00  0.00    -0.460 OA
BRANCH  37  38
ATOM     38  C   UNL A   1      41.759  23.951  26.125  1.00  0.00     0.338 C 
ATOM     39  O   UNL A   1      42.756  24.152  25.441  1.00  0.00    -0.246 OA
BRANCH  38  40
ATOM     40  C   UNL A   1      40.923  25.105  26.479  1.00  0.00     0.060 A 
ATOM     41  C   UNL A   1      41.306  26.382  26.051  1.00  0.00     0.016 A 
ATOM     42  C   UNL A   1      39.851  24.946  27.338  1.00  0.00     0.016 A 
ATOM     43  C   UNL A   1      40.834  27.506  26.732  1.00  0.00     0.010 A 
ATOM     44  C   UNL A   1      39.464  26.052  28.081  1.00  0.00     0.010 A 
ATOM     45  C   UNL A   1      40.015  27.323  27.848  1.00  0.00    -0.014 A 
BRANCH  45  46
ATOM     46  C   UNL A   1      39.879  28.342  28.905  1.00  0.00     0.031 A 
ATOM     47  C   UNL A   1      38.902  29.420  28.791  1.00  0.00     0.074 A 
ATOM     48  C   UNL A   1      40.610  28.299  30.044  1.00  0.00     0.049 A 
ATOM     49  N   UNL A   1      39.202  30.649  29.046  1.00  0.00    -0.248 NA
ATOM     50  C   UNL A   1      37.522  29.228  28.367  1.00  0.00     0.031 C 
ATOM     51  C   UNL A   1      40.441  28.995  31.314  1.00  0.00     0.029 A 
ATOM     52  N   UNL A   1      41.697  27.475  30.279  1.00  0.00    -0.354 N 
ATOM     53  C   UNL A   1      38.008  31.314  29.142  1.00  0.00     0.074 A 
ATOM     54  C   UNL A   1      37.030  30.457  28.519  1.00  0.00     0.031 C 
ATOM     55  C   UNL A   1      41.491  28.731  32.119  1.00  0.00     0.029 A 
ATOM     56  C   UNL A   1      42.423  27.873  31.398  1.00  0.00     0.049 A 
ATOM     57  H   UNL A   1      41.929  26.700  29.719  1.00  0.00     0.167 HD
ATOM     58  C   UNL A   1      37.875  32.373  29.988  1.00  0.00     0.037 A 
ATOM     59  C   UNL A   1      43.777  27.997  31.304  1.00  0.00     0.037 A 
ATOM     60  C   UNL A   1      39.045  32.485  30.874  1.00  0.00     0.049 A 
ATOM     61  C   UNL A   1      44.071  29.460  31.197  1.00  0.00     0.074 A 
ATOM     62  C   UNL A   1      39.222  32.177  32.215  1.00  0.00     0.029 A 
ATOM     63  N   UNL A   1      40.334  32.612  30.345  1.00  0.00    -0.354 N 
ATOM     64  N   UNL A   1      43.136  30.305  30.859  1.00  0.00    -0.248 NA
ATOM     65  C   UNL A   1      45.320  30.118  31.562  1.00  0.00     0.031 C 
ATOM     66  C   UNL A   1      40.614  32.121  32.487  1.00  0.00     0.029 A 
ATOM     67  C   UNL A   1      41.298  32.393  31.314  1.00  0.00     0.049 A 
ATOM     68  H   UNL A   1      40.530  32.831  29.405  1.00  0.00     0.167 HD
ATOM     69  C   UNL A   1      43.559  31.563  31.111  1.00  0.00     0.074 A 
ATOM     70  C   UNL A   1      44.960  31.414  31.471  1.00  0.00     0.031 C 
ATOM     71  C   UNL A   1      42.712  32.623  31.047  1.00  0.00     0.037 A 
BRANCH  58  72
ATOM     72  C   UNL A   1      36.525  33.016  30.235  1.00  0.00     0.064 A 
ATOM     73  C   UNL A   1      35.895  33.828  29.273  1.00  0.00     0.173 A 
ATOM     74  C   UNL A   1      35.790  32.845  31.429  1.00  0.00     0.173 A 
ATOM     75  F   UNL A   1      36.404  33.983  28.045  1.00  0.00    -0.203 F 
ATOM     76  C   UNL A   1      34.698  34.504  29.529  1.00  0.00     0.198 A 
ATOM     77  C   UNL A   1      34.631  33.573  31.714  1.00  0.00     0.198 A 
ATOM     78  F   UNL A   1      36.156  31.936  32.345  1.00  0.00    -0.203 F 
ATOM     79  F   UNL A   1      34.144  35.256  28.569  1.00  0.00    -0.200 F 
ATOM     80  C   UNL A   1      34.086  34.406  30.762  1.00  0.00     0.200 A 
ATOM     81  F   UNL A   1      34.046  33.453  32.915  1.00  0.00    -0.200 F 
ATOM     82  F   UNL A   1      32.958  35.084  31.017  1.00  0.00    -0.200 F 
ENDBRANCH  58  72
BRANCH  59  83
ATOM     83  C   UNL A   1      44.430  26.836  30.623  1.00  0.00     0.064 A 
ATOM     84  C   UNL A   1      44.433  25.615  31.335  1.00  0.00     0.173 A 
ATOM     85  C   UNL A   1      44.618  26.751  29.236  1.00  0.00     0.173 A 
ATOM     86  F   UNL A   1      44.220  25.619  32.661  1.00  0.00    -0.203 F 
ATOM     87  C   UNL A   1      44.468  24.378  30.686  1.00  0.00     0.198 A 
ATOM     88  C   UNL A   1      44.671  25.504  28.588  1.00  0.00     0.198 A 
ATOM     89  F   UNL A   1      44.615  27.860  28.484  1.00  0.00    -0.203 F 
ATOM     90  F   UNL A   1      44.251  23.252  31.384  1.00  0.00    -0.200 F 
ATOM     91  C   UNL A   1      44.552  24.323  29.307  1.00  0.00     0.200 A 
ATOM     92  F   UNL A   1      44.717  25.447  27.249  1.00  0.00    -0.200 F 
ATOM     93  F   UNL A   1      44.408  23.150  28.674  1.00  0.00    -0.200 F 
ENDBRANCH  59  83
BRANCH  71  94
ATOM     94  C   UNL A   1      43.183  34.012  30.803  1.00  0.00     0.064 A 
ATOM     95  C   UNL A   1      43.241  34.556  29.510  1.00  0.00     0.173 A 
ATOM     96  C   UNL A   1      43.357  34.906  31.878  1.00  0.00     0.173 A 
ATOM     97  F   UNL A   1      42.990  33.811  28.424  1.00  0.00    -0.203 F 
ATOM     98  C   UNL A   1      43.496  35.906  29.306  1.00  0.00     0.198 A 
ATOM     99  C   UNL A   1      43.543  36.265  31.670  1.00  0.00     0.198 A 
ATOM    100  F   UNL A   1      43.302  34.495  33.153  1.00  0.00    -0.203 F 
ATOM    101  F   UNL A   1      43.574  36.381  28.056  1.00  0.00    -0.200 F 
ATOM    102  C   UNL A   1      43.626  36.762  30.385  1.00  0.00     0.200 A 
ATOM    103  F   UNL A   1      43.606  37.092  32.722  1.00  0.00    -0.200 F 
ATOM    104  F   UNL A   1      43.810  38.072  30.184  1.00  0.00    -0.200 F 
ENDBRANCH  71  94
ENDBRANCH  45  46
ENDBRANCH  38  40
ENDBRANCH  37  38
ENDBRANCH  36  37
ENDBRANCH  35  36
ENDBRANCH  34  35
ENDBRANCH   1  34
TORSDOF 19
ENDMDL
MODEL 3
REMARK VINA RESULT:     -12.9      1.203      1.825
REMARK SMILES Cc1ccccc1C(=O)Nc1ccc(OCC(=O)OCCOCCOC(=O)c2ccc(-c3c4nc(c(-c5c(F)c(F)c(F)c(F)c5F)c5ccc([nH]5)c(-c5c(F)c(F)c(F)c(F)c5F)c5nc(c(-c6c(F)c(F)c(F)c(F)c6F)c6ccc3[nH]6)C=C5)C=C4)cc2)c(-c2nc3ccccc3s2)c1
REMARK SMILES IDX 21 1 20 2 19 3 17 4 18 5 16 6 15 7 14 8 11 9 12 10 101 11
REMARK SMILES IDX 13 12 91 13 10 14 8 15 9 16 7 18 1 19 2 20 3 21 4 22 6 23
REMARK SMILES IDX 5 24 92 25 93 26 100 27 94 28 99 29 95 30 98 31 96 32 97 33
REMARK SMILES IDX 22 34 23 35 24 36 25 37 26 38 27 39 28 40 29 41 90 42 30 43
REMARK SMILES IDX 89 44 31 45 32 46 33 47 83 48 34 49 88 50 82 51 84 52 35 53
REMARK SMILES IDX 87 54 81 55 80 56 36 58 68 59 48 60 67 61 49 62 52 63 66 64
REMARK SMILES IDX 85 65 50 66 51 67 65 69 86 70 53 71 37 72 38 73 46 74 39 75
REMARK SMILES IDX 40 76 44 77 47 78 41 79 42 80 45 81 43 82 69 83 70 84 78 85
REMARK SMILES IDX 71 86 72 87 76 88 79 89 73 90 74 91 77 92 75 93 54 94 55 95
REMARK SMILES IDX 63 96 56 97 57 98 61 99 64 100 58 101 59 102 62 103 60 104
REMARK H PARENT 10 17 84 57 52 68
REMARK Flexibility Score: inf
ROOT
ATOM      1  C   UNL A   1      34.118  31.708  27.684  1.00  0.00     0.202 C 
ENDROOT
BRANCH   1   2
ATOM      2  C   UNL A   1      32.877  30.963  27.252  1.00  0.00     0.261 C 
BRANCH   2   3
ATOM      3  O   UNL A   1      33.070  29.628  26.826  1.00  0.00    -0.461 OA
BRANCH   3   4
ATOM      4  C   UNL A   1      32.478  29.537  25.588  1.00  0.00     0.344 C 
ATOM      5  O   UNL A   1      31.387  29.973  25.307  1.00  0.00    -0.248 OA
BRANCH   4   6
ATOM      6  C   UNL A   1      33.332  28.793  24.576  1.00  0.00     0.352 C 
BRANCH   6   7
ATOM      7  O   UNL A   1      33.118  28.677  23.187  1.00  0.00    -0.481 OA
BRANCH   7   8
ATOM      8  C   UNL A   1      32.808  27.484  22.597  1.00  0.00     0.130 A 
ATOM      9  C   UNL A   1      32.125  24.746  22.267  1.00  0.00     0.042 A 
ATOM     10  C   UNL A   1      33.462  25.160  22.361  1.00  0.00     0.030 A 
ATOM     11  C   UNL A   1      31.134  25.728  22.254  1.00  0.00     0.041 A 
ATOM     12  C   UNL A   1      33.808  26.513  22.501  1.00  0.00     0.049 A 
ATOM     13  C   UNL A   1      31.452  27.114  22.429  1.00  0.00     0.055 A 
BRANCH   9  14
ATOM     14  N   UNL A   1      31.881  23.356  22.353  1.00  0.00    -0.322 N 
ATOM     15  C   UNL A   1      32.233  22.354  23.239  1.00  0.00     0.255 C 
ATOM     16  O   UNL A   1      32.278  21.189  22.845  1.00  0.00    -0.269 OA
ATOM     17  H   UNL A   1      31.333  23.023  21.606  1.00  0.00     0.170 HD
BRANCH  15  18
ATOM     18  C   UNL A   1      32.380  22.602  24.694  1.00  0.00     0.043 A 
ATOM     19  C   UNL A   1      34.903  22.780  24.514  1.00  0.00     0.045 C 
ATOM     20  C   UNL A   1      33.631  22.626  25.316  1.00  0.00    -0.038 A 
ATOM     21  C   UNL A   1      33.684  22.714  26.719  1.00  0.00     0.004 A 
ATOM     22  C   UNL A   1      32.548  22.988  27.470  1.00  0.00     0.000 A 
ATOM     23  C   UNL A   1      31.278  23.074  25.423  1.00  0.00     0.014 A 
ATOM     24  C   UNL A   1      31.368  23.282  26.804  1.00  0.00     0.001 A 
ENDBRANCH  15  18
ENDBRANCH   9  14
BRANCH  13  25
ATOM     25  C   UNL A   1      30.322  28.080  22.343  1.00  0.00     0.128 A 
ATOM     26  N   UNL A   1      30.357  29.168  21.600  1.00  0.00    -0.236 NA
ATOM     27  S   UNL A   1      28.964  28.020  23.405  1.00  0.00    -0.114 S 
ATOM     28  C   UNL A   1      29.382  30.069  22.002  1.00  0.00     0.082 A 
ATOM     29  C   UNL A   1      28.552  29.634  23.032  1.00  0.00     0.055 A 
ATOM     30  C   UNL A   1      29.209  31.373  21.504  1.00  0.00     0.030 A 
ATOM     31  C   UNL A   1      27.578  30.461  23.615  1.00  0.00     0.021 A 
ATOM     32  C   UNL A   1      28.254  32.216  22.083  1.00  0.00     0.002 A 
ATOM     33  C   UNL A   1      27.457  31.767  23.132  1.00  0.00     0.002 A 
ENDBRANCH  13  25
ENDBRANCH   7   8
ENDBRANCH   6   7
ENDBRANCH   4   6
ENDBRANCH   3   4
ENDBRANCH   2   3
ENDBRANCH   1   2
BRANCH   1  34
ATOM     34  O   UNL A   1      33.665  32.857  28.368  1.00  0.00    -0.374 OA
BRANCH  34  35
ATOM     35  C   UNL A   1      34.586  33.373  29.287  1.00  0.00     0.202 C 
BRANCH  35  36
ATOM     36  C   UNL A   1      34.963  32.313  30.278  1.00  0.00     0.261 C 
BRANCH  36  37
ATOM     37  O   UNL A   1      36.051  31.365  30.010  1.00  0.00    -0.460 OA
BRANCH  37  38
ATOM     38  C   UNL A   1      37.240  31.267  29.367  1.00  0.00     0.338 C 
ATOM     39  O   UNL A   1      37.857  32.276  29.042  1.00  0.00    -0.246 OA
BRANCH  38  40
ATOM     40  C   UNL A   1      37.808  29.965  28.999  1.00  0.00     0.060 A 
ATOM     41  C   UNL A   1      37.979  28.990  29.989  1.00  0.00     0.016 A 
ATOM     42  C   UNL A   1      38.293  29.757  27.720  1.00  0.00     0.016 A 
ATOM     43  C   UNL A   1      38.910  27.967  29.794  1.00  0.00     0.010 A 
ATOM     44  C   UNL A   1      39.292  28.806  27.567  1.00  0.00     0.010 A 
ATOM     45  C   UNL A   1      39.673  27.964  28.625  1.00  0.00    -0.014 A 
BRANCH  45  46
ATOM     46  C   UNL A   1      40.977  27.282  28.532  1.00  0.00     0.031 A 
ATOM     47  C   UNL A   1      41.066  25.878  28.142  1.00  0.00     0.074 A 
ATOM     48  C   UNL A   1      42.145  27.930  28.753  1.00  0.00     0.049 A 
ATOM     49  N   UNL A   1      41.805  25.034  28.780  1.00  0.00    -0.248 NA
ATOM     50  C   UNL A   1      40.332  25.292  27.030  1.00  0.00     0.031 C 
ATOM     51  C   UNL A   1      43.518  27.556  28.437  1.00  0.00     0.029 A 
ATOM     52  N   UNL A   1      42.280  29.197  29.293  1.00  0.00    -0.354 N 
ATOM     53  C   UNL A   1      41.893  23.929  27.975  1.00  0.00     0.074 A 
ATOM     54  C   UNL A   1      40.817  24.051  27.023  1.00  0.00     0.031 C 
ATOM     55  C   UNL A   1      44.368  28.465  28.961  1.00  0.00     0.029 A 
ATOM     56  C   UNL A   1      43.589  29.463  29.683  1.00  0.00     0.049 A 
ATOM     57  H   UNL A   1      41.536  29.834  29.390  1.00  0.00     0.167 HD
ATOM     58  C   UNL A   1      43.020  23.165  27.973  1.00  0.00     0.037 A 
ATOM     59  C   UNL A   1      43.823  29.973  30.925  1.00  0.00     0.037 A 
ATOM     60  C   UNL A   1      44.103  23.828  28.716  1.00  0.00     0.049 A 
ATOM     61  C   UNL A   1      44.317  28.842  31.771  1.00  0.00     0.074 A 
ATOM     62  C   UNL A   1      45.247  24.488  28.290  1.00  0.00     0.029 A 
ATOM     63  N   UNL A   1      43.930  24.202  30.053  1.00  0.00    -0.354 N 
ATOM     64  N   UNL A   1      44.127  27.604  31.406  1.00  0.00    -0.248 NA
ATOM     65  C   UNL A   1      45.141  28.955  32.969  1.00  0.00     0.031 C 
ATOM     66  C   UNL A   1      45.756  25.255  29.371  1.00  0.00     0.029 A 
ATOM     67  C   UNL A   1      44.927  25.070  30.465  1.00  0.00     0.049 A 
ATOM     68  H   UNL A   1      43.195  23.888  30.627  1.00  0.00     0.167 HD
ATOM     69  C   UNL A   1      44.899  26.792  32.161  1.00  0.00     0.074 A 
ATOM     70  C   UNL A   1      45.456  27.662  33.183  1.00  0.00     0.031 C 
ATOM     71  C   UNL A   1      45.054  25.477  31.858  1.00  0.00     0.037 A 
BRANCH  58  72
ATOM     72  C   UNL A   1      43.204  22.040  26.973  1.00  0.00     0.064 A 
ATOM     73  C   UNL A   1      42.481  20.836  27.059  1.00  0.00     0.173 A 
ATOM     74  C   UNL A   1      44.095  22.112  25.879  1.00  0.00     0.173 A 
ATOM     75  F   UNL A   1      41.510  20.664  27.963  1.00  0.00    -0.203 F 
ATOM     76  C   UNL A   1      42.716  19.757  26.202  1.00  0.00     0.198 A 
ATOM     77  C   UNL A   1      44.381  21.013  25.064  1.00  0.00     0.198 A 
ATOM     78  F   UNL A   1      44.690  23.267  25.543  1.00  0.00    -0.203 F 
ATOM     79  F   UNL A   1      41.989  18.639  26.329  1.00  0.00    -0.200 F 
ATOM     80  C   UNL A   1      43.692  19.832  25.228  1.00  0.00     0.200 A 
ATOM     81  F   UNL A   1      45.325  21.113  24.117  1.00  0.00    -0.200 F 
ATOM     82  F   UNL A   1      43.939  18.784  24.431  1.00  0.00    -0.200 F 
ENDBRANCH  58  72
BRANCH  59  83
ATOM     83  C   UNL A   1      42.915  31.108  31.279  1.00  0.00     0.064 A 
ATOM     84  C   UNL A   1      43.222  32.358  30.696  1.00  0.00     0.173 A 
ATOM     85  C   UNL A   1      41.601  30.940  31.743  1.00  0.00     0.173 A 
ATOM     86  F   UNL A   1      44.449  32.575  30.195  1.00  0.00    -0.203 F 
ATOM     87  C   UNL A   1      42.241  33.324  30.453  1.00  0.00     0.198 A 
ATOM     88  C   UNL A   1      40.622  31.921  31.512  1.00  0.00     0.198 A 
ATOM     89  F   UNL A   1      41.223  29.780  32.295  1.00  0.00    -0.203 F 
ATOM     90  F   UNL A   1      42.535  34.400  29.706  1.00  0.00    -0.200 F 
ATOM     91  C   UNL A   1      40.932  33.090  30.831  1.00  0.00     0.200 A 
ATOM     92  F   UNL A   1      39.345  31.683  31.845  1.00  0.00    -0.200 F 
ATOM     93  F   UNL A   1      39.963  33.932  30.443  1.00  0.00    -0.200 F 
ENDBRANCH  59  83
BRANCH  71  94
ATOM     94  C   UNL A   1      45.432  24.460  32.875  1.00  0.00     0.064 A 
ATOM     95  C   UNL A   1      46.718  24.419  33.438  1.00  0.00     0.173 A 
ATOM     96  C   UNL A   1      44.445  23.658  33.482  1.00  0.00     0.173 A 
ATOM     97  F   UNL A   1      47.701  25.218  32.999  1.00  0.00    -0.203 F 
ATOM     98  C   UNL A   1      47.006  23.596  34.519  1.00  0.00     0.198 A 
ATOM     99  C   UNL A   1      44.722  22.891  34.604  1.00  0.00     0.198 A 
ATOM    100  F   UNL A   1      43.181  23.635  33.036  1.00  0.00    -0.203 F 
ATOM    101  F   UNL A   1      48.252  23.563  35.008  1.00  0.00    -0.200 F 
ATOM    102  C   UNL A   1      46.005  22.849  35.114  1.00  0.00     0.200 A 
ATOM    103  F   UNL A   1      43.732  22.219  35.207  1.00  0.00    -0.200 F 
ATOM    104  F   UNL A   1      46.274  22.105  36.192  1.00  0.00    -0.200 F 
ENDBRANCH  71  94
ENDBRANCH  45  46
ENDBRANCH  38  40
ENDBRANCH  37  38
ENDBRANCH  36  37
ENDBRANCH  35  36
ENDBRANCH  34  35
ENDBRANCH   1  34
TORSDOF 19
ENDMDL
