MODEL 1
REMARK VINA RESULT:     -12.5      0.000      0.000
REMARK SMILES CC(=O)Nc1ccc(/C(=C\c2ccc(S(C)(=O)=O)cc2)C(=O)OCCOCCOC(=O)c2ccc(-c3c4nc(c(-c5c(F)c(F)c(F)c(F)c5F)c5ccc([nH]5)c(-c5c(F)c(F)c(F)c(F)c5F)c5nc(c(-c6c(F)c(F)c(F)c(F)c6F)c6ccc3[nH]6)C=C5)C=C4)cc2)cc1
REMARK SMILES IDX 26 1 25 2 24 3 23 4 21 5 22 6 9 7 10 8 8 9 5 10 6 11 96 12
REMARK SMILES IDX 7 13 95 14 4 15 1 16 2 17 3 18 11 20 12 21 20 22 13 23 19 24
REMARK SMILES IDX 14 25 15 26 16 27 17 28 18 29 27 30 28 31 29 32 30 33 31 34
REMARK SMILES IDX 32 35 33 36 94 37 34 38 93 39 35 40 36 41 37 42 87 43 38 44
REMARK SMILES IDX 92 45 86 46 88 47 39 48 91 49 85 50 84 51 40 53 72 54 52 55
REMARK SMILES IDX 71 56 53 57 56 58 70 59 89 60 54 61 55 62 69 64 90 65 57 66
REMARK SMILES IDX 41 67 42 68 50 69 43 70 44 71 48 72 51 73 45 74 46 75 49 76
REMARK SMILES IDX 47 77 73 78 74 79 82 80 75 81 76 82 80 83 83 84 77 85 78 86
REMARK SMILES IDX 81 87 79 88 58 89 59 90 67 91 60 92 61 93 65 94 68 95 62 96
REMARK SMILES IDX 63 97 66 98 64 99
REMARK H PARENT 4 19 88 52 56 63
REMARK Flexibility Score: inf
ROOT
ATOM      1  O   UNL A   1      31.295  28.320  24.807  1.00  0.00    -0.374 OA
ENDROOT
BRANCH   1   2
ATOM      2  C   UNL A   1      32.344  27.906  23.932  1.00  0.00     0.202 C 
BRANCH   2   3
ATOM      3  C   UNL A   1      31.905  27.143  22.679  1.00  0.00     0.261 C 
BRANCH   3   4
ATOM      4  O   UNL A   1      31.982  25.726  22.898  1.00  0.00    -0.460 OA
BRANCH   4   5
ATOM      5  C   UNL A   1      33.148  25.144  22.513  1.00  0.00     0.338 C 
ATOM      6  O   UNL A   1      34.017  25.670  21.834  1.00  0.00    -0.246 OA
BRANCH   5   7
ATOM      7  C   UNL A   1      33.314  23.799  23.158  1.00  0.00     0.067 C 
ATOM      8  C   UNL A   1      32.264  22.950  23.049  1.00  0.00     0.024 C 
BRANCH   7   9
ATOM      9  C   UNL A   1      34.601  23.531  23.863  1.00  0.00    -0.011 A 
ATOM     10  C   UNL A   1      36.881  22.830  25.416  1.00  0.00     0.041 A 
ATOM     11  C   UNL A   1      36.800  22.495  24.061  1.00  0.00     0.027 A 
ATOM     12  C   UNL A   1      35.870  23.612  25.959  1.00  0.00     0.027 A 
ATOM     13  C   UNL A   1      35.683  22.855  23.292  1.00  0.00     0.011 A 
ATOM     14  C   UNL A   1      34.747  23.954  25.194  1.00  0.00     0.011 A 
BRANCH  10  15
ATOM     15  N   UNL A   1      38.008  22.382  26.121  1.00  0.00    -0.326 N 
ATOM     16  C   UNL A   1      39.211  24.522  26.603  1.00  0.00     0.114 C 
ATOM     17  C   UNL A   1      39.117  23.022  26.598  1.00  0.00     0.221 C 
ATOM     18  O   UNL A   1      40.028  22.341  27.076  1.00  0.00    -0.275 OA
ATOM     19  H   UNL A   1      37.999  21.415  26.308  1.00  0.00     0.169 HD
ENDBRANCH  10  15
ENDBRANCH   7   9
BRANCH   8  20
ATOM     20  C   UNL A   1      32.245  21.528  23.427  1.00  0.00    -0.025 A 
ATOM     21  C   UNL A   1      32.151  20.606  22.374  1.00  0.00     0.009 A 
ATOM     22  C   UNL A   1      32.473  21.070  24.730  1.00  0.00     0.009 A 
ATOM     23  C   UNL A   1      32.421  19.257  22.593  1.00  0.00     0.021 A 
ATOM     24  C   UNL A   1      32.752  19.716  24.955  1.00  0.00     0.021 A 
ATOM     25  C   UNL A   1      32.761  18.826  23.876  1.00  0.00     0.067 A 
BRANCH  25  26
ATOM     26  S   UNL A   1      33.408  17.181  24.072  1.00  0.00     0.175 S 
ATOM     27  C   UNL A   1      35.031  17.421  24.735  1.00  0.00     0.163 C 
ATOM     28  O   UNL A   1      32.596  16.534  25.085  1.00  0.00    -0.224 OA
ATOM     29  O   UNL A   1      33.542  16.601  22.749  1.00  0.00    -0.224 OA
ENDBRANCH  25  26
ENDBRANCH   8  20
ENDBRANCH   5   7
ENDBRANCH   4   5
ENDBRANCH   3   4
ENDBRANCH   2   3
ENDBRANCH   1   2
BRANCH   1  30
ATOM     30  C   UNL A   1      31.672  28.779  26.106  1.00  0.00     0.202 C 
BRANCH  30  31
ATOM     31  C   UNL A   1      31.956  30.278  26.254  1.00  0.00     0.261 C 
BRANCH  31  32
ATOM     32  O   UNL A   1      33.363  30.552  26.350  1.00  0.00    -0.460 OA
BRANCH  32  33
ATOM     33  C   UNL A   1      33.700  31.505  27.248  1.00  0.00     0.338 C 
ATOM     34  O   UNL A   1      33.011  32.438  27.640  1.00  0.00    -0.246 OA
BRANCH  33  35
ATOM     35  C   UNL A   1      34.997  31.166  27.860  1.00  0.00     0.060 A 
ATOM     36  C   UNL A   1      35.186  29.851  28.302  1.00  0.00     0.016 A 
ATOM     37  C   UNL A   1      35.994  32.127  28.036  1.00  0.00     0.016 A 
ATOM     38  C   UNL A   1      36.369  29.496  28.947  1.00  0.00     0.010 A 
ATOM     39  C   UNL A   1      37.174  31.772  28.693  1.00  0.00     0.010 A 
ATOM     40  C   UNL A   1      37.360  30.461  29.170  1.00  0.00    -0.014 A 
BRANCH  40  41
ATOM     41  C   UNL A   1      38.551  30.134  29.988  1.00  0.00     0.031 A 
ATOM     42  C   UNL A   1      39.582  29.192  29.434  1.00  0.00     0.074 A 
ATOM     43  C   UNL A   1      38.709  30.671  31.210  1.00  0.00     0.049 A 
ATOM     44  N   UNL A   1      40.637  28.681  30.015  1.00  0.00    -0.248 NA
ATOM     45  C   UNL A   1      39.402  28.770  28.036  1.00  0.00     0.031 C 
ATOM     46  C   UNL A   1      37.804  31.636  31.831  1.00  0.00     0.029 A 
ATOM     47  N   UNL A   1      39.682  30.464  32.157  1.00  0.00    -0.354 N 
ATOM     48  C   UNL A   1      41.246  27.882  29.056  1.00  0.00     0.074 A 
ATOM     49  C   UNL A   1      40.428  27.950  27.865  1.00  0.00     0.031 C 
ATOM     50  C   UNL A   1      38.250  31.919  33.067  1.00  0.00     0.029 A 
ATOM     51  C   UNL A   1      39.446  31.125  33.338  1.00  0.00     0.049 A 
ATOM     52  H   UNL A   1      40.472  29.897  32.004  1.00  0.00     0.167 HD
ATOM     53  C   UNL A   1      42.392  27.169  29.160  1.00  0.00     0.037 A 
ATOM     54  C   UNL A   1      40.102  31.061  34.513  1.00  0.00     0.037 A 
ATOM     55  C   UNL A   1      43.198  27.099  30.350  1.00  0.00     0.049 A 
ATOM     56  C   UNL A   1      41.310  30.166  34.636  1.00  0.00     0.074 A 
ATOM     57  C   UNL A   1      44.374  26.398  30.556  1.00  0.00     0.029 A 
ATOM     58  N   UNL A   1      42.907  27.751  31.538  1.00  0.00    -0.354 N 
ATOM     59  N   UNL A   1      41.887  29.423  33.723  1.00  0.00    -0.248 NA
ATOM     60  C   UNL A   1      41.954  30.095  35.955  1.00  0.00     0.031 C 
ATOM     61  C   UNL A   1      44.771  26.591  31.882  1.00  0.00     0.029 A 
ATOM     62  C   UNL A   1      43.868  27.448  32.488  1.00  0.00     0.049 A 
ATOM     63  H   UNL A   1      42.134  28.342  31.683  1.00  0.00     0.167 HD
ATOM     64  C   UNL A   1      42.971  28.820  34.348  1.00  0.00     0.074 A 
ATOM     65  C   UNL A   1      42.983  29.297  35.714  1.00  0.00     0.031 C 
ATOM     66  C   UNL A   1      43.872  27.945  33.840  1.00  0.00     0.037 A 
BRANCH  53  67
ATOM     67  C   UNL A   1      42.846  26.399  27.957  1.00  0.00     0.064 A 
ATOM     68  C   UNL A   1      43.640  26.995  26.966  1.00  0.00     0.173 A 
ATOM     69  C   UNL A   1      42.547  25.034  27.828  1.00  0.00     0.173 A 
ATOM     70  F   UNL A   1      43.943  28.300  27.038  1.00  0.00    -0.203 F 
ATOM     71  C   UNL A   1      44.108  26.256  25.883  1.00  0.00     0.198 A 
ATOM     72  C   UNL A   1      43.038  24.292  26.757  1.00  0.00     0.198 A 
ATOM     73  F   UNL A   1      41.796  24.417  28.751  1.00  0.00    -0.203 F 
ATOM     74  F   UNL A   1      44.841  26.852  24.933  1.00  0.00    -0.200 F 
ATOM     75  C   UNL A   1      43.815  24.903  25.785  1.00  0.00     0.200 A 
ATOM     76  F   UNL A   1      42.764  22.983  26.670  1.00  0.00    -0.200 F 
ATOM     77  F   UNL A   1      44.281  24.189  24.751  1.00  0.00    -0.200 F 
ENDBRANCH  53  67
BRANCH  54  78
ATOM     78  C   UNL A   1      39.612  31.825  35.692  1.00  0.00     0.064 A 
ATOM     79  C   UNL A   1      38.580  31.328  36.500  1.00  0.00     0.173 A 
ATOM     80  C   UNL A   1      40.127  33.094  36.000  1.00  0.00     0.173 A 
ATOM     81  F   UNL A   1      38.036  30.133  36.229  1.00  0.00    -0.203 F 
ATOM     82  C   UNL A   1      38.061  32.084  37.550  1.00  0.00     0.198 A 
ATOM     83  C   UNL A   1      39.629  33.834  37.070  1.00  0.00     0.198 A 
ATOM     84  F   UNL A   1      41.113  33.618  35.257  1.00  0.00    -0.203 F 
ATOM     85  F   UNL A   1      37.030  31.613  38.265  1.00  0.00    -0.200 F 
ATOM     86  C   UNL A   1      38.587  33.335  37.836  1.00  0.00     0.200 A 
ATOM     87  F   UNL A   1      40.149  35.037  37.349  1.00  0.00    -0.200 F 
ATOM     88  F   UNL A   1      38.082  34.064  38.840  1.00  0.00    -0.200 F 
ENDBRANCH  54  78
BRANCH  66  89
ATOM     89  C   UNL A   1      44.964  27.468  34.752  1.00  0.00     0.064 A 
ATOM     90  C   UNL A   1      46.182  28.153  34.856  1.00  0.00     0.173 A 
ATOM     91  C   UNL A   1      44.766  26.347  35.572  1.00  0.00     0.173 A 
ATOM     92  F   UNL A   1      46.425  29.221  34.081  1.00  0.00    -0.203 F 
ATOM     93  C   UNL A   1      47.172  27.723  35.737  1.00  0.00     0.198 A 
ATOM     94  C   UNL A   1      45.746  25.936  36.472  1.00  0.00     0.198 A 
ATOM     95  F   UNL A   1      43.615  25.661  35.514  1.00  0.00    -0.203 F 
ATOM     96  F   UNL A   1      48.343  28.371  35.792  1.00  0.00    -0.200 F 
ATOM     97  C   UNL A   1      46.949  26.622  36.551  1.00  0.00     0.200 A 
ATOM     98  F   UNL A   1      45.524  24.880  37.267  1.00  0.00    -0.200 F 
ATOM     99  F   UNL A   1      47.897  26.218  37.407  1.00  0.00    -0.200 F 
ENDBRANCH  66  89
ENDBRANCH  40  41
ENDBRANCH  33  35
ENDBRANCH  32  33
ENDBRANCH  31  32
ENDBRANCH  30  31
ENDBRANCH   1  30
TORSDOF 18
ENDMDL
MODEL 2
REMARK VINA RESULT:     -11.7      0.762      7.172
REMARK SMILES CC(=O)Nc1ccc(/C(=C\c2ccc(S(C)(=O)=O)cc2)C(=O)OCCOCCOC(=O)c2ccc(-c3c4nc(c(-c5c(F)c(F)c(F)c(F)c5F)c5ccc([nH]5)c(-c5c(F)c(F)c(F)c(F)c5F)c5nc(c(-c6c(F)c(F)c(F)c(F)c6F)c6ccc3[nH]6)C=C5)C=C4)cc2)cc1
REMARK SMILES IDX 26 1 25 2 24 3 23 4 21 5 22 6 9 7 10 8 8 9 5 10 6 11 96 12
REMARK SMILES IDX 7 13 95 14 4 15 1 16 2 17 3 18 11 20 12 21 20 22 13 23 19 24
REMARK SMILES IDX 14 25 15 26 16 27 17 28 18 29 27 30 28 31 29 32 30 33 31 34
REMARK SMILES IDX 32 35 33 36 94 37 34 38 93 39 35 40 36 41 37 42 87 43 38 44
REMARK SMILES IDX 92 45 86 46 88 47 39 48 91 49 85 50 84 51 40 53 72 54 52 55
REMARK SMILES IDX 71 56 53 57 56 58 70 59 89 60 54 61 55 62 69 64 90 65 57 66
REMARK SMILES IDX 41 67 42 68 50 69 43 70 44 71 48 72 51 73 45 74 46 75 49 76
REMARK SMILES IDX 47 77 73 78 74 79 82 80 75 81 76 82 80 83 83 84 77 85 78 86
REMARK SMILES IDX 81 87 79 88 58 89 59 90 67 91 60 92 61 93 65 94 68 95 62 96
REMARK SMILES IDX 63 97 66 98 64 99
REMARK H PARENT 4 19 88 52 56 63
REMARK Flexibility Score: inf
ROOT
ATOM      1  O   UNL A   1      32.151  27.666  25.862  1.00  0.00    -0.374 OA
ENDROOT
BRANCH   1   2
ATOM      2  C   UNL A   1      31.750  26.735  24.857  1.00  0.00     0.202 C 
BRANCH   2   3
ATOM      3  C   UNL A   1      32.075  27.131  23.414  1.00  0.00     0.261 C 
BRANCH   3   4
ATOM      4  O   UNL A   1      33.331  26.566  23.007  1.00  0.00    -0.460 OA
BRANCH   4   5
ATOM      5  C   UNL A   1      33.244  25.551  22.108  1.00  0.00     0.338 C 
ATOM      6  O   UNL A   1      33.192  25.676  20.893  1.00  0.00    -0.246 OA
BRANCH   5   7
ATOM      7  C   UNL A   1      33.372  24.219  22.789  1.00  0.00     0.067 C 
ATOM      8  C   UNL A   1      32.263  23.442  22.796  1.00  0.00     0.024 C 
BRANCH   7   9
ATOM      9  C   UNL A   1      34.691  23.886  23.402  1.00  0.00    -0.011 A 
ATOM     10  C   UNL A   1      37.036  23.090  24.804  1.00  0.00     0.041 A 
ATOM     11  C   UNL A   1      36.810  22.682  23.486  1.00  0.00     0.027 A 
ATOM     12  C   UNL A   1      36.143  23.986  25.375  1.00  0.00     0.027 A 
ATOM     13  C   UNL A   1      35.661  23.088  22.790  1.00  0.00     0.011 A 
ATOM     14  C   UNL A   1      34.987  24.375  24.684  1.00  0.00     0.011 A 
BRANCH  10  15
ATOM     15  N   UNL A   1      38.183  22.591  25.441  1.00  0.00    -0.326 N 
ATOM     16  C   UNL A   1      38.014  20.138  24.981  1.00  0.00     0.114 C 
ATOM     17  C   UNL A   1      38.647  21.325  25.652  1.00  0.00     0.221 C 
ATOM     18  O   UNL A   1      39.639  21.175  26.372  1.00  0.00    -0.275 OA
ATOM     19  H   UNL A   1      38.767  23.293  25.811  1.00  0.00     0.169 HD
ENDBRANCH  10  15
ENDBRANCH   7   9
BRANCH   8  20
ATOM     20  C   UNL A   1      32.179  22.038  23.228  1.00  0.00    -0.025 A 
ATOM     21  C   UNL A   1      32.001  21.085  22.216  1.00  0.00     0.009 A 
ATOM     22  C   UNL A   1      32.426  21.617  24.541  1.00  0.00     0.009 A 
ATOM     23  C   UNL A   1      32.204  19.732  22.478  1.00  0.00     0.021 A 
ATOM     24  C   UNL A   1      32.639  20.258  24.809  1.00  0.00     0.021 A 
ATOM     25  C   UNL A   1      32.563  19.330  23.765  1.00  0.00     0.067 A 
BRANCH  25  26
ATOM     26  S   UNL A   1      33.127  17.660  24.004  1.00  0.00     0.175 S 
ATOM     27  C   UNL A   1      34.829  17.829  24.456  1.00  0.00     0.163 C 
ATOM     28  O   UNL A   1      32.404  17.139  25.148  1.00  0.00    -0.224 OA
ATOM     29  O   UNL A   1      33.066  16.988  22.720  1.00  0.00    -0.224 OA
ENDBRANCH  25  26
ENDBRANCH   8  20
ENDBRANCH   5   7
ENDBRANCH   4   5
ENDBRANCH   3   4
ENDBRANCH   2   3
ENDBRANCH   1   2
BRANCH   1  30
ATOM     30  C   UNL A   1      32.687  28.914  25.419  1.00  0.00     0.202 C 
BRANCH  30  31
ATOM     31  C   UNL A   1      32.338  30.151  26.254  1.00  0.00     0.261 C 
BRANCH  31  32
ATOM     32  O   UNL A   1      33.336  31.179  26.133  1.00  0.00    -0.460 OA
BRANCH  32  33
ATOM     33  C   UNL A   1      33.606  31.850  27.276  1.00  0.00     0.338 C 
ATOM     34  O   UNL A   1      32.882  32.642  27.865  1.00  0.00    -0.246 OA
BRANCH  33  35
ATOM     35  C   UNL A   1      34.870  31.355  27.848  1.00  0.00     0.060 A 
ATOM     36  C   UNL A   1      34.919  30.020  28.265  1.00  0.00     0.016 A 
ATOM     37  C   UNL A   1      35.974  32.193  28.012  1.00  0.00     0.016 A 
ATOM     38  C   UNL A   1      36.069  29.520  28.874  1.00  0.00     0.010 A 
ATOM     39  C   UNL A   1      37.122  31.694  28.633  1.00  0.00     0.010 A 
ATOM     40  C   UNL A   1      37.168  30.362  29.085  1.00  0.00    -0.014 A 
BRANCH  40  41
ATOM     41  C   UNL A   1      38.334  29.888  29.866  1.00  0.00     0.031 A 
ATOM     42  C   UNL A   1      38.569  30.444  31.241  1.00  0.00     0.074 A 
ATOM     43  C   UNL A   1      39.174  28.972  29.352  1.00  0.00     0.049 A 
ATOM     44  N   UNL A   1      39.579  30.259  32.051  1.00  0.00    -0.248 NA
ATOM     45  C   UNL A   1      37.521  31.327  31.779  1.00  0.00     0.031 C 
ATOM     46  C   UNL A   1      39.021  28.323  28.051  1.00  0.00     0.029 A 
ATOM     47  N   UNL A   1      40.336  28.444  29.857  1.00  0.00    -0.354 N 
ATOM     48  C   UNL A   1      39.289  30.997  33.191  1.00  0.00     0.074 A 
ATOM     49  C   UNL A   1      38.024  31.658  32.960  1.00  0.00     0.031 C 
ATOM     50  C   UNL A   1      40.064  27.501  27.849  1.00  0.00     0.029 A 
ATOM     51  C   UNL A   1      40.977  27.598  28.985  1.00  0.00     0.049 A 
ATOM     52  H   UNL A   1      40.676  28.651  30.757  1.00  0.00     0.167 HD
ATOM     53  C   UNL A   1      40.011  31.099  34.332  1.00  0.00     0.037 A 
ATOM     54  C   UNL A   1      42.183  27.005  29.082  1.00  0.00     0.037 A 
ATOM     55  C   UNL A   1      41.273  30.445  34.555  1.00  0.00     0.049 A 
ATOM     56  C   UNL A   1      43.019  27.231  30.317  1.00  0.00     0.074 A 
ATOM     57  C   UNL A   1      42.084  30.492  35.676  1.00  0.00     0.029 A 
ATOM     58  N   UNL A   1      41.909  29.627  33.635  1.00  0.00    -0.354 N 
ATOM     59  N   UNL A   1      42.735  27.920  31.395  1.00  0.00    -0.248 NA
ATOM     60  C   UNL A   1      44.348  26.602  30.345  1.00  0.00     0.031 C 
ATOM     61  C   UNL A   1      43.231  29.738  35.417  1.00  0.00     0.029 A 
ATOM     62  C   UNL A   1      43.115  29.184  34.153  1.00  0.00     0.049 A 
ATOM     63  H   UNL A   1      41.557  29.395  32.746  1.00  0.00     0.167 HD
ATOM     64  C   UNL A   1      43.833  27.787  32.236  1.00  0.00     0.074 A 
ATOM     65  C   UNL A   1      44.783  26.936  31.551  1.00  0.00     0.031 C 
ATOM     66  C   UNL A   1      44.041  28.324  33.462  1.00  0.00     0.037 A 
BRANCH  53  67
ATOM     67  C   UNL A   1      39.459  31.955  35.432  1.00  0.00     0.064 A 
ATOM     68  C   UNL A   1      38.595  31.428  36.403  1.00  0.00     0.173 A 
ATOM     69  C   UNL A   1      39.853  33.296  35.560  1.00  0.00     0.173 A 
ATOM     70  F   UNL A   1      38.180  30.155  36.318  1.00  0.00    -0.203 F 
ATOM     71  C   UNL A   1      38.137  32.215  37.456  1.00  0.00     0.198 A 
ATOM     72  C   UNL A   1      39.413  34.073  36.628  1.00  0.00     0.198 A 
ATOM     73  F   UNL A   1      40.681  33.846  34.660  1.00  0.00    -0.203 F 
ATOM     74  F   UNL A   1      37.289  31.699  38.357  1.00  0.00    -0.200 F 
ATOM     75  C   UNL A   1      38.554  33.534  37.573  1.00  0.00     0.200 A 
ATOM     76  F   UNL A   1      39.825  35.342  36.746  1.00  0.00    -0.200 F 
ATOM     77  F   UNL A   1      38.124  34.284  38.596  1.00  0.00    -0.200 F 
ENDBRANCH  53  67
BRANCH  54  78
ATOM     78  C   UNL A   1      42.707  26.176  27.963  1.00  0.00     0.064 A 
ATOM     79  C   UNL A   1      43.529  26.732  26.972  1.00  0.00     0.173 A 
ATOM     80  C   UNL A   1      42.351  24.826  27.830  1.00  0.00     0.173 A 
ATOM     81  F   UNL A   1      43.874  28.026  27.039  1.00  0.00    -0.203 F 
ATOM     82  C   UNL A   1      43.946  25.979  25.876  1.00  0.00     0.198 A 
ATOM     83  C   UNL A   1      42.795  24.065  26.751  1.00  0.00     0.198 A 
ATOM     84  F   UNL A   1      41.564  24.244  28.748  1.00  0.00    -0.203 F 
ATOM     85  F   UNL A   1      44.676  26.553  24.911  1.00  0.00    -0.200 F 
ATOM     86  C   UNL A   1      43.582  24.645  25.768  1.00  0.00     0.200 A 
ATOM     87  F   UNL A   1      42.450  22.773  26.658  1.00  0.00    -0.200 F 
ATOM     88  F   UNL A   1      43.976  23.924  24.711  1.00  0.00    -0.200 F 
ENDBRANCH  54  78
BRANCH  66  89
ATOM     89  C   UNL A   1      45.328  27.988  34.157  1.00  0.00     0.064 A 
ATOM     90  C   UNL A   1      46.463  28.799  34.026  1.00  0.00     0.173 A 
ATOM     91  C   UNL A   1      45.407  26.875  35.008  1.00  0.00     0.173 A 
ATOM     92  F   UNL A   1      46.442  29.865  33.211  1.00  0.00    -0.203 F 
ATOM     93  C   UNL A   1      47.639  28.499  34.710  1.00  0.00     0.198 A 
ATOM     94  C   UNL A   1      46.574  26.594  35.711  1.00  0.00     0.198 A 
ATOM     95  F   UNL A   1      44.345  26.072  35.172  1.00  0.00    -0.203 F 
ATOM     96  F   UNL A   1      48.724  29.266  34.540  1.00  0.00    -0.200 F 
ATOM     97  C   UNL A   1      47.691  27.403  35.559  1.00  0.00     0.200 A 
ATOM     98  F   UNL A   1      46.618  25.543  36.542  1.00  0.00    -0.200 F 
ATOM     99  F   UNL A   1      48.818  27.124  36.226  1.00  0.00    -0.200 F 
ENDBRANCH  66  89
ENDBRANCH  40  41
ENDBRANCH  33  35
ENDBRANCH  32  33
ENDBRANCH  31  32
ENDBRANCH  30  31
ENDBRANCH   1  30
TORSDOF 18
ENDMDL
MODEL 3
REMARK VINA RESULT:     -11.5      1.764      2.479
REMARK SMILES CC(=O)Nc1ccc(/C(=C\c2ccc(S(C)(=O)=O)cc2)C(=O)OCCOCCOC(=O)c2ccc(-c3c4nc(c(-c5c(F)c(F)c(F)c(F)c5F)c5ccc([nH]5)c(-c5c(F)c(F)c(F)c(F)c5F)c5nc(c(-c6c(F)c(F)c(F)c(F)c6F)c6ccc3[nH]6)C=C5)C=C4)cc2)cc1
REMARK SMILES IDX 26 1 25 2 24 3 23 4 21 5 22 6 9 7 10 8 8 9 5 10 6 11 96 12
REMARK SMILES IDX 7 13 95 14 4 15 1 16 2 17 3 18 11 20 12 21 20 22 13 23 19 24
REMARK SMILES IDX 14 25 15 26 16 27 17 28 18 29 27 30 28 31 29 32 30 33 31 34
REMARK SMILES IDX 32 35 33 36 94 37 34 38 93 39 35 40 36 41 37 42 87 43 38 44
REMARK SMILES IDX 92 45 86 46 88 47 39 48 91 49 85 50 84 51 40 53 72 54 52 55
REMARK SMILES IDX 71 56 53 57 56 58 70 59 89 60 54 61 55 62 69 64 90 65 57 66
REMARK SMILES IDX 41 67 42 68 50 69 43 70 44 71 48 72 51 73 45 74 46 75 49 76
REMARK SMILES IDX 47 77 73 78 74 79 82 80 75 81 76 82 80 83 83 84 77 85 78 86
REMARK SMILES IDX 81 87 79 88 58 89 59 90 67 91 60 92 61 93 65 94 68 95 62 96
REMARK SMILES IDX 63 97 66 98 64 99
REMARK H PARENT 4 19 88 52 56 63
REMARK Flexibility Score: inf
ROOT
ATOM      1  O   UNL A   1      31.800  29.378  25.081  1.00  0.00    -0.374 OA
ENDROOT
BRANCH   1   2
ATOM      2  C   UNL A   1      32.832  28.712  24.352  1.00  0.00     0.202 C 
BRANCH   2   3
ATOM      3  C   UNL A   1      32.385  27.977  23.085  1.00  0.00     0.261 C 
BRANCH   3   4
ATOM      4  O   UNL A   1      32.300  26.564  23.326  1.00  0.00    -0.460 OA
BRANCH   4   5
ATOM      5  C   UNL A   1      33.070  25.793  22.516  1.00  0.00     0.338 C 
ATOM      6  O   UNL A   1      33.669  26.177  21.522  1.00  0.00    -0.246 OA
BRANCH   5   7
ATOM      7  C   UNL A   1      33.224  24.410  23.080  1.00  0.00     0.067 C 
ATOM      8  C   UNL A   1      32.109  23.641  23.090  1.00  0.00     0.024 C 
BRANCH   7   9
ATOM      9  C   UNL A   1      34.573  24.021  23.586  1.00  0.00    -0.011 A 
ATOM     10  C   UNL A   1      36.987  23.106  24.782  1.00  0.00     0.041 A 
ATOM     11  C   UNL A   1      36.673  22.789  23.457  1.00  0.00     0.027 A 
ATOM     12  C   UNL A   1      36.145  23.972  25.466  1.00  0.00     0.027 A 
ATOM     13  C   UNL A   1      35.490  23.254  22.862  1.00  0.00     0.011 A 
ATOM     14  C   UNL A   1      34.955  24.420  24.876  1.00  0.00     0.011 A 
BRANCH  10  15
ATOM     15  N   UNL A   1      38.163  22.552  25.312  1.00  0.00    -0.326 N 
ATOM     16  C   UNL A   1      37.769  20.100  25.013  1.00  0.00     0.114 C 
ATOM     17  C   UNL A   1      38.559  21.266  25.540  1.00  0.00     0.221 C 
ATOM     18  O   UNL A   1      39.616  21.075  26.149  1.00  0.00    -0.275 OA
ATOM     19  H   UNL A   1      38.834  23.224  25.573  1.00  0.00     0.169 HD
ENDBRANCH  10  15
ENDBRANCH   7   9
BRANCH   8  20
ATOM     20  C   UNL A   1      32.036  22.207  23.413  1.00  0.00    -0.025 A 
ATOM     21  C   UNL A   1      31.966  21.326  22.324  1.00  0.00     0.009 A 
ATOM     22  C   UNL A   1      32.194  21.697  24.708  1.00  0.00     0.009 A 
ATOM     23  C   UNL A   1      32.191  19.963  22.504  1.00  0.00     0.021 A 
ATOM     24  C   UNL A   1      32.427  20.328  24.894  1.00  0.00     0.021 A 
ATOM     25  C   UNL A   1      32.462  19.478  23.784  1.00  0.00     0.067 A 
BRANCH  25  26
ATOM     26  S   UNL A   1      33.058  17.810  23.947  1.00  0.00     0.175 S 
ATOM     27  C   UNL A   1      34.751  17.990  24.427  1.00  0.00     0.163 C 
ATOM     28  O   UNL A   1      32.334  17.218  25.056  1.00  0.00    -0.224 OA
ATOM     29  O   UNL A   1      33.025  17.201  22.631  1.00  0.00    -0.224 OA
ENDBRANCH  25  26
ENDBRANCH   8  20
ENDBRANCH   5   7
ENDBRANCH   4   5
ENDBRANCH   3   4
ENDBRANCH   2   3
ENDBRANCH   1   2
BRANCH   1  30
ATOM     30  C   UNL A   1      32.055  29.666  26.457  1.00  0.00     0.202 C 
BRANCH  30  31
ATOM     31  C   UNL A   1      32.973  30.855  26.756  1.00  0.00     0.261 C 
BRANCH  31  32
ATOM     32  O   UNL A   1      34.258  30.433  27.242  1.00  0.00    -0.460 OA
BRANCH  32  33
ATOM     33  C   UNL A   1      34.730  31.138  28.295  1.00  0.00     0.338 C 
ATOM     34  O   UNL A   1      34.144  31.997  28.941  1.00  0.00    -0.246 OA
BRANCH  33  35
ATOM     35  C   UNL A   1      36.037  30.595  28.702  1.00  0.00     0.060 A 
ATOM     36  C   UNL A   1      36.135  30.010  29.971  1.00  0.00     0.016 A 
ATOM     37  C   UNL A   1      37.158  30.694  27.876  1.00  0.00     0.016 A 
ATOM     38  C   UNL A   1      37.365  29.541  30.430  1.00  0.00     0.010 A 
ATOM     39  C   UNL A   1      38.392  30.235  28.342  1.00  0.00     0.010 A 
ATOM     40  C   UNL A   1      38.506  29.675  29.628  1.00  0.00    -0.014 A 
BRANCH  40  41
ATOM     41  C   UNL A   1      39.841  29.322  30.165  1.00  0.00     0.031 A 
ATOM     42  C   UNL A   1      40.570  28.141  29.592  1.00  0.00     0.074 A 
ATOM     43  C   UNL A   1      40.393  30.047  31.153  1.00  0.00     0.049 A 
ATOM     44  N   UNL A   1      41.690  27.587  29.982  1.00  0.00    -0.248 NA
ATOM     45  C   UNL A   1      39.958  27.498  28.418  1.00  0.00     0.031 C 
ATOM     46  C   UNL A   1      39.805  31.243  31.752  1.00  0.00     0.029 A 
ATOM     47  N   UNL A   1      41.569  29.870  31.839  1.00  0.00    -0.354 N 
ATOM     48  C   UNL A   1      41.916  26.536  29.103  1.00  0.00     0.074 A 
ATOM     49  C   UNL A   1      40.805  26.507  28.178  1.00  0.00     0.031 C 
ATOM     50  C   UNL A   1      40.610  31.679  32.736  1.00  0.00     0.029 A 
ATOM     51  C   UNL A   1      41.747  30.770  32.862  1.00  0.00     0.049 A 
ATOM     52  H   UNL A   1      42.221  29.166  31.621  1.00  0.00     0.167 HD
ATOM     53  C   UNL A   1      42.966  25.681  29.067  1.00  0.00     0.037 A 
ATOM     54  C   UNL A   1      42.701  30.825  33.812  1.00  0.00     0.037 A 
ATOM     55  C   UNL A   1      44.066  25.708  29.995  1.00  0.00     0.049 A 
ATOM     56  C   UNL A   1      43.796  29.788  33.819  1.00  0.00     0.074 A 
ATOM     57  C   UNL A   1      45.174  24.881  30.044  1.00  0.00     0.029 A 
ATOM     58  N   UNL A   1      44.193  26.611  31.039  1.00  0.00    -0.354 N 
ATOM     59  N   UNL A   1      44.011  28.805  32.980  1.00  0.00    -0.248 NA
ATOM     60  C   UNL A   1      44.778  29.865  34.910  1.00  0.00     0.031 C 
ATOM     61  C   UNL A   1      45.949  25.254  31.145  1.00  0.00     0.029 A 
ATOM     62  C   UNL A   1      45.348  26.343  31.755  1.00  0.00     0.049 A 
ATOM     63  H   UNL A   1      43.557  27.334  31.242  1.00  0.00     0.167 HD
ATOM     64  C   UNL A   1      45.161  28.165  33.425  1.00  0.00     0.074 A 
ATOM     65  C   UNL A   1      45.610  28.883  34.599  1.00  0.00     0.031 C 
ATOM     66  C   UNL A   1      45.787  27.078  32.913  1.00  0.00     0.037 A 
BRANCH  53  67
ATOM     67  C   UNL A   1      42.979  24.636  27.992  1.00  0.00     0.064 A 
ATOM     68  C   UNL A   1      43.420  24.930  26.694  1.00  0.00     0.173 A 
ATOM     69  C   UNL A   1      42.616  23.312  28.280  1.00  0.00     0.173 A 
ATOM     70  F   UNL A   1      43.767  26.184  26.367  1.00  0.00    -0.203 F 
ATOM     71  C   UNL A   1      43.487  23.938  25.719  1.00  0.00     0.198 A 
ATOM     72  C   UNL A   1      42.707  22.318  27.310  1.00  0.00     0.198 A 
ATOM     73  F   UNL A   1      42.192  22.978  29.508  1.00  0.00    -0.203 F 
ATOM     74  F   UNL A   1      43.884  24.248  24.477  1.00  0.00    -0.200 F 
ATOM     75  C   UNL A   1      43.139  22.631  26.031  1.00  0.00     0.200 A 
ATOM     76  F   UNL A   1      42.383  21.054  27.615  1.00  0.00    -0.200 F 
ATOM     77  F   UNL A   1      43.220  21.675  25.095  1.00  0.00    -0.200 F 
ENDBRANCH  53  67
BRANCH  54  78
ATOM     78  C   UNL A   1      42.646  31.865  34.875  1.00  0.00     0.064 A 
ATOM     79  C   UNL A   1      41.905  31.666  36.048  1.00  0.00     0.173 A 
ATOM     80  C   UNL A   1      43.287  33.103  34.713  1.00  0.00     0.173 A 
ATOM     81  F   UNL A   1      41.251  30.511  36.237  1.00  0.00    -0.203 F 
ATOM     82  C   UNL A   1      41.781  32.674  37.001  1.00  0.00     0.198 A 
ATOM     83  C   UNL A   1      43.190  34.099  35.682  1.00  0.00     0.198 A 
ATOM     84  F   UNL A   1      44.007  33.348  33.608  1.00  0.00    -0.203 F 
ATOM     85  F   UNL A   1      41.013  32.481  38.082  1.00  0.00    -0.200 F 
ATOM     86  C   UNL A   1      42.426  33.889  36.820  1.00  0.00     0.200 A 
ATOM     87  F   UNL A   1      43.825  35.266  35.506  1.00  0.00    -0.200 F 
ATOM     88  F   UNL A   1      42.300  34.861  37.732  1.00  0.00    -0.200 F 
ENDBRANCH  54  78
BRANCH  66  89
ATOM     89  C   UNL A   1      47.039  26.613  33.597  1.00  0.00     0.064 A 
ATOM     90  C   UNL A   1      47.004  25.644  34.608  1.00  0.00     0.173 A 
ATOM     91  C   UNL A   1      48.292  27.101  33.195  1.00  0.00     0.173 A 
ATOM     92  F   UNL A   1      45.829  25.159  35.038  1.00  0.00    -0.203 F 
ATOM     93  C   UNL A   1      48.177  25.191  35.206  1.00  0.00     0.198 A 
ATOM     94  C   UNL A   1      49.465  26.626  33.775  1.00  0.00     0.198 A 
ATOM     95  F   UNL A   1      48.379  28.025  32.226  1.00  0.00    -0.203 F 
ATOM     96  F   UNL A   1      48.117  24.292  36.197  1.00  0.00    -0.200 F 
ATOM     97  C   UNL A   1      49.407  25.675  34.782  1.00  0.00     0.200 A 
ATOM     98  F   UNL A   1      50.652  27.085  33.355  1.00  0.00    -0.200 F 
ATOM     99  F   UNL A   1      50.535  25.228  35.350  1.00  0.00    -0.200 F 
ENDBRANCH  66  89
ENDBRANCH  40  41
ENDBRANCH  33  35
ENDBRANCH  32  33
ENDBRANCH  31  32
ENDBRANCH  30  31
ENDBRANCH   1  30
TORSDOF 18
ENDMDL
