MODEL 1
REMARK VINA RESULT:     -12.3      0.000      0.000
REMARK SMILES Nn1c(S[C@@H](C(=O)OCCOCCOC(=O)c2ccc(-c3c4nc(c(-c5c(F)c(F)c(F)c(F)c5F)c5ccc([nH]5)c(-c5c(F)c(F)c(F)c(F)c5F)c5nc(c(-c6c(F)c(F)c(F)c(F)c6F)c6ccc3[nH]6)C=C5)C=C4)cc2)c2ccccc2)nc2ccc(Br)cc2c1=O
REMARK SMILES IDX 10 1 9 2 8 3 6 4 7 5 5 6 4 7 3 8 2 9 94 10 86 11 93 12 95 13
REMARK SMILES IDX 87 14 92 15 88 16 90 17 89 18 91 19 1 20 80 23 81 24 85 25
REMARK SMILES IDX 82 26 84 27 83 28 11 29 12 30 13 31 14 32 15 33 16 34 17 35
REMARK SMILES IDX 18 36 79 37 19 38 78 39 20 40 21 41 22 42 72 43 23 44 77 45
REMARK SMILES IDX 71 46 73 47 24 48 76 49 70 50 69 51 25 53 57 54 37 55 56 56
REMARK SMILES IDX 38 57 41 58 55 59 74 60 39 61 40 62 54 64 75 65 42 66 26 67
REMARK SMILES IDX 27 68 35 69 28 70 29 71 33 72 36 73 30 74 31 75 34 76 32 77
REMARK SMILES IDX 58 78 59 79 67 80 60 81 61 82 65 83 68 84 62 85 63 86 66 87
REMARK SMILES IDX 64 88 43 89 44 90 52 91 45 92 46 93 50 94 53 95 47 96 48 97
REMARK SMILES IDX 51 98 49 99
REMARK H PARENT 1 21 1 22 73 52 41 63
REMARK Flexibility Score: inf
ROOT
ATOM      1  C   UNL A   1      33.344  29.953  26.983  1.00  0.00     0.202 C 
ENDROOT
BRANCH   1   2
ATOM      2  C   UNL A   1      32.122  29.388  26.239  1.00  0.00     0.261 C 
BRANCH   2   3
ATOM      3  O   UNL A   1      32.399  28.349  25.263  1.00  0.00    -0.462 OA
BRANCH   3   4
ATOM      4  C   UNL A   1      31.898  28.574  24.004  1.00  0.00     0.324 C 
ATOM      5  O   UNL A   1      32.643  28.837  23.065  1.00  0.00    -0.251 OA
BRANCH   4   6
ATOM      6  C   UNL A   1      30.345  28.536  23.906  1.00  0.00     0.194 C 
BRANCH   6   7
ATOM      7  S   UNL A   1      29.733  26.928  23.359  1.00  0.00    -0.066 SA
BRANCH   7   8
ATOM      8  C   UNL A   1      30.496  25.564  24.152  1.00  0.00     0.191 A 
ATOM      9  N   UNL A   1      30.611  25.348  25.531  1.00  0.00    -0.202 N 
ATOM     10  C   UNL A   1      31.040  24.115  26.048  1.00  0.00     0.280 A 
ATOM     11  N   UNL A   1      30.906  24.681  23.291  1.00  0.00    -0.222 NA
ATOM     12  C   UNL A   1      31.476  23.109  25.074  1.00  0.00     0.069 A 
ATOM     13  O   UNL A   1      31.025  23.849  27.250  1.00  0.00    -0.267 OA
ATOM     14  C   UNL A   1      31.442  23.466  23.730  1.00  0.00     0.079 A 
ATOM     15  C   UNL A   1      31.906  21.843  25.486  1.00  0.00     0.031 A 
ATOM     16  C   UNL A   1      31.904  22.547  22.784  1.00  0.00     0.030 A 
ATOM     17  C   UNL A   1      32.344  20.934  24.529  1.00  0.00     0.018 A 
ATOM     18  C   UNL A   1      32.360  21.284  23.179  1.00  0.00     0.018 A 
ATOM     19  Br  UNL A   1      32.919  19.215  25.061  1.00  0.00    -0.051 Br
BRANCH   9  20
ATOM     20  N   UNL A   1      30.326  26.317  26.515  1.00  0.00    -0.334 N 
ATOM     21  H   UNL A   1      29.433  26.728  26.558  1.00  0.00     0.178 HD
ATOM     22  H   UNL A   1      31.021  26.583  27.161  1.00  0.00     0.178 HD
ENDBRANCH   9  20
ENDBRANCH   7   8
ENDBRANCH   6   7
BRANCH   6  23
ATOM     23  C   UNL A   1      29.706  29.784  23.265  1.00  0.00    -0.023 A 
ATOM     24  C   UNL A   1      29.191  29.704  21.958  1.00  0.00     0.005 A 
ATOM     25  C   UNL A   1      29.506  30.993  23.959  1.00  0.00     0.005 A 
ATOM     26  C   UNL A   1      28.321  30.678  21.464  1.00  0.00     0.000 A 
ATOM     27  C   UNL A   1      28.626  31.962  23.471  1.00  0.00     0.000 A 
ATOM     28  C   UNL A   1      28.001  31.783  22.241  1.00  0.00     0.000 A 
ENDBRANCH   6  23
ENDBRANCH   4   6
ENDBRANCH   3   4
ENDBRANCH   2   3
ENDBRANCH   1   2
BRANCH   1  29
ATOM     29  O   UNL A   1      33.292  31.266  27.537  1.00  0.00    -0.374 OA
BRANCH  29  30
ATOM     30  C   UNL A   1      32.206  32.095  27.162  1.00  0.00     0.202 C 
BRANCH  30  31
ATOM     31  C   UNL A   1      32.396  33.612  27.204  1.00  0.00     0.261 C 
BRANCH  31  32
ATOM     32  O   UNL A   1      32.187  34.203  28.471  1.00  0.00    -0.460 OA
BRANCH  32  33
ATOM     33  C   UNL A   1      33.112  35.130  28.798  1.00  0.00     0.338 C 
ATOM     34  O   UNL A   1      32.999  36.342  28.822  1.00  0.00    -0.246 OA
BRANCH  33  35
ATOM     35  C   UNL A   1      34.262  34.385  29.303  1.00  0.00     0.060 A 
ATOM     36  C   UNL A   1      35.533  34.579  28.753  1.00  0.00     0.016 A 
ATOM     37  C   UNL A   1      34.027  33.431  30.295  1.00  0.00     0.016 A 
ATOM     38  C   UNL A   1      36.594  33.821  29.232  1.00  0.00     0.010 A 
ATOM     39  C   UNL A   1      35.089  32.679  30.774  1.00  0.00     0.010 A 
ATOM     40  C   UNL A   1      36.378  32.889  30.262  1.00  0.00    -0.014 A 
BRANCH  40  41
ATOM     41  C   UNL A   1      37.522  32.240  30.926  1.00  0.00     0.031 A 
ATOM     42  C   UNL A   1      38.264  31.123  30.268  1.00  0.00     0.074 A 
ATOM     43  C   UNL A   1      37.823  32.645  32.172  1.00  0.00     0.049 A 
ATOM     44  N   UNL A   1      39.264  30.419  30.732  1.00  0.00    -0.248 NA
ATOM     45  C   UNL A   1      37.823  30.735  28.920  1.00  0.00     0.031 C 
ATOM     46  C   UNL A   1      37.118  33.706  32.898  1.00  0.00     0.029 A 
ATOM     47  N   UNL A   1      38.780  32.218  33.050  1.00  0.00    -0.354 N 
ATOM     48  C   UNL A   1      39.580  29.511  29.732  1.00  0.00     0.074 A 
ATOM     49  C   UNL A   1      38.638  29.722  28.654  1.00  0.00     0.031 C 
ATOM     50  C   UNL A   1      37.682  33.860  34.104  1.00  0.00     0.029 A 
ATOM     51  C   UNL A   1      38.755  32.885  34.249  1.00  0.00     0.049 A 
ATOM     52  H   UNL A   1      39.424  31.503  32.842  1.00  0.00     0.167 HD
ATOM     53  C   UNL A   1      40.582  28.601  29.725  1.00  0.00     0.037 A 
ATOM     54  C   UNL A   1      39.513  32.716  35.347  1.00  0.00     0.037 A 
ATOM     55  C   UNL A   1      41.496  28.406  30.822  1.00  0.00     0.049 A 
ATOM     56  C   UNL A   1      40.587  31.667  35.323  1.00  0.00     0.074 A 
ATOM     57  C   UNL A   1      42.568  27.534  30.906  1.00  0.00     0.029 A 
ATOM     58  N   UNL A   1      41.438  29.086  32.032  1.00  0.00    -0.354 N 
ATOM     59  N   UNL A   1      40.925  30.857  34.350  1.00  0.00    -0.248 NA
ATOM     60  C   UNL A   1      41.385  31.510  36.545  1.00  0.00     0.031 C 
ATOM     61  C   UNL A   1      43.121  27.647  32.184  1.00  0.00     0.029 A 
ATOM     62  C   UNL A   1      42.436  28.631  32.878  1.00  0.00     0.049 A 
ATOM     63  H   UNL A   1      40.784  29.787  32.254  1.00  0.00     0.167 HD
ATOM     64  C   UNL A   1      41.986  30.105  34.832  1.00  0.00     0.074 A 
ATOM     65  C   UNL A   1      42.249  30.574  36.178  1.00  0.00     0.031 C 
ATOM     66  C   UNL A   1      42.676  29.112  34.218  1.00  0.00     0.037 A 
BRANCH  53  67
ATOM     67  C   UNL A   1      40.751  27.750  28.499  1.00  0.00     0.064 A 
ATOM     68  C   UNL A   1      40.076  26.528  28.359  1.00  0.00     0.173 A 
ATOM     69  C   UNL A   1      41.532  28.194  27.421  1.00  0.00     0.173 A 
ATOM     70  F   UNL A   1      39.323  26.053  29.363  1.00  0.00    -0.203 F 
ATOM     71  C   UNL A   1      40.187  25.776  27.193  1.00  0.00     0.198 A 
ATOM     72  C   UNL A   1      41.618  27.453  26.244  1.00  0.00     0.198 A 
ATOM     73  F   UNL A   1      42.196  29.357  27.499  1.00  0.00    -0.203 F 
ATOM     74  F   UNL A   1      39.560  24.595  27.096  1.00  0.00    -0.200 F 
ATOM     75  C   UNL A   1      40.949  26.243  26.132  1.00  0.00     0.200 A 
ATOM     76  F   UNL A   1      42.343  27.913  25.216  1.00  0.00    -0.200 F 
ATOM     77  F   UNL A   1      41.041  25.526  25.004  1.00  0.00    -0.200 F 
ENDBRANCH  53  67
BRANCH  54  78
ATOM     78  C   UNL A   1      39.295  33.590  36.527  1.00  0.00     0.064 A 
ATOM     79  C   UNL A   1      38.527  33.145  37.612  1.00  0.00     0.173 A 
ATOM     80  C   UNL A   1      39.885  34.859  36.621  1.00  0.00     0.173 A 
ATOM     81  F   UNL A   1      37.932  31.944  37.564  1.00  0.00    -0.203 F 
ATOM     82  C   UNL A   1      38.350  33.941  38.741  1.00  0.00     0.198 A 
ATOM     83  C   UNL A   1      39.732  35.641  37.764  1.00  0.00     0.198 A 
ATOM     84  F   UNL A   1      40.641  35.325  35.616  1.00  0.00    -0.203 F 
ATOM     85  F   UNL A   1      37.585  33.505  39.751  1.00  0.00    -0.200 F 
ATOM     86  C   UNL A   1      38.961  35.184  38.820  1.00  0.00     0.200 A 
ATOM     87  F   UNL A   1      40.343  36.832  37.845  1.00  0.00    -0.200 F 
ATOM     88  F   UNL A   1      38.804  35.941  39.915  1.00  0.00    -0.200 F 
ENDBRANCH  54  78
BRANCH  66  89
ATOM     89  C   UNL A   1      43.789  28.469  34.993  1.00  0.00     0.064 A 
ATOM     90  C   UNL A   1      45.084  29.007  34.994  1.00  0.00     0.173 A 
ATOM     91  C   UNL A   1      43.542  27.345  35.795  1.00  0.00     0.173 A 
ATOM     92  F   UNL A   1      45.374  30.072  34.231  1.00  0.00    -0.203 F 
ATOM     93  C   UNL A   1      46.096  28.433  35.758  1.00  0.00     0.198 A 
ATOM     94  C   UNL A   1      44.547  26.794  36.585  1.00  0.00     0.198 A 
ATOM     95  F   UNL A   1      42.318  26.796  35.834  1.00  0.00    -0.203 F 
ATOM     96  F   UNL A   1      47.336  28.939  35.714  1.00  0.00    -0.200 F 
ATOM     97  C   UNL A   1      45.823  27.335  36.562  1.00  0.00     0.200 A 
ATOM     98  F   UNL A   1      44.278  25.745  37.374  1.00  0.00    -0.200 F 
ATOM     99  F   UNL A   1      46.794  26.797  37.313  1.00  0.00    -0.200 F 
ENDBRANCH  66  89
ENDBRANCH  40  41
ENDBRANCH  33  35
ENDBRANCH  32  33
ENDBRANCH  31  32
ENDBRANCH  30  31
ENDBRANCH  29  30
ENDBRANCH   1  29
TORSDOF 18
ENDMDL
MODEL 2
REMARK VINA RESULT:     -12.3      5.594     11.297
REMARK SMILES Nn1c(S[C@@H](C(=O)OCCOCCOC(=O)c2ccc(-c3c4nc(c(-c5c(F)c(F)c(F)c(F)c5F)c5ccc([nH]5)c(-c5c(F)c(F)c(F)c(F)c5F)c5nc(c(-c6c(F)c(F)c(F)c(F)c6F)c6ccc3[nH]6)C=C5)C=C4)cc2)c2ccccc2)nc2ccc(Br)cc2c1=O
REMARK SMILES IDX 10 1 9 2 8 3 6 4 7 5 5 6 4 7 3 8 2 9 94 10 86 11 93 12 95 13
REMARK SMILES IDX 87 14 92 15 88 16 90 17 89 18 91 19 1 20 80 23 81 24 85 25
REMARK SMILES IDX 82 26 84 27 83 28 11 29 12 30 13 31 14 32 15 33 16 34 17 35
REMARK SMILES IDX 18 36 79 37 19 38 78 39 20 40 21 41 22 42 72 43 23 44 77 45
REMARK SMILES IDX 71 46 73 47 24 48 76 49 70 50 69 51 25 53 57 54 37 55 56 56
REMARK SMILES IDX 38 57 41 58 55 59 74 60 39 61 40 62 54 64 75 65 42 66 26 67
REMARK SMILES IDX 27 68 35 69 28 70 29 71 33 72 36 73 30 74 31 75 34 76 32 77
REMARK SMILES IDX 58 78 59 79 67 80 60 81 61 82 65 83 68 84 62 85 63 86 66 87
REMARK SMILES IDX 64 88 43 89 44 90 52 91 45 92 46 93 50 94 53 95 47 96 48 97
REMARK SMILES IDX 51 98 49 99
REMARK H PARENT 1 21 1 22 73 52 41 63
REMARK Flexibility Score: inf
ROOT
ATOM      1  C   UNL A   1      37.621  22.166  24.921  1.00  0.00     0.202 C 
ENDROOT
BRANCH   1   2
ATOM      2  C   UNL A   1      36.244  21.485  24.866  1.00  0.00     0.261 C 
BRANCH   2   3
ATOM      3  O   UNL A   1      35.525  21.404  26.125  1.00  0.00    -0.462 OA
BRANCH   3   4
ATOM      4  C   UNL A   1      34.255  20.889  26.047  1.00  0.00     0.324 C 
ATOM      5  O   UNL A   1      33.503  20.908  27.018  1.00  0.00    -0.251 OA
BRANCH   4   6
ATOM      6  C   UNL A   1      33.901  20.235  24.679  1.00  0.00     0.194 C 
BRANCH   6   7
ATOM      7  S   UNL A   1      32.643  21.166  23.781  1.00  0.00    -0.066 SA
BRANCH   7   8
ATOM      8  C   UNL A   1      32.311  22.752  24.451  1.00  0.00     0.191 A 
ATOM      9  N   UNL A   1      31.494  23.047  25.550  1.00  0.00    -0.202 N 
ATOM     10  C   UNL A   1      31.482  24.324  26.133  1.00  0.00     0.280 A 
ATOM     11  N   UNL A   1      32.990  23.677  23.842  1.00  0.00    -0.222 NA
ATOM     12  C   UNL A   1      32.272  25.361  25.461  1.00  0.00     0.069 A 
ATOM     13  O   UNL A   1      30.881  24.580  27.175  1.00  0.00    -0.267 OA
ATOM     14  C   UNL A   1      32.949  24.997  24.302  1.00  0.00     0.079 A 
ATOM     15  C   UNL A   1      32.339  26.662  25.972  1.00  0.00     0.031 A 
ATOM     16  C   UNL A   1      33.664  25.979  23.611  1.00  0.00     0.030 A 
ATOM     17  C   UNL A   1      33.071  27.622  25.281  1.00  0.00     0.018 A 
ATOM     18  C   UNL A   1      33.723  27.291  24.093  1.00  0.00     0.018 A 
ATOM     19  Br  UNL A   1      33.184  29.382  25.957  1.00  0.00    -0.051 Br
BRANCH   9  20
ATOM     20  N   UNL A   1      30.620  22.126  26.162  1.00  0.00    -0.334 N 
ATOM     21  H   UNL A   1      29.985  22.431  26.849  1.00  0.00     0.178 HD
ATOM     22  H   UNL A   1      30.645  21.176  25.903  1.00  0.00     0.178 HD
ENDBRANCH   9  20
ENDBRANCH   7   8
ENDBRANCH   6   7
BRANCH   6  23
ATOM     23  C   UNL A   1      33.746  18.701  24.715  1.00  0.00    -0.023 A 
ATOM     24  C   UNL A   1      34.842  17.886  24.376  1.00  0.00     0.005 A 
ATOM     25  C   UNL A   1      32.585  18.052  25.178  1.00  0.00     0.005 A 
ATOM     26  C   UNL A   1      34.864  16.530  24.708  1.00  0.00     0.000 A 
ATOM     27  C   UNL A   1      32.610  16.698  25.523  1.00  0.00     0.000 A 
ATOM     28  C   UNL A   1      33.764  15.948  25.326  1.00  0.00     0.000 A 
ENDBRANCH   6  23
ENDBRANCH   4   6
ENDBRANCH   3   4
ENDBRANCH   2   3
ENDBRANCH   1   2
BRANCH   1  29
ATOM     29  O   UNL A   1      38.745  21.453  25.433  1.00  0.00    -0.374 OA
BRANCH  29  30
ATOM     30  C   UNL A   1      38.721  20.039  25.348  1.00  0.00     0.202 C 
BRANCH  30  31
ATOM     31  C   UNL A   1      39.863  19.248  25.989  1.00  0.00     0.261 C 
BRANCH  31  32
ATOM     32  O   UNL A   1      41.101  19.337  25.312  1.00  0.00    -0.460 OA
BRANCH  32  33
ATOM     33  C   UNL A   1      42.172  19.312  26.132  1.00  0.00     0.338 C 
ATOM     34  O   UNL A   1      42.893  18.373  26.415  1.00  0.00    -0.246 OA
BRANCH  33  35
ATOM     35  C   UNL A   1      42.425  20.704  26.497  1.00  0.00     0.060 A 
ATOM     36  C   UNL A   1      42.547  21.076  27.839  1.00  0.00     0.016 A 
ATOM     37  C   UNL A   1      42.469  21.643  25.465  1.00  0.00     0.016 A 
ATOM     38  C   UNL A   1      42.746  22.416  28.148  1.00  0.00     0.010 A 
ATOM     39  C   UNL A   1      42.673  22.979  25.776  1.00  0.00     0.010 A 
ATOM     40  C   UNL A   1      42.836  23.365  27.114  1.00  0.00    -0.014 A 
BRANCH  40  41
ATOM     41  C   UNL A   1      43.261  24.745  27.411  1.00  0.00     0.031 A 
ATOM     42  C   UNL A   1      42.299  25.751  27.950  1.00  0.00     0.074 A 
ATOM     43  C   UNL A   1      44.529  25.077  27.108  1.00  0.00     0.049 A 
ATOM     44  N   UNL A   1      42.501  27.013  28.224  1.00  0.00    -0.248 NA
ATOM     45  C   UNL A   1      40.927  25.287  28.205  1.00  0.00     0.031 C 
ATOM     46  C   UNL A   1      45.521  24.158  26.542  1.00  0.00     0.029 A 
ATOM     47  N   UNL A   1      45.199  26.264  27.222  1.00  0.00    -0.354 N 
ATOM     48  C   UNL A   1      41.288  27.496  28.693  1.00  0.00     0.074 A 
ATOM     49  C   UNL A   1      40.342  26.402  28.625  1.00  0.00     0.031 C 
ATOM     50  C   UNL A   1      46.679  24.811  26.377  1.00  0.00     0.029 A 
ATOM     51  C   UNL A   1      46.498  26.199  26.786  1.00  0.00     0.049 A 
ATOM     52  H   UNL A   1      44.789  27.083  27.582  1.00  0.00     0.167 HD
ATOM     53  C   UNL A   1      41.011  28.738  29.152  1.00  0.00     0.037 A 
ATOM     54  C   UNL A   1      47.435  27.161  26.717  1.00  0.00     0.037 A 
ATOM     55  C   UNL A   1      41.974  29.810  29.195  1.00  0.00     0.049 A 
ATOM     56  C   UNL A   1      47.083  28.540  27.192  1.00  0.00     0.074 A 
ATOM     57  C   UNL A   1      41.808  31.099  29.671  1.00  0.00     0.029 A 
ATOM     58  N   UNL A   1      43.280  29.721  28.731  1.00  0.00    -0.354 N 
ATOM     59  N   UNL A   1      45.953  28.974  27.697  1.00  0.00    -0.248 NA
ATOM     60  C   UNL A   1      48.131  29.562  27.091  1.00  0.00     0.031 C 
ATOM     61  C   UNL A   1      42.993  31.803  29.444  1.00  0.00     0.029 A 
ATOM     62  C   UNL A   1      43.921  30.939  28.884  1.00  0.00     0.049 A 
ATOM     63  H   UNL A   1      43.690  28.910  28.351  1.00  0.00     0.167 HD
ATOM     64  C   UNL A   1      46.158  30.314  27.992  1.00  0.00     0.074 A 
ATOM     65  C   UNL A   1      47.529  30.614  27.629  1.00  0.00     0.031 C 
ATOM     66  C   UNL A   1      45.288  31.215  28.510  1.00  0.00     0.037 A 
BRANCH  53  67
ATOM     67  C   UNL A   1      39.621  29.011  29.650  1.00  0.00     0.064 A 
ATOM     68  C   UNL A   1      38.609  29.452  28.784  1.00  0.00     0.173 A 
ATOM     69  C   UNL A   1      39.275  28.756  30.985  1.00  0.00     0.173 A 
ATOM     70  F   UNL A   1      38.887  29.720  27.499  1.00  0.00    -0.203 F 
ATOM     71  C   UNL A   1      37.306  29.642  29.240  1.00  0.00     0.198 A 
ATOM     72  C   UNL A   1      37.965  28.919  31.431  1.00  0.00     0.198 A 
ATOM     73  F   UNL A   1      40.203  28.328  31.855  1.00  0.00    -0.203 F 
ATOM     74  F   UNL A   1      36.364  30.096  28.402  1.00  0.00    -0.200 F 
ATOM     75  C   UNL A   1      36.983  29.365  30.560  1.00  0.00     0.200 A 
ATOM     76  F   UNL A   1      37.652  28.637  32.704  1.00  0.00    -0.200 F 
ATOM     77  F   UNL A   1      35.725  29.531  30.992  1.00  0.00    -0.200 F 
ENDBRANCH  53  67
BRANCH  54  78
ATOM     78  C   UNL A   1      48.791  26.826  26.214  1.00  0.00     0.064 A 
ATOM     79  C   UNL A   1      49.733  26.213  27.052  1.00  0.00     0.173 A 
ATOM     80  C   UNL A   1      49.158  27.060  24.880  1.00  0.00     0.173 A 
ATOM     81  F   UNL A   1      49.433  25.979  28.337  1.00  0.00    -0.203 F 
ATOM     82  C   UNL A   1      50.993  25.858  26.577  1.00  0.00     0.198 A 
ATOM     83  C   UNL A   1      50.408  26.675  24.400  1.00  0.00     0.198 A 
ATOM     84  F   UNL A   1      48.288  27.631  24.034  1.00  0.00    -0.203 F 
ATOM     85  F   UNL A   1      51.885  25.301  27.408  1.00  0.00    -0.200 F 
ATOM     86  C   UNL A   1      51.326  26.080  25.249  1.00  0.00     0.200 A 
ATOM     87  F   UNL A   1      50.717  26.873  23.110  1.00  0.00    -0.200 F 
ATOM     88  F   UNL A   1      52.532  25.721  24.790  1.00  0.00    -0.200 F 
ENDBRANCH  54  78
BRANCH  66  89
ATOM     89  C   UNL A   1      45.793  32.612  28.725  1.00  0.00     0.064 A 
ATOM     90  C   UNL A   1      45.636  33.605  27.748  1.00  0.00     0.173 A 
ATOM     91  C   UNL A   1      46.377  32.978  29.948  1.00  0.00     0.173 A 
ATOM     92  F   UNL A   1      45.097  33.301  26.557  1.00  0.00    -0.203 F 
ATOM     93  C   UNL A   1      46.060  34.910  27.980  1.00  0.00     0.198 A 
ATOM     94  C   UNL A   1      46.769  34.292  30.189  1.00  0.00     0.198 A 
ATOM     95  F   UNL A   1      46.544  32.067  30.918  1.00  0.00    -0.203 F 
ATOM     96  F   UNL A   1      45.937  35.834  27.016  1.00  0.00    -0.200 F 
ATOM     97  C   UNL A   1      46.615  35.254  29.203  1.00  0.00     0.200 A 
ATOM     98  F   UNL A   1      47.287  34.627  31.378  1.00  0.00    -0.200 F 
ATOM     99  F   UNL A   1      47.003  36.517  29.432  1.00  0.00    -0.200 F 
ENDBRANCH  66  89
ENDBRANCH  40  41
ENDBRANCH  33  35
ENDBRANCH  32  33
ENDBRANCH  31  32
ENDBRANCH  30  31
ENDBRANCH  29  30
ENDBRANCH   1  29
TORSDOF 18
ENDMDL
MODEL 3
REMARK VINA RESULT:     -12.3      0.395      1.990
REMARK SMILES Nn1c(S[C@@H](C(=O)OCCOCCOC(=O)c2ccc(-c3c4nc(c(-c5c(F)c(F)c(F)c(F)c5F)c5ccc([nH]5)c(-c5c(F)c(F)c(F)c(F)c5F)c5nc(c(-c6c(F)c(F)c(F)c(F)c6F)c6ccc3[nH]6)C=C5)C=C4)cc2)c2ccccc2)nc2ccc(Br)cc2c1=O
REMARK SMILES IDX 10 1 9 2 8 3 6 4 7 5 5 6 4 7 3 8 2 9 94 10 86 11 93 12 95 13
REMARK SMILES IDX 87 14 92 15 88 16 90 17 89 18 91 19 1 20 80 23 81 24 85 25
REMARK SMILES IDX 82 26 84 27 83 28 11 29 12 30 13 31 14 32 15 33 16 34 17 35
REMARK SMILES IDX 18 36 79 37 19 38 78 39 20 40 21 41 22 42 72 43 23 44 77 45
REMARK SMILES IDX 71 46 73 47 24 48 76 49 70 50 69 51 25 53 57 54 37 55 56 56
REMARK SMILES IDX 38 57 41 58 55 59 74 60 39 61 40 62 54 64 75 65 42 66 26 67
REMARK SMILES IDX 27 68 35 69 28 70 29 71 33 72 36 73 30 74 31 75 34 76 32 77
REMARK SMILES IDX 58 78 59 79 67 80 60 81 61 82 65 83 68 84 62 85 63 86 66 87
REMARK SMILES IDX 64 88 43 89 44 90 52 91 45 92 46 93 50 94 53 95 47 96 48 97
REMARK SMILES IDX 51 98 49 99
REMARK H PARENT 1 21 1 22 73 52 41 63
REMARK Flexibility Score: inf
ROOT
ATOM      1  C   UNL A   1      33.116  30.074  26.665  1.00  0.00     0.202 C 
ENDROOT
BRANCH   1   2
ATOM      2  C   UNL A   1      31.912  29.524  25.881  1.00  0.00     0.261 C 
BRANCH   2   3
ATOM      3  O   UNL A   1      32.221  28.558  24.841  1.00  0.00    -0.462 OA
BRANCH   3   4
ATOM      4  C   UNL A   1      31.511  28.700  23.675  1.00  0.00     0.324 C 
ATOM      5  O   UNL A   1      32.081  28.917  22.609  1.00  0.00    -0.251 OA
BRANCH   4   6
ATOM      6  C   UNL A   1      29.964  28.636  23.844  1.00  0.00     0.194 C 
BRANCH   6   7
ATOM      7  S   UNL A   1      29.312  26.981  23.544  1.00  0.00    -0.066 SA
BRANCH   7   8
ATOM      8  C   UNL A   1      30.264  25.694  24.259  1.00  0.00     0.191 A 
ATOM      9  N   UNL A   1      30.596  25.545  25.611  1.00  0.00    -0.202 N 
ATOM     10  C   UNL A   1      31.170  24.360  26.100  1.00  0.00     0.280 A 
ATOM     11  N   UNL A   1      30.593  24.799  23.377  1.00  0.00    -0.222 NA
ATOM     12  C   UNL A   1      31.515  23.338  25.106  1.00  0.00     0.069 A 
ATOM     13  O   UNL A   1      31.351  24.146  27.298  1.00  0.00    -0.267 OA
ATOM     14  C   UNL A   1      31.259  23.634  23.771  1.00  0.00     0.079 A 
ATOM     15  C   UNL A   1      32.076  22.116  25.492  1.00  0.00     0.031 A 
ATOM     16  C   UNL A   1      31.629  22.701  22.799  1.00  0.00     0.030 A 
ATOM     17  C   UNL A   1      32.419  21.191  24.512  1.00  0.00     0.018 A 
ATOM     18  C   UNL A   1      32.213  21.483  23.164  1.00  0.00     0.018 A 
ATOM     19  Br  UNL A   1      33.169  19.530  25.010  1.00  0.00    -0.051 Br
BRANCH   9  20
ATOM     20  N   UNL A   1      30.404  26.539  26.593  1.00  0.00    -0.334 N 
ATOM     21  H   UNL A   1      30.011  27.407  26.345  1.00  0.00     0.178 HD
ATOM     22  H   UNL A   1      30.664  26.366  27.527  1.00  0.00     0.178 HD
ENDBRANCH   9  20
ENDBRANCH   7   8
ENDBRANCH   6   7
BRANCH   6  23
ATOM     23  C   UNL A   1      29.195  29.817  23.218  1.00  0.00    -0.023 A 
ATOM     24  C   UNL A   1      29.185  31.062  23.873  1.00  0.00     0.005 A 
ATOM     25  C   UNL A   1      28.578  29.755  21.953  1.00  0.00     0.005 A 
ATOM     26  C   UNL A   1      28.801  32.227  23.206  1.00  0.00     0.000 A 
ATOM     27  C   UNL A   1      28.206  30.921  21.279  1.00  0.00     0.000 A 
ATOM     28  C   UNL A   1      28.357  32.160  21.892  1.00  0.00     0.000 A 
ENDBRANCH   6  23
ENDBRANCH   4   6
ENDBRANCH   3   4
ENDBRANCH   2   3
ENDBRANCH   1   2
BRANCH   1  29
ATOM     29  O   UNL A   1      32.966  31.246  27.463  1.00  0.00    -0.374 OA
BRANCH  29  30
ATOM     30  C   UNL A   1      32.000  32.199  27.057  1.00  0.00     0.202 C 
BRANCH  30  31
ATOM     31  C   UNL A   1      32.313  33.684  27.245  1.00  0.00     0.261 C 
BRANCH  31  32
ATOM     32  O   UNL A   1      32.330  34.123  28.589  1.00  0.00    -0.460 OA
BRANCH  32  33
ATOM     33  C   UNL A   1      33.279  35.046  28.848  1.00  0.00     0.338 C 
ATOM     34  O   UNL A   1      33.182  36.260  28.845  1.00  0.00    -0.246 OA
BRANCH  33  35
ATOM     35  C   UNL A   1      34.444  34.300  29.319  1.00  0.00     0.060 A 
ATOM     36  C   UNL A   1      35.717  34.574  28.813  1.00  0.00     0.016 A 
ATOM     37  C   UNL A   1      34.220  33.266  30.230  1.00  0.00     0.016 A 
ATOM     38  C   UNL A   1      36.793  33.814  29.255  1.00  0.00     0.010 A 
ATOM     39  C   UNL A   1      35.296  32.512  30.673  1.00  0.00     0.010 A 
ATOM     40  C   UNL A   1      36.587  32.800  30.206  1.00  0.00    -0.014 A 
BRANCH  40  41
ATOM     41  C   UNL A   1      37.739  32.136  30.842  1.00  0.00     0.031 A 
ATOM     42  C   UNL A   1      38.479  31.040  30.149  1.00  0.00     0.074 A 
ATOM     43  C   UNL A   1      38.048  32.508  32.097  1.00  0.00     0.049 A 
ATOM     44  N   UNL A   1      39.485  30.327  30.584  1.00  0.00    -0.248 NA
ATOM     45  C   UNL A   1      38.028  30.688  28.794  1.00  0.00     0.031 C 
ATOM     46  C   UNL A   1      37.346  33.547  32.857  1.00  0.00     0.029 A 
ATOM     47  N   UNL A   1      39.014  32.060  32.955  1.00  0.00    -0.354 N 
ATOM     48  C   UNL A   1      39.795  29.448  29.558  1.00  0.00     0.074 A 
ATOM     49  C   UNL A   1      38.843  29.685  28.493  1.00  0.00     0.031 C 
ATOM     50  C   UNL A   1      37.920  33.670  34.062  1.00  0.00     0.029 A 
ATOM     51  C   UNL A   1      38.997  32.694  34.172  1.00  0.00     0.049 A 
ATOM     52  H   UNL A   1      39.658  31.354  32.722  1.00  0.00     0.167 HD
ATOM     53  C   UNL A   1      40.800  28.542  29.518  1.00  0.00     0.037 A 
ATOM     54  C   UNL A   1      39.765  32.499  35.259  1.00  0.00     0.037 A 
ATOM     55  C   UNL A   1      41.724  28.320  30.602  1.00  0.00     0.049 A 
ATOM     56  C   UNL A   1      40.841  31.454  35.198  1.00  0.00     0.074 A 
ATOM     57  C   UNL A   1      42.798  27.449  30.653  1.00  0.00     0.029 A 
ATOM     58  N   UNL A   1      41.673  28.966  31.830  1.00  0.00    -0.354 N 
ATOM     59  N   UNL A   1      41.174  30.671  34.200  1.00  0.00    -0.248 NA
ATOM     60  C   UNL A   1      41.650  31.266  36.408  1.00  0.00     0.031 C 
ATOM     61  C   UNL A   1      43.362  27.529  31.930  1.00  0.00     0.029 A 
ATOM     62  C   UNL A   1      42.680  28.492  32.656  1.00  0.00     0.049 A 
ATOM     63  H   UNL A   1      41.019  29.659  32.077  1.00  0.00     0.167 HD
ATOM     64  C   UNL A   1      42.241  29.910  34.652  1.00  0.00     0.074 A 
ATOM     65  C   UNL A   1      42.514  30.343  36.008  1.00  0.00     0.031 C 
ATOM     66  C   UNL A   1      42.929  28.937  34.006  1.00  0.00     0.037 A 
BRANCH  53  67
ATOM     67  C   UNL A   1      40.961  27.725  28.268  1.00  0.00     0.064 A 
ATOM     68  C   UNL A   1      41.768  28.164  27.207  1.00  0.00     0.173 A 
ATOM     69  C   UNL A   1      40.367  26.458  28.158  1.00  0.00     0.173 A 
ATOM     70  F   UNL A   1      42.351  29.371  27.256  1.00  0.00    -0.203 F 
ATOM     71  C   UNL A   1      41.963  27.372  26.078  1.00  0.00     0.198 A 
ATOM     72  C   UNL A   1      40.589  25.656  27.040  1.00  0.00     0.198 A 
ATOM     73  F   UNL A   1      39.589  25.987  29.145  1.00  0.00    -0.203 F 
ATOM     74  F   UNL A   1      42.711  27.827  25.064  1.00  0.00    -0.200 F 
ATOM     75  C   UNL A   1      41.382  26.115  26.000  1.00  0.00     0.200 A 
ATOM     76  F   UNL A   1      40.038  24.436  26.973  1.00  0.00    -0.200 F 
ATOM     77  F   UNL A   1      41.586  25.347  24.921  1.00  0.00    -0.200 F 
ENDBRANCH  53  67
BRANCH  54  78
ATOM     78  C   UNL A   1      39.553  33.339  36.464  1.00  0.00     0.064 A 
ATOM     79  C   UNL A   1      40.158  34.599  36.571  1.00  0.00     0.173 A 
ATOM     80  C   UNL A   1      38.707  32.930  37.505  1.00  0.00     0.173 A 
ATOM     81  F   UNL A   1      40.984  35.029  35.607  1.00  0.00    -0.203 F 
ATOM     82  C   UNL A   1      39.933  35.412  37.679  1.00  0.00     0.198 A 
ATOM     83  C   UNL A   1      38.458  33.758  38.598  1.00  0.00     0.198 A 
ATOM     84  F   UNL A   1      38.093  31.739  37.444  1.00  0.00    -0.203 F 
ATOM     85  F   UNL A   1      40.548  36.599  37.771  1.00  0.00    -0.200 F 
ATOM     86  C   UNL A   1      39.075  34.995  38.687  1.00  0.00     0.200 A 
ATOM     87  F   UNL A   1      37.612  33.359  39.558  1.00  0.00    -0.200 F 
ATOM     88  F   UNL A   1      38.846  35.786  39.743  1.00  0.00    -0.200 F 
ENDBRANCH  54  78
BRANCH  66  89
ATOM     89  C   UNL A   1      44.051  28.277  34.754  1.00  0.00     0.064 A 
ATOM     90  C   UNL A   1      43.850  27.093  35.478  1.00  0.00     0.173 A 
ATOM     91  C   UNL A   1      45.353  28.795  34.688  1.00  0.00     0.173 A 
ATOM     92  F   UNL A   1      42.620  26.566  35.583  1.00  0.00    -0.203 F 
ATOM     93  C   UNL A   1      44.909  26.461  36.122  1.00  0.00     0.198 A 
ATOM     94  C   UNL A   1      46.416  28.142  35.305  1.00  0.00     0.198 A 
ATOM     95  F   UNL A   1      45.599  29.922  34.003  1.00  0.00    -0.203 F 
ATOM     96  F   UNL A   1      44.687  25.352  36.842  1.00  0.00    -0.200 F 
ATOM     97  C   UNL A   1      46.192  26.979  36.025  1.00  0.00     0.200 A 
ATOM     98  F   UNL A   1      47.657  28.634  35.195  1.00  0.00    -0.200 F 
ATOM     99  F   UNL A   1      47.214  26.357  36.629  1.00  0.00    -0.200 F 
ENDBRANCH  66  89
ENDBRANCH  40  41
ENDBRANCH  33  35
ENDBRANCH  32  33
ENDBRANCH  31  32
ENDBRANCH  30  31
ENDBRANCH  29  30
ENDBRANCH   1  29
TORSDOF 18
ENDMDL
