MODEL 1
REMARK VINA RESULT:     -10.6      0.000      0.000
REMARK SMILES CCC[C@@H]([NH2+]C[C@H]1CSc2ccccc21)C(=O)OCCOCCOC(=O)c1ccc(-c2c3nc(c(-c4c(F)c(F)c(F)c(F)c4F)c4ccc([nH]4)c(-c4c(F)c(F)c(F)c(F)c4F)c4nc(c(-c5c(F)c(F)c(F)c(F)c5F)c5ccc2[nH]5)C=C4)C=C3)cc1
REMARK SMILES IDX 20 1 19 2 18 3 16 4 17 5 4 6 3 7 2 8 1 9 5 10 6 13 7 14 8 15
REMARK SMILES IDX 15 16 9 17 10 18 14 19 11 20 13 21 12 22 21 23 22 24 23 25
REMARK SMILES IDX 24 26 25 27 26 28 27 29 28 30 89 31 29 32 88 33 30 34 31 35
REMARK SMILES IDX 32 36 82 37 33 38 87 39 81 40 83 41 34 42 86 43 80 44 79 45
REMARK SMILES IDX 35 47 67 48 47 49 66 50 48 51 51 52 65 53 84 54 49 55 50 56
REMARK SMILES IDX 64 58 85 59 52 60 36 61 37 62 45 63 38 64 39 65 43 66 46 67
REMARK SMILES IDX 40 68 41 69 44 70 42 71 68 72 69 73 77 74 70 75 71 76 75 77
REMARK SMILES IDX 78 78 72 79 73 80 76 81 74 82 53 83 54 84 62 85 55 86 56 87
REMARK SMILES IDX 60 88 63 89 57 90 58 91 61 92 59 93
REMARK H PARENT 5 11 5 12 83 46 51 57
REMARK Flexibility Score: inf
ROOT
ATOM      1  C   UNL A   1      32.299  28.640  26.934  1.00  0.00     0.202 C 
ENDROOT
BRANCH   1   2
ATOM      2  C   UNL A   1      31.081  27.704  26.854  1.00  0.00     0.261 C 
BRANCH   2   3
ATOM      3  O   UNL A   1      31.373  26.316  27.050  1.00  0.00    -0.459 OA
BRANCH   3   4
ATOM      4  C   UNL A   1      30.808  25.539  26.087  1.00  0.00     0.364 C 
ATOM      5  O   UNL A   1      29.650  25.694  25.698  1.00  0.00    -0.245 OA
BRANCH   4   6
ATOM      6  C   UNL A   1      31.748  24.474  25.476  1.00  0.00     0.293 C 
BRANCH   6   7
ATOM      7  C   UNL A   1      33.149  24.415  26.122  1.00  0.00     0.077 C 
BRANCH   7   8
ATOM      8  C   UNL A   1      34.116  25.553  25.747  1.00  0.00     0.003 C 
ATOM      9  C   UNL A   1      33.963  26.078  24.328  1.00  0.00     0.004 C 
ENDBRANCH   7   8
ENDBRANCH   6   7
BRANCH   6  10
ATOM     10  N   UNL A   1      31.108  23.142  25.450  1.00  0.00    -0.334 N 
ATOM     11  H   UNL A   1      30.553  23.079  24.597  1.00  0.00     0.347 HD
ATOM     12  H   UNL A   1      30.561  23.083  26.308  1.00  0.00     0.347 HD
BRANCH  10  13
ATOM     13  C   UNL A   1      32.021  21.990  25.479  1.00  0.00     0.270 C 
BRANCH  13  14
ATOM     14  C   UNL A   1      32.669  21.445  24.174  1.00  0.00     0.086 C 
ATOM     15  C   UNL A   1      32.169  21.940  22.800  1.00  0.00     0.089 C 
ATOM     16  C   UNL A   1      34.156  21.697  24.193  1.00  0.00    -0.025 A 
ATOM     17  S   UNL A   1      33.343  23.184  22.174  1.00  0.00    -0.125 SA
ATOM     18  C   UNL A   1      34.612  22.634  23.266  1.00  0.00     0.011 A 
ATOM     19  C   UNL A   1      35.036  21.114  25.101  1.00  0.00     0.005 A 
ATOM     20  C   UNL A   1      35.934  23.046  23.266  1.00  0.00     0.015 A 
ATOM     21  C   UNL A   1      36.368  21.516  25.102  1.00  0.00     0.000 A 
ATOM     22  C   UNL A   1      36.813  22.486  24.197  1.00  0.00     0.001 A 
ENDBRANCH  13  14
ENDBRANCH  10  13
ENDBRANCH   6  10
ENDBRANCH   4   6
ENDBRANCH   3   4
ENDBRANCH   2   3
ENDBRANCH   1   2
BRANCH   1  23
ATOM     23  O   UNL A   1      32.464  29.676  25.976  1.00  0.00    -0.374 OA
BRANCH  23  24
ATOM     24  C   UNL A   1      31.457  30.671  25.811  1.00  0.00     0.202 C 
BRANCH  24  25
ATOM     25  C   UNL A   1      31.622  32.037  26.482  1.00  0.00     0.261 C 
BRANCH  25  26
ATOM     26  O   UNL A   1      32.483  31.987  27.633  1.00  0.00    -0.460 OA
BRANCH  26  27
ATOM     27  C   UNL A   1      33.430  32.954  27.669  1.00  0.00     0.338 C 
ATOM     28  O   UNL A   1      33.259  34.164  27.593  1.00  0.00    -0.246 OA
BRANCH  27  29
ATOM     29  C   UNL A   1      34.729  32.372  28.042  1.00  0.00     0.060 A 
ATOM     30  C   UNL A   1      35.874  33.160  28.151  1.00  0.00     0.016 A 
ATOM     31  C   UNL A   1      34.763  31.010  28.377  1.00  0.00     0.016 A 
ATOM     32  C   UNL A   1      37.044  32.590  28.660  1.00  0.00     0.010 A 
ATOM     33  C   UNL A   1      35.931  30.442  28.878  1.00  0.00     0.010 A 
ATOM     34  C   UNL A   1      37.068  31.239  29.061  1.00  0.00    -0.014 A 
BRANCH  34  35
ATOM     35  C   UNL A   1      38.208  30.719  29.855  1.00  0.00     0.031 A 
ATOM     36  C   UNL A   1      38.446  31.138  31.272  1.00  0.00     0.074 A 
ATOM     37  C   UNL A   1      39.067  29.880  29.244  1.00  0.00     0.049 A 
ATOM     38  N   UNL A   1      39.347  30.699  32.114  1.00  0.00    -0.248 NA
ATOM     39  C   UNL A   1      37.577  32.192  31.813  1.00  0.00     0.031 C 
ATOM     40  C   UNL A   1      38.974  29.468  27.841  1.00  0.00     0.029 A 
ATOM     41  N   UNL A   1      40.173  29.219  29.713  1.00  0.00    -0.354 N 
ATOM     42  C   UNL A   1      39.138  31.400  33.293  1.00  0.00     0.074 A 
ATOM     43  C   UNL A   1      38.064  32.337  33.040  1.00  0.00     0.031 C 
ATOM     44  C   UNL A   1      39.952  28.590  27.577  1.00  0.00     0.029 A 
ATOM     45  C   UNL A   1      40.756  28.397  28.780  1.00  0.00     0.049 A 
ATOM     46  H   UNL A   1      40.515  29.324  30.630  1.00  0.00     0.167 HD
ATOM     47  C   UNL A   1      39.772  31.248  34.480  1.00  0.00     0.037 A 
ATOM     48  C   UNL A   1      41.813  27.569  28.884  1.00  0.00     0.037 A 
ATOM     49  C   UNL A   1      40.852  30.322  34.711  1.00  0.00     0.049 A 
ATOM     50  C   UNL A   1      42.514  27.440  30.207  1.00  0.00     0.074 A 
ATOM     51  C   UNL A   1      41.523  30.062  35.894  1.00  0.00     0.029 A 
ATOM     52  N   UNL A   1      41.429  29.517  33.739  1.00  0.00    -0.354 N 
ATOM     53  N   UNL A   1      42.238  28.025  31.347  1.00  0.00    -0.248 NA
ATOM     54  C   UNL A   1      43.669  26.531  30.264  1.00  0.00     0.031 C 
ATOM     55  C   UNL A   1      42.543  29.145  35.626  1.00  0.00     0.029 A 
ATOM     56  C   UNL A   1      42.469  28.783  34.290  1.00  0.00     0.049 A 
ATOM     57  H   UNL A   1      41.143  29.472  32.799  1.00  0.00     0.167 HD
ATOM     58  C   UNL A   1      43.161  27.536  32.261  1.00  0.00     0.074 A 
ATOM     59  C   UNL A   1      44.002  26.599  31.547  1.00  0.00     0.031 C 
ATOM     60  C   UNL A   1      43.292  27.840  33.574  1.00  0.00     0.037 A 
BRANCH  47  61
ATOM     61  C   UNL A   1      39.306  32.078  35.641  1.00  0.00     0.064 A 
ATOM     62  C   UNL A   1      38.412  31.560  36.590  1.00  0.00     0.173 A 
ATOM     63  C   UNL A   1      39.837  33.356  35.871  1.00  0.00     0.173 A 
ATOM     64  F   UNL A   1      37.875  30.343  36.418  1.00  0.00    -0.203 F 
ATOM     65  C   UNL A   1      38.058  32.294  37.718  1.00  0.00     0.198 A 
ATOM     66  C   UNL A   1      39.504  34.076  37.016  1.00  0.00     0.198 A 
ATOM     67  F   UNL A   1      40.707  33.893  35.003  1.00  0.00    -0.203 F 
ATOM     68  F   UNL A   1      37.182  31.788  38.598  1.00  0.00    -0.200 F 
ATOM     69  C   UNL A   1      38.612  33.547  37.936  1.00  0.00     0.200 A 
ATOM     70  F   UNL A   1      40.057  35.278  37.235  1.00  0.00    -0.200 F 
ATOM     71  F   UNL A   1      38.290  34.242  39.036  1.00  0.00    -0.200 F 
ENDBRANCH  47  61
BRANCH  48  72
ATOM     72  C   UNL A   1      42.219  26.753  27.711  1.00  0.00     0.064 A 
ATOM     73  C   UNL A   1      43.211  27.207  26.832  1.00  0.00     0.173 A 
ATOM     74  C   UNL A   1      41.662  25.488  27.471  1.00  0.00     0.173 A 
ATOM     75  F   UNL A   1      43.765  28.415  27.013  1.00  0.00    -0.203 F 
ATOM     76  C   UNL A   1      43.623  26.431  25.751  1.00  0.00     0.198 A 
ATOM     77  C   UNL A   1      42.096  24.701  26.407  1.00  0.00     0.198 A 
ATOM     78  F   UNL A   1      40.717  25.004  28.290  1.00  0.00    -0.203 F 
ATOM     79  F   UNL A   1      44.552  26.902  24.907  1.00  0.00    -0.200 F 
ATOM     80  C   UNL A   1      43.073  25.176  25.545  1.00  0.00     0.200 A 
ATOM     81  F   UNL A   1      41.575  23.480  26.223  1.00  0.00    -0.200 F 
ATOM     82  F   UNL A   1      43.482  24.423  24.514  1.00  0.00    -0.200 F 
ENDBRANCH  48  72
BRANCH  60  83
ATOM     83  C   UNL A   1      44.367  27.143  34.356  1.00  0.00     0.064 A 
ATOM     84  C   UNL A   1      44.166  25.869  34.903  1.00  0.00     0.173 A 
ATOM     85  C   UNL A   1      45.649  27.707  34.454  1.00  0.00     0.173 A 
ATOM     86  F   UNL A   1      42.955  25.292  34.848  1.00  0.00    -0.203 F 
ATOM     87  C   UNL A   1      45.211  25.181  35.516  1.00  0.00     0.198 A 
ATOM     88  C   UNL A   1      46.698  27.005  35.042  1.00  0.00     0.198 A 
ATOM     89  F   UNL A   1      45.894  28.922  33.941  1.00  0.00    -0.203 F 
ATOM     90  F   UNL A   1      44.993  23.970  36.048  1.00  0.00    -0.200 F 
ATOM     91  C   UNL A   1      46.478  25.744  35.572  1.00  0.00     0.200 A 
ATOM     92  F   UNL A   1      47.925  27.542  35.077  1.00  0.00    -0.200 F 
ATOM     93  F   UNL A   1      47.489  25.066  36.133  1.00  0.00    -0.200 F 
ENDBRANCH  60  83
ENDBRANCH  34  35
ENDBRANCH  27  29
ENDBRANCH  26  27
ENDBRANCH  25  26
ENDBRANCH  24  25
ENDBRANCH  23  24
ENDBRANCH   1  23
TORSDOF 19
ENDMDL
MODEL 2
REMARK VINA RESULT:     -10.2      4.402      7.536
REMARK SMILES CCC[C@@H]([NH2+]C[C@H]1CSc2ccccc21)C(=O)OCCOCCOC(=O)c1ccc(-c2c3nc(c(-c4c(F)c(F)c(F)c(F)c4F)c4ccc([nH]4)c(-c4c(F)c(F)c(F)c(F)c4F)c4nc(c(-c5c(F)c(F)c(F)c(F)c5F)c5ccc2[nH]5)C=C4)C=C3)cc1
REMARK SMILES IDX 20 1 19 2 18 3 16 4 17 5 4 6 3 7 2 8 1 9 5 10 6 13 7 14 8 15
REMARK SMILES IDX 15 16 9 17 10 18 14 19 11 20 13 21 12 22 21 23 22 24 23 25
REMARK SMILES IDX 24 26 25 27 26 28 27 29 28 30 89 31 29 32 88 33 30 34 31 35
REMARK SMILES IDX 32 36 82 37 33 38 87 39 81 40 83 41 34 42 86 43 80 44 79 45
REMARK SMILES IDX 35 47 67 48 47 49 66 50 48 51 51 52 65 53 84 54 49 55 50 56
REMARK SMILES IDX 64 58 85 59 52 60 36 61 37 62 45 63 38 64 39 65 43 66 46 67
REMARK SMILES IDX 40 68 41 69 44 70 42 71 68 72 69 73 77 74 70 75 71 76 75 77
REMARK SMILES IDX 78 78 72 79 73 80 76 81 74 82 53 83 54 84 62 85 55 86 56 87
REMARK SMILES IDX 60 88 63 89 57 90 58 91 61 92 59 93
REMARK H PARENT 5 11 5 12 83 46 51 57
REMARK Flexibility Score: inf
ROOT
ATOM      1  C   UNL A   1      35.752  22.723  26.114  1.00  0.00     0.202 C 
ENDROOT
BRANCH   1   2
ATOM      2  C   UNL A   1      34.408  23.453  26.275  1.00  0.00     0.261 C 
BRANCH   2   3
ATOM      3  O   UNL A   1      33.304  22.613  26.628  1.00  0.00    -0.459 OA
BRANCH   3   4
ATOM      4  C   UNL A   1      32.116  23.268  26.524  1.00  0.00     0.364 C 
ATOM      5  O   UNL A   1      31.486  23.669  27.503  1.00  0.00    -0.245 OA
BRANCH   4   6
ATOM      6  C   UNL A   1      31.637  23.519  25.075  1.00  0.00     0.293 C 
BRANCH   6   7
ATOM      7  C   UNL A   1      31.685  22.273  24.163  1.00  0.00     0.077 C 
BRANCH   7   8
ATOM      8  C   UNL A   1      32.931  22.137  23.269  1.00  0.00     0.003 C 
ATOM      9  C   UNL A   1      33.007  23.137  22.125  1.00  0.00     0.004 C 
ENDBRANCH   7   8
ENDBRANCH   6   7
BRANCH   6  10
ATOM     10  N   UNL A   1      30.303  24.154  25.051  1.00  0.00    -0.334 N 
ATOM     11  H   UNL A   1      29.857  23.977  25.952  1.00  0.00     0.347 HD
ATOM     12  H   UNL A   1      29.815  23.741  24.257  1.00  0.00     0.347 HD
BRANCH  10  13
ATOM     13  C   UNL A   1      30.286  25.606  24.819  1.00  0.00     0.270 C 
BRANCH  13  14
ATOM     14  C   UNL A   1      31.586  26.375  24.449  1.00  0.00     0.086 C 
ATOM     15  C   UNL A   1      31.785  26.911  23.016  1.00  0.00     0.089 C 
ATOM     16  C   UNL A   1      31.763  27.560  25.366  1.00  0.00    -0.025 A 
ATOM     17  S   UNL A   1      31.421  28.695  23.011  1.00  0.00    -0.125 SA
ATOM     18  C   UNL A   1      31.618  28.807  24.759  1.00  0.00     0.011 A 
ATOM     19  C   UNL A   1      31.981  27.461  26.737  1.00  0.00     0.005 A 
ATOM     20  C   UNL A   1      31.631  29.968  25.513  1.00  0.00     0.015 A 
ATOM     21  C   UNL A   1      32.005  28.624  27.502  1.00  0.00     0.000 A 
ATOM     22  C   UNL A   1      31.819  29.871  26.894  1.00  0.00     0.001 A 
ENDBRANCH  13  14
ENDBRANCH  10  13
ENDBRANCH   6  10
ENDBRANCH   4   6
ENDBRANCH   3   4
ENDBRANCH   2   3
ENDBRANCH   1   2
BRANCH   1  23
ATOM     23  O   UNL A   1      36.031  22.002  24.922  1.00  0.00    -0.374 OA
BRANCH  23  24
ATOM     24  C   UNL A   1      36.379  20.620  24.982  1.00  0.00     0.202 C 
BRANCH  24  25
ATOM     25  C   UNL A   1      37.849  20.213  25.115  1.00  0.00     0.261 C 
BRANCH  25  26
ATOM     26  O   UNL A   1      38.718  21.339  25.327  1.00  0.00    -0.460 OA
BRANCH  26  27
ATOM     27  C   UNL A   1      39.606  21.182  26.337  1.00  0.00     0.338 C 
ATOM     28  O   UNL A   1      40.192  20.156  26.658  1.00  0.00    -0.246 OA
BRANCH  27  29
ATOM     29  C   UNL A   1      39.965  22.494  26.899  1.00  0.00     0.060 A 
ATOM     30  C   UNL A   1      40.982  22.626  27.843  1.00  0.00     0.016 A 
ATOM     31  C   UNL A   1      39.315  23.625  26.383  1.00  0.00     0.016 A 
ATOM     32  C   UNL A   1      41.390  23.907  28.225  1.00  0.00     0.010 A 
ATOM     33  C   UNL A   1      39.719  24.901  26.770  1.00  0.00     0.010 A 
ATOM     34  C   UNL A   1      40.787  25.050  27.663  1.00  0.00    -0.014 A 
BRANCH  34  35
ATOM     35  C   UNL A   1      41.404  26.386  27.851  1.00  0.00     0.031 A 
ATOM     36  C   UNL A   1      40.674  27.512  28.513  1.00  0.00     0.074 A 
ATOM     37  C   UNL A   1      42.644  26.578  27.360  1.00  0.00     0.049 A 
ATOM     38  N   UNL A   1      41.118  28.703  28.824  1.00  0.00    -0.248 NA
ATOM     39  C   UNL A   1      39.265  27.284  28.859  1.00  0.00     0.031 C 
ATOM     40  C   UNL A   1      43.416  25.572  26.626  1.00  0.00     0.029 A 
ATOM     41  N   UNL A   1      43.475  27.668  27.406  1.00  0.00    -0.354 N 
ATOM     42  C   UNL A   1      40.056  29.359  29.428  1.00  0.00     0.074 A 
ATOM     43  C   UNL A   1      38.925  28.456  29.384  1.00  0.00     0.031 C 
ATOM     44  C   UNL A   1      44.623  26.076  26.332  1.00  0.00     0.029 A 
ATOM     45  C   UNL A   1      44.702  27.445  26.831  1.00  0.00     0.049 A 
ATOM     46  H   UNL A   1      43.217  28.526  27.813  1.00  0.00     0.167 HD
ATOM     47  C   UNL A   1      40.042  30.593  29.987  1.00  0.00     0.037 A 
ATOM     48  C   UNL A   1      45.778  28.248  26.728  1.00  0.00     0.037 A 
ATOM     49  C   UNL A   1      41.172  31.487  30.007  1.00  0.00     0.049 A 
ATOM     50  C   UNL A   1      45.726  29.622  27.336  1.00  0.00     0.074 A 
ATOM     51  C   UNL A   1      41.269  32.737  30.595  1.00  0.00     0.029 A 
ATOM     52  N   UNL A   1      42.395  31.236  29.400  1.00  0.00    -0.354 N 
ATOM     53  N   UNL A   1      44.753  30.192  28.002  1.00  0.00    -0.248 NA
ATOM     54  C   UNL A   1      46.923  30.463  27.186  1.00  0.00     0.031 C 
ATOM     55  C   UNL A   1      42.527  33.266  30.294  1.00  0.00     0.029 A 
ATOM     56  C   UNL A   1      43.240  32.322  29.574  1.00  0.00     0.049 A 
ATOM     57  H   UNL A   1      42.628  30.410  28.919  1.00  0.00     0.167 HD
ATOM     58  C   UNL A   1      45.226  31.442  28.376  1.00  0.00     0.074 A 
ATOM     59  C   UNL A   1      46.577  31.547  27.870  1.00  0.00     0.031 C 
ATOM     60  C   UNL A   1      44.591  32.411  29.078  1.00  0.00     0.037 A 
BRANCH  47  61
ATOM     61  C   UNL A   1      38.779  31.052  30.655  1.00  0.00     0.064 A 
ATOM     62  C   UNL A   1      37.714  31.580  29.910  1.00  0.00     0.173 A 
ATOM     63  C   UNL A   1      38.583  30.862  32.032  1.00  0.00     0.173 A 
ATOM     64  F   UNL A   1      37.849  31.782  28.591  1.00  0.00    -0.203 F 
ATOM     65  C   UNL A   1      36.508  31.913  30.519  1.00  0.00     0.198 A 
ATOM     66  C   UNL A   1      37.365  31.168  32.633  1.00  0.00     0.198 A 
ATOM     67  F   UNL A   1      39.563  30.346  32.790  1.00  0.00    -0.203 F 
ATOM     68  F   UNL A   1      35.514  32.440  29.790  1.00  0.00    -0.200 F 
ATOM     69  C   UNL A   1      36.330  31.697  31.877  1.00  0.00     0.200 A 
ATOM     70  F   UNL A   1      37.188  30.939  33.942  1.00  0.00    -0.200 F 
ATOM     71  F   UNL A   1      35.158  31.994  32.457  1.00  0.00    -0.200 F 
ENDBRANCH  47  61
BRANCH  48  72
ATOM     72  C   UNL A   1      47.012  27.737  26.078  1.00  0.00     0.064 A 
ATOM     73  C   UNL A   1      48.069  27.229  26.846  1.00  0.00     0.173 A 
ATOM     74  C   UNL A   1      47.142  27.700  24.682  1.00  0.00     0.173 A 
ATOM     75  F   UNL A   1      47.996  27.255  28.185  1.00  0.00    -0.203 F 
ATOM     76  C   UNL A   1      49.214  26.715  26.242  1.00  0.00     0.198 A 
ATOM     77  C   UNL A   1      48.275  27.157  24.079  1.00  0.00     0.198 A 
ATOM     78  F   UNL A   1      46.153  28.163  23.902  1.00  0.00    -0.203 F 
ATOM     79  F   UNL A   1      50.223  26.264  27.000  1.00  0.00    -0.200 F 
ATOM     80  C   UNL A   1      49.311  26.670  24.860  1.00  0.00     0.200 A 
ATOM     81  F   UNL A   1      48.357  27.098  22.743  1.00  0.00    -0.200 F 
ATOM     82  F   UNL A   1      50.406  26.159  24.280  1.00  0.00    -0.200 F 
ENDBRANCH  48  72
BRANCH  60  83
ATOM     83  C   UNL A   1      45.344  33.675  29.377  1.00  0.00     0.064 A 
ATOM     84  C   UNL A   1      45.265  34.791  28.533  1.00  0.00     0.173 A 
ATOM     85  C   UNL A   1      46.056  33.807  30.579  1.00  0.00     0.173 A 
ATOM     86  F   UNL A   1      44.608  34.712  27.366  1.00  0.00    -0.203 F 
ATOM     87  C   UNL A   1      45.866  35.997  28.887  1.00  0.00     0.198 A 
ATOM     88  C   UNL A   1      46.631  35.022  30.942  1.00  0.00     0.198 A 
ATOM     89  F   UNL A   1      46.156  32.768  31.423  1.00  0.00    -0.203 F 
ATOM     90  F   UNL A   1      45.792  37.049  28.059  1.00  0.00    -0.200 F 
ATOM     91  C   UNL A   1      46.535  36.115  30.096  1.00  0.00     0.200 A 
ATOM     92  F   UNL A   1      47.260  35.138  32.120  1.00  0.00    -0.200 F 
ATOM     93  F   UNL A   1      47.084  37.286  30.449  1.00  0.00    -0.200 F 
ENDBRANCH  60  83
ENDBRANCH  34  35
ENDBRANCH  27  29
ENDBRANCH  26  27
ENDBRANCH  25  26
ENDBRANCH  24  25
ENDBRANCH  23  24
ENDBRANCH   1  23
TORSDOF 19
ENDMDL
MODEL 3
REMARK VINA RESULT:     -10.2      1.181      2.275
REMARK SMILES CCC[C@@H]([NH2+]C[C@H]1CSc2ccccc21)C(=O)OCCOCCOC(=O)c1ccc(-c2c3nc(c(-c4c(F)c(F)c(F)c(F)c4F)c4ccc([nH]4)c(-c4c(F)c(F)c(F)c(F)c4F)c4nc(c(-c5c(F)c(F)c(F)c(F)c5F)c5ccc2[nH]5)C=C4)C=C3)cc1
REMARK SMILES IDX 20 1 19 2 18 3 16 4 17 5 4 6 3 7 2 8 1 9 5 10 6 13 7 14 8 15
REMARK SMILES IDX 15 16 9 17 10 18 14 19 11 20 13 21 12 22 21 23 22 24 23 25
REMARK SMILES IDX 24 26 25 27 26 28 27 29 28 30 89 31 29 32 88 33 30 34 31 35
REMARK SMILES IDX 32 36 82 37 33 38 87 39 81 40 83 41 34 42 86 43 80 44 79 45
REMARK SMILES IDX 35 47 67 48 47 49 66 50 48 51 51 52 65 53 84 54 49 55 50 56
REMARK SMILES IDX 64 58 85 59 52 60 36 61 37 62 45 63 38 64 39 65 43 66 46 67
REMARK SMILES IDX 40 68 41 69 44 70 42 71 68 72 69 73 77 74 70 75 71 76 75 77
REMARK SMILES IDX 78 78 72 79 73 80 76 81 74 82 53 83 54 84 62 85 55 86 56 87
REMARK SMILES IDX 60 88 63 89 57 90 58 91 61 92 59 93
REMARK H PARENT 5 11 5 12 83 46 51 57
REMARK Flexibility Score: inf
ROOT
ATOM      1  C   UNL A   1      32.864  29.960  26.025  1.00  0.00     0.202 C 
ENDROOT
BRANCH   1   2
ATOM      2  C   UNL A   1      32.521  29.171  24.750  1.00  0.00     0.261 C 
BRANCH   2   3
ATOM      3  O   UNL A   1      31.274  28.471  24.791  1.00  0.00    -0.459 OA
BRANCH   3   4
ATOM      4  C   UNL A   1      31.128  27.635  23.728  1.00  0.00     0.364 C 
ATOM      5  O   UNL A   1      30.813  28.030  22.605  1.00  0.00    -0.245 OA
BRANCH   4   6
ATOM      6  C   UNL A   1      31.440  26.148  24.022  1.00  0.00     0.293 C 
BRANCH   6   7
ATOM      7  C   UNL A   1      30.253  25.353  24.610  1.00  0.00     0.077 C 
BRANCH   7   8
ATOM      8  C   UNL A   1      30.318  25.058  26.119  1.00  0.00     0.003 C 
ATOM      9  C   UNL A   1      31.483  24.178  26.547  1.00  0.00     0.004 C 
ENDBRANCH   7   8
ENDBRANCH   6   7
BRANCH   6  10
ATOM     10  N   UNL A   1      32.009  25.473  22.837  1.00  0.00    -0.334 N 
ATOM     11  H   UNL A   1      32.953  25.833  22.695  1.00  0.00     0.347 HD
ATOM     12  H   UNL A   1      31.367  25.674  22.070  1.00  0.00     0.347 HD
BRANCH  10  13
ATOM     13  C   UNL A   1      32.093  24.007  22.911  1.00  0.00     0.270 C 
BRANCH  13  14
ATOM     14  C   UNL A   1      33.469  23.283  22.965  1.00  0.00     0.086 C 
ATOM     15  C   UNL A   1      34.719  24.038  23.462  1.00  0.00     0.089 C 
ATOM     16  C   UNL A   1      33.366  22.041  23.814  1.00  0.00    -0.025 A 
ATOM     17  S   UNL A   1      35.046  23.541  25.183  1.00  0.00    -0.125 SA
ATOM     18  C   UNL A   1      34.066  22.086  25.019  1.00  0.00     0.011 A 
ATOM     19  C   UNL A   1      32.581  20.937  23.493  1.00  0.00     0.005 A 
ATOM     20  C   UNL A   1      33.951  21.062  25.945  1.00  0.00     0.015 A 
ATOM     21  C   UNL A   1      32.467  19.899  24.413  1.00  0.00     0.000 A 
ATOM     22  C   UNL A   1      33.140  19.967  25.639  1.00  0.00     0.001 A 
ENDBRANCH  13  14
ENDBRANCH  10  13
ENDBRANCH   6  10
ENDBRANCH   4   6
ENDBRANCH   3   4
ENDBRANCH   2   3
ENDBRANCH   1   2
BRANCH   1  23
ATOM     23  O   UNL A   1      31.825  30.519  26.817  1.00  0.00    -0.374 OA
BRANCH  23  24
ATOM     24  C   UNL A   1      31.294  31.805  26.504  1.00  0.00     0.202 C 
BRANCH  24  25
ATOM     25  C   UNL A   1      32.070  33.063  26.902  1.00  0.00     0.261 C 
BRANCH  25  26
ATOM     26  O   UNL A   1      33.001  32.824  27.972  1.00  0.00    -0.460 OA
BRANCH  26  27
ATOM     27  C   UNL A   1      34.063  33.663  27.992  1.00  0.00     0.338 C 
ATOM     28  O   UNL A   1      34.046  34.885  27.917  1.00  0.00    -0.246 OA
BRANCH  27  29
ATOM     29  C   UNL A   1      35.284  32.921  28.344  1.00  0.00     0.060 A 
ATOM     30  C   UNL A   1      36.534  33.537  28.345  1.00  0.00     0.016 A 
ATOM     31  C   UNL A   1      35.140  31.593  28.774  1.00  0.00     0.016 A 
ATOM     32  C   UNL A   1      37.636  32.834  28.838  1.00  0.00     0.010 A 
ATOM     33  C   UNL A   1      36.241  30.892  29.259  1.00  0.00     0.010 A 
ATOM     34  C   UNL A   1      37.489  31.522  29.333  1.00  0.00    -0.014 A 
BRANCH  34  35
ATOM     35  C   UNL A   1      38.584  30.891  30.108  1.00  0.00     0.031 A 
ATOM     36  C   UNL A   1      38.838  31.229  31.544  1.00  0.00     0.074 A 
ATOM     37  C   UNL A   1      39.390  30.025  29.463  1.00  0.00     0.049 A 
ATOM     38  N   UNL A   1      39.700  30.693  32.369  1.00  0.00    -0.248 NA
ATOM     39  C   UNL A   1      38.036  32.313  32.128  1.00  0.00     0.031 C 
ATOM     40  C   UNL A   1      39.282  29.685  28.043  1.00  0.00     0.029 A 
ATOM     41  N   UNL A   1      40.446  29.272  29.908  1.00  0.00    -0.354 N 
ATOM     42  C   UNL A   1      39.529  31.351  33.578  1.00  0.00     0.074 A 
ATOM     43  C   UNL A   1      38.522  32.369  33.363  1.00  0.00     0.031 C 
ATOM     44  C   UNL A   1      40.202  28.757  27.744  1.00  0.00     0.029 A 
ATOM     45  C   UNL A   1      40.981  28.456  28.941  1.00  0.00     0.049 A 
ATOM     46  H   UNL A   1      40.787  29.311  30.830  1.00  0.00     0.167 HD
ATOM     47  C   UNL A   1      40.141  31.103  34.760  1.00  0.00     0.037 A 
ATOM     48  C   UNL A   1      41.979  27.554  29.012  1.00  0.00     0.037 A 
ATOM     49  C   UNL A   1      41.155  30.097  34.954  1.00  0.00     0.049 A 
ATOM     50  C   UNL A   1      42.659  27.318  30.332  1.00  0.00     0.074 A 
ATOM     51  C   UNL A   1      41.797  29.739  36.127  1.00  0.00     0.029 A 
ATOM     52  N   UNL A   1      41.685  29.300  33.950  1.00  0.00    -0.354 N 
ATOM     53  N   UNL A   1      42.413  27.868  31.495  1.00  0.00    -0.248 NA
ATOM     54  C   UNL A   1      43.750  26.333  30.353  1.00  0.00     0.031 C 
ATOM     55  C   UNL A   1      42.756  28.769  35.823  1.00  0.00     0.029 A 
ATOM     56  C   UNL A   1      42.669  28.474  34.472  1.00  0.00     0.049 A 
ATOM     57  H   UNL A   1      41.404  29.317  33.006  1.00  0.00     0.167 HD
ATOM     58  C   UNL A   1      43.293  27.278  32.391  1.00  0.00     0.074 A 
ATOM     59  C   UNL A   1      44.076  26.320  31.639  1.00  0.00     0.031 C 
ATOM     60  C   UNL A   1      43.433  27.512  33.718  1.00  0.00     0.037 A 
BRANCH  47  61
ATOM     61  C   UNL A   1      39.722  31.908  35.956  1.00  0.00     0.064 A 
ATOM     62  C   UNL A   1      40.384  33.097  36.299  1.00  0.00     0.173 A 
ATOM     63  C   UNL A   1      38.585  31.554  36.699  1.00  0.00     0.173 A 
ATOM     64  F   UNL A   1      41.476  33.481  35.622  1.00  0.00    -0.203 F 
ATOM     65  C   UNL A   1      39.931  33.893  37.348  1.00  0.00     0.198 A 
ATOM     66  C   UNL A   1      38.117  32.368  37.728  1.00  0.00     0.198 A 
ATOM     67  F   UNL A   1      37.906  30.435  36.403  1.00  0.00    -0.203 F 
ATOM     68  F   UNL A   1      40.595  35.011  37.674  1.00  0.00    -0.200 F 
ATOM     69  C   UNL A   1      38.793  33.534  38.054  1.00  0.00     0.200 A 
ATOM     70  F   UNL A   1      37.006  32.030  38.396  1.00  0.00    -0.200 F 
ATOM     71  F   UNL A   1      38.344  34.314  39.048  1.00  0.00    -0.200 F 
ENDBRANCH  47  61
BRANCH  48  72
ATOM     72  C   UNL A   1      42.340  26.767  27.805  1.00  0.00     0.064 A 
ATOM     73  C   UNL A   1      43.321  27.228  26.916  1.00  0.00     0.173 A 
ATOM     74  C   UNL A   1      41.750  25.523  27.539  1.00  0.00     0.173 A 
ATOM     75  F   UNL A   1      43.904  28.418  27.121  1.00  0.00    -0.203 F 
ATOM     76  C   UNL A   1      43.690  26.478  25.802  1.00  0.00     0.198 A 
ATOM     77  C   UNL A   1      42.142  24.760  26.441  1.00  0.00     0.198 A 
ATOM     78  F   UNL A   1      40.814  25.033  28.366  1.00  0.00    -0.203 F 
ATOM     79  F   UNL A   1      44.609  26.956  24.951  1.00  0.00    -0.200 F 
ATOM     80  C   UNL A   1      43.108  25.242  25.571  1.00  0.00     0.200 A 
ATOM     81  F   UNL A   1      41.591  23.557  26.232  1.00  0.00    -0.200 F 
ATOM     82  F   UNL A   1      43.477  24.513  24.507  1.00  0.00    -0.200 F 
ENDBRANCH  48  72
BRANCH  60  83
ATOM     83  C   UNL A   1      44.453  26.709  34.473  1.00  0.00     0.064 A 
ATOM     84  C   UNL A   1      45.745  27.199  34.705  1.00  0.00     0.173 A 
ATOM     85  C   UNL A   1      44.093  25.490  35.069  1.00  0.00     0.173 A 
ATOM     86  F   UNL A   1      46.142  28.352  34.146  1.00  0.00    -0.203 F 
ATOM     87  C   UNL A   1      46.639  26.500  35.513  1.00  0.00     0.198 A 
ATOM     88  C   UNL A   1      44.979  24.809  35.899  1.00  0.00     0.198 A 
ATOM     89  F   UNL A   1      42.865  24.983  34.882  1.00  0.00    -0.203 F 
ATOM     90  F   UNL A   1      47.876  26.978  35.710  1.00  0.00    -0.200 F 
ATOM     91  C   UNL A   1      46.250  25.314  36.120  1.00  0.00     0.200 A 
ATOM     92  F   UNL A   1      44.594  23.675  36.500  1.00  0.00    -0.200 F 
ATOM     93  F   UNL A   1      47.101  24.662  36.924  1.00  0.00    -0.200 F 
ENDBRANCH  60  83
ENDBRANCH  34  35
ENDBRANCH  27  29
ENDBRANCH  26  27
ENDBRANCH  25  26
ENDBRANCH  24  25
ENDBRANCH  23  24
ENDBRANCH   1  23
TORSDOF 19
ENDMDL
