MODEL 1
REMARK VINA RESULT:     -13.8      0.000      0.000
REMARK SMILES COc1ccc(-c2[nH]nc3nc(-c4ccc(C(F)(F)F)cc4)cc(C(=O)OCCOCCOC(=O)c4ccc(-c5c6nc(c(-c7c(F)c(F)c(F)c(F)c7F)c7ccc([nH]7)c(-c7c(F)c(F)c(F)c(F)c7F)c7nc(c(-c8c(F)c(F)c(F)c(F)c8F)c8ccc5[nH]8)C=C7)C=C6)cc4)c23)cc1
REMARK SMILES IDX 30 1 29 2 28 3 27 4 25 5 26 6 24 7 7 8 8 9 99 10 9 11 10 13
REMARK SMILES IDX 11 14 23 15 12 16 6 17 3 18 4 19 101 20 5 21 100 22 2 23
REMARK SMILES IDX 1 24 13 25 14 26 22 27 15 28 21 29 16 30 17 31 18 32 19 33
REMARK SMILES IDX 20 34 31 35 32 36 33 37 34 38 35 39 36 40 37 41 98 42 38 43
REMARK SMILES IDX 97 44 39 45 40 46 41 47 91 48 42 49 96 50 90 51 92 52 43 53
REMARK SMILES IDX 95 54 89 55 88 56 44 58 76 59 56 60 75 61 57 62 60 63 74 64
REMARK SMILES IDX 93 65 58 66 59 67 73 69 94 70 61 71 45 72 46 73 54 74 47 75
REMARK SMILES IDX 48 76 52 77 55 78 49 79 50 80 53 81 51 82 77 83 78 84 86 85
REMARK SMILES IDX 79 86 80 87 84 88 87 89 81 90 82 91 85 92 83 93 62 94 63 95
REMARK SMILES IDX 71 96 64 97 65 98 69 99 72 100 66 101 67 102 70 103 68 104
REMARK H PARENT 8 12 92 57 60 68
REMARK Flexibility Score: inf
ROOT
ATOM      1  O   UNL A   1      34.880  24.063  25.968  1.00  0.00    -0.374 OA
ENDROOT
BRANCH   1   2
ATOM      2  C   UNL A   1      34.664  23.118  27.018  1.00  0.00     0.202 C 
BRANCH   2   3
ATOM      3  C   UNL A   1      33.182  22.817  27.236  1.00  0.00     0.261 C 
BRANCH   3   4
ATOM      4  O   UNL A   1      32.387  23.846  26.617  1.00  0.00    -0.460 OA
BRANCH   4   5
ATOM      5  C   UNL A   1      31.435  23.411  25.750  1.00  0.00     0.339 C 
ATOM      6  O   UNL A   1      30.670  22.481  25.912  1.00  0.00    -0.246 OA
BRANCH   5   7
ATOM      7  C   UNL A   1      31.463  24.271  24.562  1.00  0.00     0.075 A 
ATOM      8  C   UNL A   1      32.864  22.937  22.914  1.00  0.00     0.075 A 
ATOM      9  N   UNL A   1      33.394  23.337  21.708  1.00  0.00    -0.275 N 
ATOM     10  C   UNL A   1      32.194  24.061  23.382  1.00  0.00     0.061 A 
ATOM     11  N   UNL A   1      33.001  24.550  21.293  1.00  0.00    -0.154 NA
ATOM     12  H   UNL A   1      34.015  22.775  21.190  1.00  0.00     0.190 HD
ATOM     13  C   UNL A   1      32.247  24.996  22.295  1.00  0.00     0.182 A 
ATOM     14  N   UNL A   1      31.565  26.167  22.302  1.00  0.00    -0.226 NA
ATOM     15  C   UNL A   1      30.752  25.486  24.527  1.00  0.00     0.045 A 
ATOM     16  C   UNL A   1      30.829  26.380  23.429  1.00  0.00     0.074 A 
BRANCH   8  17
ATOM     17  C   UNL A   1      32.959  21.535  23.316  1.00  0.00     0.001 A 
ATOM     18  C   UNL A   1      32.939  18.839  24.148  1.00  0.00     0.118 A 
ATOM     19  C   UNL A   1      33.807  19.767  24.733  1.00  0.00     0.047 A 
ATOM     20  C   UNL A   1      32.124  19.249  23.096  1.00  0.00     0.047 A 
ATOM     21  C   UNL A   1      33.819  21.107  24.323  1.00  0.00     0.014 A 
ATOM     22  C   UNL A   1      32.159  20.581  22.666  1.00  0.00     0.014 A 
BRANCH  18  23
ATOM     23  O   UNL A   1      32.982  17.582  24.685  1.00  0.00    -0.497 OA
ATOM     24  C   UNL A   1      33.687  16.591  23.943  1.00  0.00     0.278 C 
ENDBRANCH  18  23
ENDBRANCH   8  17
BRANCH  16  25
ATOM     25  C   UNL A   1      30.109  27.676  23.454  1.00  0.00     0.000 A 
ATOM     26  C   UNL A   1      28.784  27.782  22.992  1.00  0.00     0.011 A 
ATOM     27  C   UNL A   1      30.731  28.857  23.900  1.00  0.00     0.011 A 
ATOM     28  C   UNL A   1      28.114  29.012  22.967  1.00  0.00     0.014 A 
ATOM     29  C   UNL A   1      30.067  30.089  23.875  1.00  0.00     0.014 A 
ATOM     30  C   UNL A   1      28.754  30.182  23.400  1.00  0.00     0.056 A 
BRANCH  30  31
ATOM     31  C   UNL A   1      28.043  31.512  23.325  1.00  0.00     0.416 C 
ATOM     32  F   UNL A   1      28.836  32.551  23.704  1.00  0.00    -0.166 F 
ATOM     33  F   UNL A   1      27.617  31.805  22.066  1.00  0.00    -0.166 F 
ATOM     34  F   UNL A   1      26.936  31.580  24.117  1.00  0.00    -0.166 F 
ENDBRANCH  30  31
ENDBRANCH  16  25
ENDBRANCH   5   7
ENDBRANCH   4   5
ENDBRANCH   3   4
ENDBRANCH   2   3
ENDBRANCH   1   2
BRANCH   1  35
ATOM     35  C   UNL A   1      36.124  23.918  25.289  1.00  0.00     0.202 C 
BRANCH  35  36
ATOM     36  C   UNL A   1      37.100  23.089  26.114  1.00  0.00     0.261 C 
BRANCH  36  37
ATOM     37  O   UNL A   1      38.160  23.940  26.528  1.00  0.00    -0.460 OA
BRANCH  37  38
ATOM     38  C   UNL A   1      39.380  23.351  26.600  1.00  0.00     0.338 C 
ATOM     39  O   UNL A   1      39.667  22.183  26.537  1.00  0.00    -0.246 OA
BRANCH  38  40
ATOM     40  C   UNL A   1      40.300  24.463  26.857  1.00  0.00     0.060 A 
ATOM     41  C   UNL A   1      40.830  24.519  28.139  1.00  0.00     0.016 A 
ATOM     42  C   UNL A   1      40.339  25.549  25.963  1.00  0.00     0.016 A 
ATOM     43  C   UNL A   1      41.131  25.764  28.633  1.00  0.00     0.010 A 
ATOM     44  C   UNL A   1      40.623  26.792  26.463  1.00  0.00     0.010 A 
ATOM     45  C   UNL A   1      40.907  26.883  27.820  1.00  0.00    -0.014 A 
BRANCH  45  46
ATOM     46  C   UNL A   1      40.934  28.171  28.467  1.00  0.00     0.031 A 
ATOM     47  C   UNL A   1      42.113  28.985  28.132  1.00  0.00     0.074 A 
ATOM     48  C   UNL A   1      39.941  28.583  29.272  1.00  0.00     0.049 A 
ATOM     49  N   UNL A   1      43.081  29.331  28.909  1.00  0.00    -0.248 NA
ATOM     50  C   UNL A   1      42.300  29.339  26.718  1.00  0.00     0.031 C 
ATOM     51  C   UNL A   1      38.602  28.014  29.443  1.00  0.00     0.029 A 
ATOM     52  N   UNL A   1      39.910  29.692  30.052  1.00  0.00    -0.354 N 
ATOM     53  C   UNL A   1      43.932  30.092  28.120  1.00  0.00     0.074 A 
ATOM     54  C   UNL A   1      43.494  29.926  26.758  1.00  0.00     0.031 C 
ATOM     55  C   UNL A   1      37.827  28.909  30.099  1.00  0.00     0.029 A 
ATOM     56  C   UNL A   1      38.647  30.046  30.488  1.00  0.00     0.049 A 
ATOM     57  H   UNL A   1      40.719  30.202  30.287  1.00  0.00     0.167 HD
ATOM     58  C   UNL A   1      44.792  30.989  28.668  1.00  0.00     0.037 A 
ATOM     59  C   UNL A   1      38.311  31.243  31.027  1.00  0.00     0.037 A 
ATOM     60  C   UNL A   1      45.020  30.726  30.065  1.00  0.00     0.049 A 
ATOM     61  C   UNL A   1      39.567  31.898  31.488  1.00  0.00     0.074 A 
ATOM     62  C   UNL A   1      45.526  29.650  30.772  1.00  0.00     0.029 A 
ATOM     63  N   UNL A   1      44.380  31.509  30.995  1.00  0.00    -0.354 N 
ATOM     64  N   UNL A   1      40.276  31.486  32.504  1.00  0.00    -0.248 NA
ATOM     65  C   UNL A   1      40.278  32.749  30.541  1.00  0.00     0.031 C 
ATOM     66  C   UNL A   1      44.760  29.599  31.973  1.00  0.00     0.029 A 
ATOM     67  C   UNL A   1      43.858  30.662  31.941  1.00  0.00     0.049 A 
ATOM     68  H   UNL A   1      44.309  32.490  30.984  1.00  0.00     0.167 HD
ATOM     69  C   UNL A   1      41.597  31.674  32.117  1.00  0.00     0.074 A 
ATOM     70  C   UNL A   1      41.534  32.535  30.941  1.00  0.00     0.031 C 
ATOM     71  C   UNL A   1      42.598  30.884  32.608  1.00  0.00     0.037 A 
BRANCH  58  72
ATOM     72  C   UNL A   1      45.148  32.293  28.012  1.00  0.00     0.064 A 
ATOM     73  C   UNL A   1      44.148  33.262  27.817  1.00  0.00     0.173 A 
ATOM     74  C   UNL A   1      46.360  32.515  27.320  1.00  0.00     0.173 A 
ATOM     75  F   UNL A   1      42.947  33.130  28.400  1.00  0.00    -0.203 F 
ATOM     76  C   UNL A   1      44.330  34.338  26.947  1.00  0.00     0.198 A 
ATOM     77  C   UNL A   1      46.560  33.622  26.504  1.00  0.00     0.198 A 
ATOM     78  F   UNL A   1      47.353  31.616  27.314  1.00  0.00    -0.203 F 
ATOM     79  F   UNL A   1      43.309  35.167  26.695  1.00  0.00    -0.200 F 
ATOM     80  C   UNL A   1      45.535  34.518  26.291  1.00  0.00     0.200 A 
ATOM     81  F   UNL A   1      47.729  33.765  25.863  1.00  0.00    -0.200 F 
ATOM     82  F   UNL A   1      45.691  35.518  25.416  1.00  0.00    -0.200 F 
ENDBRANCH  58  72
BRANCH  59  83
ATOM     83  C   UNL A   1      37.036  31.979  30.858  1.00  0.00     0.064 A 
ATOM     84  C   UNL A   1      36.111  32.074  31.908  1.00  0.00     0.173 A 
ATOM     85  C   UNL A   1      36.808  32.814  29.746  1.00  0.00     0.173 A 
ATOM     86  F   UNL A   1      36.282  31.353  33.025  1.00  0.00    -0.203 F 
ATOM     87  C   UNL A   1      35.029  32.962  31.853  1.00  0.00     0.198 A 
ATOM     88  C   UNL A   1      35.724  33.688  29.685  1.00  0.00     0.198 A 
ATOM     89  F   UNL A   1      37.685  32.872  28.733  1.00  0.00    -0.203 F 
ATOM     90  F   UNL A   1      34.199  33.069  32.899  1.00  0.00    -0.200 F 
ATOM     91  C   UNL A   1      34.840  33.771  30.744  1.00  0.00     0.200 A 
ATOM     92  F   UNL A   1      35.575  34.490  28.621  1.00  0.00    -0.200 F 
ATOM     93  F   UNL A   1      33.835  34.657  30.712  1.00  0.00    -0.200 F 
ENDBRANCH  59  83
BRANCH  71  94
ATOM     94  C   UNL A   1      42.273  29.979  33.761  1.00  0.00     0.064 A 
ATOM     95  C   UNL A   1      41.767  28.676  33.605  1.00  0.00     0.173 A 
ATOM     96  C   UNL A   1      42.627  30.381  35.055  1.00  0.00     0.173 A 
ATOM     97  F   UNL A   1      41.513  28.177  32.389  1.00  0.00    -0.203 F 
ATOM     98  C   UNL A   1      41.575  27.838  34.702  1.00  0.00     0.198 A 
ATOM     99  C   UNL A   1      42.471  29.529  36.146  1.00  0.00     0.198 A 
ATOM    100  F   UNL A   1      43.176  31.591  35.256  1.00  0.00    -0.203 F 
ATOM    101  F   UNL A   1      41.078  26.605  34.527  1.00  0.00    -0.200 F 
ATOM    102  C   UNL A   1      41.934  28.264  35.970  1.00  0.00     0.200 A 
ATOM    103  F   UNL A   1      42.870  29.924  37.362  1.00  0.00    -0.200 F 
ATOM    104  F   UNL A   1      41.792  27.442  37.020  1.00  0.00    -0.200 F 
ENDBRANCH  71  94
ENDBRANCH  45  46
ENDBRANCH  38  40
ENDBRANCH  37  38
ENDBRANCH  36  37
ENDBRANCH  35  36
ENDBRANCH   1  35
TORSDOF 18
ENDMDL
MODEL 2
REMARK VINA RESULT:     -13.8      3.214      5.486
REMARK SMILES COc1ccc(-c2[nH]nc3nc(-c4ccc(C(F)(F)F)cc4)cc(C(=O)OCCOCCOC(=O)c4ccc(-c5c6nc(c(-c7c(F)c(F)c(F)c(F)c7F)c7ccc([nH]7)c(-c7c(F)c(F)c(F)c(F)c7F)c7nc(c(-c8c(F)c(F)c(F)c(F)c8F)c8ccc5[nH]8)C=C7)C=C6)cc4)c23)cc1
REMARK SMILES IDX 30 1 29 2 28 3 27 4 25 5 26 6 24 7 7 8 8 9 99 10 9 11 10 13
REMARK SMILES IDX 11 14 23 15 12 16 6 17 3 18 4 19 101 20 5 21 100 22 2 23
REMARK SMILES IDX 1 24 13 25 14 26 22 27 15 28 21 29 16 30 17 31 18 32 19 33
REMARK SMILES IDX 20 34 31 35 32 36 33 37 34 38 35 39 36 40 37 41 98 42 38 43
REMARK SMILES IDX 97 44 39 45 40 46 41 47 91 48 42 49 96 50 90 51 92 52 43 53
REMARK SMILES IDX 95 54 89 55 88 56 44 58 76 59 56 60 75 61 57 62 60 63 74 64
REMARK SMILES IDX 93 65 58 66 59 67 73 69 94 70 61 71 45 72 46 73 54 74 47 75
REMARK SMILES IDX 48 76 52 77 55 78 49 79 50 80 53 81 51 82 77 83 78 84 86 85
REMARK SMILES IDX 79 86 80 87 84 88 87 89 81 90 82 91 85 92 83 93 62 94 63 95
REMARK SMILES IDX 71 96 64 97 65 98 69 99 72 100 66 101 67 102 70 103 68 104
REMARK H PARENT 8 12 92 57 60 68
REMARK Flexibility Score: inf
ROOT
ATOM      1  O   UNL A   1      35.961  24.206  25.443  1.00  0.00    -0.374 OA
ENDROOT
BRANCH   1   2
ATOM      2  C   UNL A   1      35.435  24.111  24.118  1.00  0.00     0.202 C 
BRANCH   2   3
ATOM      3  C   UNL A   1      34.473  25.251  23.788  1.00  0.00     0.261 C 
BRANCH   3   4
ATOM      4  O   UNL A   1      33.825  24.983  22.530  1.00  0.00    -0.460 OA
BRANCH   4   5
ATOM      5  C   UNL A   1      32.467  25.026  22.547  1.00  0.00     0.339 C 
ATOM      6  O   UNL A   1      31.748  25.694  21.829  1.00  0.00    -0.246 OA
BRANCH   5   7
ATOM      7  C   UNL A   1      31.987  24.104  23.582  1.00  0.00     0.075 A 
ATOM      8  C   UNL A   1      30.578  25.597  25.080  1.00  0.00     0.075 A 
ATOM      9  N   UNL A   1      30.046  25.322  26.320  1.00  0.00    -0.275 N 
ATOM     10  C   UNL A   1      31.247  24.430  24.729  1.00  0.00     0.061 A 
ATOM     11  N   UNL A   1      30.181  24.050  26.722  1.00  0.00    -0.154 NA
ATOM     12  H   UNL A   1      29.601  26.008  26.868  1.00  0.00     0.190 HD
ATOM     13  C   UNL A   1      30.893  23.486  25.750  1.00  0.00     0.182 A 
ATOM     14  N   UNL A   1      31.224  22.174  25.680  1.00  0.00    -0.226 NA
ATOM     15  C   UNL A   1      32.296  22.731  23.532  1.00  0.00     0.045 A 
ATOM     16  C   UNL A   1      31.923  21.830  24.562  1.00  0.00     0.074 A 
BRANCH   8  17
ATOM     17  C   UNL A   1      30.223  26.841  24.401  1.00  0.00     0.001 A 
ATOM     18  C   UNL A   1      29.529  29.336  23.279  1.00  0.00     0.118 A 
ATOM     19  C   UNL A   1      28.725  28.209  23.083  1.00  0.00     0.047 A 
ATOM     20  C   UNL A   1      30.721  29.197  23.985  1.00  0.00     0.047 A 
ATOM     21  C   UNL A   1      29.065  26.969  23.639  1.00  0.00     0.014 A 
ATOM     22  C   UNL A   1      31.077  27.950  24.513  1.00  0.00     0.014 A 
BRANCH  18  23
ATOM     23  O   UNL A   1      29.050  30.496  22.738  1.00  0.00    -0.497 OA
ATOM     24  C   UNL A   1      27.988  30.374  21.796  1.00  0.00     0.278 C 
ENDBRANCH  18  23
ENDBRANCH   8  17
BRANCH  16  25
ATOM     25  C   UNL A   1      32.315  20.402  24.499  1.00  0.00     0.000 A 
ATOM     26  C   UNL A   1      32.790  19.726  25.638  1.00  0.00     0.011 A 
ATOM     27  C   UNL A   1      32.267  19.677  23.294  1.00  0.00     0.011 A 
ATOM     28  C   UNL A   1      33.208  18.390  25.575  1.00  0.00     0.014 A 
ATOM     29  C   UNL A   1      32.686  18.343  23.225  1.00  0.00     0.014 A 
ATOM     30  C   UNL A   1      33.170  17.687  24.363  1.00  0.00     0.056 A 
BRANCH  30  31
ATOM     31  C   UNL A   1      33.666  16.263  24.291  1.00  0.00     0.416 C 
ATOM     32  F   UNL A   1      34.638  16.001  25.206  1.00  0.00    -0.166 F 
ATOM     33  F   UNL A   1      32.678  15.355  24.522  1.00  0.00    -0.166 F 
ATOM     34  F   UNL A   1      34.196  15.934  23.079  1.00  0.00    -0.166 F 
ENDBRANCH  30  31
ENDBRANCH  16  25
ENDBRANCH   5   7
ENDBRANCH   4   5
ENDBRANCH   3   4
ENDBRANCH   2   3
ENDBRANCH   1   2
BRANCH   1  35
ATOM     35  C   UNL A   1      36.341  22.959  26.019  1.00  0.00     0.202 C 
BRANCH  35  36
ATOM     36  C   UNL A   1      37.809  22.659  25.744  1.00  0.00     0.261 C 
BRANCH  36  37
ATOM     37  O   UNL A   1      38.595  23.533  26.541  1.00  0.00    -0.460 OA
BRANCH  37  38
ATOM     38  C   UNL A   1      39.832  23.074  26.855  1.00  0.00     0.338 C 
ATOM     39  O   UNL A   1      40.194  21.946  27.070  1.00  0.00    -0.246 OA
BRANCH  38  40
ATOM     40  C   UNL A   1      40.649  24.287  26.959  1.00  0.00     0.060 A 
ATOM     41  C   UNL A   1      41.378  24.421  28.133  1.00  0.00     0.016 A 
ATOM     42  C   UNL A   1      40.411  25.358  26.077  1.00  0.00     0.016 A 
ATOM     43  C   UNL A   1      41.613  25.698  28.576  1.00  0.00     0.010 A 
ATOM     44  C   UNL A   1      40.631  26.632  26.529  1.00  0.00     0.010 A 
ATOM     45  C   UNL A   1      41.128  26.773  27.819  1.00  0.00    -0.014 A 
BRANCH  45  46
ATOM     46  C   UNL A   1      41.117  28.064  28.460  1.00  0.00     0.031 A 
ATOM     47  C   UNL A   1      42.281  28.904  28.137  1.00  0.00     0.074 A 
ATOM     48  C   UNL A   1      40.103  28.458  29.248  1.00  0.00     0.049 A 
ATOM     49  N   UNL A   1      43.230  29.276  28.926  1.00  0.00    -0.248 NA
ATOM     50  C   UNL A   1      42.481  29.255  26.725  1.00  0.00     0.031 C 
ATOM     51  C   UNL A   1      38.775  27.860  29.403  1.00  0.00     0.029 A 
ATOM     52  N   UNL A   1      40.036  29.570  30.022  1.00  0.00    -0.354 N 
ATOM     53  C   UNL A   1      44.075  30.052  28.146  1.00  0.00     0.074 A 
ATOM     54  C   UNL A   1      43.661  29.869  26.778  1.00  0.00     0.031 C 
ATOM     55  C   UNL A   1      37.971  28.740  30.043  1.00  0.00     0.029 A 
ATOM     56  C   UNL A   1      38.758  29.897  30.438  1.00  0.00     0.049 A 
ATOM     57  H   UNL A   1      40.829  30.099  30.266  1.00  0.00     0.167 HD
ATOM     58  C   UNL A   1      44.906  30.971  28.702  1.00  0.00     0.037 A 
ATOM     59  C   UNL A   1      38.388  31.089  30.965  1.00  0.00     0.037 A 
ATOM     60  C   UNL A   1      45.120  30.720  30.103  1.00  0.00     0.049 A 
ATOM     61  C   UNL A   1      39.622  31.775  31.442  1.00  0.00     0.074 A 
ATOM     62  C   UNL A   1      45.640  29.660  30.822  1.00  0.00     0.029 A 
ATOM     63  N   UNL A   1      44.449  31.493  31.019  1.00  0.00    -0.354 N 
ATOM     64  N   UNL A   1      40.325  31.384  32.469  1.00  0.00    -0.248 NA
ATOM     65  C   UNL A   1      40.326  32.636  30.500  1.00  0.00     0.031 C 
ATOM     66  C   UNL A   1      44.858  29.597  32.013  1.00  0.00     0.029 A 
ATOM     67  C   UNL A   1      43.933  30.639  31.962  1.00  0.00     0.049 A 
ATOM     68  H   UNL A   1      44.356  32.472  31.003  1.00  0.00     0.167 HD
ATOM     69  C   UNL A   1      41.647  31.600  32.101  1.00  0.00     0.074 A 
ATOM     70  C   UNL A   1      41.582  32.454  30.919  1.00  0.00     0.031 C 
ATOM     71  C   UNL A   1      42.659  30.836  32.610  1.00  0.00     0.037 A 
BRANCH  58  72
ATOM     72  C   UNL A   1      45.242  32.280  28.043  1.00  0.00     0.064 A 
ATOM     73  C   UNL A   1      44.231  33.240  27.865  1.00  0.00     0.173 A 
ATOM     74  C   UNL A   1      46.442  32.513  27.335  1.00  0.00     0.173 A 
ATOM     75  F   UNL A   1      43.040  33.097  28.465  1.00  0.00    -0.203 F 
ATOM     76  C   UNL A   1      44.392  34.320  26.995  1.00  0.00     0.198 A 
ATOM     77  C   UNL A   1      46.621  33.624  26.519  1.00  0.00     0.198 A 
ATOM     78  F   UNL A   1      47.443  31.623  27.313  1.00  0.00    -0.203 F 
ATOM     79  F   UNL A   1      43.360  35.141  26.759  1.00  0.00    -0.200 F 
ATOM     80  C   UNL A   1      45.586  34.511  26.323  1.00  0.00     0.200 A 
ATOM     81  F   UNL A   1      47.780  33.778  25.862  1.00  0.00    -0.200 F 
ATOM     82  F   UNL A   1      45.721  35.515  25.448  1.00  0.00    -0.200 F 
ENDBRANCH  58  72
BRANCH  59  83
ATOM     83  C   UNL A   1      37.099  31.794  30.775  1.00  0.00     0.064 A 
ATOM     84  C   UNL A   1      36.153  31.866  31.808  1.00  0.00     0.173 A 
ATOM     85  C   UNL A   1      36.872  32.626  29.660  1.00  0.00     0.173 A 
ATOM     86  F   UNL A   1      36.321  31.147  32.926  1.00  0.00    -0.203 F 
ATOM     87  C   UNL A   1      35.052  32.728  31.734  1.00  0.00     0.198 A 
ATOM     88  C   UNL A   1      35.768  33.474  29.581  1.00  0.00     0.198 A 
ATOM     89  F   UNL A   1      37.765  32.707  28.663  1.00  0.00    -0.203 F 
ATOM     90  F   UNL A   1      34.200  32.813  32.765  1.00  0.00    -0.200 F 
ATOM     91  C   UNL A   1      34.864  33.534  30.623  1.00  0.00     0.200 A 
ATOM     92  F   UNL A   1      35.619  34.274  28.516  1.00  0.00    -0.200 F 
ATOM     93  F   UNL A   1      33.839  34.396  30.574  1.00  0.00    -0.200 F 
ENDBRANCH  59  83
BRANCH  71  94
ATOM     94  C   UNL A   1      42.338  29.929  33.763  1.00  0.00     0.064 A 
ATOM     95  C   UNL A   1      41.824  28.629  33.607  1.00  0.00     0.173 A 
ATOM     96  C   UNL A   1      42.704  30.326  35.055  1.00  0.00     0.173 A 
ATOM     97  F   UNL A   1      41.558  28.135  32.392  1.00  0.00    -0.203 F 
ATOM     98  C   UNL A   1      41.636  27.789  34.703  1.00  0.00     0.198 A 
ATOM     99  C   UNL A   1      42.552  29.472  36.145  1.00  0.00     0.198 A 
ATOM    100  F   UNL A   1      43.260  31.532  35.256  1.00  0.00    -0.203 F 
ATOM    101  F   UNL A   1      41.131  26.559  34.529  1.00  0.00    -0.200 F 
ATOM    102  C   UNL A   1      42.007  28.209  35.970  1.00  0.00     0.200 A 
ATOM    103  F   UNL A   1      42.962  29.861  37.359  1.00  0.00    -0.200 F 
ATOM    104  F   UNL A   1      41.868  27.386  37.018  1.00  0.00    -0.200 F 
ENDBRANCH  71  94
ENDBRANCH  45  46
ENDBRANCH  38  40
ENDBRANCH  37  38
ENDBRANCH  36  37
ENDBRANCH  35  36
ENDBRANCH   1  35
TORSDOF 18
ENDMDL
MODEL 3
REMARK VINA RESULT:     -13.7      4.691      8.737
REMARK SMILES COc1ccc(-c2[nH]nc3nc(-c4ccc(C(F)(F)F)cc4)cc(C(=O)OCCOCCOC(=O)c4ccc(-c5c6nc(c(-c7c(F)c(F)c(F)c(F)c7F)c7ccc([nH]7)c(-c7c(F)c(F)c(F)c(F)c7F)c7nc(c(-c8c(F)c(F)c(F)c(F)c8F)c8ccc5[nH]8)C=C7)C=C6)cc4)c23)cc1
REMARK SMILES IDX 30 1 29 2 28 3 27 4 25 5 26 6 24 7 7 8 8 9 99 10 9 11 10 13
REMARK SMILES IDX 11 14 23 15 12 16 6 17 3 18 4 19 101 20 5 21 100 22 2 23
REMARK SMILES IDX 1 24 13 25 14 26 22 27 15 28 21 29 16 30 17 31 18 32 19 33
REMARK SMILES IDX 20 34 31 35 32 36 33 37 34 38 35 39 36 40 37 41 98 42 38 43
REMARK SMILES IDX 97 44 39 45 40 46 41 47 91 48 42 49 96 50 90 51 92 52 43 53
REMARK SMILES IDX 95 54 89 55 88 56 44 58 76 59 56 60 75 61 57 62 60 63 74 64
REMARK SMILES IDX 93 65 58 66 59 67 73 69 94 70 61 71 45 72 46 73 54 74 47 75
REMARK SMILES IDX 48 76 52 77 55 78 49 79 50 80 53 81 51 82 77 83 78 84 86 85
REMARK SMILES IDX 79 86 80 87 84 88 87 89 81 90 82 91 85 92 83 93 62 94 63 95
REMARK SMILES IDX 71 96 64 97 65 98 69 99 72 100 66 101 67 102 70 103 68 104
REMARK H PARENT 8 12 92 57 60 68
REMARK Flexibility Score: inf
ROOT
ATOM      1  O   UNL A   1      33.565  29.799  27.242  1.00  0.00    -0.374 OA
ENDROOT
BRANCH   1   2
ATOM      2  C   UNL A   1      32.183  29.547  26.981  1.00  0.00     0.202 C 
BRANCH   2   3
ATOM      3  C   UNL A   1      31.976  28.470  25.918  1.00  0.00     0.261 C 
BRANCH   3   4
ATOM      4  O   UNL A   1      32.883  27.378  26.158  1.00  0.00    -0.460 OA
BRANCH   4   5
ATOM      5  C   UNL A   1      32.365  26.134  25.981  1.00  0.00     0.339 C 
ATOM      6  O   UNL A   1      31.359  25.682  26.493  1.00  0.00    -0.246 OA
BRANCH   5   7
ATOM      7  C   UNL A   1      33.222  25.404  25.040  1.00  0.00     0.075 A 
ATOM      8  C   UNL A   1      32.041  25.725  22.813  1.00  0.00     0.075 A 
ATOM      9  N   UNL A   1      32.277  25.096  21.611  1.00  0.00    -0.275 N 
ATOM     10  C   UNL A   1      32.976  25.169  23.679  1.00  0.00     0.061 A 
ATOM     11  N   UNL A   1      33.364  24.310  21.589  1.00  0.00    -0.154 NA
ATOM     12  H   UNL A   1      31.693  25.214  20.828  1.00  0.00     0.190 HD
ATOM     13  C   UNL A   1      33.816  24.363  22.840  1.00  0.00     0.182 A 
ATOM     14  N   UNL A   1      34.950  23.774  23.289  1.00  0.00    -0.226 NA
ATOM     15  C   UNL A   1      34.418  24.795  25.468  1.00  0.00     0.045 A 
ATOM     16  C   UNL A   1      35.222  24.010  24.604  1.00  0.00     0.074 A 
BRANCH   8  17
ATOM     17  C   UNL A   1      31.092  26.834  22.874  1.00  0.00     0.001 A 
ATOM     18  C   UNL A   1      29.131  28.863  22.867  1.00  0.00     0.118 A 
ATOM     19  C   UNL A   1      30.423  29.108  22.391  1.00  0.00     0.047 A 
ATOM     20  C   UNL A   1      28.840  27.615  23.411  1.00  0.00     0.047 A 
ATOM     21  C   UNL A   1      31.399  28.103  22.392  1.00  0.00     0.014 A 
ATOM     22  C   UNL A   1      29.825  26.620  23.441  1.00  0.00     0.014 A 
BRANCH  18  23
ATOM     23  O   UNL A   1      28.259  29.909  22.750  1.00  0.00    -0.497 OA
ATOM     24  C   UNL A   1      27.027  29.801  23.457  1.00  0.00     0.278 C 
ENDBRANCH  18  23
ENDBRANCH   8  17
BRANCH  16  25
ATOM     25  C   UNL A   1      36.445  23.339  25.107  1.00  0.00     0.000 A 
ATOM     26  C   UNL A   1      37.391  24.035  25.882  1.00  0.00     0.011 A 
ATOM     27  C   UNL A   1      36.730  21.997  24.795  1.00  0.00     0.011 A 
ATOM     28  C   UNL A   1      38.572  23.420  26.319  1.00  0.00     0.014 A 
ATOM     29  C   UNL A   1      37.910  21.379  25.227  1.00  0.00     0.014 A 
ATOM     30  C   UNL A   1      38.849  22.087  25.986  1.00  0.00     0.056 A 
BRANCH  30  31
ATOM     31  C   UNL A   1      40.145  21.446  26.419  1.00  0.00     0.416 C 
ATOM     32  F   UNL A   1      40.409  21.640  27.740  1.00  0.00    -0.166 F 
ATOM     33  F   UNL A   1      40.148  20.097  26.229  1.00  0.00    -0.166 F 
ATOM     34  F   UNL A   1      41.234  21.917  25.748  1.00  0.00    -0.166 F 
ENDBRANCH  30  31
ENDBRANCH  16  25
ENDBRANCH   5   7
ENDBRANCH   4   5
ENDBRANCH   3   4
ENDBRANCH   2   3
ENDBRANCH   1   2
BRANCH   1  35
ATOM     35  C   UNL A   1      33.861  31.141  27.618  1.00  0.00     0.202 C 
BRANCH  35  36
ATOM     36  C   UNL A   1      35.315  31.275  28.052  1.00  0.00     0.261 C 
BRANCH  36  37
ATOM     37  O   UNL A   1      35.703  30.059  28.676  1.00  0.00    -0.460 OA
BRANCH  37  38
ATOM     38  C   UNL A   1      36.774  30.149  29.503  1.00  0.00     0.338 C 
ATOM     39  O   UNL A   1      36.951  30.878  30.445  1.00  0.00    -0.246 OA
BRANCH  38  40
ATOM     40  C   UNL A   1      37.738  29.195  28.946  1.00  0.00     0.060 A 
ATOM     41  C   UNL A   1      38.172  28.204  29.817  1.00  0.00     0.016 A 
ATOM     42  C   UNL A   1      38.401  29.503  27.743  1.00  0.00     0.016 A 
ATOM     43  C   UNL A   1      39.445  27.726  29.629  1.00  0.00     0.010 A 
ATOM     44  C   UNL A   1      39.677  29.038  27.567  1.00  0.00     0.010 A 
ATOM     45  C   UNL A   1      40.210  28.244  28.575  1.00  0.00    -0.014 A 
BRANCH  45  46
ATOM     46  C   UNL A   1      41.622  27.957  28.596  1.00  0.00     0.031 A 
ATOM     47  C   UNL A   1      41.992  26.712  27.904  1.00  0.00     0.074 A 
ATOM     48  C   UNL A   1      42.508  28.787  29.172  1.00  0.00     0.049 A 
ATOM     49  N   UNL A   1      42.454  25.627  28.423  1.00  0.00    -0.248 NA
ATOM     50  C   UNL A   1      41.674  26.625  26.472  1.00  0.00     0.031 C 
ATOM     51  C   UNL A   1      42.316  30.170  29.615  1.00  0.00     0.029 A 
ATOM     52  N   UNL A   1      43.828  28.570  29.393  1.00  0.00    -0.354 N 
ATOM     53  C   UNL A   1      42.642  24.760  27.355  1.00  0.00     0.074 A 
ATOM     54  C   UNL A   1      41.998  25.359  26.215  1.00  0.00     0.031 C 
ATOM     55  C   UNL A   1      43.528  30.729  29.840  1.00  0.00     0.029 A 
ATOM     56  C   UNL A   1      44.554  29.713  29.671  1.00  0.00     0.049 A 
ATOM     57  H   UNL A   1      44.235  27.674  29.358  1.00  0.00     0.167 HD
ATOM     58  C   UNL A   1      43.516  23.723  27.432  1.00  0.00     0.037 A 
ATOM     59  C   UNL A   1      45.906  29.808  29.645  1.00  0.00     0.037 A 
ATOM     60  C   UNL A   1      43.832  23.390  28.796  1.00  0.00     0.049 A 
ATOM     61  C   UNL A   1      46.457  28.427  29.737  1.00  0.00     0.074 A 
ATOM     62  C   UNL A   1      43.085  22.978  29.885  1.00  0.00     0.029 A 
ATOM     63  N   UNL A   1      45.036  23.805  29.312  1.00  0.00    -0.354 N 
ATOM     64  N   UNL A   1      46.393  27.683  30.808  1.00  0.00    -0.248 NA
ATOM     65  C   UNL A   1      46.683  27.702  28.492  1.00  0.00     0.031 C 
ATOM     66  C   UNL A   1      43.685  23.612  31.012  1.00  0.00     0.029 A 
ATOM     67  C   UNL A   1      44.778  24.344  30.548  1.00  0.00     0.049 A 
ATOM     68  H   UNL A   1      45.916  23.729  28.879  1.00  0.00     0.167 HD
ATOM     69  C   UNL A   1      46.158  26.398  30.337  1.00  0.00     0.074 A 
ATOM     70  C   UNL A   1      46.437  26.455  28.906  1.00  0.00     0.031 C 
ATOM     71  C   UNL A   1      45.484  25.479  31.091  1.00  0.00     0.037 A 
BRANCH  58  72
ATOM     72  C   UNL A   1      44.333  23.249  26.263  1.00  0.00     0.064 A 
ATOM     73  C   UNL A   1      44.333  21.882  25.933  1.00  0.00     0.173 A 
ATOM     74  C   UNL A   1      45.325  24.033  25.633  1.00  0.00     0.173 A 
ATOM     75  F   UNL A   1      43.454  21.043  26.501  1.00  0.00    -0.203 F 
ATOM     76  C   UNL A   1      45.294  21.334  25.081  1.00  0.00     0.198 A 
ATOM     77  C   UNL A   1      46.241  23.494  24.736  1.00  0.00     0.198 A 
ATOM     78  F   UNL A   1      45.522  25.320  25.943  1.00  0.00    -0.203 F 
ATOM     79  F   UNL A   1      45.334  20.009  24.893  1.00  0.00    -0.200 F 
ATOM     80  C   UNL A   1      46.247  22.140  24.484  1.00  0.00     0.200 A 
ATOM     81  F   UNL A   1      47.168  24.291  24.185  1.00  0.00    -0.200 F 
ATOM     82  F   UNL A   1      47.202  21.607  23.712  1.00  0.00    -0.200 F 
ENDBRANCH  58  72
BRANCH  59  83
ATOM     83  C   UNL A   1      46.717  30.970  29.213  1.00  0.00     0.064 A 
ATOM     84  C   UNL A   1      47.746  31.476  30.021  1.00  0.00     0.173 A 
ATOM     85  C   UNL A   1      46.666  31.453  27.889  1.00  0.00     0.173 A 
ATOM     86  F   UNL A   1      47.898  31.030  31.276  1.00  0.00    -0.203 F 
ATOM     87  C   UNL A   1      48.675  32.401  29.531  1.00  0.00     0.198 A 
ATOM     88  C   UNL A   1      47.583  32.385  27.406  1.00  0.00     0.198 A 
ATOM     89  F   UNL A   1      45.784  30.963  27.007  1.00  0.00    -0.203 F 
ATOM     90  F   UNL A   1      49.680  32.817  30.313  1.00  0.00    -0.200 F 
ATOM     91  C   UNL A   1      48.596  32.850  28.222  1.00  0.00     0.200 A 
ATOM     92  F   UNL A   1      47.515  32.783  26.127  1.00  0.00    -0.200 F 
ATOM     93  F   UNL A   1      49.515  33.696  27.737  1.00  0.00    -0.200 F 
ENDBRANCH  59  83
BRANCH  71  94
ATOM     94  C   UNL A   1      45.226  25.811  32.533  1.00  0.00     0.064 A 
ATOM     95  C   UNL A   1      44.092  26.514  32.975  1.00  0.00     0.173 A 
ATOM     96  C   UNL A   1      46.071  25.271  33.510  1.00  0.00     0.173 A 
ATOM     97  F   UNL A   1      43.176  26.962  32.106  1.00  0.00    -0.203 F 
ATOM     98  C   UNL A   1      43.846  26.711  34.333  1.00  0.00     0.198 A 
ATOM     99  C   UNL A   1      45.804  25.436  34.868  1.00  0.00     0.198 A 
ATOM    100  F   UNL A   1      47.135  24.535  33.148  1.00  0.00    -0.203 F 
ATOM    101  F   UNL A   1      42.764  27.397  34.728  1.00  0.00    -0.200 F 
ATOM    102  C   UNL A   1      44.700  26.166  35.277  1.00  0.00     0.200 A 
ATOM    103  F   UNL A   1      46.601  24.861  35.778  1.00  0.00    -0.200 F 
ATOM    104  F   UNL A   1      44.441  26.317  36.584  1.00  0.00    -0.200 F 
ENDBRANCH  71  94
ENDBRANCH  45  46
ENDBRANCH  38  40
ENDBRANCH  37  38
ENDBRANCH  36  37
ENDBRANCH  35  36
ENDBRANCH   1  35
TORSDOF 18
ENDMDL
