MODEL 1
REMARK VINA RESULT:     -11.0      0.000      0.000
REMARK SMILES CC[C@H](C(=O)OCCOCCOC(=O)c1ccc(-c2c3nc(c(-c4c(F)c(F)c(F)c(F)c4F)c4ccc([nH]4)c(-c4c(F)c(F)c(F)c(F)c4F)c4nc(c(-c5c(F)c(F)c(F)c(F)c5F)c5ccc2[nH]5)C=C4)C=C3)cc1)N(C)c1cc(C)ccc1[N+](=O)[O-]
REMARK SMILES IDX 8 1 7 2 6 3 4 4 5 5 3 6 2 7 1 8 78 9 79 10 80 11 81 12 86 13
REMARK SMILES IDX 82 14 85 15 83 16 84 17 87 18 88 19 89 20 9 21 10 22 11 23
REMARK SMILES IDX 12 24 13 25 14 26 15 27 16 28 77 29 17 30 76 31 18 32 19 33
REMARK SMILES IDX 20 34 70 35 21 36 75 37 69 38 71 39 22 40 74 41 68 42 67 43
REMARK SMILES IDX 23 45 55 46 35 47 54 48 36 49 39 50 53 51 72 52 37 53 38 54
REMARK SMILES IDX 52 56 73 57 40 58 24 59 25 60 33 61 26 62 27 63 31 64 34 65
REMARK SMILES IDX 28 66 29 67 32 68 30 69 56 70 57 71 65 72 58 73 59 74 63 75
REMARK SMILES IDX 66 76 60 77 61 78 64 79 62 80 41 81 42 82 50 83 43 84 44 85
REMARK SMILES IDX 48 86 51 87 45 88 46 89 49 90 47 91
REMARK H PARENT 71 44 39 55
REMARK Flexibility Score: inf
ROOT
ATOM      1  C   UNL A   1      33.026  26.371  25.357  1.00  0.00     0.202 C 
ENDROOT
BRANCH   1   2
ATOM      2  C   UNL A   1      34.345  25.578  25.346  1.00  0.00     0.261 C 
BRANCH   2   3
ATOM      3  O   UNL A   1      34.184  24.241  25.818  1.00  0.00    -0.462 OA
BRANCH   3   4
ATOM      4  C   UNL A   1      35.320  23.492  25.886  1.00  0.00     0.328 C 
ATOM      5  O   UNL A   1      36.442  23.921  25.644  1.00  0.00    -0.250 OA
BRANCH   4   6
ATOM      6  C   UNL A   1      34.975  22.018  26.167  1.00  0.00     0.192 C 
BRANCH   6   7
ATOM      7  C   UNL A   1      33.657  21.815  26.924  1.00  0.00     0.034 C 
ATOM      8  C   UNL A   1      33.564  22.443  28.304  1.00  0.00     0.007 C 
ENDBRANCH   6   7
BRANCH   6   9
ATOM      9  N   UNL A   1      35.215  21.035  25.043  1.00  0.00    -0.356 N 
ATOM     10  C   UNL A   1      36.590  20.506  25.011  1.00  0.00     0.145 C 
BRANCH   9  11
ATOM     11  C   UNL A   1      34.240  20.218  24.461  1.00  0.00     0.116 A 
ATOM     12  C   UNL A   1      34.413  18.811  24.516  1.00  0.00     0.036 A 
ATOM     13  C   UNL A   1      33.106  20.623  23.727  1.00  0.00     0.292 A 
ATOM     14  C   UNL A   1      33.553  17.888  23.882  1.00  0.00    -0.049 A 
ATOM     15  C   UNL A   1      32.225  19.716  23.096  1.00  0.00     0.088 A 
ATOM     16  C   UNL A   1      33.835  16.417  23.963  1.00  0.00     0.044 C 
ATOM     17  C   UNL A   1      32.453  18.352  23.171  1.00  0.00     0.010 A 
BRANCH  13  18
ATOM     18  N   UNL A   1      32.751  22.000  23.487  1.00  0.00     0.064 N 
ATOM     19  O   UNL A   1      31.725  22.420  24.041  1.00  0.00    -0.258 OA
ATOM     20  O   UNL A   1      33.585  22.703  22.906  1.00  0.00    -0.258 OA
ENDBRANCH  13  18
ENDBRANCH   9  11
ENDBRANCH   6   9
ENDBRANCH   4   6
ENDBRANCH   3   4
ENDBRANCH   2   3
ENDBRANCH   1   2
BRANCH   1  21
ATOM     21  O   UNL A   1      32.976  27.710  25.833  1.00  0.00    -0.374 OA
BRANCH  21  22
ATOM     22  C   UNL A   1      32.153  28.670  25.186  1.00  0.00     0.202 C 
BRANCH  22  23
ATOM     23  C   UNL A   1      32.004  30.053  25.819  1.00  0.00     0.261 C 
BRANCH  23  24
ATOM     24  O   UNL A   1      32.650  30.158  27.095  1.00  0.00    -0.460 OA
BRANCH  24  25
ATOM     25  C   UNL A   1      33.295  31.332  27.297  1.00  0.00     0.338 C 
ATOM     26  O   UNL A   1      32.826  32.456  27.301  1.00  0.00    -0.246 OA
BRANCH  25  27
ATOM     27  C   UNL A   1      34.687  31.054  27.676  1.00  0.00     0.060 A 
ATOM     28  C   UNL A   1      35.059  29.722  27.907  1.00  0.00     0.016 A 
ATOM     29  C   UNL A   1      35.580  32.102  27.896  1.00  0.00     0.016 A 
ATOM     30  C   UNL A   1      36.326  29.432  28.403  1.00  0.00     0.010 A 
ATOM     31  C   UNL A   1      36.839  31.813  28.415  1.00  0.00     0.010 A 
ATOM     32  C   UNL A   1      37.197  30.483  28.706  1.00  0.00    -0.014 A 
BRANCH  32  33
ATOM     33  C   UNL A   1      38.396  30.240  29.532  1.00  0.00     0.031 A 
ATOM     34  C   UNL A   1      39.420  29.273  29.012  1.00  0.00     0.074 A 
ATOM     35  C   UNL A   1      38.541  30.829  30.729  1.00  0.00     0.049 A 
ATOM     36  N   UNL A   1      40.447  28.741  29.621  1.00  0.00    -0.248 NA
ATOM     37  C   UNL A   1      39.251  28.836  27.616  1.00  0.00     0.031 C 
ATOM     38  C   UNL A   1      37.637  31.826  31.295  1.00  0.00     0.029 A 
ATOM     39  N   UNL A   1      39.494  30.643  31.698  1.00  0.00    -0.354 N 
ATOM     40  C   UNL A   1      41.029  27.889  28.691  1.00  0.00     0.074 A 
ATOM     41  C   UNL A   1      40.237  27.961  27.485  1.00  0.00     0.031 C 
ATOM     42  C   UNL A   1      38.060  32.143  32.530  1.00  0.00     0.029 A 
ATOM     43  C   UNL A   1      39.233  31.334  32.855  1.00  0.00     0.049 A 
ATOM     44  H   UNL A   1      40.287  30.072  31.575  1.00  0.00     0.167 HD
ATOM     45  C   UNL A   1      42.128  27.115  28.840  1.00  0.00     0.037 A 
ATOM     46  C   UNL A   1      39.852  31.276  34.048  1.00  0.00     0.037 A 
ATOM     47  C   UNL A   1      42.903  27.058  30.051  1.00  0.00     0.049 A 
ATOM     48  C   UNL A   1      41.029  30.348  34.217  1.00  0.00     0.074 A 
ATOM     49  C   UNL A   1      44.039  26.316  30.314  1.00  0.00     0.029 A 
ATOM     50  N   UNL A   1      42.611  27.774  31.203  1.00  0.00    -0.354 N 
ATOM     51  N   UNL A   1      41.582  29.544  33.340  1.00  0.00    -0.248 NA
ATOM     52  C   UNL A   1      41.666  30.315  35.541  1.00  0.00     0.031 C 
ATOM     53  C   UNL A   1      44.405  26.543  31.644  1.00  0.00     0.029 A 
ATOM     54  C   UNL A   1      43.535  27.475  32.189  1.00  0.00     0.049 A 
ATOM     55  H   UNL A   1      41.859  28.401  31.304  1.00  0.00     0.167 HD
ATOM     56  C   UNL A   1      42.653  28.945  33.989  1.00  0.00     0.074 A 
ATOM     57  C   UNL A   1      42.670  29.473  35.338  1.00  0.00     0.031 C 
ATOM     58  C   UNL A   1      43.547  28.043  33.513  1.00  0.00     0.037 A 
BRANCH  45  59
ATOM     59  C   UNL A   1      42.529  26.245  27.687  1.00  0.00     0.064 A 
ATOM     60  C   UNL A   1      41.946  24.988  27.469  1.00  0.00     0.173 A 
ATOM     61  C   UNL A   1      43.497  26.687  26.771  1.00  0.00     0.173 A 
ATOM     62  F   UNL A   1      41.029  24.512  28.324  1.00  0.00    -0.203 F 
ATOM     63  C   UNL A   1      42.334  24.196  26.392  1.00  0.00     0.198 A 
ATOM     64  C   UNL A   1      43.860  25.905  25.678  1.00  0.00     0.198 A 
ATOM     65  F   UNL A   1      44.086  27.881  26.933  1.00  0.00    -0.203 F 
ATOM     66  F   UNL A   1      41.799  22.977  26.231  1.00  0.00    -0.200 F 
ATOM     67  C   UNL A   1      43.285  24.657  25.493  1.00  0.00     0.200 A 
ATOM     68  F   UNL A   1      44.770  26.359  24.805  1.00  0.00    -0.200 F 
ATOM     69  F   UNL A   1      43.652  23.897  24.453  1.00  0.00    -0.200 F 
ENDBRANCH  45  59
BRANCH  46  70
ATOM     70  C   UNL A   1      39.359  32.101  35.182  1.00  0.00     0.064 A 
ATOM     71  C   UNL A   1      39.694  33.458  35.285  1.00  0.00     0.173 A 
ATOM     72  C   UNL A   1      38.552  31.551  36.189  1.00  0.00     0.173 A 
ATOM     73  F   UNL A   1      40.484  34.024  34.359  1.00  0.00    -0.203 F 
ATOM     74  C   UNL A   1      39.257  34.228  36.360  1.00  0.00     0.198 A 
ATOM     75  C   UNL A   1      38.090  32.330  37.248  1.00  0.00     0.198 A 
ATOM     76  F   UNL A   1      38.202  30.257  36.140  1.00  0.00    -0.203 F 
ATOM     77  F   UNL A   1      39.632  35.511  36.457  1.00  0.00    -0.200 F 
ATOM     78  C   UNL A   1      38.450  33.666  37.338  1.00  0.00     0.200 A 
ATOM     79  F   UNL A   1      37.303  31.784  38.184  1.00  0.00    -0.200 F 
ATOM     80  F   UNL A   1      38.029  34.408  38.370  1.00  0.00    -0.200 F 
ENDBRANCH  46  70
BRANCH  58  81
ATOM     81  C   UNL A   1      44.665  27.620  34.419  1.00  0.00     0.064 A 
ATOM     82  C   UNL A   1      45.856  28.351  34.516  1.00  0.00     0.173 A 
ATOM     83  C   UNL A   1      44.493  26.519  35.274  1.00  0.00     0.173 A 
ATOM     84  F   UNL A   1      46.071  29.403  33.711  1.00  0.00    -0.203 F 
ATOM     85  C   UNL A   1      46.841  27.990  35.432  1.00  0.00     0.198 A 
ATOM     86  C   UNL A   1      45.466  26.181  36.208  1.00  0.00     0.198 A 
ATOM     87  F   UNL A   1      43.365  25.795  35.224  1.00  0.00    -0.203 F 
ATOM     88  F   UNL A   1      47.984  28.686  35.492  1.00  0.00    -0.200 F 
ATOM     89  C   UNL A   1      46.640  26.914  36.285  1.00  0.00     0.200 A 
ATOM     90  F   UNL A   1      45.262  25.152  37.043  1.00  0.00    -0.200 F 
ATOM     91  F   UNL A   1      47.578  26.585  37.183  1.00  0.00    -0.200 F 
ENDBRANCH  58  81
ENDBRANCH  32  33
ENDBRANCH  25  27
ENDBRANCH  24  25
ENDBRANCH  23  24
ENDBRANCH  22  23
ENDBRANCH  21  22
ENDBRANCH   1  21
TORSDOF 18
ENDMDL
MODEL 2
REMARK VINA RESULT:     -10.9      2.391      8.172
REMARK SMILES CC[C@H](C(=O)OCCOCCOC(=O)c1ccc(-c2c3nc(c(-c4c(F)c(F)c(F)c(F)c4F)c4ccc([nH]4)c(-c4c(F)c(F)c(F)c(F)c4F)c4nc(c(-c5c(F)c(F)c(F)c(F)c5F)c5ccc2[nH]5)C=C4)C=C3)cc1)N(C)c1cc(C)ccc1[N+](=O)[O-]
REMARK SMILES IDX 8 1 7 2 6 3 4 4 5 5 3 6 2 7 1 8 78 9 79 10 80 11 81 12 86 13
REMARK SMILES IDX 82 14 85 15 83 16 84 17 87 18 88 19 89 20 9 21 10 22 11 23
REMARK SMILES IDX 12 24 13 25 14 26 15 27 16 28 77 29 17 30 76 31 18 32 19 33
REMARK SMILES IDX 20 34 70 35 21 36 75 37 69 38 71 39 22 40 74 41 68 42 67 43
REMARK SMILES IDX 23 45 55 46 35 47 54 48 36 49 39 50 53 51 72 52 37 53 38 54
REMARK SMILES IDX 52 56 73 57 40 58 24 59 25 60 33 61 26 62 27 63 31 64 34 65
REMARK SMILES IDX 28 66 29 67 32 68 30 69 56 70 57 71 65 72 58 73 59 74 63 75
REMARK SMILES IDX 66 76 60 77 61 78 64 79 62 80 41 81 42 82 50 83 43 84 44 85
REMARK SMILES IDX 48 86 51 87 45 88 46 89 49 90 47 91
REMARK H PARENT 71 44 39 55
REMARK Flexibility Score: inf
ROOT
ATOM      1  C   UNL A   1      34.035  29.456  26.631  1.00  0.00     0.202 C 
ENDROOT
BRANCH   1   2
ATOM      2  C   UNL A   1      33.520  28.010  26.735  1.00  0.00     0.261 C 
BRANCH   2   3
ATOM      3  O   UNL A   1      32.711  27.635  25.621  1.00  0.00    -0.462 OA
BRANCH   3   4
ATOM      4  C   UNL A   1      31.517  27.050  25.920  1.00  0.00     0.328 C 
ATOM      5  O   UNL A   1      30.967  27.132  27.011  1.00  0.00    -0.250 OA
BRANCH   4   6
ATOM      6  C   UNL A   1      31.043  26.171  24.749  1.00  0.00     0.192 C 
BRANCH   6   7
ATOM      7  C   UNL A   1      30.602  26.960  23.510  1.00  0.00     0.034 C 
ATOM      8  C   UNL A   1      29.147  27.394  23.465  1.00  0.00     0.007 C 
ENDBRANCH   6   7
BRANCH   6   9
ATOM      9  N   UNL A   1      31.858  24.933  24.452  1.00  0.00    -0.356 N 
ATOM     10  C   UNL A   1      32.376  24.890  23.072  1.00  0.00     0.145 C 
BRANCH   9  11
ATOM     11  C   UNL A   1      32.586  24.199  25.393  1.00  0.00     0.116 A 
ATOM     12  C   UNL A   1      34.004  24.253  25.348  1.00  0.00     0.036 A 
ATOM     13  C   UNL A   1      32.083  23.313  26.368  1.00  0.00     0.292 A 
ATOM     14  C   UNL A   1      34.847  23.483  26.177  1.00  0.00    -0.049 A 
ATOM     15  C   UNL A   1      32.909  22.541  27.217  1.00  0.00     0.088 A 
ATOM     16  C   UNL A   1      36.336  23.578  26.034  1.00  0.00     0.044 C 
ATOM     17  C   UNL A   1      34.287  22.625  27.117  1.00  0.00     0.010 A 
BRANCH  13  18
ATOM     18  N   UNL A   1      30.679  23.047  26.567  1.00  0.00     0.064 N 
ATOM     19  O   UNL A   1      30.247  21.968  26.136  1.00  0.00    -0.258 OA
ATOM     20  O   UNL A   1      30.059  23.819  27.305  1.00  0.00    -0.258 OA
ENDBRANCH  13  18
ENDBRANCH   9  11
ENDBRANCH   6   9
ENDBRANCH   4   6
ENDBRANCH   3   4
ENDBRANCH   2   3
ENDBRANCH   1   2
BRANCH   1  21
ATOM     21  O   UNL A   1      33.154  30.563  26.774  1.00  0.00    -0.374 OA
BRANCH  21  22
ATOM     22  C   UNL A   1      33.510  31.661  27.601  1.00  0.00     0.202 C 
BRANCH  22  23
ATOM     23  C   UNL A   1      32.601  32.888  27.623  1.00  0.00     0.261 C 
BRANCH  23  24
ATOM     24  O   UNL A   1      33.325  34.125  27.578  1.00  0.00    -0.460 OA
BRANCH  24  25
ATOM     25  C   UNL A   1      33.326  34.811  28.745  1.00  0.00     0.338 C 
ATOM     26  O   UNL A   1      32.514  35.629  29.137  1.00  0.00    -0.246 OA
BRANCH  25  27
ATOM     27  C   UNL A   1      34.418  34.311  29.593  1.00  0.00     0.060 A 
ATOM     28  C   UNL A   1      35.736  34.471  29.143  1.00  0.00     0.016 A 
ATOM     29  C   UNL A   1      34.135  33.609  30.764  1.00  0.00     0.016 A 
ATOM     30  C   UNL A   1      36.784  33.888  29.846  1.00  0.00     0.010 A 
ATOM     31  C   UNL A   1      35.183  33.005  31.453  1.00  0.00     0.010 A 
ATOM     32  C   UNL A   1      36.501  33.111  30.973  1.00  0.00    -0.014 A 
BRANCH  32  33
ATOM     33  C   UNL A   1      37.532  32.218  31.538  1.00  0.00     0.031 A 
ATOM     34  C   UNL A   1      38.058  32.534  32.908  1.00  0.00     0.074 A 
ATOM     35  C   UNL A   1      38.015  31.185  30.830  1.00  0.00     0.049 A 
ATOM     36  N   UNL A   1      39.088  32.035  33.540  1.00  0.00    -0.248 NA
ATOM     37  C   UNL A   1      37.328  33.567  33.662  1.00  0.00     0.031 C 
ATOM     38  C   UNL A   1      37.529  30.759  29.520  1.00  0.00     0.029 A 
ATOM     39  N   UNL A   1      39.048  30.327  31.106  1.00  0.00    -0.354 N 
ATOM     40  C   UNL A   1      39.143  32.711  34.752  1.00  0.00     0.074 A 
ATOM     41  C   UNL A   1      38.057  33.664  34.764  1.00  0.00     0.031 C 
ATOM     42  C   UNL A   1      38.288  29.737  29.088  1.00  0.00     0.029 A 
ATOM     43  C   UNL A   1      39.337  29.475  30.070  1.00  0.00     0.049 A 
ATOM     44  H   UNL A   1      39.533  30.323  31.963  1.00  0.00     0.167 HD
ATOM     45  C   UNL A   1      40.029  32.546  35.760  1.00  0.00     0.037 A 
ATOM     46  C   UNL A   1      40.364  28.617  29.924  1.00  0.00     0.037 A 
ATOM     47  C   UNL A   1      41.104  31.592  35.728  1.00  0.00     0.049 A 
ATOM     48  C   UNL A   1      41.385  28.505  31.029  1.00  0.00     0.074 A 
ATOM     49  C   UNL A   1      42.058  31.332  36.694  1.00  0.00     0.029 A 
ATOM     50  N   UNL A   1      41.366  30.742  34.662  1.00  0.00    -0.354 N 
ATOM     51  N   UNL A   1      41.439  29.140  32.175  1.00  0.00    -0.248 NA
ATOM     52  C   UNL A   1      42.491  27.559  30.819  1.00  0.00     0.031 C 
ATOM     53  C   UNL A   1      42.929  30.361  36.193  1.00  0.00     0.029 A 
ATOM     54  C   UNL A   1      42.480  29.970  34.940  1.00  0.00     0.049 A 
ATOM     55  H   UNL A   1      40.838  30.695  33.833  1.00  0.00     0.167 HD
ATOM     56  C   UNL A   1      42.552  28.644  32.838  1.00  0.00     0.074 A 
ATOM     57  C   UNL A   1      43.152  27.657  31.964  1.00  0.00     0.031 C 
ATOM     58  C   UNL A   1      43.034  28.969  34.063  1.00  0.00     0.037 A 
BRANCH  45  59
ATOM     59  C   UNL A   1      39.895  33.440  36.957  1.00  0.00     0.064 A 
ATOM     60  C   UNL A   1      40.631  34.629  37.080  1.00  0.00     0.173 A 
ATOM     61  C   UNL A   1      39.001  33.113  37.988  1.00  0.00     0.173 A 
ATOM     62  F   UNL A   1      41.512  34.978  36.131  1.00  0.00    -0.203 F 
ATOM     63  C   UNL A   1      40.492  35.444  38.200  1.00  0.00     0.198 A 
ATOM     64  C   UNL A   1      38.842  33.945  39.092  1.00  0.00     0.198 A 
ATOM     65  F   UNL A   1      38.274  31.987  37.920  1.00  0.00    -0.203 F 
ATOM     66  F   UNL A   1      41.240  36.550  38.319  1.00  0.00    -0.200 F 
ATOM     67  C   UNL A   1      39.593  35.105  39.202  1.00  0.00     0.200 A 
ATOM     68  F   UNL A   1      37.965  33.623  40.052  1.00  0.00    -0.200 F 
ATOM     69  F   UNL A   1      39.456  35.895  40.276  1.00  0.00    -0.200 F 
ENDBRANCH  45  59
BRANCH  46  70
ATOM     70  C   UNL A   1      40.492  27.815  28.679  1.00  0.00     0.064 A 
ATOM     71  C   UNL A   1      39.844  26.580  28.548  1.00  0.00     0.173 A 
ATOM     72  C   UNL A   1      41.268  28.261  27.599  1.00  0.00     0.173 A 
ATOM     73  F   UNL A   1      39.109  26.099  29.563  1.00  0.00    -0.203 F 
ATOM     74  C   UNL A   1      39.982  25.812  27.394  1.00  0.00     0.198 A 
ATOM     75  C   UNL A   1      41.382  27.507  26.433  1.00  0.00     0.198 A 
ATOM     76  F   UNL A   1      41.911  29.437  27.672  1.00  0.00    -0.203 F 
ATOM     77  F   UNL A   1      39.390  24.613  27.315  1.00  0.00    -0.200 F 
ATOM     78  C   UNL A   1      40.746  26.279  26.335  1.00  0.00     0.200 A 
ATOM     79  F   UNL A   1      42.113  27.967  25.409  1.00  0.00    -0.200 F 
ATOM     80  F   UNL A   1      40.878  25.541  25.224  1.00  0.00    -0.200 F 
ENDBRANCH  46  70
BRANCH  58  81
ATOM     81  C   UNL A   1      44.222  28.208  34.573  1.00  0.00     0.064 A 
ATOM     82  C   UNL A   1      44.086  26.988  35.247  1.00  0.00     0.173 A 
ATOM     83  C   UNL A   1      45.519  28.667  34.291  1.00  0.00     0.173 A 
ATOM     84  F   UNL A   1      42.867  26.515  35.549  1.00  0.00    -0.203 F 
ATOM     85  C   UNL A   1      45.208  26.255  35.627  1.00  0.00     0.198 A 
ATOM     86  C   UNL A   1      46.636  27.918  34.647  1.00  0.00     0.198 A 
ATOM     87  F   UNL A   1      45.700  29.826  33.640  1.00  0.00    -0.203 F 
ATOM     88  F   UNL A   1      45.057  25.102  36.294  1.00  0.00    -0.200 F 
ATOM     89  C   UNL A   1      46.480  26.714  35.316  1.00  0.00     0.200 A 
ATOM     90  F   UNL A   1      47.863  28.355  34.329  1.00  0.00    -0.200 F 
ATOM     91  F   UNL A   1      47.555  25.994  35.662  1.00  0.00    -0.200 F 
ENDBRANCH  58  81
ENDBRANCH  32  33
ENDBRANCH  25  27
ENDBRANCH  24  25
ENDBRANCH  23  24
ENDBRANCH  22  23
ENDBRANCH  21  22
ENDBRANCH   1  21
TORSDOF 18
ENDMDL
MODEL 3
REMARK VINA RESULT:     -10.9      4.244      7.659
REMARK SMILES CC[C@H](C(=O)OCCOCCOC(=O)c1ccc(-c2c3nc(c(-c4c(F)c(F)c(F)c(F)c4F)c4ccc([nH]4)c(-c4c(F)c(F)c(F)c(F)c4F)c4nc(c(-c5c(F)c(F)c(F)c(F)c5F)c5ccc2[nH]5)C=C4)C=C3)cc1)N(C)c1cc(C)ccc1[N+](=O)[O-]
REMARK SMILES IDX 8 1 7 2 6 3 4 4 5 5 3 6 2 7 1 8 78 9 79 10 80 11 81 12 86 13
REMARK SMILES IDX 82 14 85 15 83 16 84 17 87 18 88 19 89 20 9 21 10 22 11 23
REMARK SMILES IDX 12 24 13 25 14 26 15 27 16 28 77 29 17 30 76 31 18 32 19 33
REMARK SMILES IDX 20 34 70 35 21 36 75 37 69 38 71 39 22 40 74 41 68 42 67 43
REMARK SMILES IDX 23 45 55 46 35 47 54 48 36 49 39 50 53 51 72 52 37 53 38 54
REMARK SMILES IDX 52 56 73 57 40 58 24 59 25 60 33 61 26 62 27 63 31 64 34 65
REMARK SMILES IDX 28 66 29 67 32 68 30 69 56 70 57 71 65 72 58 73 59 74 63 75
REMARK SMILES IDX 66 76 60 77 61 78 64 79 62 80 41 81 42 82 50 83 43 84 44 85
REMARK SMILES IDX 48 86 51 87 45 88 46 89 49 90 47 91
REMARK H PARENT 71 44 39 55
REMARK Flexibility Score: inf
ROOT
ATOM      1  C   UNL A   1      36.806  22.167  24.655  1.00  0.00     0.202 C 
ENDROOT
BRANCH   1   2
ATOM      2  C   UNL A   1      35.337  22.042  24.213  1.00  0.00     0.261 C 
BRANCH   2   3
ATOM      3  O   UNL A   1      34.576  23.213  24.506  1.00  0.00    -0.462 OA
BRANCH   3   4
ATOM      4  C   UNL A   1      33.284  23.208  24.073  1.00  0.00     0.328 C 
ATOM      5  O   UNL A   1      32.804  22.341  23.352  1.00  0.00    -0.250 OA
BRANCH   4   6
ATOM      6  C   UNL A   1      32.571  24.505  24.498  1.00  0.00     0.192 C 
BRANCH   6   7
ATOM      7  C   UNL A   1      32.153  24.536  25.973  1.00  0.00     0.034 C 
ATOM      8  C   UNL A   1      30.667  24.399  26.260  1.00  0.00     0.007 C 
ENDBRANCH   6   7
BRANCH   6   9
ATOM      9  N   UNL A   1      33.147  25.802  23.978  1.00  0.00    -0.356 N 
ATOM     10  C   UNL A   1      33.648  25.708  22.595  1.00  0.00     0.145 C 
BRANCH   9  11
ATOM     11  C   UNL A   1      32.768  27.081  24.397  1.00  0.00     0.116 A 
ATOM     12  C   UNL A   1      33.583  27.756  25.342  1.00  0.00     0.036 A 
ATOM     13  C   UNL A   1      31.594  27.784  24.056  1.00  0.00     0.292 A 
ATOM     14  C   UNL A   1      33.255  29.005  25.914  1.00  0.00    -0.049 A 
ATOM     15  C   UNL A   1      31.253  29.040  24.606  1.00  0.00     0.088 A 
ATOM     16  C   UNL A   1      34.162  29.628  26.933  1.00  0.00     0.044 C 
ATOM     17  C   UNL A   1      32.081  29.645  25.536  1.00  0.00     0.010 A 
BRANCH  13  18
ATOM     18  N   UNL A   1      30.584  27.278  23.158  1.00  0.00     0.064 N 
ATOM     19  O   UNL A   1      29.678  26.597  23.662  1.00  0.00    -0.258 OA
ATOM     20  O   UNL A   1      30.593  27.707  22.000  1.00  0.00    -0.258 OA
ENDBRANCH  13  18
ENDBRANCH   9  11
ENDBRANCH   6   9
ENDBRANCH   4   6
ENDBRANCH   3   4
ENDBRANCH   2   3
ENDBRANCH   1   2
BRANCH   1  21
ATOM     21  O   UNL A   1      37.396  21.211  25.527  1.00  0.00    -0.374 OA
BRANCH  21  22
ATOM     22  C   UNL A   1      38.003  20.039  25.001  1.00  0.00     0.202 C 
BRANCH  22  23
ATOM     23  C   UNL A   1      39.227  19.465  25.713  1.00  0.00     0.261 C 
BRANCH  23  24
ATOM     24  O   UNL A   1      40.291  20.415  25.853  1.00  0.00    -0.460 OA
BRANCH  24  25
ATOM     25  C   UNL A   1      40.782  20.519  27.111  1.00  0.00     0.338 C 
ATOM     26  O   UNL A   1      41.220  19.633  27.823  1.00  0.00    -0.246 OA
BRANCH  25  27
ATOM     27  C   UNL A   1      40.859  21.940  27.478  1.00  0.00     0.060 A 
ATOM     28  C   UNL A   1      40.060  22.852  26.773  1.00  0.00     0.016 A 
ATOM     29  C   UNL A   1      41.777  22.372  28.434  1.00  0.00     0.016 A 
ATOM     30  C   UNL A   1      40.208  24.217  26.994  1.00  0.00     0.010 A 
ATOM     31  C   UNL A   1      41.941  23.739  28.637  1.00  0.00     0.010 A 
ATOM     32  C   UNL A   1      41.186  24.662  27.889  1.00  0.00    -0.014 A 
BRANCH  32  33
ATOM     33  C   UNL A   1      41.594  26.081  27.898  1.00  0.00     0.031 A 
ATOM     34  C   UNL A   1      42.932  26.428  27.313  1.00  0.00     0.074 A 
ATOM     35  C   UNL A   1      40.814  27.021  28.453  1.00  0.00     0.049 A 
ATOM     36  N   UNL A   1      43.603  27.548  27.375  1.00  0.00    -0.248 NA
ATOM     37  C   UNL A   1      43.614  25.356  26.569  1.00  0.00     0.031 C 
ATOM     38  C   UNL A   1      39.474  26.797  28.990  1.00  0.00     0.029 A 
ATOM     39  N   UNL A   1      41.055  28.351  28.682  1.00  0.00    -0.354 N 
ATOM     40  C   UNL A   1      44.792  27.307  26.701  1.00  0.00     0.074 A 
ATOM     41  C   UNL A   1      44.763  25.934  26.252  1.00  0.00     0.031 C 
ATOM     42  C   UNL A   1      39.023  27.946  29.520  1.00  0.00     0.029 A 
ATOM     43  C   UNL A   1      40.061  28.967  29.400  1.00  0.00     0.049 A 
ATOM     44  H   UNL A   1      41.862  28.817  28.363  1.00  0.00     0.167 HD
ATOM     45  C   UNL A   1      45.817  28.162  26.483  1.00  0.00     0.037 A 
ATOM     46  C   UNL A   1      40.026  30.202  29.934  1.00  0.00     0.037 A 
ATOM     47  C   UNL A   1      45.827  29.526  26.939  1.00  0.00     0.049 A 
ATOM     48  C   UNL A   1      41.213  31.114  29.745  1.00  0.00     0.074 A 
ATOM     49  C   UNL A   1      46.807  30.485  26.770  1.00  0.00     0.029 A 
ATOM     50  N   UNL A   1      44.801  30.118  27.662  1.00  0.00    -0.354 N 
ATOM     51  N   UNL A   1      42.337  30.890  29.108  1.00  0.00    -0.248 NA
ATOM     52  C   UNL A   1      41.128  32.450  30.353  1.00  0.00     0.031 C 
ATOM     53  C   UNL A   1      46.397  31.645  27.435  1.00  0.00     0.029 A 
ATOM     54  C   UNL A   1      45.134  31.427  27.964  1.00  0.00     0.049 A 
ATOM     55  H   UNL A   1      43.961  29.674  27.920  1.00  0.00     0.167 HD
ATOM     56  C   UNL A   1      43.072  32.063  29.199  1.00  0.00     0.074 A 
ATOM     57  C   UNL A   1      42.270  32.999  29.961  1.00  0.00     0.031 C 
ATOM     58  C   UNL A   1      44.299  32.346  28.695  1.00  0.00     0.037 A 
BRANCH  45  59
ATOM     59  C   UNL A   1      47.020  27.637  25.757  1.00  0.00     0.064 A 
ATOM     60  C   UNL A   1      47.171  27.786  24.370  1.00  0.00     0.173 A 
ATOM     61  C   UNL A   1      48.049  26.995  26.463  1.00  0.00     0.173 A 
ATOM     62  F   UNL A   1      46.209  28.378  23.646  1.00  0.00    -0.203 F 
ATOM     63  C   UNL A   1      48.295  27.292  23.714  1.00  0.00     0.198 A 
ATOM     64  C   UNL A   1      49.185  26.529  25.809  1.00  0.00     0.198 A 
ATOM     65  F   UNL A   1      47.954  26.826  27.790  1.00  0.00    -0.203 F 
ATOM     66  F   UNL A   1      48.396  27.402  22.382  1.00  0.00    -0.200 F 
ATOM     67  C   UNL A   1      49.305  26.669  24.435  1.00  0.00     0.200 A 
ATOM     68  F   UNL A   1      50.165  25.939  26.509  1.00  0.00    -0.200 F 
ATOM     69  F   UNL A   1      50.389  26.200  23.804  1.00  0.00    -0.200 F 
ENDBRANCH  45  59
BRANCH  46  70
ATOM     70  C   UNL A   1      38.840  30.641  30.715  1.00  0.00     0.064 A 
ATOM     71  C   UNL A   1      38.826  30.551  32.113  1.00  0.00     0.173 A 
ATOM     72  C   UNL A   1      37.696  31.149  30.083  1.00  0.00     0.173 A 
ATOM     73  F   UNL A   1      39.887  30.050  32.763  1.00  0.00    -0.203 F 
ATOM     74  C   UNL A   1      37.706  30.936  32.848  1.00  0.00     0.198 A 
ATOM     75  C   UNL A   1      36.588  31.561  30.821  1.00  0.00     0.198 A 
ATOM     76  F   UNL A   1      37.656  31.255  28.746  1.00  0.00    -0.203 F 
ATOM     77  F   UNL A   1      37.702  30.795  34.181  1.00  0.00    -0.200 F 
ATOM     78  C   UNL A   1      36.590  31.446  32.202  1.00  0.00     0.200 A 
ATOM     79  F   UNL A   1      35.516  32.063  30.192  1.00  0.00    -0.200 F 
ATOM     80  F   UNL A   1      35.515  31.817  32.909  1.00  0.00    -0.200 F 
ENDBRANCH  46  70
BRANCH  58  81
ATOM     81  C   UNL A   1      44.826  33.738  28.878  1.00  0.00     0.064 A 
ATOM     82  C   UNL A   1      45.671  34.076  29.944  1.00  0.00     0.173 A 
ATOM     83  C   UNL A   1      44.557  34.721  27.912  1.00  0.00     0.173 A 
ATOM     84  F   UNL A   1      45.947  33.174  30.899  1.00  0.00    -0.203 F 
ATOM     85  C   UNL A   1      46.222  35.351  30.040  1.00  0.00     0.198 A 
ATOM     86  C   UNL A   1      45.133  35.983  27.995  1.00  0.00     0.198 A 
ATOM     87  F   UNL A   1      43.761  34.441  26.868  1.00  0.00    -0.203 F 
ATOM     88  F   UNL A   1      47.007  35.662  31.080  1.00  0.00    -0.200 F 
ATOM     89  C   UNL A   1      45.963  36.299  29.060  1.00  0.00     0.200 A 
ATOM     90  F   UNL A   1      44.896  36.892  27.038  1.00  0.00    -0.200 F 
ATOM     91  F   UNL A   1      46.516  37.516  29.142  1.00  0.00    -0.200 F 
ENDBRANCH  58  81
ENDBRANCH  32  33
ENDBRANCH  25  27
ENDBRANCH  24  25
ENDBRANCH  23  24
ENDBRANCH  22  23
ENDBRANCH  21  22
ENDBRANCH   1  21
TORSDOF 18
ENDMDL
