MODEL 1
REMARK VINA RESULT:     -13.1      0.000      0.000
REMARK SMILES Cc1cccc2c1[C@H]1c3c(C)cccc3[C@H](CC(=O)OCCOCCOC(=O)c3ccc(-c4c5nc(c(-c6c(F)c(F)c(F)c(F)c6F)c6ccc([nH]6)c(-c6c(F)c(F)c(F)c(F)c6F)c6nc(c(-c7c(F)c(F)c(F)c(F)c7F)c7ccc4[nH]7)C=C6)C=C5)cc3)C[C@H]1CC2
REMARK SMILES IDX 24 1 23 2 22 3 21 4 20 5 18 6 19 7 17 8 16 9 1 10 2 11 3 12
REMARK SMILES IDX 7 13 4 14 6 15 8 16 5 17 95 18 9 19 93 20 94 21 10 22 15 23
REMARK SMILES IDX 92 24 12 25 11 26 14 27 13 28 25 29 26 30 27 31 28 32 29 33
REMARK SMILES IDX 30 34 91 35 31 36 90 37 32 38 33 39 34 40 84 41 35 42 89 43
REMARK SMILES IDX 83 44 85 45 36 46 88 47 82 48 81 49 37 51 69 52 49 53 68 54
REMARK SMILES IDX 50 55 53 56 67 57 86 58 51 59 52 60 66 62 87 63 54 64 38 65
REMARK SMILES IDX 39 66 47 67 40 68 41 69 45 70 48 71 42 72 43 73 46 74 44 75
REMARK SMILES IDX 70 76 71 77 79 78 72 79 73 80 77 81 80 82 74 83 75 84 78 85
REMARK SMILES IDX 76 86 55 87 56 88 64 89 57 90 58 91 62 92 65 93 59 94 60 95
REMARK SMILES IDX 63 96 61 97
REMARK H PARENT 85 50 53 61
REMARK Flexibility Score: inf
ROOT
ATOM      1  C   UNL A   1      43.739  21.868  25.550  1.00  0.00     0.202 C 
ENDROOT
BRANCH   1   2
ATOM      2  O   UNL A   1      42.434  21.329  25.404  1.00  0.00    -0.374 OA
BRANCH   2   3
ATOM      3  C   UNL A   1      41.583  21.352  26.549  1.00  0.00     0.202 C 
BRANCH   3   4
ATOM      4  C   UNL A   1      40.336  22.241  26.511  1.00  0.00     0.261 C 
BRANCH   4   5
ATOM      5  O   UNL A   1      39.103  21.523  26.258  1.00  0.00    -0.463 OA
BRANCH   5   6
ATOM      6  C   UNL A   1      38.092  22.286  25.754  1.00  0.00     0.306 C 
ATOM      7  O   UNL A   1      37.819  23.418  26.135  1.00  0.00    -0.252 OA
BRANCH   6   8
ATOM      8  C   UNL A   1      37.223  21.544  24.758  1.00  0.00     0.131 C 
BRANCH   8   9
ATOM      9  C   UNL A   1      35.834  22.092  24.343  1.00  0.00     0.031 C 
ATOM     10  C   UNL A   1      34.013  27.587  25.477  1.00  0.00     0.044 C 
ATOM     11  C   UNL A   1      32.933  26.872  24.703  1.00  0.00    -0.047 A 
ATOM     12  C   UNL A   1      31.727  27.575  24.538  1.00  0.00     0.004 A 
ATOM     13  C   UNL A   1      33.054  25.569  24.153  1.00  0.00    -0.034 A 
ATOM     14  C   UNL A   1      30.686  27.047  23.783  1.00  0.00     0.001 A 
ATOM     15  C   UNL A   1      32.062  25.121  23.252  1.00  0.00    -0.044 A 
ATOM     16  C   UNL A   1      34.203  24.622  24.485  1.00  0.00     0.053 C 
ATOM     17  C   UNL A   1      30.870  25.847  23.108  1.00  0.00     0.004 A 
ATOM     18  C   UNL A   1      32.297  23.961  22.311  1.00  0.00     0.036 C 
ATOM     19  C   UNL A   1      33.959  23.477  25.516  1.00  0.00    -0.034 A 
ATOM     20  C   UNL A   1      34.710  24.048  23.146  1.00  0.00     0.002 C 
ATOM     21  C   UNL A   1      33.613  23.196  22.487  1.00  0.00     0.009 C 
ATOM     22  C   UNL A   1      33.070  23.571  26.626  1.00  0.00    -0.047 A 
ATOM     23  C   UNL A   1      34.774  22.295  25.422  1.00  0.00    -0.040 A 
ATOM     24  C   UNL A   1      36.016  23.300  23.413  1.00  0.00     0.013 C 
ATOM     25  C   UNL A   1      32.932  22.485  27.514  1.00  0.00     0.004 A 
ATOM     26  C   UNL A   1      32.257  24.785  26.982  1.00  0.00     0.044 C 
ATOM     27  C   UNL A   1      34.559  21.220  26.307  1.00  0.00     0.004 A 
ATOM     28  C   UNL A   1      33.653  21.316  27.349  1.00  0.00     0.001 A 
ENDBRANCH   8   9
ENDBRANCH   6   8
ENDBRANCH   5   6
ENDBRANCH   4   5
ENDBRANCH   3   4
ENDBRANCH   2   3
ENDBRANCH   1   2
BRANCH   1  29
ATOM     29  C   UNL A   1      44.175  22.927  24.538  1.00  0.00     0.261 C 
BRANCH  29  30
ATOM     30  O   UNL A   1      43.552  24.195  24.664  1.00  0.00    -0.460 OA
BRANCH  30  31
ATOM     31  C   UNL A   1      44.338  25.205  25.073  1.00  0.00     0.338 C 
ATOM     32  O   UNL A   1      45.466  25.501  24.730  1.00  0.00    -0.246 OA
BRANCH  31  33
ATOM     33  C   UNL A   1      43.530  25.924  26.055  1.00  0.00     0.060 A 
ATOM     34  C   UNL A   1      43.855  27.251  26.342  1.00  0.00     0.016 A 
ATOM     35  C   UNL A   1      42.428  25.290  26.633  1.00  0.00     0.016 A 
ATOM     36  C   UNL A   1      43.078  27.952  27.253  1.00  0.00     0.010 A 
ATOM     37  C   UNL A   1      41.654  25.990  27.551  1.00  0.00     0.010 A 
ATOM     38  C   UNL A   1      42.005  27.307  27.888  1.00  0.00    -0.014 A 
BRANCH  38  39
ATOM     39  C   UNL A   1      41.417  27.949  29.077  1.00  0.00     0.031 A 
ATOM     40  C   UNL A   1      42.170  27.832  30.367  1.00  0.00     0.074 A 
ATOM     41  C   UNL A   1      40.302  28.689  28.976  1.00  0.00     0.049 A 
ATOM     42  N   UNL A   1      41.940  28.407  31.517  1.00  0.00    -0.248 NA
ATOM     43  C   UNL A   1      43.357  26.958  30.354  1.00  0.00     0.031 C 
ATOM     44  C   UNL A   1      39.533  28.891  27.751  1.00  0.00     0.029 A 
ATOM     45  N   UNL A   1      39.641  29.428  29.920  1.00  0.00    -0.354 N 
ATOM     46  C   UNL A   1      42.972  27.994  32.348  1.00  0.00     0.074 A 
ATOM     47  C   UNL A   1      43.791  27.071  31.598  1.00  0.00     0.031 C 
ATOM     48  C   UNL A   1      38.512  29.725  28.013  1.00  0.00     0.029 A 
ATOM     49  C   UNL A   1      38.552  30.099  29.425  1.00  0.00     0.049 A 
ATOM     50  H   UNL A   1      39.920  29.473  30.863  1.00  0.00     0.167 HD
ATOM     51  C   UNL A   1      43.227  28.379  33.618  1.00  0.00     0.037 A 
ATOM     52  C   UNL A   1      37.698  30.930  30.052  1.00  0.00     0.037 A 
ATOM     53  C   UNL A   1      42.380  29.269  34.362  1.00  0.00     0.049 A 
ATOM     54  C   UNL A   1      37.930  31.245  31.506  1.00  0.00     0.074 A 
ATOM     55  C   UNL A   1      42.513  29.701  35.667  1.00  0.00     0.029 A 
ATOM     56  N   UNL A   1      41.224  29.852  33.858  1.00  0.00    -0.354 N 
ATOM     57  N   UNL A   1      38.917  30.870  32.286  1.00  0.00    -0.248 NA
ATOM     58  C   UNL A   1      36.934  32.099  32.167  1.00  0.00     0.031 C 
ATOM     59  C   UNL A   1      41.412  30.507  35.970  1.00  0.00     0.029 A 
ATOM     60  C   UNL A   1      40.618  30.619  34.837  1.00  0.00     0.049 A 
ATOM     61  H   UNL A   1      40.886  29.735  32.941  1.00  0.00     0.167 HD
ATOM     62  C   UNL A   1      38.675  31.456  33.521  1.00  0.00     0.074 A 
ATOM     63  C   UNL A   1      37.453  32.223  33.382  1.00  0.00     0.031 C 
ATOM     64  C   UNL A   1      39.398  31.369  34.667  1.00  0.00     0.037 A 
BRANCH  51  65
ATOM     65  C   UNL A   1      44.459  27.823  34.266  1.00  0.00     0.064 A 
ATOM     66  C   UNL A   1      45.654  28.560  34.315  1.00  0.00     0.173 A 
ATOM     67  C   UNL A   1      44.454  26.542  34.836  1.00  0.00     0.173 A 
ATOM     68  F   UNL A   1      45.718  29.781  33.763  1.00  0.00    -0.203 F 
ATOM     69  C   UNL A   1      46.805  28.022  34.886  1.00  0.00     0.198 A 
ATOM     70  C   UNL A   1      45.599  26.020  35.431  1.00  0.00     0.198 A 
ATOM     71  F   UNL A   1      43.341  25.795  34.810  1.00  0.00    -0.203 F 
ATOM     72  F   UNL A   1      47.948  28.722  34.872  1.00  0.00    -0.200 F 
ATOM     73  C   UNL A   1      46.775  26.755  35.449  1.00  0.00     0.200 A 
ATOM     74  F   UNL A   1      45.568  24.797  35.981  1.00  0.00    -0.200 F 
ATOM     75  F   UNL A   1      47.882  26.239  35.998  1.00  0.00    -0.200 F 
ENDBRANCH  51  65
BRANCH  52  76
ATOM     76  C   UNL A   1      36.584  31.550  29.290  1.00  0.00     0.064 A 
ATOM     77  C   UNL A   1      35.489  30.785  28.867  1.00  0.00     0.173 A 
ATOM     78  C   UNL A   1      36.568  32.924  29.009  1.00  0.00     0.173 A 
ATOM     79  F   UNL A   1      35.467  29.464  29.096  1.00  0.00    -0.203 F 
ATOM     80  C   UNL A   1      34.419  31.370  28.195  1.00  0.00     0.198 A 
ATOM     81  C   UNL A   1      35.486  33.513  28.355  1.00  0.00     0.198 A 
ATOM     82  F   UNL A   1      37.592  33.700  29.391  1.00  0.00    -0.203 F 
ATOM     83  F   UNL A   1      33.391  30.614  27.786  1.00  0.00    -0.200 F 
ATOM     84  C   UNL A   1      34.413  32.735  27.948  1.00  0.00     0.200 A 
ATOM     85  F   UNL A   1      35.480  34.834  28.131  1.00  0.00    -0.200 F 
ATOM     86  F   UNL A   1      33.374  33.301  27.318  1.00  0.00    -0.200 F 
ENDBRANCH  52  76
BRANCH  64  87
ATOM     87  C   UNL A   1      38.895  32.125  35.860  1.00  0.00     0.064 A 
ATOM     88  C   UNL A   1      38.143  31.491  36.861  1.00  0.00     0.173 A 
ATOM     89  C   UNL A   1      39.250  33.469  36.053  1.00  0.00     0.173 A 
ATOM     90  F   UNL A   1      37.771  30.211  36.716  1.00  0.00    -0.203 F 
ATOM     91  C   UNL A   1      37.755  32.181  38.006  1.00  0.00     0.198 A 
ATOM     92  C   UNL A   1      38.886  34.145  37.213  1.00  0.00     0.198 A 
ATOM     93  F   UNL A   1      39.978  34.114  35.129  1.00  0.00    -0.203 F 
ATOM     94  F   UNL A   1      37.012  31.565  38.936  1.00  0.00    -0.200 F 
ATOM     95  C   UNL A   1      38.137  33.502  38.186  1.00  0.00     0.200 A 
ATOM     96  F   UNL A   1      39.272  35.416  37.394  1.00  0.00    -0.200 F 
ATOM     97  F   UNL A   1      37.782  34.157  39.300  1.00  0.00    -0.200 F 
ENDBRANCH  64  87
ENDBRANCH  38  39
ENDBRANCH  31  33
ENDBRANCH  30  31
ENDBRANCH  29  30
ENDBRANCH   1  29
TORSDOF 15
ENDMDL
MODEL 2
REMARK VINA RESULT:     -13.0      1.118      2.275
REMARK SMILES Cc1cccc2c1[C@H]1c3c(C)cccc3[C@H](CC(=O)OCCOCCOC(=O)c3ccc(-c4c5nc(c(-c6c(F)c(F)c(F)c(F)c6F)c6ccc([nH]6)c(-c6c(F)c(F)c(F)c(F)c6F)c6nc(c(-c7c(F)c(F)c(F)c(F)c7F)c7ccc4[nH]7)C=C6)C=C5)cc3)C[C@H]1CC2
REMARK SMILES IDX 24 1 23 2 22 3 21 4 20 5 18 6 19 7 17 8 16 9 1 10 2 11 3 12
REMARK SMILES IDX 7 13 4 14 6 15 8 16 5 17 95 18 9 19 93 20 94 21 10 22 15 23
REMARK SMILES IDX 92 24 12 25 11 26 14 27 13 28 25 29 26 30 27 31 28 32 29 33
REMARK SMILES IDX 30 34 91 35 31 36 90 37 32 38 33 39 34 40 84 41 35 42 89 43
REMARK SMILES IDX 83 44 85 45 36 46 88 47 82 48 81 49 37 51 69 52 49 53 68 54
REMARK SMILES IDX 50 55 53 56 67 57 86 58 51 59 52 60 66 62 87 63 54 64 38 65
REMARK SMILES IDX 39 66 47 67 40 68 41 69 45 70 48 71 42 72 43 73 46 74 44 75
REMARK SMILES IDX 70 76 71 77 79 78 72 79 73 80 77 81 80 82 74 83 75 84 78 85
REMARK SMILES IDX 76 86 55 87 56 88 64 89 57 90 58 91 62 92 65 93 59 94 60 95
REMARK SMILES IDX 63 96 61 97
REMARK H PARENT 85 50 53 61
REMARK Flexibility Score: inf
ROOT
ATOM      1  C   UNL A   1      44.532  21.539  25.054  1.00  0.00     0.202 C 
ENDROOT
BRANCH   1   2
ATOM      2  O   UNL A   1      43.696  20.431  24.760  1.00  0.00    -0.374 OA
BRANCH   2   3
ATOM      3  C   UNL A   1      42.859  19.945  25.808  1.00  0.00     0.202 C 
BRANCH   3   4
ATOM      4  C   UNL A   1      41.956  20.942  26.541  1.00  0.00     0.261 C 
BRANCH   4   5
ATOM      5  O   UNL A   1      41.003  21.620  25.687  1.00  0.00    -0.463 OA
BRANCH   5   6
ATOM      6  C   UNL A   1      39.847  21.994  26.306  1.00  0.00     0.306 C 
ATOM      7  O   UNL A   1      39.751  22.928  27.093  1.00  0.00    -0.252 OA
BRANCH   6   8
ATOM      8  C   UNL A   1      38.694  21.048  26.040  1.00  0.00     0.131 C 
BRANCH   8   9
ATOM      9  C   UNL A   1      37.512  21.461  25.126  1.00  0.00     0.031 C 
ATOM     10  C   UNL A   1      32.234  23.134  27.162  1.00  0.00     0.044 C 
ATOM     11  C   UNL A   1      32.222  23.226  25.657  1.00  0.00    -0.047 A 
ATOM     12  C   UNL A   1      30.983  23.543  25.071  1.00  0.00     0.004 A 
ATOM     13  C   UNL A   1      33.347  23.014  24.819  1.00  0.00    -0.034 A 
ATOM     14  C   UNL A   1      30.864  23.726  23.698  1.00  0.00     0.001 A 
ATOM     15  C   UNL A   1      33.251  23.369  23.455  1.00  0.00    -0.044 A 
ATOM     16  C   UNL A   1      34.662  22.421  25.316  1.00  0.00     0.053 C 
ATOM     17  C   UNL A   1      32.001  23.683  22.901  1.00  0.00     0.004 A 
ATOM     18  C   UNL A   1      34.475  23.576  22.591  1.00  0.00     0.036 C 
ATOM     19  C   UNL A   1      34.962  20.917  25.031  1.00  0.00    -0.034 A 
ATOM     20  C   UNL A   1      35.792  23.313  24.764  1.00  0.00     0.002 C 
ATOM     21  C   UNL A   1      35.826  23.235  23.229  1.00  0.00     0.009 C 
ATOM     22  C   UNL A   1      33.967  19.899  24.955  1.00  0.00    -0.047 A 
ATOM     23  C   UNL A   1      36.337  20.500  24.969  1.00  0.00    -0.040 A 
ATOM     24  C   UNL A   1      37.098  22.904  25.445  1.00  0.00     0.013 C 
ATOM     25  C   UNL A   1      34.341  18.562  24.711  1.00  0.00     0.004 A 
ATOM     26  C   UNL A   1      32.492  20.115  25.157  1.00  0.00     0.044 C 
ATOM     27  C   UNL A   1      36.653  19.159  24.672  1.00  0.00     0.004 A 
ATOM     28  C   UNL A   1      35.666  18.196  24.554  1.00  0.00     0.001 A 
ENDBRANCH   8   9
ENDBRANCH   6   8
ENDBRANCH   5   6
ENDBRANCH   4   5
ENDBRANCH   3   4
ENDBRANCH   2   3
ENDBRANCH   1   2
BRANCH   1  29
ATOM     29  C   UNL A   1      44.384  22.780  24.175  1.00  0.00     0.261 C 
BRANCH  29  30
ATOM     30  O   UNL A   1      43.695  23.873  24.760  1.00  0.00    -0.460 OA
BRANCH  30  31
ATOM     31  C   UNL A   1      44.443  24.942  25.084  1.00  0.00     0.338 C 
ATOM     32  O   UNL A   1      45.531  25.285  24.667  1.00  0.00    -0.246 OA
BRANCH  31  33
ATOM     33  C   UNL A   1      43.649  25.654  26.082  1.00  0.00     0.060 A 
ATOM     34  C   UNL A   1      43.874  27.020  26.261  1.00  0.00     0.016 A 
ATOM     35  C   UNL A   1      42.655  24.969  26.785  1.00  0.00     0.016 A 
ATOM     36  C   UNL A   1      43.108  27.713  27.187  1.00  0.00     0.010 A 
ATOM     37  C   UNL A   1      41.892  25.662  27.718  1.00  0.00     0.010 A 
ATOM     38  C   UNL A   1      42.148  27.025  27.944  1.00  0.00    -0.014 A 
BRANCH  38  39
ATOM     39  C   UNL A   1      41.594  27.694  29.135  1.00  0.00     0.031 A 
ATOM     40  C   UNL A   1      42.358  27.560  30.418  1.00  0.00     0.074 A 
ATOM     41  C   UNL A   1      40.504  28.469  29.042  1.00  0.00     0.049 A 
ATOM     42  N   UNL A   1      42.160  28.149  31.566  1.00  0.00    -0.248 NA
ATOM     43  C   UNL A   1      43.515  26.647  30.397  1.00  0.00     0.031 C 
ATOM     44  C   UNL A   1      39.728  28.689  27.824  1.00  0.00     0.029 A 
ATOM     45  N   UNL A   1      39.879  29.236  29.988  1.00  0.00    -0.354 N 
ATOM     46  C   UNL A   1      43.187  27.708  32.388  1.00  0.00     0.074 A 
ATOM     47  C   UNL A   1      43.967  26.754  31.635  1.00  0.00     0.031 C 
ATOM     48  C   UNL A   1      38.738  29.558  28.091  1.00  0.00     0.029 A 
ATOM     49  C   UNL A   1      38.806  29.939  29.501  1.00  0.00     0.049 A 
ATOM     50  H   UNL A   1      40.170  29.278  30.927  1.00  0.00     0.167 HD
ATOM     51  C   UNL A   1      43.470  28.093  33.653  1.00  0.00     0.037 A 
ATOM     52  C   UNL A   1      37.988  30.803  30.131  1.00  0.00     0.037 A 
ATOM     53  C   UNL A   1      42.661  29.015  34.400  1.00  0.00     0.049 A 
ATOM     54  C   UNL A   1      38.247  31.120  31.580  1.00  0.00     0.074 A 
ATOM     55  C   UNL A   1      42.824  29.451  35.701  1.00  0.00     0.029 A 
ATOM     56  N   UNL A   1      41.520  29.633  33.905  1.00  0.00    -0.354 N 
ATOM     57  N   UNL A   1      39.230  30.717  32.352  1.00  0.00    -0.248 NA
ATOM     58  C   UNL A   1      37.288  32.010  32.246  1.00  0.00     0.031 C 
ATOM     59  C   UNL A   1      41.753  30.296  36.010  1.00  0.00     0.029 A 
ATOM     60  C   UNL A   1      40.951  30.427  34.885  1.00  0.00     0.049 A 
ATOM     61  H   UNL A   1      41.168  29.521  32.993  1.00  0.00     0.167 HD
ATOM     62  C   UNL A   1      39.021  31.318  33.586  1.00  0.00     0.074 A 
ATOM     63  C   UNL A   1      37.824  32.125  33.455  1.00  0.00     0.031 C 
ATOM     64  C   UNL A   1      39.754  31.216  34.723  1.00  0.00     0.037 A 
BRANCH  51  65
ATOM     65  C   UNL A   1      44.690  27.501  34.291  1.00  0.00     0.064 A 
ATOM     66  C   UNL A   1      44.625  26.298  35.014  1.00  0.00     0.173 A 
ATOM     67  C   UNL A   1      45.934  28.139  34.192  1.00  0.00     0.173 A 
ATOM     68  F   UNL A   1      43.453  25.660  35.159  1.00  0.00    -0.203 F 
ATOM     69  C   UNL A   1      45.755  25.772  35.635  1.00  0.00     0.198 A 
ATOM     70  C   UNL A   1      47.067  27.595  34.789  1.00  0.00     0.198 A 
ATOM     71  F   UNL A   1      46.049  29.294  33.519  1.00  0.00    -0.203 F 
ATOM     72  F   UNL A   1      45.656  24.652  36.364  1.00  0.00    -0.200 F 
ATOM     73  C   UNL A   1      46.976  26.418  35.517  1.00  0.00     0.200 A 
ATOM     74  F   UNL A   1      48.249  28.217  34.671  1.00  0.00    -0.200 F 
ATOM     75  F   UNL A   1      48.063  25.911  36.114  1.00  0.00    -0.200 F 
ENDBRANCH  51  65
BRANCH  52  76
ATOM     76  C   UNL A   1      36.887  31.454  29.377  1.00  0.00     0.064 A 
ATOM     77  C   UNL A   1      35.760  30.724  28.976  1.00  0.00     0.173 A 
ATOM     78  C   UNL A   1      36.914  32.826  29.084  1.00  0.00     0.173 A 
ATOM     79  F   UNL A   1      35.696  29.407  29.217  1.00  0.00    -0.203 F 
ATOM     80  C   UNL A   1      34.702  31.340  28.311  1.00  0.00     0.198 A 
ATOM     81  C   UNL A   1      35.845  33.446  28.439  1.00  0.00     0.198 A 
ATOM     82  F   UNL A   1      37.969  33.569  29.447  1.00  0.00    -0.203 F 
ATOM     83  F   UNL A   1      33.644  30.616  27.922  1.00  0.00    -0.200 F 
ATOM     84  C   UNL A   1      34.741  32.703  28.052  1.00  0.00     0.200 A 
ATOM     85  F   UNL A   1      35.882  34.765  28.203  1.00  0.00    -0.200 F 
ATOM     86  F   UNL A   1      33.714  33.298  27.430  1.00  0.00    -0.200 F 
ENDBRANCH  52  76
BRANCH  64  87
ATOM     87  C   UNL A   1      39.290  31.995  35.917  1.00  0.00     0.064 A 
ATOM     88  C   UNL A   1      39.700  33.320  36.128  1.00  0.00     0.173 A 
ATOM     89  C   UNL A   1      38.352  31.446  36.805  1.00  0.00     0.173 A 
ATOM     90  F   UNL A   1      40.603  33.885  35.313  1.00  0.00    -0.203 F 
ATOM     91  C   UNL A   1      39.195  34.062  37.191  1.00  0.00     0.198 A 
ATOM     92  C   UNL A   1      37.827  32.201  37.848  1.00  0.00     0.198 A 
ATOM     93  F   UNL A   1      37.921  30.186  36.637  1.00  0.00    -0.203 F 
ATOM     94  F   UNL A   1      39.622  35.317  37.392  1.00  0.00    -0.200 F 
ATOM     95  C   UNL A   1      38.251  33.507  38.042  1.00  0.00     0.200 A 
ATOM     96  F   UNL A   1      36.901  31.669  38.658  1.00  0.00    -0.200 F 
ATOM     97  F   UNL A   1      37.749  34.232  39.052  1.00  0.00    -0.200 F 
ENDBRANCH  64  87
ENDBRANCH  38  39
ENDBRANCH  31  33
ENDBRANCH  30  31
ENDBRANCH  29  30
ENDBRANCH   1  29
TORSDOF 15
ENDMDL
MODEL 3
REMARK VINA RESULT:     -13.0      3.410      8.639
REMARK SMILES Cc1cccc2c1[C@H]1c3c(C)cccc3[C@H](CC(=O)OCCOCCOC(=O)c3ccc(-c4c5nc(c(-c6c(F)c(F)c(F)c(F)c6F)c6ccc([nH]6)c(-c6c(F)c(F)c(F)c(F)c6F)c6nc(c(-c7c(F)c(F)c(F)c(F)c7F)c7ccc4[nH]7)C=C6)C=C5)cc3)C[C@H]1CC2
REMARK SMILES IDX 24 1 23 2 22 3 21 4 20 5 18 6 19 7 17 8 16 9 1 10 2 11 3 12
REMARK SMILES IDX 7 13 4 14 6 15 8 16 5 17 95 18 9 19 93 20 94 21 10 22 15 23
REMARK SMILES IDX 92 24 12 25 11 26 14 27 13 28 25 29 26 30 27 31 28 32 29 33
REMARK SMILES IDX 30 34 91 35 31 36 90 37 32 38 33 39 34 40 84 41 35 42 89 43
REMARK SMILES IDX 83 44 85 45 36 46 88 47 82 48 81 49 37 51 69 52 49 53 68 54
REMARK SMILES IDX 50 55 53 56 67 57 86 58 51 59 52 60 66 62 87 63 54 64 38 65
REMARK SMILES IDX 39 66 47 67 40 68 41 69 45 70 48 71 42 72 43 73 46 74 44 75
REMARK SMILES IDX 70 76 71 77 79 78 72 79 73 80 77 81 80 82 74 83 75 84 78 85
REMARK SMILES IDX 76 86 55 87 56 88 64 89 57 90 58 91 62 92 65 93 59 94 60 95
REMARK SMILES IDX 63 96 61 97
REMARK H PARENT 85 50 53 61
REMARK Flexibility Score: inf
ROOT
ATOM      1  C   UNL A   1      31.560  31.695  26.581  1.00  0.00     0.202 C 
ENDROOT
BRANCH   1   2
ATOM      2  O   UNL A   1      32.402  30.616  26.957  1.00  0.00    -0.374 OA
BRANCH   2   3
ATOM      3  C   UNL A   1      32.731  29.659  25.952  1.00  0.00     0.202 C 
BRANCH   3   4
ATOM      4  C   UNL A   1      31.649  28.670  25.506  1.00  0.00     0.261 C 
BRANCH   4   5
ATOM      5  O   UNL A   1      32.155  27.369  25.122  1.00  0.00    -0.463 OA
BRANCH   5   6
ATOM      6  C   UNL A   1      31.952  26.384  26.042  1.00  0.00     0.306 C 
ATOM      7  O   UNL A   1      31.057  26.388  26.879  1.00  0.00    -0.252 OA
BRANCH   6   8
ATOM      8  C   UNL A   1      33.038  25.326  26.034  1.00  0.00     0.131 C 
BRANCH   8   9
ATOM      9  C   UNL A   1      33.023  24.169  25.002  1.00  0.00     0.031 C 
ATOM     10  C   UNL A   1      32.814  18.464  26.486  1.00  0.00     0.044 C 
ATOM     11  C   UNL A   1      32.805  18.572  24.981  1.00  0.00    -0.047 A 
ATOM     12  C   UNL A   1      32.882  17.356  24.277  1.00  0.00     0.004 A 
ATOM     13  C   UNL A   1      32.732  19.788  24.252  1.00  0.00    -0.034 A 
ATOM     14  C   UNL A   1      32.810  17.324  22.890  1.00  0.00     0.001 A 
ATOM     15  C   UNL A   1      32.487  19.728  22.862  1.00  0.00    -0.044 A 
ATOM     16  C   UNL A   1      32.902  21.161  24.894  1.00  0.00     0.053 C 
ATOM     17  C   UNL A   1      32.569  18.500  22.190  1.00  0.00     0.004 A 
ATOM     18  C   UNL A   1      31.986  20.924  22.083  1.00  0.00     0.036 C 
ATOM     19  C   UNL A   1      34.272  21.893  24.748  1.00  0.00    -0.034 A 
ATOM     20  C   UNL A   1      31.755  22.046  24.367  1.00  0.00     0.002 C 
ATOM     21  C   UNL A   1      31.897  22.248  22.850  1.00  0.00     0.009 C 
ATOM     22  C   UNL A   1      35.532  21.232  24.672  1.00  0.00    -0.047 A 
ATOM     23  C   UNL A   1      34.285  23.329  24.826  1.00  0.00    -0.040 A 
ATOM     24  C   UNL A   1      31.742  23.342  25.177  1.00  0.00     0.013 C 
ATOM     25  C   UNL A   1      36.719  21.984  24.559  1.00  0.00     0.004 A 
ATOM     26  C   UNL A   1      35.733  19.742  24.740  1.00  0.00     0.044 C 
ATOM     27  C   UNL A   1      35.494  24.032  24.657  1.00  0.00     0.004 A 
ATOM     28  C   UNL A   1      36.702  23.368  24.534  1.00  0.00     0.001 A 
ENDBRANCH   8   9
ENDBRANCH   6   8
ENDBRANCH   5   6
ENDBRANCH   4   5
ENDBRANCH   3   4
ENDBRANCH   2   3
ENDBRANCH   1   2
BRANCH   1  29
ATOM     29  C   UNL A   1      31.929  33.084  27.099  1.00  0.00     0.261 C 
BRANCH  29  30
ATOM     30  O   UNL A   1      33.317  33.346  27.229  1.00  0.00    -0.460 OA
BRANCH  30  31
ATOM     31  C   UNL A   1      33.713  33.886  28.394  1.00  0.00     0.338 C 
ATOM     32  O   UNL A   1      33.210  34.776  29.049  1.00  0.00    -0.246 OA
BRANCH  31  33
ATOM     33  C   UNL A   1      34.926  33.151  28.745  1.00  0.00     0.060 A 
ATOM     34  C   UNL A   1      34.795  31.879  29.307  1.00  0.00     0.016 A 
ATOM     35  C   UNL A   1      36.174  33.708  28.458  1.00  0.00     0.016 A 
ATOM     36  C   UNL A   1      35.939  31.161  29.620  1.00  0.00     0.010 A 
ATOM     37  C   UNL A   1      37.321  32.990  28.778  1.00  0.00     0.010 A 
ATOM     38  C   UNL A   1      37.200  31.734  29.395  1.00  0.00    -0.014 A 
BRANCH  38  39
ATOM     39  C   UNL A   1      38.371  31.108  30.033  1.00  0.00     0.031 A 
ATOM     40  C   UNL A   1      38.643  31.457  31.465  1.00  0.00     0.074 A 
ATOM     41  C   UNL A   1      39.099  30.189  29.381  1.00  0.00     0.049 A 
ATOM     42  N   UNL A   1      39.522  30.952  32.290  1.00  0.00    -0.248 NA
ATOM     43  C   UNL A   1      37.796  32.509  32.054  1.00  0.00     0.031 C 
ATOM     44  C   UNL A   1      38.875  29.760  28.003  1.00  0.00     0.029 A 
ATOM     45  N   UNL A   1      40.160  29.435  29.806  1.00  0.00    -0.354 N 
ATOM     46  C   UNL A   1      39.306  31.598  33.499  1.00  0.00     0.074 A 
ATOM     47  C   UNL A   1      38.264  32.576  33.289  1.00  0.00     0.031 C 
ATOM     48  C   UNL A   1      39.760  28.795  27.701  1.00  0.00     0.029 A 
ATOM     49  C   UNL A   1      40.619  28.555  28.860  1.00  0.00     0.049 A 
ATOM     50  H   UNL A   1      40.555  29.517  30.704  1.00  0.00     0.167 HD
ATOM     51  C   UNL A   1      39.907  31.370  34.688  1.00  0.00     0.037 A 
ATOM     52  C   UNL A   1      41.613  27.651  28.938  1.00  0.00     0.037 A 
ATOM     53  C   UNL A   1      40.968  30.420  34.869  1.00  0.00     0.049 A 
ATOM     54  C   UNL A   1      42.356  27.503  30.240  1.00  0.00     0.074 A 
ATOM     55  C   UNL A   1      41.682  30.129  36.016  1.00  0.00     0.029 A 
ATOM     56  N   UNL A   1      41.478  29.614  33.859  1.00  0.00    -0.354 N 
ATOM     57  N   UNL A   1      42.139  28.101  31.389  1.00  0.00    -0.248 NA
ATOM     58  C   UNL A   1      43.479  26.557  30.259  1.00  0.00     0.031 C 
ATOM     59  C   UNL A   1      42.656  29.181  35.688  1.00  0.00     0.029 A 
ATOM     60  C   UNL A   1      42.517  28.844  34.349  1.00  0.00     0.049 A 
ATOM     61  H   UNL A   1      41.149  29.595  32.931  1.00  0.00     0.167 HD
ATOM     62  C   UNL A   1      43.081  27.590  32.271  1.00  0.00     0.074 A 
ATOM     63  C   UNL A   1      43.864  26.624  31.527  1.00  0.00     0.031 C 
ATOM     64  C   UNL A   1      43.280  27.891  33.580  1.00  0.00     0.037 A 
BRANCH  51  65
ATOM     65  C   UNL A   1      39.431  32.174  35.860  1.00  0.00     0.064 A 
ATOM     66  C   UNL A   1      38.433  31.689  36.721  1.00  0.00     0.173 A 
ATOM     67  C   UNL A   1      39.966  33.443  36.123  1.00  0.00     0.173 A 
ATOM     68  F   UNL A   1      37.872  30.491  36.497  1.00  0.00    -0.203 F 
ATOM     69  C   UNL A   1      37.970  32.458  37.786  1.00  0.00     0.198 A 
ATOM     70  C   UNL A   1      39.520  34.195  37.207  1.00  0.00     0.198 A 
ATOM     71  F   UNL A   1      40.916  33.955  35.328  1.00  0.00    -0.203 F 
ATOM     72  F   UNL A   1      36.978  31.996  38.561  1.00  0.00    -0.200 F 
ATOM     73  C   UNL A   1      38.517  33.707  38.031  1.00  0.00     0.200 A 
ATOM     74  F   UNL A   1      40.055  35.401  37.448  1.00  0.00    -0.200 F 
ATOM     75  F   UNL A   1      38.072  34.445  39.057  1.00  0.00    -0.200 F 
ENDBRANCH  51  65
BRANCH  52  76
ATOM     76  C   UNL A   1      41.921  26.793  27.765  1.00  0.00     0.064 A 
ATOM     77  C   UNL A   1      42.929  27.150  26.860  1.00  0.00     0.173 A 
ATOM     78  C   UNL A   1      41.249  25.581  27.550  1.00  0.00     0.173 A 
ATOM     79  F   UNL A   1      43.587  28.308  27.012  1.00  0.00    -0.203 F 
ATOM     80  C   UNL A   1      43.255  26.325  25.785  1.00  0.00     0.198 A 
ATOM     81  C   UNL A   1      41.591  24.746  26.488  1.00  0.00     0.198 A 
ATOM     82  F   UNL A   1      40.276  25.195  28.389  1.00  0.00    -0.203 F 
ATOM     83  F   UNL A   1      44.211  26.697  24.923  1.00  0.00    -0.200 F 
ATOM     84  C   UNL A   1      42.594  25.119  25.606  1.00  0.00     0.200 A 
ATOM     85  F   UNL A   1      40.957  23.576  26.327  1.00  0.00    -0.200 F 
ATOM     86  F   UNL A   1      42.921  24.318  24.582  1.00  0.00    -0.200 F 
ENDBRANCH  52  76
BRANCH  64  87
ATOM     87  C   UNL A   1      44.381  27.168  34.296  1.00  0.00     0.064 A 
ATOM     88  C   UNL A   1      44.159  25.927  34.911  1.00  0.00     0.173 A 
ATOM     89  C   UNL A   1      45.690  27.673  34.283  1.00  0.00     0.173 A 
ATOM     90  F   UNL A   1      42.923  25.409  34.959  1.00  0.00    -0.203 F 
ATOM     91  C   UNL A   1      45.208  25.224  35.497  1.00  0.00     0.198 A 
ATOM     92  C   UNL A   1      46.740  26.953  34.843  1.00  0.00     0.198 A 
ATOM     93  F   UNL A   1      45.954  28.851  33.696  1.00  0.00    -0.203 F 
ATOM     94  F   UNL A   1      44.968  24.054  36.106  1.00  0.00    -0.200 F 
ATOM     95  C   UNL A   1      46.498  25.731  35.452  1.00  0.00     0.200 A 
ATOM     96  F   UNL A   1      47.989  27.436  34.781  1.00  0.00    -0.200 F 
ATOM     97  F   UNL A   1      47.509  25.042  35.997  1.00  0.00    -0.200 F 
ENDBRANCH  64  87
ENDBRANCH  38  39
ENDBRANCH  31  33
ENDBRANCH  30  31
ENDBRANCH  29  30
ENDBRANCH   1  29
TORSDOF 15
ENDMDL
