MODEL 1
REMARK VINA RESULT:     -11.0      0.000      0.000
REMARK SMILES CC(=O)Oc1ccccc1C(=O)OCCOCCOC(=O)c1ccc(-c2c3nc(c(-c4c(F)c(F)c(F)c(F)c4F)c4ccc([nH]4)c(-c4c(F)c(F)c(F)c(F)c4F)c4nc(c(-c5c(F)c(F)c(F)c(F)c5F)c5ccc2[nH]5)C=C4)C=C3)cc1
REMARK SMILES IDX 16 1 15 2 14 3 13 4 11 5 12 6 10 7 5 8 6 9 7 10 9 11 8 12
REMARK SMILES IDX 4 13 2 14 1 15 3 16 17 17 18 18 19 19 20 20 21 21 22 22
REMARK SMILES IDX 23 23 84 24 24 25 83 26 25 27 26 28 27 29 77 30 28 31 82 32
REMARK SMILES IDX 76 33 78 34 29 35 81 36 75 37 74 38 30 40 62 41 42 42 61 43
REMARK SMILES IDX 43 44 46 45 60 46 79 47 44 48 45 49 59 51 80 52 47 53 31 54
REMARK SMILES IDX 32 55 40 56 33 57 34 58 38 59 41 60 35 61 36 62 39 63 37 64
REMARK SMILES IDX 63 65 64 66 72 67 65 68 66 69 70 70 73 71 67 72 68 73 71 74
REMARK SMILES IDX 69 75 48 76 49 77 57 78 50 79 51 80 55 81 58 82 52 83 53 84
REMARK SMILES IDX 56 85 54 86
REMARK H PARENT 78 39 46 50
REMARK Flexibility Score: inf
ROOT
ATOM      1  O   UNL A   1      40.395  21.231  26.850  1.00  0.00    -0.374 OA
ENDROOT
BRANCH   1   2
ATOM      2  C   UNL A   1      39.399  21.960  26.135  1.00  0.00     0.202 C 
BRANCH   2   3
ATOM      3  C   UNL A   1      38.299  21.128  25.474  1.00  0.00     0.261 C 
BRANCH   3   4
ATOM      4  O   UNL A   1      37.003  21.683  25.748  1.00  0.00    -0.460 OA
BRANCH   4   5
ATOM      5  C   UNL A   1      36.306  22.095  24.660  1.00  0.00     0.342 C 
ATOM      6  O   UNL A   1      36.739  22.787  23.751  1.00  0.00    -0.246 OA
BRANCH   5   7
ATOM      7  C   UNL A   1      34.968  21.455  24.601  1.00  0.00     0.102 A 
ATOM      8  C   UNL A   1      33.776  22.086  24.223  1.00  0.00     0.145 A 
ATOM      9  C   UNL A   1      32.568  21.378  24.218  1.00  0.00     0.048 A 
ATOM     10  C   UNL A   1      32.539  20.038  24.605  1.00  0.00     0.004 A 
ATOM     11  C   UNL A   1      34.919  20.107  25.000  1.00  0.00     0.019 A 
ATOM     12  C   UNL A   1      33.712  19.407  25.011  1.00  0.00     0.001 A 
BRANCH   8  13
ATOM     13  O   UNL A   1      33.665  23.461  23.964  1.00  0.00    -0.426 OA
BRANCH  13  14
ATOM     14  C   UNL A   1      33.236  23.832  22.696  1.00  0.00     0.308 C 
ATOM     15  C   UNL A   1      32.099  24.803  22.830  1.00  0.00     0.139 C 
ATOM     16  O   UNL A   1      33.683  23.429  21.632  1.00  0.00    -0.252 OA
ENDBRANCH  13  14
ENDBRANCH   8  13
ENDBRANCH   5   7
ENDBRANCH   4   5
ENDBRANCH   3   4
ENDBRANCH   2   3
ENDBRANCH   1   2
BRANCH   1  17
ATOM     17  C   UNL A   1      41.537  20.779  26.123  1.00  0.00     0.202 C 
BRANCH  17  18
ATOM     18  C   UNL A   1      42.715  21.757  26.030  1.00  0.00     0.261 C 
BRANCH  18  19
ATOM     19  O   UNL A   1      42.530  22.759  25.012  1.00  0.00    -0.460 OA
BRANCH  19  20
ATOM     20  C   UNL A   1      43.343  23.834  25.117  1.00  0.00     0.338 C 
ATOM     21  O   UNL A   1      44.397  24.036  24.523  1.00  0.00    -0.246 OA
BRANCH  20  22
ATOM     22  C   UNL A   1      42.727  24.859  25.972  1.00  0.00     0.060 A 
ATOM     23  C   UNL A   1      43.412  26.069  26.147  1.00  0.00     0.016 A 
ATOM     24  C   UNL A   1      41.556  24.596  26.685  1.00  0.00     0.016 A 
ATOM     25  C   UNL A   1      42.950  27.006  27.071  1.00  0.00     0.010 A 
ATOM     26  C   UNL A   1      41.099  25.533  27.619  1.00  0.00     0.010 A 
ATOM     27  C   UNL A   1      41.812  26.727  27.839  1.00  0.00    -0.014 A 
BRANCH  27  28
ATOM     28  C   UNL A   1      41.438  27.619  28.963  1.00  0.00     0.031 A 
ATOM     29  C   UNL A   1      42.200  27.526  30.257  1.00  0.00     0.074 A 
ATOM     30  C   UNL A   1      40.426  28.494  28.836  1.00  0.00     0.049 A 
ATOM     31  N   UNL A   1      41.988  28.146  31.391  1.00  0.00    -0.248 NA
ATOM     32  C   UNL A   1      43.351  26.610  30.278  1.00  0.00     0.031 C 
ATOM     33  C   UNL A   1      39.633  28.698  27.624  1.00  0.00     0.029 A 
ATOM     34  N   UNL A   1      39.879  29.364  29.747  1.00  0.00    -0.354 N 
ATOM     35  C   UNL A   1      42.964  27.682  32.263  1.00  0.00     0.074 A 
ATOM     36  C   UNL A   1      43.763  26.721  31.534  1.00  0.00     0.031 C 
ATOM     37  C   UNL A   1      38.680  29.611  27.877  1.00  0.00     0.029 A 
ATOM     38  C   UNL A   1      38.778  30.035  29.273  1.00  0.00     0.049 A 
ATOM     39  H   UNL A   1      40.240  29.493  30.654  1.00  0.00     0.167 HD
ATOM     40  C   UNL A   1      43.175  28.030  33.553  1.00  0.00     0.037 A 
ATOM     41  C   UNL A   1      37.930  30.870  29.904  1.00  0.00     0.037 A 
ATOM     42  C   UNL A   1      42.396  29.003  34.271  1.00  0.00     0.049 A 
ATOM     43  C   UNL A   1      38.167  31.210  31.354  1.00  0.00     0.074 A 
ATOM     44  C   UNL A   1      42.571  29.463  35.566  1.00  0.00     0.029 A 
ATOM     45  N   UNL A   1      41.292  29.664  33.757  1.00  0.00    -0.354 N 
ATOM     46  N   UNL A   1      39.120  30.801  32.157  1.00  0.00    -0.248 NA
ATOM     47  C   UNL A   1      37.210  32.131  31.985  1.00  0.00     0.031 C 
ATOM     48  C   UNL A   1      41.542  30.367  35.851  1.00  0.00     0.029 A 
ATOM     49  C   UNL A   1      40.756  30.505  34.718  1.00  0.00     0.049 A 
ATOM     50  H   UNL A   1      40.941  29.552  32.844  1.00  0.00     0.167 HD
ATOM     51  C   UNL A   1      38.893  31.433  33.372  1.00  0.00     0.074 A 
ATOM     52  C   UNL A   1      37.720  32.262  33.202  1.00  0.00     0.031 C 
ATOM     53  C   UNL A   1      39.596  31.336  34.527  1.00  0.00     0.037 A 
BRANCH  40  54
ATOM     54  C   UNL A   1      44.282  27.342  34.295  1.00  0.00     0.064 A 
ATOM     55  C   UNL A   1      45.569  27.891  34.373  1.00  0.00     0.173 A 
ATOM     56  C   UNL A   1      44.027  26.155  34.999  1.00  0.00     0.173 A 
ATOM     57  F   UNL A   1      45.864  29.018  33.708  1.00  0.00    -0.203 F 
ATOM     58  C   UNL A   1      46.566  27.270  35.123  1.00  0.00     0.198 A 
ATOM     59  C   UNL A   1      45.018  25.550  35.765  1.00  0.00     0.198 A 
ATOM     60  F   UNL A   1      42.808  25.595  34.958  1.00  0.00    -0.203 F 
ATOM     61  F   UNL A   1      47.796  27.797  35.165  1.00  0.00    -0.200 F 
ATOM     62  C   UNL A   1      46.287  26.107  35.825  1.00  0.00     0.200 A 
ATOM     63  F   UNL A   1      44.743  24.432  36.453  1.00  0.00    -0.200 F 
ATOM     64  F   UNL A   1      47.242  25.519  36.559  1.00  0.00    -0.200 F 
ENDBRANCH  40  54
BRANCH  41  65
ATOM     65  C   UNL A   1      36.754  31.421  29.184  1.00  0.00     0.064 A 
ATOM     66  C   UNL A   1      36.699  32.769  28.807  1.00  0.00     0.173 A 
ATOM     67  C   UNL A   1      35.642  30.615  28.894  1.00  0.00     0.173 A 
ATOM     68  F   UNL A   1      37.726  33.585  29.087  1.00  0.00    -0.203 F 
ATOM     69  C   UNL A   1      35.566  33.297  28.190  1.00  0.00     0.198 A 
ATOM     70  C   UNL A   1      34.522  31.138  28.252  1.00  0.00     0.198 A 
ATOM     71  F   UNL A   1      35.645  29.318  29.236  1.00  0.00    -0.203 F 
ATOM     72  F   UNL A   1      35.517  34.602  27.889  1.00  0.00    -0.200 F 
ATOM     73  C   UNL A   1      34.481  32.480  27.909  1.00  0.00     0.200 A 
ATOM     74  F   UNL A   1      33.481  30.342  27.975  1.00  0.00    -0.200 F 
ATOM     75  F   UNL A   1      33.390  32.990  27.321  1.00  0.00    -0.200 F 
ENDBRANCH  41  65
BRANCH  53  76
ATOM     76  C   UNL A   1      39.142  32.172  35.687  1.00  0.00     0.064 A 
ATOM     77  C   UNL A   1      38.277  31.662  36.665  1.00  0.00     0.173 A 
ATOM     78  C   UNL A   1      39.623  33.480  35.850  1.00  0.00     0.173 A 
ATOM     79  F   UNL A   1      37.780  30.422  36.547  1.00  0.00    -0.203 F 
ATOM     80  C   UNL A   1      37.896  32.439  37.757  1.00  0.00     0.198 A 
ATOM     81  C   UNL A   1      39.260  34.244  36.955  1.00  0.00     0.198 A 
ATOM     82  F   UNL A   1      40.460  34.010  34.944  1.00  0.00    -0.203 F 
ATOM     83  F   UNL A   1      37.038  31.946  38.660  1.00  0.00    -0.200 F 
ATOM     84  C   UNL A   1      38.393  33.726  37.904  1.00  0.00     0.200 A 
ATOM     85  F   UNL A   1      39.753  35.483  37.103  1.00  0.00    -0.200 F 
ATOM     86  F   UNL A   1      38.033  34.468  38.960  1.00  0.00    -0.200 F 
ENDBRANCH  53  76
ENDBRANCH  27  28
ENDBRANCH  20  22
ENDBRANCH  19  20
ENDBRANCH  18  19
ENDBRANCH  17  18
ENDBRANCH   1  17
TORSDOF 16
ENDMDL
MODEL 2
REMARK VINA RESULT:     -10.8      4.925      7.161
REMARK SMILES CC(=O)Oc1ccccc1C(=O)OCCOCCOC(=O)c1ccc(-c2c3nc(c(-c4c(F)c(F)c(F)c(F)c4F)c4ccc([nH]4)c(-c4c(F)c(F)c(F)c(F)c4F)c4nc(c(-c5c(F)c(F)c(F)c(F)c5F)c5ccc2[nH]5)C=C4)C=C3)cc1
REMARK SMILES IDX 16 1 15 2 14 3 13 4 11 5 12 6 10 7 5 8 6 9 7 10 9 11 8 12
REMARK SMILES IDX 4 13 2 14 1 15 3 16 17 17 18 18 19 19 20 20 21 21 22 22
REMARK SMILES IDX 23 23 84 24 24 25 83 26 25 27 26 28 27 29 77 30 28 31 82 32
REMARK SMILES IDX 76 33 78 34 29 35 81 36 75 37 74 38 30 40 62 41 42 42 61 43
REMARK SMILES IDX 43 44 46 45 60 46 79 47 44 48 45 49 59 51 80 52 47 53 31 54
REMARK SMILES IDX 32 55 40 56 33 57 34 58 38 59 41 60 35 61 36 62 39 63 37 64
REMARK SMILES IDX 63 65 64 66 72 67 65 68 66 69 70 70 73 71 67 72 68 73 71 74
REMARK SMILES IDX 69 75 48 76 49 77 57 78 50 79 51 80 55 81 58 82 52 83 53 84
REMARK SMILES IDX 56 85 54 86
REMARK H PARENT 78 39 46 50
REMARK Flexibility Score: inf
ROOT
ATOM      1  O   UNL A   1      46.191  22.050  24.993  1.00  0.00    -0.374 OA
ENDROOT
BRANCH   1   2
ATOM      2  C   UNL A   1      46.366  23.305  24.337  1.00  0.00     0.202 C 
BRANCH   2   3
ATOM      3  C   UNL A   1      46.634  24.508  25.243  1.00  0.00     0.261 C 
BRANCH   3   4
ATOM      4  O   UNL A   1      45.705  25.569  24.971  1.00  0.00    -0.460 OA
BRANCH   4   5
ATOM      5  C   UNL A   1      45.811  26.653  25.779  1.00  0.00     0.342 C 
ATOM      6  O   UNL A   1      46.832  27.043  26.325  1.00  0.00    -0.246 OA
BRANCH   5   7
ATOM      7  C   UNL A   1      44.553  27.441  25.793  1.00  0.00     0.102 A 
ATOM      8  C   UNL A   1      44.360  28.661  26.455  1.00  0.00     0.145 A 
ATOM      9  C   UNL A   1      43.119  29.308  26.405  1.00  0.00     0.048 A 
ATOM     10  C   UNL A   1      42.058  28.734  25.704  1.00  0.00     0.004 A 
ATOM     11  C   UNL A   1      43.469  26.872  25.102  1.00  0.00     0.019 A 
ATOM     12  C   UNL A   1      42.227  27.509  25.066  1.00  0.00     0.001 A 
BRANCH   8  13
ATOM     13  O   UNL A   1      45.306  29.247  27.310  1.00  0.00    -0.426 OA
BRANCH  13  14
ATOM     14  C   UNL A   1      46.188  30.158  26.744  1.00  0.00     0.308 C 
ATOM     15  C   UNL A   1      47.076  30.711  27.821  1.00  0.00     0.139 C 
ATOM     16  O   UNL A   1      46.238  30.486  25.568  1.00  0.00    -0.252 OA
ENDBRANCH  13  14
ENDBRANCH   8  13
ENDBRANCH   5   7
ENDBRANCH   4   5
ENDBRANCH   3   4
ENDBRANCH   2   3
ENDBRANCH   1   2
BRANCH   1  17
ATOM     17  C   UNL A   1      45.503  21.020  24.284  1.00  0.00     0.202 C 
BRANCH  17  18
ATOM     18  C   UNL A   1      44.870  19.913  25.136  1.00  0.00     0.261 C 
BRANCH  18  19
ATOM     19  O   UNL A   1      43.460  19.754  24.889  1.00  0.00    -0.460 OA
BRANCH  19  20
ATOM     20  C   UNL A   1      42.689  19.699  25.998  1.00  0.00     0.338 C 
ATOM     21  O   UNL A   1      42.237  18.700  26.546  1.00  0.00    -0.246 OA
BRANCH  20  22
ATOM     22  C   UNL A   1      42.551  21.038  26.591  1.00  0.00     0.060 A 
ATOM     23  C   UNL A   1      42.584  22.144  25.732  1.00  0.00     0.016 A 
ATOM     24  C   UNL A   1      42.510  21.214  27.976  1.00  0.00     0.016 A 
ATOM     25  C   UNL A   1      42.617  23.436  26.257  1.00  0.00     0.010 A 
ATOM     26  C   UNL A   1      42.554  22.510  28.501  1.00  0.00     0.010 A 
ATOM     27  C   UNL A   1      42.641  23.624  27.645  1.00  0.00    -0.014 A 
BRANCH  27  28
ATOM     28  C   UNL A   1      42.887  24.975  28.206  1.00  0.00     0.031 A 
ATOM     29  C   UNL A   1      44.262  25.319  28.712  1.00  0.00     0.074 A 
ATOM     30  C   UNL A   1      41.896  25.880  28.275  1.00  0.00     0.049 A 
ATOM     31  N   UNL A   1      44.676  26.404  29.318  1.00  0.00    -0.248 NA
ATOM     32  C   UNL A   1      45.309  24.305  28.512  1.00  0.00     0.031 C 
ATOM     33  C   UNL A   1      40.531  25.675  27.792  1.00  0.00     0.029 A 
ATOM     34  N   UNL A   1      41.881  27.150  28.798  1.00  0.00    -0.354 N 
ATOM     35  C   UNL A   1      46.022  26.196  29.586  1.00  0.00     0.074 A 
ATOM     36  C   UNL A   1      46.355  24.878  29.091  1.00  0.00     0.031 C 
ATOM     37  C   UNL A   1      39.802  26.770  28.069  1.00  0.00     0.029 A 
ATOM     38  C   UNL A   1      40.641  27.739  28.773  1.00  0.00     0.049 A 
ATOM     39  H   UNL A   1      42.684  27.594  29.157  1.00  0.00     0.167 HD
ATOM     40  C   UNL A   1      46.899  27.031  30.191  1.00  0.00     0.037 A 
ATOM     41  C   UNL A   1      40.226  28.913  29.288  1.00  0.00     0.037 A 
ATOM     42  C   UNL A   1      46.573  28.350  30.661  1.00  0.00     0.049 A 
ATOM     43  C   UNL A   1      41.217  29.806  29.990  1.00  0.00     0.074 A 
ATOM     44  C   UNL A   1      47.411  29.291  31.236  1.00  0.00     0.029 A 
ATOM     45  N   UNL A   1      45.308  28.913  30.616  1.00  0.00    -0.354 N 
ATOM     46  N   UNL A   1      42.498  29.619  30.200  1.00  0.00    -0.248 NA
ATOM     47  C   UNL A   1      40.704  31.076  30.526  1.00  0.00     0.031 C 
ATOM     48  C   UNL A   1      46.641  30.407  31.583  1.00  0.00     0.029 A 
ATOM     49  C   UNL A   1      45.335  30.179  31.180  1.00  0.00     0.049 A 
ATOM     50  H   UNL A   1      44.509  28.480  30.239  1.00  0.00     0.167 HD
ATOM     51  C   UNL A   1      42.946  30.754  30.863  1.00  0.00     0.074 A 
ATOM     52  C   UNL A   1      41.805  31.630  31.013  1.00  0.00     0.031 C 
ATOM     53  C   UNL A   1      44.193  31.045  31.308  1.00  0.00     0.037 A 
BRANCH  40  54
ATOM     54  C   UNL A   1      48.301  26.543  30.403  1.00  0.00     0.064 A 
ATOM     55  C   UNL A   1      48.633  25.699  31.472  1.00  0.00     0.173 A 
ATOM     56  C   UNL A   1      49.307  26.866  29.480  1.00  0.00     0.173 A 
ATOM     57  F   UNL A   1      47.708  25.371  32.386  1.00  0.00    -0.203 F 
ATOM     58  C   UNL A   1      49.927  25.202  31.614  1.00  0.00     0.198 A 
ATOM     59  C   UNL A   1      50.593  26.350  29.613  1.00  0.00     0.198 A 
ATOM     60  F   UNL A   1      49.036  27.667  28.438  1.00  0.00    -0.203 F 
ATOM     61  F   UNL A   1      50.231  24.417  32.655  1.00  0.00    -0.200 F 
ATOM     62  C   UNL A   1      50.902  25.521  30.680  1.00  0.00     0.200 A 
ATOM     63  F   UNL A   1      51.530  26.650  28.702  1.00  0.00    -0.200 F 
ATOM     64  F   UNL A   1      52.142  25.029  30.809  1.00  0.00    -0.200 F 
ENDBRANCH  40  54
BRANCH  41  65
ATOM     65  C   UNL A   1      38.796  29.303  29.193  1.00  0.00     0.064 A 
ATOM     66  C   UNL A   1      37.962  29.286  30.318  1.00  0.00     0.173 A 
ATOM     67  C   UNL A   1      38.226  29.663  27.962  1.00  0.00     0.173 A 
ATOM     68  F   UNL A   1      38.455  28.922  31.511  1.00  0.00    -0.203 F 
ATOM     69  C   UNL A   1      36.605  29.589  30.213  1.00  0.00     0.198 A 
ATOM     70  C   UNL A   1      36.876  29.993  27.863  1.00  0.00     0.198 A 
ATOM     71  F   UNL A   1      38.981  29.693  26.855  1.00  0.00    -0.203 F 
ATOM     72  F   UNL A   1      35.818  29.512  31.294  1.00  0.00    -0.200 F 
ATOM     73  C   UNL A   1      36.065  29.946  28.986  1.00  0.00     0.200 A 
ATOM     74  F   UNL A   1      36.362  30.346  26.678  1.00  0.00    -0.200 F 
ATOM     75  F   UNL A   1      34.760  30.232  28.884  1.00  0.00    -0.200 F 
ENDBRANCH  41  65
BRANCH  53  76
ATOM     76  C   UNL A   1      44.401  32.377  31.965  1.00  0.00     0.064 A 
ATOM     77  C   UNL A   1      44.257  32.544  33.349  1.00  0.00     0.173 A 
ATOM     78  C   UNL A   1      44.805  33.487  31.206  1.00  0.00     0.173 A 
ATOM     79  F   UNL A   1      43.860  31.516  34.115  1.00  0.00    -0.203 F 
ATOM     80  C   UNL A   1      44.493  33.779  33.948  1.00  0.00     0.198 A 
ATOM     81  C   UNL A   1      45.064  34.713  31.812  1.00  0.00     0.198 A 
ATOM     82  F   UNL A   1      44.965  33.376  29.878  1.00  0.00    -0.203 F 
ATOM     83  F   UNL A   1      44.312  33.926  35.268  1.00  0.00    -0.200 F 
ATOM     84  C   UNL A   1      44.902  34.860  33.181  1.00  0.00     0.200 A 
ATOM     85  F   UNL A   1      45.474  35.752  31.070  1.00  0.00    -0.200 F 
ATOM     86  F   UNL A   1      45.138  36.044  33.761  1.00  0.00    -0.200 F 
ENDBRANCH  53  76
ENDBRANCH  27  28
ENDBRANCH  20  22
ENDBRANCH  19  20
ENDBRANCH  18  19
ENDBRANCH  17  18
ENDBRANCH   1  17
TORSDOF 16
ENDMDL
MODEL 3
REMARK VINA RESULT:     -10.8      3.054      8.125
REMARK SMILES CC(=O)Oc1ccccc1C(=O)OCCOCCOC(=O)c1ccc(-c2c3nc(c(-c4c(F)c(F)c(F)c(F)c4F)c4ccc([nH]4)c(-c4c(F)c(F)c(F)c(F)c4F)c4nc(c(-c5c(F)c(F)c(F)c(F)c5F)c5ccc2[nH]5)C=C4)C=C3)cc1
REMARK SMILES IDX 16 1 15 2 14 3 13 4 11 5 12 6 10 7 5 8 6 9 7 10 9 11 8 12
REMARK SMILES IDX 4 13 2 14 1 15 3 16 17 17 18 18 19 19 20 20 21 21 22 22
REMARK SMILES IDX 23 23 84 24 24 25 83 26 25 27 26 28 27 29 77 30 28 31 82 32
REMARK SMILES IDX 76 33 78 34 29 35 81 36 75 37 74 38 30 40 62 41 42 42 61 43
REMARK SMILES IDX 43 44 46 45 60 46 79 47 44 48 45 49 59 51 80 52 47 53 31 54
REMARK SMILES IDX 32 55 40 56 33 57 34 58 38 59 41 60 35 61 36 62 39 63 37 64
REMARK SMILES IDX 63 65 64 66 72 67 65 68 66 69 70 70 73 71 67 72 68 73 71 74
REMARK SMILES IDX 69 75 48 76 49 77 57 78 50 79 51 80 55 81 58 82 52 83 53 84
REMARK SMILES IDX 56 85 54 86
REMARK H PARENT 78 39 46 50
REMARK Flexibility Score: inf
ROOT
ATOM      1  O   UNL A   1      32.469  29.039  23.688  1.00  0.00    -0.374 OA
ENDROOT
BRANCH   1   2
ATOM      2  C   UNL A   1      31.346  28.159  23.729  1.00  0.00     0.202 C 
BRANCH   2   3
ATOM      3  C   UNL A   1      31.548  26.779  23.103  1.00  0.00     0.261 C 
BRANCH   3   4
ATOM      4  O   UNL A   1      32.544  26.033  23.820  1.00  0.00    -0.460 OA
BRANCH   4   5
ATOM      5  C   UNL A   1      33.562  25.549  23.065  1.00  0.00     0.342 C 
ATOM      6  O   UNL A   1      33.968  26.029  22.018  1.00  0.00    -0.246 OA
BRANCH   5   7
ATOM      7  C   UNL A   1      34.266  24.439  23.755  1.00  0.00     0.102 A 
ATOM      8  C   UNL A   1      34.225  23.089  23.381  1.00  0.00     0.145 A 
ATOM      9  C   UNL A   1      34.925  22.127  24.121  1.00  0.00     0.048 A 
ATOM     10  C   UNL A   1      35.658  22.504  25.246  1.00  0.00     0.004 A 
ATOM     11  C   UNL A   1      34.999  24.799  24.899  1.00  0.00     0.019 A 
ATOM     12  C   UNL A   1      35.682  23.838  25.645  1.00  0.00     0.001 A 
BRANCH   8  13
ATOM     13  O   UNL A   1      33.402  22.581  22.365  1.00  0.00    -0.426 OA
BRANCH  13  14
ATOM     14  C   UNL A   1      32.138  22.142  22.737  1.00  0.00     0.308 C 
ATOM     15  C   UNL A   1      32.051  20.660  22.515  1.00  0.00     0.139 C 
ATOM     16  O   UNL A   1      31.224  22.835  23.160  1.00  0.00    -0.252 OA
ENDBRANCH  13  14
ENDBRANCH   8  13
ENDBRANCH   5   7
ENDBRANCH   4   5
ENDBRANCH   3   4
ENDBRANCH   2   3
ENDBRANCH   1   2
BRANCH   1  17
ATOM     17  C   UNL A   1      32.969  29.536  24.928  1.00  0.00     0.202 C 
BRANCH  17  18
ATOM     18  C   UNL A   1      31.979  30.323  25.796  1.00  0.00     0.261 C 
BRANCH  18  19
ATOM     19  O   UNL A   1      32.451  30.523  27.142  1.00  0.00    -0.460 OA
BRANCH  19  20
ATOM     20  C   UNL A   1      33.185  31.643  27.328  1.00  0.00     0.338 C 
ATOM     21  O   UNL A   1      32.806  32.806  27.250  1.00  0.00    -0.246 OA
BRANCH  20  22
ATOM     22  C   UNL A   1      34.537  31.297  27.791  1.00  0.00     0.060 A 
ATOM     23  C   UNL A   1      34.784  29.970  28.168  1.00  0.00     0.016 A 
ATOM     24  C   UNL A   1      35.514  32.279  27.967  1.00  0.00     0.016 A 
ATOM     25  C   UNL A   1      35.998  29.626  28.762  1.00  0.00     0.010 A 
ATOM     26  C   UNL A   1      36.727  31.934  28.573  1.00  0.00     0.010 A 
ATOM     27  C   UNL A   1      36.961  30.615  29.003  1.00  0.00    -0.014 A 
BRANCH  27  28
ATOM     28  C   UNL A   1      38.160  30.300  29.818  1.00  0.00     0.031 A 
ATOM     29  C   UNL A   1      39.181  29.337  29.276  1.00  0.00     0.074 A 
ATOM     30  C   UNL A   1      38.331  30.855  31.030  1.00  0.00     0.049 A 
ATOM     31  N   UNL A   1      40.254  28.854  29.852  1.00  0.00    -0.248 NA
ATOM     32  C   UNL A   1      38.964  28.850  27.905  1.00  0.00     0.031 C 
ATOM     33  C   UNL A   1      37.426  31.823  31.649  1.00  0.00     0.029 A 
ATOM     34  N   UNL A   1      39.318  30.669  31.966  1.00  0.00    -0.354 N 
ATOM     35  C   UNL A   1      40.827  27.996  28.923  1.00  0.00     0.074 A 
ATOM     36  C   UNL A   1      39.980  28.012  27.750  1.00  0.00     0.031 C 
ATOM     37  C   UNL A   1      37.885  32.122  32.877  1.00  0.00     0.029 A 
ATOM     38  C   UNL A   1      39.096  31.347  33.139  1.00  0.00     0.049 A 
ATOM     39  H   UNL A   1      40.108  30.101  31.810  1.00  0.00     0.167 HD
ATOM     40  C   UNL A   1      41.959  27.264  29.040  1.00  0.00     0.037 A 
ATOM     41  C   UNL A   1      39.778  31.319  34.301  1.00  0.00     0.037 A 
ATOM     42  C   UNL A   1      42.814  27.267  30.196  1.00  0.00     0.049 A 
ATOM     43  C   UNL A   1      41.014  30.464  34.415  1.00  0.00     0.074 A 
ATOM     44  C   UNL A   1      44.013  26.599  30.384  1.00  0.00     0.029 A 
ATOM     45  N   UNL A   1      42.559  27.968  31.364  1.00  0.00    -0.354 N 
ATOM     46  N   UNL A   1      41.573  29.690  33.516  1.00  0.00    -0.248 NA
ATOM     47  C   UNL A   1      41.717  30.480  35.707  1.00  0.00     0.031 C 
ATOM     48  C   UNL A   1      44.460  26.860  31.684  1.00  0.00     0.029 A 
ATOM     49  C   UNL A   1      43.563  27.727  32.288  1.00  0.00     0.049 A 
ATOM     50  H   UNL A   1      41.781  28.552  31.514  1.00  0.00     0.167 HD
ATOM     51  C   UNL A   1      42.701  29.152  34.122  1.00  0.00     0.074 A 
ATOM     52  C   UNL A   1      42.756  29.695  35.462  1.00  0.00     0.031 C 
ATOM     53  C   UNL A   1      43.611  28.287  33.613  1.00  0.00     0.037 A 
BRANCH  40  54
ATOM     54  C   UNL A   1      42.340  26.372  27.896  1.00  0.00     0.064 A 
ATOM     55  C   UNL A   1      41.750  25.113  27.715  1.00  0.00     0.173 A 
ATOM     56  C   UNL A   1      43.253  26.818  26.928  1.00  0.00     0.173 A 
ATOM     57  F   UNL A   1      40.881  24.639  28.619  1.00  0.00    -0.203 F 
ATOM     58  C   UNL A   1      42.068  24.329  26.609  1.00  0.00     0.198 A 
ATOM     59  C   UNL A   1      43.552  26.041  25.813  1.00  0.00     0.198 A 
ATOM     60  F   UNL A   1      43.840  28.019  27.056  1.00  0.00    -0.203 F 
ATOM     61  F   UNL A   1      41.513  23.118  26.466  1.00  0.00    -0.200 F 
ATOM     62  C   UNL A   1      42.961  24.797  25.655  1.00  0.00     0.200 A 
ATOM     63  F   UNL A   1      44.405  26.501  24.887  1.00  0.00    -0.200 F 
ATOM     64  F   UNL A   1      43.253  24.047  24.583  1.00  0.00    -0.200 F 
ENDBRANCH  40  54
BRANCH  41  65
ATOM     65  C   UNL A   1      39.291  32.099  35.468  1.00  0.00     0.064 A 
ATOM     66  C   UNL A   1      39.684  33.429  35.667  1.00  0.00     0.173 A 
ATOM     67  C   UNL A   1      38.454  31.513  36.430  1.00  0.00     0.173 A 
ATOM     68  F   UNL A   1      40.505  34.024  34.789  1.00  0.00    -0.203 F 
ATOM     69  C   UNL A   1      39.278  34.137  36.797  1.00  0.00     0.198 A 
ATOM     70  C   UNL A   1      38.027  32.231  37.545  1.00  0.00     0.198 A 
ATOM     71  F   UNL A   1      38.053  30.242  36.286  1.00  0.00    -0.203 F 
ATOM     72  F   UNL A   1      39.711  35.389  36.992  1.00  0.00    -0.200 F 
ATOM     73  C   UNL A   1      38.447  33.538  37.732  1.00  0.00     0.200 A 
ATOM     74  F   UNL A   1      37.217  31.650  38.440  1.00  0.00    -0.200 F 
ATOM     75  F   UNL A   1      38.062  34.217  38.823  1.00  0.00    -0.200 F 
ENDBRANCH  41  65
BRANCH  53  76
ATOM     76  C   UNL A   1      44.765  27.900  34.489  1.00  0.00     0.064 A 
ATOM     77  C   UNL A   1      45.941  28.661  34.533  1.00  0.00     0.173 A 
ATOM     78  C   UNL A   1      44.670  26.785  35.337  1.00  0.00     0.173 A 
ATOM     79  F   UNL A   1      46.085  29.727  33.731  1.00  0.00    -0.203 F 
ATOM     80  C   UNL A   1      46.989  28.310  35.381  1.00  0.00     0.198 A 
ATOM     81  C   UNL A   1      45.708  26.452  36.202  1.00  0.00     0.198 A 
ATOM     82  F   UNL A   1      43.561  26.029  35.338  1.00  0.00    -0.203 F 
ATOM     83  F   UNL A   1      48.119  29.029  35.379  1.00  0.00    -0.200 F 
ATOM     84  C   UNL A   1      46.869  27.211  36.220  1.00  0.00     0.200 A 
ATOM     85  F   UNL A   1      45.584  25.399  37.021  1.00  0.00    -0.200 F 
ATOM     86  F   UNL A   1      47.873  26.881  37.042  1.00  0.00    -0.200 F 
ENDBRANCH  53  76
ENDBRANCH  27  28
ENDBRANCH  20  22
ENDBRANCH  19  20
ENDBRANCH  18  19
ENDBRANCH  17  18
ENDBRANCH   1  17
TORSDOF 16
ENDMDL
