MODEL 1
REMARK VINA RESULT:     -11.5      0.000      0.000
REMARK SMILES COc1ccc(OC)c(-c2cc(C(=O)OCCOCCOC(=O)c3ccc(-c4c5nc(c(-c6c(F)c(F)c(F)c(F)c6F)c6ccc([nH]6)c(-c6c(F)c(F)c(F)c(F)c6F)c6nc(c(-c7c(F)c(F)c(F)c(F)c7F)c7ccc4[nH]7)C=C6)C=C5)cc3)ccn2)c1
REMARK SMILES IDX 18 1 17 2 16 3 15 4 13 5 14 6 12 7 10 8 11 9 89 10 88 11
REMARK SMILES IDX 87 12 9 13 3 14 4 15 90 16 5 17 6 18 2 19 1 20 7 21 8 22
REMARK SMILES IDX 19 23 20 24 21 25 22 26 23 27 24 28 25 29 86 30 26 31 85 32
REMARK SMILES IDX 27 33 28 34 29 35 79 36 30 37 84 38 78 39 80 40 31 41 83 42
REMARK SMILES IDX 77 43 76 44 32 46 64 47 44 48 63 49 45 50 48 51 62 52 81 53
REMARK SMILES IDX 46 54 47 55 61 57 82 58 49 59 33 60 34 61 42 62 35 63 36 64
REMARK SMILES IDX 40 65 43 66 37 67 38 68 41 69 39 70 65 71 66 72 74 73 67 74
REMARK SMILES IDX 68 75 72 76 75 77 69 78 70 79 73 80 71 81 50 82 51 83 59 84
REMARK SMILES IDX 52 85 53 86 57 87 60 88 54 89 55 90 58 91 56 92
REMARK H PARENT 80 45 48 56
REMARK Flexibility Score: inf
ROOT
ATOM      1  O   UNL A   1      43.706  20.219  24.768  1.00  0.00    -0.374 OA
ENDROOT
BRANCH   1   2
ATOM      2  C   UNL A   1      43.249  19.470  25.894  1.00  0.00     0.202 C 
BRANCH   2   3
ATOM      3  C   UNL A   1      41.730  19.339  26.031  1.00  0.00     0.261 C 
BRANCH   3   4
ATOM      4  O   UNL A   1      41.081  20.595  25.773  1.00  0.00    -0.460 OA
BRANCH   4   5
ATOM      5  C   UNL A   1      40.443  21.135  26.838  1.00  0.00     0.338 C 
ATOM      6  O   UNL A   1      40.788  21.067  28.009  1.00  0.00    -0.246 OA
BRANCH   5   7
ATOM      7  C   UNL A   1      39.296  21.960  26.398  1.00  0.00     0.063 A 
ATOM      8  C   UNL A   1      37.092  22.280  25.510  1.00  0.00     0.075 A 
ATOM      9  C   UNL A   1      38.145  21.420  25.820  1.00  0.00     0.044 A 
ATOM     10  N   UNL A   1      37.171  23.613  25.744  1.00  0.00    -0.256 NA
ATOM     11  C   UNL A   1      38.316  24.115  26.250  1.00  0.00     0.112 A 
ATOM     12  C   UNL A   1      39.394  23.336  26.600  1.00  0.00     0.036 A 
BRANCH   8  13
ATOM     13  C   UNL A   1      35.768  21.777  25.096  1.00  0.00     0.046 A 
ATOM     14  C   UNL A   1      34.423  19.747  24.687  1.00  0.00     0.119 A 
ATOM     15  C   UNL A   1      33.354  20.536  24.293  1.00  0.00     0.050 A 
ATOM     16  C   UNL A   1      35.609  20.364  25.088  1.00  0.00     0.060 A 
ATOM     17  C   UNL A   1      33.473  21.925  24.301  1.00  0.00     0.051 A 
ATOM     18  C   UNL A   1      34.667  22.558  24.692  1.00  0.00     0.128 A 
BRANCH  14  19
ATOM     19  O   UNL A   1      34.221  18.399  24.593  1.00  0.00    -0.497 OA
ATOM     20  C   UNL A   1      33.332  17.965  23.570  1.00  0.00     0.278 C 
ENDBRANCH  14  19
BRANCH  18  21
ATOM     21  O   UNL A   1      34.607  23.911  24.479  1.00  0.00    -0.496 OA
ATOM     22  C   UNL A   1      34.255  24.374  23.185  1.00  0.00     0.278 C 
ENDBRANCH  18  21
ENDBRANCH   8  13
ENDBRANCH   5   7
ENDBRANCH   4   5
ENDBRANCH   3   4
ENDBRANCH   2   3
ENDBRANCH   1   2
BRANCH   1  23
ATOM     23  C   UNL A   1      44.523  21.360  25.039  1.00  0.00     0.202 C 
BRANCH  23  24
ATOM     24  C   UNL A   1      44.448  22.495  24.012  1.00  0.00     0.261 C 
BRANCH  24  25
ATOM     25  O   UNL A   1      43.691  23.611  24.515  1.00  0.00    -0.460 OA
BRANCH  25  26
ATOM     26  C   UNL A   1      44.433  24.628  25.012  1.00  0.00     0.338 C 
ATOM     27  O   UNL A   1      45.548  24.977  24.655  1.00  0.00    -0.246 OA
BRANCH  26  28
ATOM     28  C   UNL A   1      43.629  25.418  25.963  1.00  0.00     0.060 A 
ATOM     29  C   UNL A   1      43.856  26.799  26.008  1.00  0.00     0.016 A 
ATOM     30  C   UNL A   1      42.721  24.820  26.842  1.00  0.00     0.016 A 
ATOM     31  C   UNL A   1      43.218  27.583  26.966  1.00  0.00     0.010 A 
ATOM     32  C   UNL A   1      42.088  25.607  27.809  1.00  0.00     0.010 A 
ATOM     33  C   UNL A   1      42.360  26.984  27.899  1.00  0.00    -0.014 A 
BRANCH  33  34
ATOM     34  C   UNL A   1      41.873  27.775  29.055  1.00  0.00     0.031 A 
ATOM     35  C   UNL A   1      42.621  27.697  30.358  1.00  0.00     0.074 A 
ATOM     36  C   UNL A   1      40.801  28.578  28.939  1.00  0.00     0.049 A 
ATOM     37  N   UNL A   1      42.359  28.271  31.503  1.00  0.00    -0.248 NA
ATOM     38  C   UNL A   1      43.830  26.857  30.369  1.00  0.00     0.031 C 
ATOM     39  C   UNL A   1      40.018  28.768  27.720  1.00  0.00     0.029 A 
ATOM     40  N   UNL A   1      40.181  29.377  29.867  1.00  0.00    -0.354 N 
ATOM     41  C   UNL A   1      43.364  27.862  32.370  1.00  0.00     0.074 A 
ATOM     42  C   UNL A   1      44.225  26.967  31.629  1.00  0.00     0.031 C 
ATOM     43  C   UNL A   1      39.012  29.621  27.978  1.00  0.00     0.029 A 
ATOM     44  C   UNL A   1      39.063  30.011  29.386  1.00  0.00     0.049 A 
ATOM     45  H   UNL A   1      40.509  29.486  30.789  1.00  0.00     0.167 HD
ATOM     46  C   UNL A   1      43.556  28.210  33.664  1.00  0.00     0.037 A 
ATOM     47  C   UNL A   1      38.171  30.798  30.020  1.00  0.00     0.037 A 
ATOM     48  C   UNL A   1      42.700  29.101  34.401  1.00  0.00     0.049 A 
ATOM     49  C   UNL A   1      38.370  31.113  31.481  1.00  0.00     0.074 A 
ATOM     50  C   UNL A   1      42.818  29.525  35.714  1.00  0.00     0.029 A 
ATOM     51  N   UNL A   1      41.562  29.705  33.888  1.00  0.00    -0.354 N 
ATOM     52  N   UNL A   1      39.335  30.741  32.286  1.00  0.00    -0.248 NA
ATOM     53  C   UNL A   1      37.353  31.962  32.120  1.00  0.00     0.031 C 
ATOM     54  C   UNL A   1      41.726  30.347  36.008  1.00  0.00     0.029 A 
ATOM     55  C   UNL A   1      40.955  30.478  34.864  1.00  0.00     0.049 A 
ATOM     56  H   UNL A   1      41.232  29.598  32.966  1.00  0.00     0.167 HD
ATOM     57  C   UNL A   1      39.060  31.331  33.513  1.00  0.00     0.074 A 
ATOM     58  C   UNL A   1      37.845  32.099  33.343  1.00  0.00     0.031 C 
ATOM     59  C   UNL A   1      39.752  31.247  34.675  1.00  0.00     0.037 A 
BRANCH  46  60
ATOM     60  C   UNL A   1      44.732  27.612  34.377  1.00  0.00     0.064 A 
ATOM     61  C   UNL A   1      45.993  28.228  34.364  1.00  0.00     0.173 A 
ATOM     62  C   UNL A   1      44.586  26.431  35.122  1.00  0.00     0.173 A 
ATOM     63  F   UNL A   1      46.186  29.351  33.655  1.00  0.00    -0.203 F 
ATOM     64  C   UNL A   1      47.067  27.675  35.056  1.00  0.00     0.198 A 
ATOM     65  C   UNL A   1      45.656  25.896  35.835  1.00  0.00     0.198 A 
ATOM     66  F   UNL A   1      43.401  25.804  35.170  1.00  0.00    -0.203 F 
ATOM     67  F   UNL A   1      48.271  28.262  34.999  1.00  0.00    -0.200 F 
ATOM     68  C   UNL A   1      46.897  26.515  35.796  1.00  0.00     0.200 A 
ATOM     69  F   UNL A   1      45.486  24.781  36.558  1.00  0.00    -0.200 F 
ATOM     70  F   UNL A   1      47.929  25.991  36.471  1.00  0.00    -0.200 F 
ENDBRANCH  46  60
BRANCH  47  71
ATOM     71  C   UNL A   1      36.993  31.331  29.286  1.00  0.00     0.064 A 
ATOM     72  C   UNL A   1      36.914  32.685  28.929  1.00  0.00     0.173 A 
ATOM     73  C   UNL A   1      35.909  30.505  28.957  1.00  0.00     0.173 A 
ATOM     74  F   UNL A   1      37.915  33.520  29.245  1.00  0.00    -0.203 F 
ATOM     75  C   UNL A   1      35.785  33.196  28.291  1.00  0.00     0.198 A 
ATOM     76  C   UNL A   1      34.793  31.011  28.295  1.00  0.00     0.198 A 
ATOM     77  F   UNL A   1      35.934  29.204  29.279  1.00  0.00    -0.203 F 
ATOM     78  F   UNL A   1      35.713  34.503  28.009  1.00  0.00    -0.200 F 
ATOM     79  C   UNL A   1      34.728  32.358  27.971  1.00  0.00     0.200 A 
ATOM     80  F   UNL A   1      33.778  30.197  27.976  1.00  0.00    -0.200 F 
ATOM     81  F   UNL A   1      33.642  32.850  27.359  1.00  0.00    -0.200 F 
ENDBRANCH  47  71
BRANCH  59  82
ATOM     82  C   UNL A   1      39.238  32.034  35.845  1.00  0.00     0.064 A 
ATOM     83  C   UNL A   1      39.622  33.365  36.065  1.00  0.00     0.173 A 
ATOM     84  C   UNL A   1      38.314  31.462  36.734  1.00  0.00     0.173 A 
ATOM     85  F   UNL A   1      40.513  33.953  35.252  1.00  0.00    -0.203 F 
ATOM     86  C   UNL A   1      39.120  34.086  37.145  1.00  0.00     0.198 A 
ATOM     87  C   UNL A   1      37.792  32.195  37.796  1.00  0.00     0.198 A 
ATOM     88  F   UNL A   1      37.908  30.195  36.564  1.00  0.00    -0.203 F 
ATOM     89  F   UNL A   1      39.536  35.341  37.362  1.00  0.00    -0.200 F 
ATOM     90  C   UNL A   1      38.200  33.503  38.005  1.00  0.00     0.200 A 
ATOM     91  F   UNL A   1      36.892  31.635  38.617  1.00  0.00    -0.200 F 
ATOM     92  F   UNL A   1      37.712  34.202  39.040  1.00  0.00    -0.200 F 
ENDBRANCH  59  82
ENDBRANCH  33  34
ENDBRANCH  26  28
ENDBRANCH  25  26
ENDBRANCH  24  25
ENDBRANCH  23  24
ENDBRANCH   1  23
TORSDOF 17
ENDMDL
MODEL 2
REMARK VINA RESULT:     -11.4      0.753      2.344
REMARK SMILES COc1ccc(OC)c(-c2cc(C(=O)OCCOCCOC(=O)c3ccc(-c4c5nc(c(-c6c(F)c(F)c(F)c(F)c6F)c6ccc([nH]6)c(-c6c(F)c(F)c(F)c(F)c6F)c6nc(c(-c7c(F)c(F)c(F)c(F)c7F)c7ccc4[nH]7)C=C6)C=C5)cc3)ccn2)c1
REMARK SMILES IDX 18 1 17 2 16 3 15 4 13 5 14 6 12 7 10 8 11 9 89 10 88 11
REMARK SMILES IDX 87 12 9 13 3 14 4 15 90 16 5 17 6 18 2 19 1 20 7 21 8 22
REMARK SMILES IDX 19 23 20 24 21 25 22 26 23 27 24 28 25 29 86 30 26 31 85 32
REMARK SMILES IDX 27 33 28 34 29 35 79 36 30 37 84 38 78 39 80 40 31 41 83 42
REMARK SMILES IDX 77 43 76 44 32 46 64 47 44 48 63 49 45 50 48 51 62 52 81 53
REMARK SMILES IDX 46 54 47 55 61 57 82 58 49 59 33 60 34 61 42 62 35 63 36 64
REMARK SMILES IDX 40 65 43 66 37 67 38 68 41 69 39 70 65 71 66 72 74 73 67 74
REMARK SMILES IDX 68 75 72 76 75 77 69 78 70 79 73 80 71 81 50 82 51 83 59 84
REMARK SMILES IDX 52 85 53 86 57 87 60 88 54 89 55 90 58 91 56 92
REMARK H PARENT 80 45 48 56
REMARK Flexibility Score: inf
ROOT
ATOM      1  O   UNL A   1      43.136  20.508  24.954  1.00  0.00    -0.374 OA
ENDROOT
BRANCH   1   2
ATOM      2  C   UNL A   1      42.850  19.376  25.775  1.00  0.00     0.202 C 
BRANCH   2   3
ATOM      3  C   UNL A   1      41.382  19.203  26.177  1.00  0.00     0.261 C 
BRANCH   3   4
ATOM      4  O   UNL A   1      40.612  20.363  25.819  1.00  0.00    -0.460 OA
BRANCH   4   5
ATOM      5  C   UNL A   1      40.241  21.143  26.861  1.00  0.00     0.338 C 
ATOM      6  O   UNL A   1      40.716  21.132  27.988  1.00  0.00    -0.246 OA
BRANCH   5   7
ATOM      7  C   UNL A   1      39.236  22.142  26.437  1.00  0.00     0.063 A 
ATOM      8  C   UNL A   1      37.179  22.822  25.410  1.00  0.00     0.075 A 
ATOM      9  C   UNL A   1      38.100  21.814  25.693  1.00  0.00     0.044 A 
ATOM     10  N   UNL A   1      37.371  24.098  25.824  1.00  0.00    -0.256 NA
ATOM     11  C   UNL A   1      38.505  24.399  26.490  1.00  0.00     0.112 A 
ATOM     12  C   UNL A   1      39.456  23.463  26.826  1.00  0.00     0.036 A 
BRANCH   8  13
ATOM     13  C   UNL A   1      35.859  22.530  24.819  1.00  0.00     0.046 A 
ATOM     14  C   UNL A   1      34.348  23.017  22.928  1.00  0.00     0.119 A 
ATOM     15  C   UNL A   1      33.383  22.194  23.488  1.00  0.00     0.050 A 
ATOM     16  C   UNL A   1      35.569  23.173  23.585  1.00  0.00     0.060 A 
ATOM     17  C   UNL A   1      33.641  21.538  24.691  1.00  0.00     0.051 A 
ATOM     18  C   UNL A   1      34.863  21.697  25.368  1.00  0.00     0.128 A 
BRANCH  14  19
ATOM     19  O   UNL A   1      33.977  23.654  21.777  1.00  0.00    -0.497 OA
ATOM     20  C   UNL A   1      32.931  24.611  21.895  1.00  0.00     0.278 C 
ENDBRANCH  14  19
BRANCH  18  21
ATOM     21  O   UNL A   1      34.838  21.084  26.594  1.00  0.00    -0.496 OA
ATOM     22  C   UNL A   1      34.153  21.729  27.655  1.00  0.00     0.278 C 
ENDBRANCH  18  21
ENDBRANCH   8  13
ENDBRANCH   5   7
ENDBRANCH   4   5
ENDBRANCH   3   4
ENDBRANCH   2   3
ENDBRANCH   1   2
BRANCH   1  23
ATOM     23  C   UNL A   1      44.009  21.499  25.502  1.00  0.00     0.202 C 
BRANCH  23  24
ATOM     24  C   UNL A   1      44.514  22.561  24.521  1.00  0.00     0.261 C 
BRANCH  24  25
ATOM     25  O   UNL A   1      43.739  23.771  24.609  1.00  0.00    -0.460 OA
BRANCH  25  26
ATOM     26  C   UNL A   1      44.422  24.857  25.039  1.00  0.00     0.338 C 
ATOM     27  O   UNL A   1      45.490  25.277  24.621  1.00  0.00    -0.246 OA
BRANCH  26  28
ATOM     28  C   UNL A   1      43.601  25.617  26.002  1.00  0.00     0.060 A 
ATOM     29  C   UNL A   1      43.809  27.000  26.075  1.00  0.00     0.016 A 
ATOM     30  C   UNL A   1      42.698  24.989  26.863  1.00  0.00     0.016 A 
ATOM     31  C   UNL A   1      43.155  27.756  27.045  1.00  0.00     0.010 A 
ATOM     32  C   UNL A   1      42.049  25.747  27.843  1.00  0.00     0.010 A 
ATOM     33  C   UNL A   1      42.301  27.126  27.961  1.00  0.00    -0.014 A 
BRANCH  33  34
ATOM     34  C   UNL A   1      41.797  27.887  29.130  1.00  0.00     0.031 A 
ATOM     35  C   UNL A   1      42.532  27.784  30.438  1.00  0.00     0.074 A 
ATOM     36  C   UNL A   1      40.721  28.686  29.021  1.00  0.00     0.049 A 
ATOM     37  N   UNL A   1      42.254  28.330  31.594  1.00  0.00    -0.248 NA
ATOM     38  C   UNL A   1      43.747  26.952  30.443  1.00  0.00     0.031 C 
ATOM     39  C   UNL A   1      39.950  28.899  27.799  1.00  0.00     0.029 A 
ATOM     40  N   UNL A   1      40.087  29.460  29.961  1.00  0.00    -0.354 N 
ATOM     41  C   UNL A   1      43.253  27.907  32.462  1.00  0.00     0.074 A 
ATOM     42  C   UNL A   1      44.127  27.035  31.709  1.00  0.00     0.031 C 
ATOM     43  C   UNL A   1      38.935  29.740  28.067  1.00  0.00     0.029 A 
ATOM     44  C   UNL A   1      38.969  30.097  29.484  1.00  0.00     0.049 A 
ATOM     45  H   UNL A   1      40.404  29.549  30.889  1.00  0.00     0.167 HD
ATOM     46  C   UNL A   1      43.430  28.226  33.766  1.00  0.00     0.037 A 
ATOM     47  C   UNL A   1      38.066  30.863  30.126  1.00  0.00     0.037 A 
ATOM     48  C   UNL A   1      42.560  29.095  34.514  1.00  0.00     0.049 A 
ATOM     49  C   UNL A   1      38.247  31.146  31.596  1.00  0.00     0.074 A 
ATOM     50  C   UNL A   1      42.662  29.488  35.837  1.00  0.00     0.029 A 
ATOM     51  N   UNL A   1      41.423  29.702  34.003  1.00  0.00    -0.354 N 
ATOM     52  N   UNL A   1      39.207  30.761  32.402  1.00  0.00    -0.248 NA
ATOM     53  C   UNL A   1      37.219  31.974  32.244  1.00  0.00     0.031 C 
ATOM     54  C   UNL A   1      41.562  30.297  36.139  1.00  0.00     0.029 A 
ATOM     55  C   UNL A   1      40.802  30.449  34.990  1.00  0.00     0.049 A 
ATOM     56  H   UNL A   1      41.104  29.615  33.075  1.00  0.00     0.167 HD
ATOM     57  C   UNL A   1      38.915  31.322  33.639  1.00  0.00     0.074 A 
ATOM     58  C   UNL A   1      37.697  32.085  33.475  1.00  0.00     0.031 C 
ATOM     59  C   UNL A   1      39.596  31.215  34.807  1.00  0.00     0.037 A 
BRANCH  46  60
ATOM     60  C   UNL A   1      44.603  27.619  34.477  1.00  0.00     0.064 A 
ATOM     61  C   UNL A   1      44.547  26.325  35.017  1.00  0.00     0.173 A 
ATOM     62  C   UNL A   1      45.813  28.322  34.577  1.00  0.00     0.173 A 
ATOM     63  F   UNL A   1      43.408  25.619  34.958  1.00  0.00    -0.203 F 
ATOM     64  C   UNL A   1      45.654  25.765  35.648  1.00  0.00     0.198 A 
ATOM     65  C   UNL A   1      46.927  27.748  35.185  1.00  0.00     0.198 A 
ATOM     66  F   UNL A   1      45.921  29.560  34.074  1.00  0.00    -0.203 F 
ATOM     67  F   UNL A   1      45.567  24.542  36.189  1.00  0.00    -0.200 F 
ATOM     68  C   UNL A   1      46.845  26.472  35.725  1.00  0.00     0.200 A 
ATOM     69  F   UNL A   1      48.079  28.428  35.248  1.00  0.00    -0.200 F 
ATOM     70  F   UNL A   1      47.913  25.926  36.322  1.00  0.00    -0.200 F 
ENDBRANCH  46  60
BRANCH  47  71
ATOM     71  C   UNL A   1      36.892  31.406  29.393  1.00  0.00     0.064 A 
ATOM     72  C   UNL A   1      35.840  30.571  28.988  1.00  0.00     0.173 A 
ATOM     73  C   UNL A   1      36.815  32.765  29.052  1.00  0.00     0.173 A 
ATOM     74  F   UNL A   1      35.881  29.261  29.267  1.00  0.00    -0.203 F 
ATOM     75  C   UNL A   1      34.768  31.071  28.251  1.00  0.00     0.198 A 
ATOM     76  C   UNL A   1      35.728  33.268  28.340  1.00  0.00     0.198 A 
ATOM     77  F   UNL A   1      37.795  33.605  29.413  1.00  0.00    -0.203 F 
ATOM     78  F   UNL A   1      33.803  30.242  27.831  1.00  0.00    -0.200 F 
ATOM     79  C   UNL A   1      34.711  32.419  27.932  1.00  0.00     0.200 A 
ATOM     80  F   UNL A   1      35.670  34.573  28.044  1.00  0.00    -0.200 F 
ATOM     81  F   UNL A   1      33.680  32.898  27.222  1.00  0.00    -0.200 F 
ENDBRANCH  47  71
BRANCH  59  82
ATOM     82  C   UNL A   1      39.064  31.971  35.989  1.00  0.00     0.064 A 
ATOM     83  C   UNL A   1      38.198  31.374  36.917  1.00  0.00     0.173 A 
ATOM     84  C   UNL A   1      39.461  33.298  36.219  1.00  0.00     0.173 A 
ATOM     85  F   UNL A   1      37.779  30.113  36.735  1.00  0.00    -0.203 F 
ATOM     86  C   UNL A   1      37.730  32.086  38.019  1.00  0.00     0.198 A 
ATOM     87  C   UNL A   1      39.014  33.996  37.338  1.00  0.00     0.198 A 
ATOM     88  F   UNL A   1      40.294  33.912  35.366  1.00  0.00    -0.203 F 
ATOM     89  F   UNL A   1      36.868  31.510  38.868  1.00  0.00    -0.200 F 
ATOM     90  C   UNL A   1      38.144  33.393  38.232  1.00  0.00     0.200 A 
ATOM     91  F   UNL A   1      39.426  35.254  37.549  1.00  0.00    -0.200 F 
ATOM     92  F   UNL A   1      37.698  34.073  39.298  1.00  0.00    -0.200 F 
ENDBRANCH  59  82
ENDBRANCH  33  34
ENDBRANCH  26  28
ENDBRANCH  25  26
ENDBRANCH  24  25
ENDBRANCH  23  24
ENDBRANCH   1  23
TORSDOF 17
ENDMDL
MODEL 3
REMARK VINA RESULT:     -11.2      1.579      7.874
REMARK SMILES COc1ccc(OC)c(-c2cc(C(=O)OCCOCCOC(=O)c3ccc(-c4c5nc(c(-c6c(F)c(F)c(F)c(F)c6F)c6ccc([nH]6)c(-c6c(F)c(F)c(F)c(F)c6F)c6nc(c(-c7c(F)c(F)c(F)c(F)c7F)c7ccc4[nH]7)C=C6)C=C5)cc3)ccn2)c1
REMARK SMILES IDX 18 1 17 2 16 3 15 4 13 5 14 6 12 7 10 8 11 9 89 10 88 11
REMARK SMILES IDX 87 12 9 13 3 14 4 15 90 16 5 17 6 18 2 19 1 20 7 21 8 22
REMARK SMILES IDX 19 23 20 24 21 25 22 26 23 27 24 28 25 29 86 30 26 31 85 32
REMARK SMILES IDX 27 33 28 34 29 35 79 36 30 37 84 38 78 39 80 40 31 41 83 42
REMARK SMILES IDX 77 43 76 44 32 46 64 47 44 48 63 49 45 50 48 51 62 52 81 53
REMARK SMILES IDX 46 54 47 55 61 57 82 58 49 59 33 60 34 61 42 62 35 63 36 64
REMARK SMILES IDX 40 65 43 66 37 67 38 68 41 69 39 70 65 71 66 72 74 73 67 74
REMARK SMILES IDX 68 75 72 76 75 77 69 78 70 79 73 80 71 81 50 82 51 83 59 84
REMARK SMILES IDX 52 85 53 86 57 87 60 88 54 89 55 90 58 91 56 92
REMARK H PARENT 80 45 48 56
REMARK Flexibility Score: inf
ROOT
ATOM      1  O   UNL A   1      41.865  20.387  25.750  1.00  0.00    -0.374 OA
ENDROOT
BRANCH   1   2
ATOM      2  C   UNL A   1      40.500  20.425  26.167  1.00  0.00     0.202 C 
BRANCH   2   3
ATOM      3  C   UNL A   1      39.941  21.816  26.482  1.00  0.00     0.261 C 
BRANCH   3   4
ATOM      4  O   UNL A   1      38.724  22.055  25.757  1.00  0.00    -0.460 OA
BRANCH   4   5
ATOM      5  C   UNL A   1      38.083  23.202  26.084  1.00  0.00     0.338 C 
ATOM      6  O   UNL A   1      38.469  24.057  26.868  1.00  0.00    -0.246 OA
BRANCH   5   7
ATOM      7  C   UNL A   1      36.866  23.376  25.261  1.00  0.00     0.063 A 
ATOM      8  C   UNL A   1      34.701  24.292  24.789  1.00  0.00     0.075 A 
ATOM      9  C   UNL A   1      35.766  24.131  25.675  1.00  0.00     0.044 A 
ATOM     10  N   UNL A   1      34.708  23.724  23.558  1.00  0.00    -0.256 NA
ATOM     11  C   UNL A   1      35.758  22.953  23.206  1.00  0.00     0.112 A 
ATOM     12  C   UNL A   1      36.856  22.757  24.012  1.00  0.00     0.036 A 
BRANCH   8  13
ATOM     13  C   UNL A   1      33.600  25.237  25.054  1.00  0.00     0.046 A 
ATOM     14  C   UNL A   1      32.676  27.459  24.500  1.00  0.00     0.119 A 
ATOM     15  C   UNL A   1      31.645  27.254  25.404  1.00  0.00     0.050 A 
ATOM     16  C   UNL A   1      33.633  26.458  24.327  1.00  0.00     0.060 A 
ATOM     17  C   UNL A   1      31.576  26.062  26.124  1.00  0.00     0.051 A 
ATOM     18  C   UNL A   1      32.541  25.052  25.967  1.00  0.00     0.128 A 
BRANCH  14  19
ATOM     19  O   UNL A   1      32.682  28.680  23.887  1.00  0.00    -0.497 OA
ATOM     20  C   UNL A   1      33.776  28.943  23.016  1.00  0.00     0.278 C 
ENDBRANCH  14  19
BRANCH  18  21
ATOM     21  O   UNL A   1      32.361  24.042  26.876  1.00  0.00    -0.496 OA
ATOM     22  C   UNL A   1      31.568  22.929  26.497  1.00  0.00     0.278 C 
ENDBRANCH  18  21
ENDBRANCH   8  13
ENDBRANCH   5   7
ENDBRANCH   4   5
ENDBRANCH   3   4
ENDBRANCH   2   3
ENDBRANCH   1   2
BRANCH   1  23
ATOM     23  C   UNL A   1      42.731  21.392  26.281  1.00  0.00     0.202 C 
BRANCH  23  24
ATOM     24  C   UNL A   1      43.620  22.115  25.264  1.00  0.00     0.261 C 
BRANCH  24  25
ATOM     25  O   UNL A   1      43.047  23.373  24.863  1.00  0.00    -0.460 OA
BRANCH  25  26
ATOM     26  C   UNL A   1      43.795  24.462  25.157  1.00  0.00     0.338 C 
ATOM     27  O   UNL A   1      44.839  24.811  24.626  1.00  0.00    -0.246 OA
BRANCH  26  28
ATOM     28  C   UNL A   1      43.079  25.317  26.122  1.00  0.00     0.060 A 
ATOM     29  C   UNL A   1      43.622  26.580  26.391  1.00  0.00     0.016 A 
ATOM     30  C   UNL A   1      41.942  24.875  26.803  1.00  0.00     0.016 A 
ATOM     31  C   UNL A   1      43.063  27.386  27.379  1.00  0.00     0.010 A 
ATOM     32  C   UNL A   1      41.387  25.681  27.802  1.00  0.00     0.010 A 
ATOM     33  C   UNL A   1      41.966  26.924  28.119  1.00  0.00    -0.014 A 
BRANCH  33  34
ATOM     34  C   UNL A   1      41.526  27.676  29.320  1.00  0.00     0.031 A 
ATOM     35  C   UNL A   1      40.283  28.518  29.236  1.00  0.00     0.074 A 
ATOM     36  C   UNL A   1      42.204  27.583  30.478  1.00  0.00     0.049 A 
ATOM     37  N   UNL A   1      39.734  29.283  30.144  1.00  0.00    -0.248 NA
ATOM     38  C   UNL A   1      39.561  28.494  27.953  1.00  0.00     0.031 C 
ATOM     39  C   UNL A   1      43.397  26.769  30.693  1.00  0.00     0.029 A 
ATOM     40  N   UNL A   1      41.984  28.191  31.689  1.00  0.00    -0.354 N 
ATOM     41  C   UNL A   1      38.608  29.832  29.545  1.00  0.00     0.074 A 
ATOM     42  C   UNL A   1      38.567  29.338  28.186  1.00  0.00     0.031 C 
ATOM     43  C   UNL A   1      43.815  26.938  31.960  1.00  0.00     0.029 A 
ATOM     44  C   UNL A   1      42.936  27.894  32.632  1.00  0.00     0.049 A 
ATOM     45  H   UNL A   1      41.217  28.782  31.864  1.00  0.00     0.167 HD
ATOM     46  C   UNL A   1      37.686  30.665  30.084  1.00  0.00     0.037 A 
ATOM     47  C   UNL A   1      43.090  28.361  33.887  1.00  0.00     0.037 A 
ATOM     48  C   UNL A   1      37.727  31.156  31.436  1.00  0.00     0.049 A 
ATOM     49  C   UNL A   1      42.088  29.343  34.438  1.00  0.00     0.074 A 
ATOM     50  C   UNL A   1      36.832  31.995  32.078  1.00  0.00     0.029 A 
ATOM     51  N   UNL A   1      38.721  30.853  32.354  1.00  0.00    -0.354 N 
ATOM     52  N   UNL A   1      41.014  29.837  33.873  1.00  0.00    -0.248 NA
ATOM     53  C   UNL A   1      42.320  29.828  35.807  1.00  0.00     0.031 C 
ATOM     54  C   UNL A   1      37.310  32.236  33.370  1.00  0.00     0.029 A 
ATOM     55  C   UNL A   1      38.474  31.507  33.550  1.00  0.00     0.049 A 
ATOM     56  H   UNL A   1      39.490  30.261  32.181  1.00  0.00     0.167 HD
ATOM     57  C   UNL A   1      40.429  30.666  34.823  1.00  0.00     0.074 A 
ATOM     58  C   UNL A   1      41.258  30.596  36.006  1.00  0.00     0.031 C 
ATOM     59  C   UNL A   1      39.304  31.416  34.724  1.00  0.00     0.037 A 
BRANCH  46  60
ATOM     60  C   UNL A   1      36.558  31.115  29.203  1.00  0.00     0.064 A 
ATOM     61  C   UNL A   1      35.528  30.243  28.822  1.00  0.00     0.173 A 
ATOM     62  C   UNL A   1      36.482  32.449  28.774  1.00  0.00     0.173 A 
ATOM     63  F   UNL A   1      35.563  28.955  29.196  1.00  0.00    -0.203 F 
ATOM     64  C   UNL A   1      34.472  30.685  28.030  1.00  0.00     0.198 A 
ATOM     65  C   UNL A   1      35.411  32.894  28.003  1.00  0.00     0.198 A 
ATOM     66  F   UNL A   1      37.440  33.326  29.113  1.00  0.00    -0.203 F 
ATOM     67  F   UNL A   1      33.519  29.824  27.647  1.00  0.00    -0.200 F 
ATOM     68  C   UNL A   1      34.410  32.010  27.627  1.00  0.00     0.200 A 
ATOM     69  F   UNL A   1      35.347  34.178  27.625  1.00  0.00    -0.200 F 
ATOM     70  F   UNL A   1      33.387  32.436  26.873  1.00  0.00    -0.200 F 
ENDBRANCH  46  60
BRANCH  47  71
ATOM     71  C   UNL A   1      44.250  27.923  34.708  1.00  0.00     0.064 A 
ATOM     72  C   UNL A   1      44.126  26.883  35.641  1.00  0.00     0.173 A 
ATOM     73  C   UNL A   1      45.495  28.558  34.600  1.00  0.00     0.173 A 
ATOM     74  F   UNL A   1      42.948  26.263  35.799  1.00  0.00    -0.203 F 
ATOM     75  C   UNL A   1      45.198  26.512  36.450  1.00  0.00     0.198 A 
ATOM     76  C   UNL A   1      46.574  28.167  35.390  1.00  0.00     0.198 A 
ATOM     77  F   UNL A   1      45.665  29.560  33.725  1.00  0.00    -0.203 F 
ATOM     78  F   UNL A   1      45.037  25.552  37.370  1.00  0.00    -0.200 F 
ATOM     79  C   UNL A   1      46.421  27.151  36.321  1.00  0.00     0.200 A 
ATOM     80  F   UNL A   1      47.758  28.778  35.254  1.00  0.00    -0.200 F 
ATOM     81  F   UNL A   1      47.451  26.794  37.101  1.00  0.00    -0.200 F 
ENDBRANCH  47  71
BRANCH  59  82
ATOM     82  C   UNL A   1      38.880  32.191  35.938  1.00  0.00     0.064 A 
ATOM     83  C   UNL A   1      38.153  31.592  36.977  1.00  0.00     0.173 A 
ATOM     84  C   UNL A   1      39.245  33.539  36.082  1.00  0.00     0.173 A 
ATOM     85  F   UNL A   1      37.769  30.310  36.881  1.00  0.00    -0.203 F 
ATOM     86  C   UNL A   1      37.785  32.322  38.105  1.00  0.00     0.198 A 
ATOM     87  C   UNL A   1      38.900  34.256  37.224  1.00  0.00     0.198 A 
ATOM     88  F   UNL A   1      39.947  34.156  35.121  1.00  0.00    -0.203 F 
ATOM     89  F   UNL A   1      37.051  31.742  39.065  1.00  0.00    -0.200 F 
ATOM     90  C   UNL A   1      38.165  33.650  38.231  1.00  0.00     0.200 A 
ATOM     91  F   UNL A   1      39.281  35.535  37.350  1.00  0.00    -0.200 F 
ATOM     92  F   UNL A   1      37.816  34.348  39.321  1.00  0.00    -0.200 F 
ENDBRANCH  59  82
ENDBRANCH  33  34
ENDBRANCH  26  28
ENDBRANCH  25  26
ENDBRANCH  24  25
ENDBRANCH  23  24
ENDBRANCH   1  23
TORSDOF 17
ENDMDL
