MODEL 1
REMARK VINA RESULT:     -12.2      0.000      0.000
REMARK SMILES O=C(CCOc1cc(-c2ccncc2)nc(-c2ccc(C(F)(F)F)cc2)n1)OCCOCCOC(=O)c1ccc(-c2c3nc(c(-c4c(F)c(F)c(F)c(F)c4F)c4ccc([nH]4)c(-c4c(F)c(F)c(F)c(F)c4F)c4nc(c(-c5c(F)c(F)c(F)c(F)c5F)c5ccc2[nH]5)C=C4)C=C3)cc1
REMARK SMILES IDX 29 1 28 2 2 3 1 4 3 5 4 6 5 7 6 8 7 9 27 10 8 11 16 12 15 13
REMARK SMILES IDX 9 14 10 15 14 16 11 17 13 18 12 19 17 20 18 21 26 22 19 23
REMARK SMILES IDX 25 24 20 25 21 26 22 27 23 28 24 29 30 30 31 31 32 32 33 33
REMARK SMILES IDX 34 34 35 35 36 36 37 37 38 38 99 39 39 40 98 41 40 42 41 43
REMARK SMILES IDX 42 44 92 45 43 46 97 47 91 48 93 49 44 50 96 51 90 52 89 53
REMARK SMILES IDX 45 55 77 56 57 57 76 58 58 59 61 60 75 61 94 62 59 63 60 64
REMARK SMILES IDX 74 66 95 67 62 68 46 69 47 70 55 71 48 72 49 73 53 74 56 75
REMARK SMILES IDX 50 76 51 77 54 78 52 79 78 80 79 81 87 82 80 83 81 84 85 85
REMARK SMILES IDX 88 86 82 87 83 88 86 89 84 90 63 91 64 92 72 93 65 94 66 95
REMARK SMILES IDX 70 96 73 97 67 98 68 99 71 100 69 101
REMARK H PARENT 93 54 61 65
REMARK Flexibility Score: inf
ROOT
ATOM      1  C   UNL A   1      33.279  26.856  24.017  1.00  0.00     0.261 C 
ENDROOT
BRANCH   1   2
ATOM      2  O   UNL A   1      33.728  26.149  22.854  1.00  0.00    -0.463 OA
BRANCH   2   3
ATOM      3  C   UNL A   1      32.921  25.435  22.035  1.00  0.00     0.309 C 
ATOM      4  O   UNL A   1      33.039  25.547  20.815  1.00  0.00    -0.252 OA
BRANCH   3   5
ATOM      5  C   UNL A   1      31.987  24.419  22.616  1.00  0.00     0.164 C 
BRANCH   5   6
ATOM      6  C   UNL A   1      32.479  23.012  22.291  1.00  0.00     0.243 C 
BRANCH   6   7
ATOM      7  O   UNL A   1      32.027  22.017  23.211  1.00  0.00    -0.477 OA
BRANCH   7   8
ATOM      8  C   UNL A   1      32.924  21.261  23.907  1.00  0.00     0.217 A 
ATOM      9  C   UNL A   1      32.719  19.982  24.359  1.00  0.00     0.097 A 
ATOM     10  N   UNL A   1      34.103  21.877  24.043  1.00  0.00    -0.193 NA
ATOM     11  C   UNL A   1      33.847  19.275  24.731  1.00  0.00     0.078 A 
ATOM     12  C   UNL A   1      35.108  21.159  24.568  1.00  0.00     0.163 A 
ATOM     13  N   UNL A   1      35.060  19.846  24.843  1.00  0.00    -0.228 NA
BRANCH  11  14
ATOM     14  C   UNL A   1      33.786  17.819  24.879  1.00  0.00     0.003 A 
ATOM     15  C   UNL A   1      32.582  17.212  25.252  1.00  0.00     0.030 A 
ATOM     16  C   UNL A   1      34.919  17.012  24.756  1.00  0.00     0.030 A 
ATOM     17  C   UNL A   1      32.564  15.851  25.501  1.00  0.00     0.111 A 
ATOM     18  C   UNL A   1      34.798  15.655  25.015  1.00  0.00     0.111 A 
ATOM     19  N   UNL A   1      33.647  15.057  25.387  1.00  0.00    -0.265 NA
ENDBRANCH  11  14
BRANCH  12  20
ATOM     20  C   UNL A   1      36.238  21.913  25.108  1.00  0.00     0.019 A 
ATOM     21  C   UNL A   1      36.017  23.214  25.593  1.00  0.00     0.012 A 
ATOM     22  C   UNL A   1      37.528  21.377  25.212  1.00  0.00     0.012 A 
ATOM     23  C   UNL A   1      37.035  23.940  26.208  1.00  0.00     0.014 A 
ATOM     24  C   UNL A   1      38.557  22.109  25.817  1.00  0.00     0.014 A 
ATOM     25  C   UNL A   1      38.313  23.387  26.341  1.00  0.00     0.056 A 
BRANCH  25  26
ATOM     26  C   UNL A   1      39.384  24.166  27.059  1.00  0.00     0.416 C 
ATOM     27  F   UNL A   1      40.052  25.029  26.251  1.00  0.00    -0.166 F 
ATOM     28  F   UNL A   1      38.870  24.916  28.076  1.00  0.00    -0.166 F 
ATOM     29  F   UNL A   1      40.327  23.372  27.636  1.00  0.00    -0.166 F 
ENDBRANCH  25  26
ENDBRANCH  12  20
ENDBRANCH   7   8
ENDBRANCH   6   7
ENDBRANCH   5   6
ENDBRANCH   3   5
ENDBRANCH   2   3
ENDBRANCH   1   2
BRANCH   1  30
ATOM     30  C   UNL A   1      33.774  28.306  24.087  1.00  0.00     0.202 C 
BRANCH  30  31
ATOM     31  O   UNL A   1      32.810  29.345  24.031  1.00  0.00    -0.374 OA
BRANCH  31  32
ATOM     32  C   UNL A   1      31.778  29.407  25.019  1.00  0.00     0.202 C 
BRANCH  32  33
ATOM     33  C   UNL A   1      31.770  30.523  26.072  1.00  0.00     0.261 C 
BRANCH  33  34
ATOM     34  O   UNL A   1      32.731  30.363  27.132  1.00  0.00    -0.460 OA
BRANCH  34  35
ATOM     35  C   UNL A   1      33.420  31.490  27.437  1.00  0.00     0.338 C 
ATOM     36  O   UNL A   1      32.997  32.630  27.489  1.00  0.00    -0.246 OA
BRANCH  35  37
ATOM     37  C   UNL A   1      34.808  31.166  27.799  1.00  0.00     0.060 A 
ATOM     38  C   UNL A   1      35.125  29.842  28.121  1.00  0.00     0.016 A 
ATOM     39  C   UNL A   1      35.730  32.193  28.004  1.00  0.00     0.016 A 
ATOM     40  C   UNL A   1      36.360  29.549  28.702  1.00  0.00     0.010 A 
ATOM     41  C   UNL A   1      36.967  31.898  28.581  1.00  0.00     0.010 A 
ATOM     42  C   UNL A   1      37.268  30.583  28.978  1.00  0.00    -0.014 A 
BRANCH  42  43
ATOM     43  C   UNL A   1      38.445  30.320  29.843  1.00  0.00     0.031 A 
ATOM     44  C   UNL A   1      39.603  29.543  29.279  1.00  0.00     0.074 A 
ATOM     45  C   UNL A   1      38.484  30.764  31.111  1.00  0.00     0.049 A 
ATOM     46  N   UNL A   1      40.715  29.168  29.859  1.00  0.00    -0.248 NA
ATOM     47  C   UNL A   1      39.480  29.109  27.878  1.00  0.00     0.031 C 
ATOM     48  C   UNL A   1      37.409  31.496  31.772  1.00  0.00     0.029 A 
ATOM     49  N   UNL A   1      39.463  30.663  32.066  1.00  0.00    -0.354 N 
ATOM     50  C   UNL A   1      41.401  28.421  28.911  1.00  0.00     0.074 A 
ATOM     51  C   UNL A   1      40.584  28.394  27.718  1.00  0.00     0.031 C 
ATOM     52  C   UNL A   1      37.801  31.808  33.020  1.00  0.00     0.029 A 
ATOM     53  C   UNL A   1      39.140  31.274  33.254  1.00  0.00     0.049 A 
ATOM     54  H   UNL A   1      40.317  30.195  31.915  1.00  0.00     0.167 HD
ATOM     55  C   UNL A   1      42.601  27.804  29.030  1.00  0.00     0.037 A 
ATOM     56  C   UNL A   1      39.848  31.381  34.397  1.00  0.00     0.037 A 
ATOM     57  C   UNL A   1      43.419  27.844  30.214  1.00  0.00     0.049 A 
ATOM     58  C   UNL A   1      41.199  30.712  34.486  1.00  0.00     0.074 A 
ATOM     59  C   UNL A   1      44.660  27.270  30.427  1.00  0.00     0.029 A 
ATOM     60  N   UNL A   1      43.073  28.496  31.388  1.00  0.00    -0.354 N 
ATOM     61  N   UNL A   1      41.858  30.043  33.570  1.00  0.00    -0.248 NA
ATOM     62  C   UNL A   1      41.895  30.797  35.778  1.00  0.00     0.031 C 
ATOM     63  C   UNL A   1      45.046  27.540  31.744  1.00  0.00     0.029 A 
ATOM     64  C   UNL A   1      44.069  28.322  32.336  1.00  0.00     0.049 A 
ATOM     65  H   UNL A   1      42.243  29.008  31.527  1.00  0.00     0.167 HD
ATOM     66  C   UNL A   1      43.042  29.636  34.171  1.00  0.00     0.074 A 
ATOM     67  C   UNL A   1      43.033  30.169  35.517  1.00  0.00     0.031 C 
ATOM     68  C   UNL A   1      44.040  28.870  33.667  1.00  0.00     0.037 A 
BRANCH  55  69
ATOM     69  C   UNL A   1      43.083  26.998  27.861  1.00  0.00     0.064 A 
ATOM     70  C   UNL A   1      43.774  27.584  26.790  1.00  0.00     0.173 A 
ATOM     71  C   UNL A   1      42.866  25.611  27.821  1.00  0.00     0.173 A 
ATOM     72  F   UNL A   1      43.993  28.908  26.772  1.00  0.00    -0.203 F 
ATOM     73  C   UNL A   1      44.205  26.817  25.711  1.00  0.00     0.198 A 
ATOM     74  C   UNL A   1      43.323  24.844  26.754  1.00  0.00     0.198 A 
ATOM     75  F   UNL A   1      42.213  25.001  28.821  1.00  0.00    -0.203 F 
ATOM     76  F   UNL A   1      44.820  27.406  24.675  1.00  0.00    -0.200 F 
ATOM     77  C   UNL A   1      43.985  25.447  25.696  1.00  0.00     0.200 A 
ATOM     78  F   UNL A   1      43.119  23.519  26.747  1.00  0.00    -0.200 F 
ATOM     79  F   UNL A   1      44.404  24.711  24.658  1.00  0.00    -0.200 F 
ENDBRANCH  55  69
BRANCH  56  80
ATOM     80  C   UNL A   1      39.315  32.152  35.555  1.00  0.00     0.064 A 
ATOM     81  C   UNL A   1      39.648  33.504  35.727  1.00  0.00     0.173 A 
ATOM     82  C   UNL A   1      38.508  31.556  36.535  1.00  0.00     0.173 A 
ATOM     83  F   UNL A   1      40.433  34.118  34.828  1.00  0.00    -0.203 F 
ATOM     84  C   UNL A   1      39.224  34.217  36.846  1.00  0.00     0.198 A 
ATOM     85  C   UNL A   1      38.046  32.283  37.631  1.00  0.00     0.198 A 
ATOM     86  F   UNL A   1      38.166  30.263  36.428  1.00  0.00    -0.203 F 
ATOM     87  F   UNL A   1      39.606  35.491  37.010  1.00  0.00    -0.200 F 
ATOM     88  C   UNL A   1      38.415  33.609  37.793  1.00  0.00     0.200 A 
ATOM     89  F   UNL A   1      37.254  31.693  38.537  1.00  0.00    -0.200 F 
ATOM     90  F   UNL A   1      37.998  34.297  38.865  1.00  0.00    -0.200 F 
ENDBRANCH  56  80
BRANCH  68  91
ATOM     91  C   UNL A   1      45.204  28.576  34.569  1.00  0.00     0.064 A 
ATOM     92  C   UNL A   1      46.338  29.401  34.593  1.00  0.00     0.173 A 
ATOM     93  C   UNL A   1      45.169  27.480  35.446  1.00  0.00     0.173 A 
ATOM     94  F   UNL A   1      46.425  30.453  33.765  1.00  0.00    -0.203 F 
ATOM     95  C   UNL A   1      47.406  29.126  35.442  1.00  0.00     0.198 A 
ATOM     96  C   UNL A   1      46.226  27.225  36.314  1.00  0.00     0.198 A 
ATOM     97  F   UNL A   1      44.104  26.666  35.466  1.00  0.00    -0.203 F 
ATOM     98  F   UNL A   1      48.499  29.901  35.415  1.00  0.00    -0.200 F 
ATOM     99  C   UNL A   1      47.347  28.042  36.307  1.00  0.00     0.200 A 
ATOM    100  F   UNL A   1      46.162  26.185  37.157  1.00  0.00    -0.200 F 
ATOM    101  F   UNL A   1      48.372  27.781  37.128  1.00  0.00    -0.200 F 
ENDBRANCH  68  91
ENDBRANCH  42  43
ENDBRANCH  35  37
ENDBRANCH  34  35
ENDBRANCH  33  34
ENDBRANCH  32  33
ENDBRANCH  31  32
ENDBRANCH  30  31
ENDBRANCH   1  30
TORSDOF 20
ENDMDL
MODEL 2
REMARK VINA RESULT:     -12.1      4.385     10.087
REMARK SMILES O=C(CCOc1cc(-c2ccncc2)nc(-c2ccc(C(F)(F)F)cc2)n1)OCCOCCOC(=O)c1ccc(-c2c3nc(c(-c4c(F)c(F)c(F)c(F)c4F)c4ccc([nH]4)c(-c4c(F)c(F)c(F)c(F)c4F)c4nc(c(-c5c(F)c(F)c(F)c(F)c5F)c5ccc2[nH]5)C=C4)C=C3)cc1
REMARK SMILES IDX 29 1 28 2 2 3 1 4 3 5 4 6 5 7 6 8 7 9 27 10 8 11 16 12 15 13
REMARK SMILES IDX 9 14 10 15 14 16 11 17 13 18 12 19 17 20 18 21 26 22 19 23
REMARK SMILES IDX 25 24 20 25 21 26 22 27 23 28 24 29 30 30 31 31 32 32 33 33
REMARK SMILES IDX 34 34 35 35 36 36 37 37 38 38 99 39 39 40 98 41 40 42 41 43
REMARK SMILES IDX 42 44 92 45 43 46 97 47 91 48 93 49 44 50 96 51 90 52 89 53
REMARK SMILES IDX 45 55 77 56 57 57 76 58 58 59 61 60 75 61 94 62 59 63 60 64
REMARK SMILES IDX 74 66 95 67 62 68 46 69 47 70 55 71 48 72 49 73 53 74 56 75
REMARK SMILES IDX 50 76 51 77 54 78 52 79 78 80 79 81 87 82 80 83 81 84 85 85
REMARK SMILES IDX 88 86 82 87 83 88 86 89 84 90 63 91 64 92 72 93 65 94 66 95
REMARK SMILES IDX 70 96 73 97 67 98 68 99 71 100 69 101
REMARK H PARENT 93 54 61 65
REMARK Flexibility Score: inf
ROOT
ATOM      1  C   UNL A   1      34.044  23.516  25.503  1.00  0.00     0.261 C 
ENDROOT
BRANCH   1   2
ATOM      2  O   UNL A   1      33.019  24.466  25.817  1.00  0.00    -0.463 OA
BRANCH   2   3
ATOM      3  C   UNL A   1      31.730  24.143  26.072  1.00  0.00     0.309 C 
ATOM      4  O   UNL A   1      31.293  24.233  27.219  1.00  0.00    -0.252 OA
BRANCH   3   5
ATOM      5  C   UNL A   1      30.811  23.808  24.937  1.00  0.00     0.164 C 
BRANCH   5   6
ATOM      6  C   UNL A   1      30.951  24.847  23.828  1.00  0.00     0.243 C 
BRANCH   6   7
ATOM      7  O   UNL A   1      29.924  25.840  23.836  1.00  0.00    -0.477 OA
BRANCH   7   8
ATOM      8  C   UNL A   1      30.244  27.165  23.880  1.00  0.00     0.217 A 
ATOM      9  C   UNL A   1      29.775  28.134  23.029  1.00  0.00     0.097 A 
ATOM     10  N   UNL A   1      31.028  27.460  24.922  1.00  0.00    -0.193 NA
ATOM     11  C   UNL A   1      29.939  29.443  23.441  1.00  0.00     0.078 A 
ATOM     12  C   UNL A   1      31.269  28.760  25.154  1.00  0.00     0.163 A 
ATOM     13  N   UNL A   1      30.687  29.783  24.508  1.00  0.00    -0.228 NA
BRANCH  11  14
ATOM     14  C   UNL A   1      29.172  30.516  22.805  1.00  0.00     0.003 A 
ATOM     15  C   UNL A   1      28.730  30.361  21.486  1.00  0.00     0.030 A 
ATOM     16  C   UNL A   1      28.945  31.742  23.435  1.00  0.00     0.030 A 
ATOM     17  C   UNL A   1      28.107  31.424  20.856  1.00  0.00     0.111 A 
ATOM     18  C   UNL A   1      28.302  32.744  22.723  1.00  0.00     0.111 A 
ATOM     19  N   UNL A   1      27.880  32.613  21.448  1.00  0.00    -0.265 NA
ENDBRANCH  11  14
BRANCH  12  20
ATOM     20  C   UNL A   1      32.428  29.071  25.988  1.00  0.00     0.019 A 
ATOM     21  C   UNL A   1      33.540  28.211  25.955  1.00  0.00     0.012 A 
ATOM     22  C   UNL A   1      32.503  30.221  26.785  1.00  0.00     0.012 A 
ATOM     23  C   UNL A   1      34.708  28.511  26.653  1.00  0.00     0.014 A 
ATOM     24  C   UNL A   1      33.670  30.519  27.499  1.00  0.00     0.014 A 
ATOM     25  C   UNL A   1      34.790  29.678  27.420  1.00  0.00     0.056 A 
BRANCH  25  26
ATOM     26  C   UNL A   1      36.081  30.012  28.121  1.00  0.00     0.416 C 
ATOM     27  F   UNL A   1      36.034  29.798  29.462  1.00  0.00    -0.166 F 
ATOM     28  F   UNL A   1      37.121  29.265  27.652  1.00  0.00    -0.166 F 
ATOM     29  F   UNL A   1      36.462  31.308  27.952  1.00  0.00    -0.166 F 
ENDBRANCH  25  26
ENDBRANCH  12  20
ENDBRANCH   7   8
ENDBRANCH   6   7
ENDBRANCH   5   6
ENDBRANCH   3   5
ENDBRANCH   2   3
ENDBRANCH   1   2
BRANCH   1  30
ATOM     30  C   UNL A   1      35.444  24.132  25.387  1.00  0.00     0.202 C 
BRANCH  30  31
ATOM     31  O   UNL A   1      36.293  23.672  24.348  1.00  0.00    -0.374 OA
BRANCH  31  32
ATOM     32  C   UNL A   1      36.334  22.278  24.033  1.00  0.00     0.202 C 
BRANCH  32  33
ATOM     33  C   UNL A   1      37.409  21.369  24.643  1.00  0.00     0.261 C 
BRANCH  33  34
ATOM     34  O   UNL A   1      37.806  21.716  25.984  1.00  0.00    -0.460 OA
BRANCH  34  35
ATOM     35  C   UNL A   1      39.141  21.634  26.210  1.00  0.00     0.338 C 
ATOM     36  O   UNL A   1      39.902  20.750  25.862  1.00  0.00    -0.246 OA
BRANCH  35  37
ATOM     37  C   UNL A   1      39.624  22.842  26.895  1.00  0.00     0.060 A 
ATOM     38  C   UNL A   1      39.063  24.077  26.554  1.00  0.00     0.016 A 
ATOM     39  C   UNL A   1      40.748  22.769  27.719  1.00  0.00     0.016 A 
ATOM     40  C   UNL A   1      39.663  25.255  27.000  1.00  0.00     0.010 A 
ATOM     41  C   UNL A   1      41.345  23.950  28.168  1.00  0.00     0.010 A 
ATOM     42  C   UNL A   1      40.834  25.198  27.771  1.00  0.00    -0.014 A 
BRANCH  42  43
ATOM     43  C   UNL A   1      41.626  26.432  28.003  1.00  0.00     0.031 A 
ATOM     44  C   UNL A   1      41.037  27.524  28.853  1.00  0.00     0.074 A 
ATOM     45  C   UNL A   1      42.850  26.580  27.467  1.00  0.00     0.049 A 
ATOM     46  N   UNL A   1      41.531  28.697  29.161  1.00  0.00    -0.248 NA
ATOM     47  C   UNL A   1      39.699  27.270  29.410  1.00  0.00     0.031 C 
ATOM     48  C   UNL A   1      43.506  25.604  26.603  1.00  0.00     0.029 A 
ATOM     49  N   UNL A   1      43.755  27.605  27.570  1.00  0.00    -0.354 N 
ATOM     50  C   UNL A   1      40.550  29.334  29.909  1.00  0.00     0.074 A 
ATOM     51  C   UNL A   1      39.432  28.421  30.010  1.00  0.00     0.031 C 
ATOM     52  C   UNL A   1      44.726  26.065  26.278  1.00  0.00     0.029 A 
ATOM     53  C   UNL A   1      44.927  27.377  26.888  1.00  0.00     0.049 A 
ATOM     54  H   UNL A   1      43.582  28.427  28.083  1.00  0.00     0.167 HD
ATOM     55  C   UNL A   1      40.577  30.574  30.454  1.00  0.00     0.037 A 
ATOM     56  C   UNL A   1      46.027  28.147  26.770  1.00  0.00     0.037 A 
ATOM     57  C   UNL A   1      41.696  31.474  30.364  1.00  0.00     0.049 A 
ATOM     58  C   UNL A   1      46.040  29.510  27.419  1.00  0.00     0.074 A 
ATOM     59  C   UNL A   1      41.829  32.743  30.900  1.00  0.00     0.029 A 
ATOM     60  N   UNL A   1      42.876  31.199  29.690  1.00  0.00    -0.354 N 
ATOM     61  N   UNL A   1      45.124  30.086  28.160  1.00  0.00    -0.248 NA
ATOM     62  C   UNL A   1      47.234  30.338  27.197  1.00  0.00     0.031 C 
ATOM     63  C   UNL A   1      43.074  33.252  30.515  1.00  0.00     0.029 A 
ATOM     64  C   UNL A   1      43.735  32.282  29.780  1.00  0.00     0.049 A 
ATOM     65  H   UNL A   1      43.073  30.358  29.218  1.00  0.00     0.167 HD
ATOM     66  C   UNL A   1      45.633  31.335  28.495  1.00  0.00     0.074 A 
ATOM     67  C   UNL A   1      46.956  31.417  27.915  1.00  0.00     0.031 C 
ATOM     68  C   UNL A   1      45.051  32.336  29.200  1.00  0.00     0.037 A 
BRANCH  55  69
ATOM     69  C   UNL A   1      39.341  31.043  31.162  1.00  0.00     0.064 A 
ATOM     70  C   UNL A   1      38.391  31.862  30.533  1.00  0.00     0.173 A 
ATOM     71  C   UNL A   1      39.094  30.650  32.487  1.00  0.00     0.173 A 
ATOM     72  F   UNL A   1      38.588  32.278  29.273  1.00  0.00    -0.203 F 
ATOM     73  C   UNL A   1      37.254  32.291  31.213  1.00  0.00     0.198 A 
ATOM     74  C   UNL A   1      37.942  31.059  33.154  1.00  0.00     0.198 A 
ATOM     75  F   UNL A   1      39.968  29.865  33.134  1.00  0.00    -0.203 F 
ATOM     76  F   UNL A   1      36.385  33.114  30.608  1.00  0.00    -0.200 F 
ATOM     77  C   UNL A   1      37.028  31.886  32.520  1.00  0.00     0.200 A 
ATOM     78  F   UNL A   1      37.720  30.657  34.413  1.00  0.00    -0.200 F 
ATOM     79  F   UNL A   1      35.932  32.298  33.171  1.00  0.00    -0.200 F 
ENDBRANCH  55  69
BRANCH  56  80
ATOM     80  C   UNL A   1      47.219  27.664  26.017  1.00  0.00     0.064 A 
ATOM     81  C   UNL A   1      47.305  27.837  24.627  1.00  0.00     0.173 A 
ATOM     82  C   UNL A   1      48.269  26.983  26.649  1.00  0.00     0.173 A 
ATOM     83  F   UNL A   1      46.318  28.465  23.971  1.00  0.00    -0.203 F 
ATOM     84  C   UNL A   1      48.374  27.320  23.898  1.00  0.00     0.198 A 
ATOM     85  C   UNL A   1      49.361  26.506  25.925  1.00  0.00     0.198 A 
ATOM     86  F   UNL A   1      48.237  26.779  27.974  1.00  0.00    -0.203 F 
ATOM     87  F   UNL A   1      48.398  27.453  22.565  1.00  0.00    -0.200 F 
ATOM     88  C   UNL A   1      49.406  26.663  24.548  1.00  0.00     0.200 A 
ATOM     89  F   UNL A   1      50.363  25.883  26.560  1.00  0.00    -0.200 F 
ATOM     90  F   UNL A   1      50.440  26.175  23.849  1.00  0.00    -0.200 F 
ENDBRANCH  56  80
BRANCH  68  91
ATOM     91  C   UNL A   1      45.848  33.595  29.389  1.00  0.00     0.064 A 
ATOM     92  C   UNL A   1      45.749  34.667  28.489  1.00  0.00     0.173 A 
ATOM     93  C   UNL A   1      46.691  33.746  30.501  1.00  0.00     0.173 A 
ATOM     94  F   UNL A   1      44.967  34.566  27.404  1.00  0.00    -0.203 F 
ATOM     95  C   UNL A   1      46.484  35.833  28.681  1.00  0.00     0.198 A 
ATOM     96  C   UNL A   1      47.403  34.925  30.704  1.00  0.00     0.198 A 
ATOM     97  F   UNL A   1      46.816  32.754  31.395  1.00  0.00    -0.203 F 
ATOM     98  F   UNL A   1      46.409  36.825  27.783  1.00  0.00    -0.200 F 
ATOM     99  C   UNL A   1      47.305  35.964  29.792  1.00  0.00     0.200 A 
ATOM    100  F   UNL A   1      48.186  35.056  31.785  1.00  0.00    -0.200 F 
ATOM    101  F   UNL A   1      48.007  37.089  29.978  1.00  0.00    -0.200 F 
ENDBRANCH  68  91
ENDBRANCH  42  43
ENDBRANCH  35  37
ENDBRANCH  34  35
ENDBRANCH  33  34
ENDBRANCH  32  33
ENDBRANCH  31  32
ENDBRANCH  30  31
ENDBRANCH   1  30
TORSDOF 20
ENDMDL
MODEL 3
REMARK VINA RESULT:     -12.1      4.397      7.849
REMARK SMILES O=C(CCOc1cc(-c2ccncc2)nc(-c2ccc(C(F)(F)F)cc2)n1)OCCOCCOC(=O)c1ccc(-c2c3nc(c(-c4c(F)c(F)c(F)c(F)c4F)c4ccc([nH]4)c(-c4c(F)c(F)c(F)c(F)c4F)c4nc(c(-c5c(F)c(F)c(F)c(F)c5F)c5ccc2[nH]5)C=C4)C=C3)cc1
REMARK SMILES IDX 29 1 28 2 2 3 1 4 3 5 4 6 5 7 6 8 7 9 27 10 8 11 16 12 15 13
REMARK SMILES IDX 9 14 10 15 14 16 11 17 13 18 12 19 17 20 18 21 26 22 19 23
REMARK SMILES IDX 25 24 20 25 21 26 22 27 23 28 24 29 30 30 31 31 32 32 33 33
REMARK SMILES IDX 34 34 35 35 36 36 37 37 38 38 99 39 39 40 98 41 40 42 41 43
REMARK SMILES IDX 42 44 92 45 43 46 97 47 91 48 93 49 44 50 96 51 90 52 89 53
REMARK SMILES IDX 45 55 77 56 57 57 76 58 58 59 61 60 75 61 94 62 59 63 60 64
REMARK SMILES IDX 74 66 95 67 62 68 46 69 47 70 55 71 48 72 49 73 53 74 56 75
REMARK SMILES IDX 50 76 51 77 54 78 52 79 78 80 79 81 87 82 80 83 81 84 85 85
REMARK SMILES IDX 88 86 82 87 83 88 86 89 84 90 63 91 64 92 72 93 65 94 66 95
REMARK SMILES IDX 70 96 73 97 67 98 68 99 71 100 69 101
REMARK H PARENT 93 54 61 65
REMARK Flexibility Score: inf
ROOT
ATOM      1  C   UNL A   1      34.021  23.483  25.381  1.00  0.00     0.261 C 
ENDROOT
BRANCH   1   2
ATOM      2  O   UNL A   1      33.026  24.453  25.731  1.00  0.00    -0.463 OA
BRANCH   2   3
ATOM      3  C   UNL A   1      31.727  24.162  25.975  1.00  0.00     0.309 C 
ATOM      4  O   UNL A   1      31.288  24.241  27.121  1.00  0.00    -0.252 OA
BRANCH   3   5
ATOM      5  C   UNL A   1      30.804  23.878  24.829  1.00  0.00     0.164 C 
BRANCH   5   6
ATOM      6  C   UNL A   1      30.987  24.930  23.739  1.00  0.00     0.243 C 
BRANCH   6   7
ATOM      7  O   UNL A   1      29.952  25.915  23.708  1.00  0.00    -0.477 OA
BRANCH   7   8
ATOM      8  C   UNL A   1      30.260  27.242  23.774  1.00  0.00     0.217 A 
ATOM      9  C   UNL A   1      29.781  28.221  22.941  1.00  0.00     0.097 A 
ATOM     10  N   UNL A   1      31.041  27.527  24.822  1.00  0.00    -0.193 NA
ATOM     11  C   UNL A   1      29.932  29.524  23.375  1.00  0.00     0.078 A 
ATOM     12  C   UNL A   1      31.270  28.825  25.075  1.00  0.00     0.163 A 
ATOM     13  N   UNL A   1      30.677  29.853  24.447  1.00  0.00    -0.228 NA
BRANCH  11  14
ATOM     14  C   UNL A   1      29.155  30.600  22.757  1.00  0.00     0.003 A 
ATOM     15  C   UNL A   1      28.645  30.430  21.465  1.00  0.00     0.030 A 
ATOM     16  C   UNL A   1      28.983  31.842  23.373  1.00  0.00     0.030 A 
ATOM     17  C   UNL A   1      28.012  31.493  20.846  1.00  0.00     0.111 A 
ATOM     18  C   UNL A   1      28.324  32.843  22.675  1.00  0.00     0.111 A 
ATOM     19  N   UNL A   1      27.837  32.698  21.425  1.00  0.00    -0.265 NA
ENDBRANCH  11  14
BRANCH  12  20
ATOM     20  C   UNL A   1      32.426  29.133  25.915  1.00  0.00     0.019 A 
ATOM     21  C   UNL A   1      33.532  28.264  25.894  1.00  0.00     0.012 A 
ATOM     22  C   UNL A   1      32.504  30.287  26.704  1.00  0.00     0.012 A 
ATOM     23  C   UNL A   1      34.698  28.561  26.598  1.00  0.00     0.014 A 
ATOM     24  C   UNL A   1      33.669  30.582  27.424  1.00  0.00     0.014 A 
ATOM     25  C   UNL A   1      34.784  29.732  27.357  1.00  0.00     0.056 A 
BRANCH  25  26
ATOM     26  C   UNL A   1      36.073  30.061  28.064  1.00  0.00     0.416 C 
ATOM     27  F   UNL A   1      37.132  29.344  27.607  1.00  0.00    -0.166 F 
ATOM     28  F   UNL A   1      36.410  31.374  27.919  1.00  0.00    -0.166 F 
ATOM     29  F   UNL A   1      36.016  29.848  29.407  1.00  0.00    -0.166 F 
ENDBRANCH  25  26
ENDBRANCH  12  20
ENDBRANCH   7   8
ENDBRANCH   6   7
ENDBRANCH   5   6
ENDBRANCH   3   5
ENDBRANCH   2   3
ENDBRANCH   1   2
BRANCH   1  30
ATOM     30  C   UNL A   1      35.450  24.038  25.376  1.00  0.00     0.202 C 
BRANCH  30  31
ATOM     31  O   UNL A   1      36.340  23.585  24.369  1.00  0.00    -0.374 OA
BRANCH  31  32
ATOM     32  C   UNL A   1      36.372  22.198  24.025  1.00  0.00     0.202 C 
BRANCH  32  33
ATOM     33  C   UNL A   1      37.434  21.268  24.626  1.00  0.00     0.261 C 
BRANCH  33  34
ATOM     34  O   UNL A   1      37.836  21.597  25.970  1.00  0.00    -0.460 OA
BRANCH  34  35
ATOM     35  C   UNL A   1      39.179  21.654  26.152  1.00  0.00     0.338 C 
ATOM     36  O   UNL A   1      40.020  20.875  25.742  1.00  0.00    -0.246 OA
BRANCH  35  37
ATOM     37  C   UNL A   1      39.551  22.877  26.878  1.00  0.00     0.060 A 
ATOM     38  C   UNL A   1      38.860  24.061  26.596  1.00  0.00     0.016 A 
ATOM     39  C   UNL A   1      40.693  22.889  27.680  1.00  0.00     0.016 A 
ATOM     40  C   UNL A   1      39.346  25.276  27.079  1.00  0.00     0.010 A 
ATOM     41  C   UNL A   1      41.175  24.106  28.166  1.00  0.00     0.010 A 
ATOM     42  C   UNL A   1      40.532  25.310  27.828  1.00  0.00    -0.014 A 
BRANCH  42  43
ATOM     43  C   UNL A   1      41.198  26.608  28.097  1.00  0.00     0.031 A 
ATOM     44  C   UNL A   1      42.574  26.850  27.540  1.00  0.00     0.074 A 
ATOM     45  C   UNL A   1      40.590  27.559  28.827  1.00  0.00     0.049 A 
ATOM     46  N   UNL A   1      43.357  27.890  27.676  1.00  0.00    -0.248 NA
ATOM     47  C   UNL A   1      43.157  25.759  26.742  1.00  0.00     0.031 C 
ATOM     48  C   UNL A   1      39.274  27.424  29.443  1.00  0.00     0.029 A 
ATOM     49  N   UNL A   1      40.998  28.823  29.173  1.00  0.00    -0.354 N 
ATOM     50  C   UNL A   1      44.536  27.564  27.019  1.00  0.00     0.074 A 
ATOM     51  C   UNL A   1      44.369  26.230  26.485  1.00  0.00     0.031 C 
ATOM     52  C   UNL A   1      38.968  28.575  30.067  1.00  0.00     0.029 A 
ATOM     53  C   UNL A   1      40.075  29.516  29.918  1.00  0.00     0.049 A 
ATOM     54  H   UNL A   1      41.871  29.197  28.912  1.00  0.00     0.167 HD
ATOM     55  C   UNL A   1      45.660  28.307  26.884  1.00  0.00     0.037 A 
ATOM     56  C   UNL A   1      40.129  30.765  30.424  1.00  0.00     0.037 A 
ATOM     57  C   UNL A   1      45.818  29.639  27.405  1.00  0.00     0.049 A 
ATOM     58  C   UNL A   1      41.383  31.582  30.225  1.00  0.00     0.074 A 
ATOM     59  C   UNL A   1      46.910  30.484  27.303  1.00  0.00     0.029 A 
ATOM     60  N   UNL A   1      44.852  30.320  28.130  1.00  0.00    -0.354 N 
ATOM     61  N   UNL A   1      42.476  31.280  29.567  1.00  0.00    -0.248 NA
ATOM     62  C   UNL A   1      41.416  32.908  30.860  1.00  0.00     0.031 C 
ATOM     63  C   UNL A   1      46.620  31.660  28.002  1.00  0.00     0.029 A 
ATOM     64  C   UNL A   1      45.330  31.568  28.499  1.00  0.00     0.049 A 
ATOM     65  H   UNL A   1      43.959  29.970  28.350  1.00  0.00     0.167 HD
ATOM     66  C   UNL A   1      43.319  32.376  29.703  1.00  0.00     0.074 A 
ATOM     67  C   UNL A   1      42.596  33.368  30.469  1.00  0.00     0.031 C 
ATOM     68  C   UNL A   1      44.588  32.542  29.255  1.00  0.00     0.037 A 
BRANCH  55  69
ATOM     69  C   UNL A   1      46.823  27.677  26.177  1.00  0.00     0.064 A 
ATOM     70  C   UNL A   1      47.785  26.919  26.861  1.00  0.00     0.173 A 
ATOM     71  C   UNL A   1      46.965  27.818  24.787  1.00  0.00     0.173 A 
ATOM     72  F   UNL A   1      47.703  26.767  28.192  1.00  0.00    -0.203 F 
ATOM     73  C   UNL A   1      48.861  26.350  26.184  1.00  0.00     0.198 A 
ATOM     74  C   UNL A   1      48.026  27.224  24.111  1.00  0.00     0.198 A 
ATOM     75  F   UNL A   1      46.071  28.530  24.085  1.00  0.00    -0.203 F 
ATOM     76  F   UNL A   1      49.795  25.671  26.865  1.00  0.00    -0.200 F 
ATOM     77  C   UNL A   1      48.978  26.498  24.810  1.00  0.00     0.200 A 
ATOM     78  F   UNL A   1      48.132  27.359  22.781  1.00  0.00    -0.200 F 
ATOM     79  F   UNL A   1      50.012  25.946  24.160  1.00  0.00    -0.200 F 
ENDBRANCH  55  69
BRANCH  56  80
ATOM     80  C   UNL A   1      38.968  31.339  31.162  1.00  0.00     0.064 A 
ATOM     81  C   UNL A   1      38.105  32.252  30.537  1.00  0.00     0.173 A 
ATOM     82  C   UNL A   1      38.720  31.034  32.508  1.00  0.00     0.173 A 
ATOM     83  F   UNL A   1      38.308  32.593  29.255  1.00  0.00    -0.203 F 
ATOM     84  C   UNL A   1      37.063  32.858  31.236  1.00  0.00     0.198 A 
ATOM     85  C   UNL A   1      37.650  31.607  33.194  1.00  0.00     0.198 A 
ATOM     86  F   UNL A   1      39.518  30.175  33.160  1.00  0.00    -0.203 F 
ATOM     87  F   UNL A   1      36.291  33.768  30.626  1.00  0.00    -0.200 F 
ATOM     88  C   UNL A   1      36.831  32.529  32.561  1.00  0.00     0.200 A 
ATOM     89  F   UNL A   1      37.422  31.274  34.472  1.00  0.00    -0.200 F 
ATOM     90  F   UNL A   1      35.823  33.104  33.231  1.00  0.00    -0.200 F 
ENDBRANCH  56  80
BRANCH  68  91
ATOM     91  C   UNL A   1      45.264  33.844  29.574  1.00  0.00     0.064 A 
ATOM     92  C   UNL A   1      46.027  34.007  30.740  1.00  0.00     0.173 A 
ATOM     93  C   UNL A   1      45.178  34.928  28.687  1.00  0.00     0.173 A 
ATOM     94  F   UNL A   1      46.127  33.004  31.625  1.00  0.00    -0.203 F 
ATOM     95  C   UNL A   1      46.658  35.215  31.019  1.00  0.00     0.198 A 
ATOM     96  C   UNL A   1      45.835  36.126  28.956  1.00  0.00     0.198 A 
ATOM     97  F   UNL A   1      44.468  34.821  27.555  1.00  0.00    -0.203 F 
ATOM     98  F   UNL A   1      47.343  35.363  32.162  1.00  0.00    -0.200 F 
ATOM     99  C   UNL A   1      46.567  36.272  30.124  1.00  0.00     0.200 A 
ATOM    100  F   UNL A   1      45.757  37.142  28.085  1.00  0.00    -0.200 F 
ATOM    101  F   UNL A   1      47.180  37.432  30.392  1.00  0.00    -0.200 F 
ENDBRANCH  68  91
ENDBRANCH  42  43
ENDBRANCH  35  37
ENDBRANCH  34  35
ENDBRANCH  33  34
ENDBRANCH  32  33
ENDBRANCH  31  32
ENDBRANCH  30  31
ENDBRANCH   1  30
TORSDOF 20
ENDMDL
