MODEL 1
REMARK VINA RESULT:     -11.7      0.000      0.000
REMARK SMILES O=C(Cc1cn2ccsc2n1)N[C@@H]1C=C[C@H](C(=O)OCCOCCOC(=O)c2ccc(-c3c4nc(c(-c5c(F)c(F)c(F)c(F)c5F)c5ccc([nH]5)c(-c5c(F)c(F)c(F)c(F)c5F)c5nc(c(-c6c(F)c(F)c(F)c(F)c6F)c6ccc3[nH]6)C=C5)C=C4)cc2)C1
REMARK SMILES IDX 21 1 20 2 19 3 17 4 18 5 16 6 13 7 14 8 91 9 15 10 12 11
REMARK SMILES IDX 1 12 2 13 3 15 4 16 5 17 11 18 6 19 10 20 7 21 9 22 8 23
REMARK SMILES IDX 22 24 23 25 24 26 25 27 26 28 27 29 28 30 29 31 90 32 30 33
REMARK SMILES IDX 89 34 31 35 32 36 33 37 83 38 34 39 88 40 82 41 84 42 35 43
REMARK SMILES IDX 87 44 81 45 80 46 36 48 68 49 48 50 67 51 49 52 52 53 66 54
REMARK SMILES IDX 85 55 50 56 51 57 65 59 86 60 53 61 37 62 38 63 46 64 39 65
REMARK SMILES IDX 40 66 44 67 47 68 41 69 42 70 45 71 43 72 69 73 70 74 78 75
REMARK SMILES IDX 71 76 72 77 76 78 79 79 73 80 74 81 77 82 75 83 54 84 55 85
REMARK SMILES IDX 63 86 56 87 57 88 61 89 64 90 58 91 59 92 62 93 60 94
REMARK H PARENT 12 14 84 47 52 58
REMARK Flexibility Score: inf
ROOT
ATOM      1  C   UNL A   1      32.855  29.181  23.460  1.00  0.00     0.202 C 
ENDROOT
BRANCH   1   2
ATOM      2  C   UNL A   1      34.030  28.325  22.979  1.00  0.00     0.261 C 
BRANCH   2   3
ATOM      3  O   UNL A   1      33.611  27.282  22.075  1.00  0.00    -0.463 OA
BRANCH   3   4
ATOM      4  C   UNL A   1      33.279  26.095  22.660  1.00  0.00     0.312 C 
ATOM      5  O   UNL A   1      34.064  25.172  22.843  1.00  0.00    -0.252 OA
BRANCH   4   6
ATOM      6  C   UNL A   1      31.786  26.030  22.986  1.00  0.00     0.124 C 
ATOM      7  C   UNL A   1      30.910  24.664  24.870  1.00  0.00     0.106 C 
ATOM      8  C   UNL A   1      30.786  23.967  23.561  1.00  0.00    -0.006 C 
ATOM      9  C   UNL A   1      31.416  26.066  24.482  1.00  0.00     0.048 C 
ATOM     10  C   UNL A   1      31.232  24.706  22.541  1.00  0.00    -0.014 C 
BRANCH   7  11
ATOM     11  N   UNL A   1      31.839  23.916  25.686  1.00  0.00    -0.350 N 
ATOM     12  O   UNL A   1      30.293  23.399  27.298  1.00  0.00    -0.275 OA
ATOM     13  C   UNL A   1      31.437  23.304  26.860  1.00  0.00     0.226 C 
ATOM     14  H   UNL A   1      32.778  23.839  25.399  1.00  0.00     0.164 HD
BRANCH  13  15
ATOM     15  C   UNL A   1      32.527  22.579  27.625  1.00  0.00     0.157 C 
BRANCH  15  16
ATOM     16  C   UNL A   1      33.765  22.288  26.845  1.00  0.00     0.070 A 
ATOM     17  C   UNL A   1      34.269  21.090  26.347  1.00  0.00     0.118 A 
ATOM     18  N   UNL A   1      34.614  23.344  26.530  1.00  0.00    -0.223 NA
ATOM     19  N   UNL A   1      35.433  21.432  25.727  1.00  0.00    -0.297 N 
ATOM     20  C   UNL A   1      35.593  22.774  25.884  1.00  0.00     0.193 A 
ATOM     21  C   UNL A   1      36.424  20.793  25.020  1.00  0.00     0.104 A 
ATOM     22  S   UNL A   1      37.063  23.321  25.142  1.00  0.00    -0.105 S 
ATOM     23  C   UNL A   1      37.381  21.653  24.628  1.00  0.00     0.087 A 
ENDBRANCH  15  16
ENDBRANCH  13  15
ENDBRANCH   7  11
ENDBRANCH   4   6
ENDBRANCH   3   4
ENDBRANCH   2   3
ENDBRANCH   1   2
BRANCH   1  24
ATOM     24  O   UNL A   1      32.890  29.611  24.820  1.00  0.00    -0.374 OA
BRANCH  24  25
ATOM     25  C   UNL A   1      31.672  30.084  25.385  1.00  0.00     0.202 C 
BRANCH  25  26
ATOM     26  C   UNL A   1      31.778  31.189  26.444  1.00  0.00     0.261 C 
BRANCH  26  27
ATOM     27  O   UNL A   1      32.827  30.936  27.396  1.00  0.00    -0.460 OA
BRANCH  27  28
ATOM     28  C   UNL A   1      33.630  32.000  27.628  1.00  0.00     0.338 C 
ATOM     29  O   UNL A   1      33.297  33.177  27.711  1.00  0.00    -0.246 OA
BRANCH  28  30
ATOM     30  C   UNL A   1      34.997  31.561  27.955  1.00  0.00     0.060 A 
ATOM     31  C   UNL A   1      35.206  30.182  28.078  1.00  0.00     0.016 A 
ATOM     32  C   UNL A   1      36.028  32.463  28.229  1.00  0.00     0.016 A 
ATOM     33  C   UNL A   1      36.425  29.699  28.543  1.00  0.00     0.010 A 
ATOM     34  C   UNL A   1      37.253  31.976  28.704  1.00  0.00     0.010 A 
ATOM     35  C   UNL A   1      37.438  30.596  28.906  1.00  0.00    -0.014 A 
BRANCH  35  36
ATOM     36  C   UNL A   1      38.608  30.080  29.659  1.00  0.00     0.031 A 
ATOM     37  C   UNL A   1      38.820  30.541  31.075  1.00  0.00     0.074 A 
ATOM     38  C   UNL A   1      39.424  29.159  29.118  1.00  0.00     0.049 A 
ATOM     39  N   UNL A   1      39.746  30.194  31.934  1.00  0.00    -0.248 NA
ATOM     40  C   UNL A   1      37.857  31.525  31.595  1.00  0.00     0.031 C 
ATOM     41  C   UNL A   1      39.298  28.606  27.773  1.00  0.00     0.029 A 
ATOM     42  N   UNL A   1      40.521  28.524  29.645  1.00  0.00    -0.354 N 
ATOM     43  C   UNL A   1      39.476  30.913  33.090  1.00  0.00     0.074 A 
ATOM     44  C   UNL A   1      38.321  31.742  32.816  1.00  0.00     0.031 C 
ATOM     45  C   UNL A   1      40.283  27.712  27.576  1.00  0.00     0.029 A 
ATOM     46  C   UNL A   1      41.119  27.647  28.774  1.00  0.00     0.049 A 
ATOM     47  H   UNL A   1      40.848  28.681  30.560  1.00  0.00     0.167 HD
ATOM     48  C   UNL A   1      40.123  30.877  34.279  1.00  0.00     0.037 A 
ATOM     49  C   UNL A   1      42.222  26.890  28.925  1.00  0.00     0.037 A 
ATOM     50  C   UNL A   1      41.268  30.050  34.555  1.00  0.00     0.049 A 
ATOM     51  C   UNL A   1      42.959  26.910  30.239  1.00  0.00     0.074 A 
ATOM     52  C   UNL A   1      41.985  29.931  35.733  1.00  0.00     0.029 A 
ATOM     53  N   UNL A   1      41.867  29.203  33.634  1.00  0.00    -0.354 N 
ATOM     54  N   UNL A   1      42.680  27.571  31.336  1.00  0.00    -0.248 NA
ATOM     55  C   UNL A   1      44.162  26.070  30.338  1.00  0.00     0.031 C 
ATOM     56  C   UNL A   1      43.044  29.044  35.512  1.00  0.00     0.029 A 
ATOM     57  C   UNL A   1      42.959  28.575  34.211  1.00  0.00     0.049 A 
ATOM     58  H   UNL A   1      41.561  29.068  32.709  1.00  0.00     0.167 HD
ATOM     59  C   UNL A   1      43.652  27.210  32.260  1.00  0.00     0.074 A 
ATOM     60  C   UNL A   1      44.522  26.260  31.599  1.00  0.00     0.031 C 
ATOM     61  C   UNL A   1      43.811  27.627  33.540  1.00  0.00     0.037 A 
BRANCH  48  62
ATOM     62  C   UNL A   1      39.619  31.776  35.369  1.00  0.00     0.064 A 
ATOM     63  C   UNL A   1      40.086  33.091  35.514  1.00  0.00     0.173 A 
ATOM     64  C   UNL A   1      38.634  31.326  36.261  1.00  0.00     0.173 A 
ATOM     65  F   UNL A   1      41.038  33.563  34.695  1.00  0.00    -0.203 F 
ATOM     66  C   UNL A   1      39.601  33.915  36.525  1.00  0.00     0.198 A 
ATOM     67  C   UNL A   1      38.133  32.161  37.256  1.00  0.00     0.198 A 
ATOM     68  F   UNL A   1      38.154  30.078  36.164  1.00  0.00    -0.203 F 
ATOM     69  F   UNL A   1      40.091  35.154  36.672  1.00  0.00    -0.200 F 
ATOM     70  C   UNL A   1      38.621  33.452  37.392  1.00  0.00     0.200 A 
ATOM     71  F   UNL A   1      37.180  31.715  38.085  1.00  0.00    -0.200 F 
ATOM     72  F   UNL A   1      38.151  34.248  38.362  1.00  0.00    -0.200 F 
ENDBRANCH  48  62
BRANCH  49  73
ATOM     73  C   UNL A   1      42.701  26.045  27.801  1.00  0.00     0.064 A 
ATOM     74  C   UNL A   1      43.652  26.522  26.888  1.00  0.00     0.173 A 
ATOM     75  C   UNL A   1      42.206  24.747  27.609  1.00  0.00     0.173 A 
ATOM     76  F   UNL A   1      44.137  27.766  27.015  1.00  0.00    -0.203 F 
ATOM     77  C   UNL A   1      44.076  25.739  25.816  1.00  0.00     0.198 A 
ATOM     78  C   UNL A   1      42.650  23.955  26.553  1.00  0.00     0.198 A 
ATOM     79  F   UNL A   1      41.293  24.245  28.454  1.00  0.00    -0.203 F 
ATOM     80  F   UNL A   1      44.953  26.234  24.932  1.00  0.00    -0.200 F 
ATOM     81  C   UNL A   1      43.579  24.454  25.653  1.00  0.00     0.200 A 
ATOM     82  F   UNL A   1      42.175  22.711  26.405  1.00  0.00    -0.200 F 
ATOM     83  F   UNL A   1      43.989  23.701  24.624  1.00  0.00    -0.200 F 
ENDBRANCH  49  73
BRANCH  61  84
ATOM     84  C   UNL A   1      44.947  27.035  34.322  1.00  0.00     0.064 A 
ATOM     85  C   UNL A   1      46.197  27.666  34.394  1.00  0.00     0.173 A 
ATOM     86  C   UNL A   1      44.770  25.841  35.040  1.00  0.00     0.173 A 
ATOM     87  F   UNL A   1      46.420  28.801  33.715  1.00  0.00    -0.203 F 
ATOM     88  C   UNL A   1      47.236  27.111  35.136  1.00  0.00     0.198 A 
ATOM     89  C   UNL A   1      45.802  25.304  35.802  1.00  0.00     0.198 A 
ATOM     90  F   UNL A   1      43.590  25.203  35.008  1.00  0.00    -0.203 F 
ATOM     91  F   UNL A   1      48.437  27.708  35.154  1.00  0.00    -0.200 F 
ATOM     92  C   UNL A   1      47.036  25.935  35.844  1.00  0.00     0.200 A 
ATOM     93  F   UNL A   1      45.604  24.175  36.496  1.00  0.00    -0.200 F 
ATOM     94  F   UNL A   1      48.037  25.406  36.562  1.00  0.00    -0.200 F 
ENDBRANCH  61  84
ENDBRANCH  35  36
ENDBRANCH  28  30
ENDBRANCH  27  28
ENDBRANCH  26  27
ENDBRANCH  25  26
ENDBRANCH  24  25
ENDBRANCH   1  24
TORSDOF 17
ENDMDL
MODEL 2
REMARK VINA RESULT:     -11.4      1.710      2.053
REMARK SMILES O=C(Cc1cn2ccsc2n1)N[C@@H]1C=C[C@H](C(=O)OCCOCCOC(=O)c2ccc(-c3c4nc(c(-c5c(F)c(F)c(F)c(F)c5F)c5ccc([nH]5)c(-c5c(F)c(F)c(F)c(F)c5F)c5nc(c(-c6c(F)c(F)c(F)c(F)c6F)c6ccc3[nH]6)C=C5)C=C4)cc2)C1
REMARK SMILES IDX 21 1 20 2 19 3 17 4 18 5 16 6 13 7 14 8 91 9 15 10 12 11
REMARK SMILES IDX 1 12 2 13 3 15 4 16 5 17 11 18 6 19 10 20 7 21 9 22 8 23
REMARK SMILES IDX 22 24 23 25 24 26 25 27 26 28 27 29 28 30 29 31 90 32 30 33
REMARK SMILES IDX 89 34 31 35 32 36 33 37 83 38 34 39 88 40 82 41 84 42 35 43
REMARK SMILES IDX 87 44 81 45 80 46 36 48 68 49 48 50 67 51 49 52 52 53 66 54
REMARK SMILES IDX 85 55 50 56 51 57 65 59 86 60 53 61 37 62 38 63 46 64 39 65
REMARK SMILES IDX 40 66 44 67 47 68 41 69 42 70 45 71 43 72 69 73 70 74 78 75
REMARK SMILES IDX 71 76 72 77 76 78 79 79 73 80 74 81 77 82 75 83 54 84 55 85
REMARK SMILES IDX 63 86 56 87 57 88 61 89 64 90 58 91 59 92 62 93 60 94
REMARK H PARENT 12 14 84 47 52 58
REMARK Flexibility Score: inf
ROOT
ATOM      1  C   UNL A   1      30.368  29.595  23.653  1.00  0.00     0.202 C 
ENDROOT
BRANCH   1   2
ATOM      2  C   UNL A   1      30.113  28.374  22.765  1.00  0.00     0.261 C 
BRANCH   2   3
ATOM      3  O   UNL A   1      29.628  27.243  23.518  1.00  0.00    -0.463 OA
BRANCH   3   4
ATOM      4  C   UNL A   1      30.589  26.454  24.079  1.00  0.00     0.312 C 
ATOM      5  O   UNL A   1      30.555  26.040  25.232  1.00  0.00    -0.252 OA
BRANCH   4   6
ATOM      6  C   UNL A   1      31.753  26.216  23.116  1.00  0.00     0.124 C 
ATOM      7  C   UNL A   1      33.159  24.170  23.232  1.00  0.00     0.106 C 
ATOM      8  C   UNL A   1      33.793  25.331  23.914  1.00  0.00    -0.006 C 
ATOM      9  C   UNL A   1      31.906  24.780  22.578  1.00  0.00     0.048 C 
ATOM     10  C   UNL A   1      33.053  26.440  23.834  1.00  0.00    -0.014 C 
BRANCH   7  11
ATOM     11  N   UNL A   1      32.865  23.171  24.234  1.00  0.00    -0.350 N 
ATOM     12  O   UNL A   1      32.268  21.559  22.718  1.00  0.00    -0.275 OA
ATOM     13  C   UNL A   1      32.453  21.899  23.885  1.00  0.00     0.226 C 
ATOM     14  H   UNL A   1      32.961  23.402  25.187  1.00  0.00     0.164 HD
BRANCH  13  15
ATOM     15  C   UNL A   1      32.153  20.968  25.044  1.00  0.00     0.157 C 
BRANCH  15  16
ATOM     16  C   UNL A   1      32.856  19.653  25.001  1.00  0.00     0.070 A 
ATOM     17  C   UNL A   1      34.157  19.326  24.630  1.00  0.00     0.118 A 
ATOM     18  N   UNL A   1      32.153  18.512  25.375  1.00  0.00    -0.223 NA
ATOM     19  N   UNL A   1      34.234  17.974  24.783  1.00  0.00    -0.297 N 
ATOM     20  C   UNL A   1      33.014  17.548  25.208  1.00  0.00     0.193 A 
ATOM     21  C   UNL A   1      35.186  16.995  24.627  1.00  0.00     0.104 A 
ATOM     22  S   UNL A   1      32.992  15.826  25.421  1.00  0.00    -0.105 S 
ATOM     23  C   UNL A   1      34.696  15.779  24.926  1.00  0.00     0.087 A 
ENDBRANCH  15  16
ENDBRANCH  13  15
ENDBRANCH   7  11
ENDBRANCH   4   6
ENDBRANCH   3   4
ENDBRANCH   2   3
ENDBRANCH   1   2
BRANCH   1  24
ATOM     24  O   UNL A   1      31.652  29.682  24.270  1.00  0.00    -0.374 OA
BRANCH  24  25
ATOM     25  C   UNL A   1      31.692  29.659  25.693  1.00  0.00     0.202 C 
BRANCH  25  26
ATOM     26  C   UNL A   1      31.848  31.008  26.407  1.00  0.00     0.261 C 
BRANCH  26  27
ATOM     27  O   UNL A   1      32.749  30.936  27.525  1.00  0.00    -0.460 OA
BRANCH  27  28
ATOM     28  C   UNL A   1      33.579  31.998  27.636  1.00  0.00     0.338 C 
ATOM     29  O   UNL A   1      33.272  33.185  27.626  1.00  0.00    -0.246 OA
BRANCH  28  30
ATOM     30  C   UNL A   1      34.949  31.559  27.954  1.00  0.00     0.060 A 
ATOM     31  C   UNL A   1      35.153  30.182  28.106  1.00  0.00     0.016 A 
ATOM     32  C   UNL A   1      35.988  32.462  28.194  1.00  0.00     0.016 A 
ATOM     33  C   UNL A   1      36.376  29.705  28.565  1.00  0.00     0.010 A 
ATOM     34  C   UNL A   1      37.216  31.980  28.663  1.00  0.00     0.010 A 
ATOM     35  C   UNL A   1      37.398  30.604  28.895  1.00  0.00    -0.014 A 
BRANCH  35  36
ATOM     36  C   UNL A   1      38.576  30.100  29.643  1.00  0.00     0.031 A 
ATOM     37  C   UNL A   1      38.787  30.561  31.059  1.00  0.00     0.074 A 
ATOM     38  C   UNL A   1      39.400  29.188  29.099  1.00  0.00     0.049 A 
ATOM     39  N   UNL A   1      39.719  30.223  31.914  1.00  0.00    -0.248 NA
ATOM     40  C   UNL A   1      37.816  31.534  31.583  1.00  0.00     0.031 C 
ATOM     41  C   UNL A   1      39.276  28.635  27.753  1.00  0.00     0.029 A 
ATOM     42  N   UNL A   1      40.505  28.564  29.621  1.00  0.00    -0.354 N 
ATOM     43  C   UNL A   1      39.445  30.938  33.073  1.00  0.00     0.074 A 
ATOM     44  C   UNL A   1      38.281  31.754  32.803  1.00  0.00     0.031 C 
ATOM     45  C   UNL A   1      40.269  27.752  27.552  1.00  0.00     0.029 A 
ATOM     46  C   UNL A   1      41.109  27.695  28.747  1.00  0.00     0.049 A 
ATOM     47  H   UNL A   1      40.833  28.723  30.536  1.00  0.00     0.167 HD
ATOM     48  C   UNL A   1      40.097  30.906  34.259  1.00  0.00     0.037 A 
ATOM     49  C   UNL A   1      42.220  26.948  28.894  1.00  0.00     0.037 A 
ATOM     50  C   UNL A   1      41.251  30.092  34.530  1.00  0.00     0.049 A 
ATOM     51  C   UNL A   1      42.962  26.975  30.206  1.00  0.00     0.074 A 
ATOM     52  C   UNL A   1      41.972  29.978  35.706  1.00  0.00     0.029 A 
ATOM     53  N   UNL A   1      41.856  29.252  33.607  1.00  0.00    -0.354 N 
ATOM     54  N   UNL A   1      42.679  27.632  31.304  1.00  0.00    -0.248 NA
ATOM     55  C   UNL A   1      44.174  26.147  30.299  1.00  0.00     0.031 C 
ATOM     56  C   UNL A   1      43.041  29.104  35.481  1.00  0.00     0.029 A 
ATOM     57  C   UNL A   1      42.956  28.635  34.180  1.00  0.00     0.049 A 
ATOM     58  H   UNL A   1      41.548  29.115  32.682  1.00  0.00     0.167 HD
ATOM     59  C   UNL A   1      43.658  27.280  32.224  1.00  0.00     0.074 A 
ATOM     60  C   UNL A   1      44.536  26.339  31.560  1.00  0.00     0.031 C 
ATOM     61  C   UNL A   1      43.816  27.697  33.504  1.00  0.00     0.037 A 
BRANCH  48  62
ATOM     62  C   UNL A   1      39.586  31.799  35.351  1.00  0.00     0.064 A 
ATOM     63  C   UNL A   1      40.033  33.122  35.491  1.00  0.00     0.173 A 
ATOM     64  C   UNL A   1      38.616  31.334  36.253  1.00  0.00     0.173 A 
ATOM     65  F   UNL A   1      40.970  33.608  34.664  1.00  0.00    -0.203 F 
ATOM     66  C   UNL A   1      39.542  33.939  36.506  1.00  0.00     0.198 A 
ATOM     67  C   UNL A   1      38.109  32.162  37.250  1.00  0.00     0.198 A 
ATOM     68  F   UNL A   1      38.155  30.078  36.160  1.00  0.00    -0.203 F 
ATOM     69  F   UNL A   1      40.013  35.186  36.646  1.00  0.00    -0.200 F 
ATOM     70  C   UNL A   1      38.577  33.461  37.380  1.00  0.00     0.200 A 
ATOM     71  F   UNL A   1      37.170  31.703  38.087  1.00  0.00    -0.200 F 
ATOM     72  F   UNL A   1      38.101  34.251  38.353  1.00  0.00    -0.200 F 
ENDBRANCH  48  62
BRANCH  49  73
ATOM     73  C   UNL A   1      42.705  26.111  27.767  1.00  0.00     0.064 A 
ATOM     74  C   UNL A   1      43.635  26.605  26.842  1.00  0.00     0.173 A 
ATOM     75  C   UNL A   1      42.236  24.802  27.585  1.00  0.00     0.173 A 
ATOM     76  F   UNL A   1      44.095  27.859  26.960  1.00  0.00    -0.203 F 
ATOM     77  C   UNL A   1      44.065  25.827  25.768  1.00  0.00     0.198 A 
ATOM     78  C   UNL A   1      42.685  24.015  26.526  1.00  0.00     0.198 A 
ATOM     79  F   UNL A   1      41.344  24.283  28.442  1.00  0.00    -0.203 F 
ATOM     80  F   UNL A   1      44.920  26.338  24.873  1.00  0.00    -0.200 F 
ATOM     81  C   UNL A   1      43.593  24.531  25.614  1.00  0.00     0.200 A 
ATOM     82  F   UNL A   1      42.235  22.761  26.388  1.00  0.00    -0.200 F 
ATOM     83  F   UNL A   1      44.008  23.783  24.583  1.00  0.00    -0.200 F 
ENDBRANCH  49  73
BRANCH  61  84
ATOM     84  C   UNL A   1      44.961  27.116  34.282  1.00  0.00     0.064 A 
ATOM     85  C   UNL A   1      46.210  27.750  34.336  1.00  0.00     0.173 A 
ATOM     86  C   UNL A   1      44.793  25.930  35.015  1.00  0.00     0.173 A 
ATOM     87  F   UNL A   1      46.425  28.878  33.642  1.00  0.00    -0.203 F 
ATOM     88  C   UNL A   1      47.258  27.206  35.074  1.00  0.00     0.198 A 
ATOM     89  C   UNL A   1      45.834  25.404  35.774  1.00  0.00     0.198 A 
ATOM     90  F   UNL A   1      43.615  25.289  35.002  1.00  0.00    -0.203 F 
ATOM     91  F   UNL A   1      48.457  27.805  35.075  1.00  0.00    -0.200 F 
ATOM     92  C   UNL A   1      47.067  26.037  35.797  1.00  0.00     0.200 A 
ATOM     93  F   UNL A   1      45.644  24.282  36.481  1.00  0.00    -0.200 F 
ATOM     94  F   UNL A   1      48.075  25.518  36.511  1.00  0.00    -0.200 F 
ENDBRANCH  61  84
ENDBRANCH  35  36
ENDBRANCH  28  30
ENDBRANCH  27  28
ENDBRANCH  26  27
ENDBRANCH  25  26
ENDBRANCH  24  25
ENDBRANCH   1  24
TORSDOF 17
ENDMDL
MODEL 3
REMARK VINA RESULT:     -11.2      4.691      9.847
REMARK SMILES O=C(Cc1cn2ccsc2n1)N[C@@H]1C=C[C@H](C(=O)OCCOCCOC(=O)c2ccc(-c3c4nc(c(-c5c(F)c(F)c(F)c(F)c5F)c5ccc([nH]5)c(-c5c(F)c(F)c(F)c(F)c5F)c5nc(c(-c6c(F)c(F)c(F)c(F)c6F)c6ccc3[nH]6)C=C5)C=C4)cc2)C1
REMARK SMILES IDX 21 1 20 2 19 3 17 4 18 5 16 6 13 7 14 8 91 9 15 10 12 11
REMARK SMILES IDX 1 12 2 13 3 15 4 16 5 17 11 18 6 19 10 20 7 21 9 22 8 23
REMARK SMILES IDX 22 24 23 25 24 26 25 27 26 28 27 29 28 30 29 31 90 32 30 33
REMARK SMILES IDX 89 34 31 35 32 36 33 37 83 38 34 39 88 40 82 41 84 42 35 43
REMARK SMILES IDX 87 44 81 45 80 46 36 48 68 49 48 50 67 51 49 52 52 53 66 54
REMARK SMILES IDX 85 55 50 56 51 57 65 59 86 60 53 61 37 62 38 63 46 64 39 65
REMARK SMILES IDX 40 66 44 67 47 68 41 69 42 70 45 71 43 72 69 73 70 74 78 75
REMARK SMILES IDX 71 76 72 77 76 78 79 79 73 80 74 81 77 82 75 83 54 84 55 85
REMARK SMILES IDX 63 86 56 87 57 88 61 89 64 90 58 91 59 92 62 93 60 94
REMARK H PARENT 12 14 84 47 52 58
REMARK Flexibility Score: inf
ROOT
ATOM      1  C   UNL A   1      37.796  22.087  25.444  1.00  0.00     0.202 C 
ENDROOT
BRANCH   1   2
ATOM      2  C   UNL A   1      36.726  23.168  25.622  1.00  0.00     0.261 C 
BRANCH   2   3
ATOM      3  O   UNL A   1      35.483  22.630  26.119  1.00  0.00    -0.463 OA
BRANCH   3   4
ATOM      4  C   UNL A   1      34.367  22.978  25.413  1.00  0.00     0.312 C 
ATOM      5  O   UNL A   1      33.459  23.669  25.857  1.00  0.00    -0.252 OA
BRANCH   4   6
ATOM      6  C   UNL A   1      34.357  22.331  24.028  1.00  0.00     0.124 C 
ATOM      7  C   UNL A   1      32.962  23.220  22.172  1.00  0.00     0.106 C 
ATOM      8  C   UNL A   1      32.321  22.064  22.858  1.00  0.00    -0.006 C 
ATOM      9  C   UNL A   1      34.353  23.297  22.828  1.00  0.00     0.048 C 
ATOM     10  C   UNL A   1      33.077  21.567  23.840  1.00  0.00    -0.014 C 
BRANCH   7  11
ATOM     11  N   UNL A   1      32.143  24.387  22.406  1.00  0.00    -0.350 N 
ATOM     12  O   UNL A   1      33.239  25.693  20.875  1.00  0.00    -0.275 OA
ATOM     13  C   UNL A   1      32.338  25.559  21.700  1.00  0.00     0.226 C 
ATOM     14  H   UNL A   1      31.429  24.346  23.084  1.00  0.00     0.164 HD
BRANCH  13  15
ATOM     15  C   UNL A   1      31.422  26.708  22.074  1.00  0.00     0.157 C 
BRANCH  15  16
ATOM     16  C   UNL A   1      31.867  27.522  23.242  1.00  0.00     0.070 A 
ATOM     17  C   UNL A   1      31.515  28.806  23.646  1.00  0.00     0.118 A 
ATOM     18  N   UNL A   1      32.797  26.971  24.118  1.00  0.00    -0.223 NA
ATOM     19  N   UNL A   1      32.243  29.028  24.777  1.00  0.00    -0.297 N 
ATOM     20  C   UNL A   1      32.995  27.915  24.995  1.00  0.00     0.193 A 
ATOM     21  C   UNL A   1      32.391  30.037  25.698  1.00  0.00     0.104 A 
ATOM     22  S   UNL A   1      33.981  28.093  26.411  1.00  0.00    -0.105 S 
ATOM     23  C   UNL A   1      33.286  29.709  26.648  1.00  0.00     0.087 A 
ENDBRANCH  15  16
ENDBRANCH  13  15
ENDBRANCH   7  11
ENDBRANCH   4   6
ENDBRANCH   3   4
ENDBRANCH   2   3
ENDBRANCH   1   2
BRANCH   1  24
ATOM     24  O   UNL A   1      37.335  20.782  25.093  1.00  0.00    -0.374 OA
BRANCH  24  25
ATOM     25  C   UNL A   1      38.308  19.745  25.027  1.00  0.00     0.202 C 
BRANCH  25  26
ATOM     26  C   UNL A   1      39.546  19.894  25.921  1.00  0.00     0.261 C 
BRANCH  26  27
ATOM     27  O   UNL A   1      40.772  19.698  25.196  1.00  0.00    -0.460 OA
BRANCH  27  28
ATOM     28  C   UNL A   1      41.839  19.421  25.979  1.00  0.00     0.338 C 
ATOM     29  O   UNL A   1      42.302  18.315  26.239  1.00  0.00    -0.246 OA
BRANCH  28  30
ATOM     30  C   UNL A   1      42.531  20.659  26.378  1.00  0.00     0.060 A 
ATOM     31  C   UNL A   1      42.463  21.014  27.730  1.00  0.00     0.016 A 
ATOM     32  C   UNL A   1      43.149  21.502  25.451  1.00  0.00     0.016 A 
ATOM     33  C   UNL A   1      42.948  22.247  28.153  1.00  0.00     0.010 A 
ATOM     34  C   UNL A   1      43.632  22.746  25.878  1.00  0.00     0.010 A 
ATOM     35  C   UNL A   1      43.491  23.141  27.221  1.00  0.00    -0.014 A 
BRANCH  35  36
ATOM     36  C   UNL A   1      43.737  24.543  27.639  1.00  0.00     0.031 A 
ATOM     37  C   UNL A   1      45.155  25.041  27.709  1.00  0.00     0.074 A 
ATOM     38  C   UNL A   1      42.714  25.381  27.879  1.00  0.00     0.049 A 
ATOM     39  N   UNL A   1      45.605  26.233  28.008  1.00  0.00    -0.248 NA
ATOM     40  C   UNL A   1      46.209  24.062  27.397  1.00  0.00     0.031 C 
ATOM     41  C   UNL A   1      41.299  25.028  27.805  1.00  0.00     0.029 A 
ATOM     42  N   UNL A   1      42.714  26.708  28.230  1.00  0.00    -0.354 N 
ATOM     43  C   UNL A   1      46.988  26.148  27.918  1.00  0.00     0.074 A 
ATOM     44  C   UNL A   1      47.308  24.780  27.570  1.00  0.00     0.031 C 
ATOM     45  C   UNL A   1      40.564  26.113  28.103  1.00  0.00     0.029 A 
ATOM     46  C   UNL A   1      41.457  27.229  28.410  1.00  0.00     0.049 A 
ATOM     47  H   UNL A   1      43.538  27.237  28.340  1.00  0.00     0.167 HD
ATOM     48  C   UNL A   1      47.909  27.125  28.096  1.00  0.00     0.037 A 
ATOM     49  C   UNL A   1      41.075  28.463  28.790  1.00  0.00     0.037 A 
ATOM     50  C   UNL A   1      47.592  28.486  28.438  1.00  0.00     0.049 A 
ATOM     51  C   UNL A   1      42.122  29.518  29.039  1.00  0.00     0.074 A 
ATOM     52  C   UNL A   1      48.453  29.553  28.625  1.00  0.00     0.029 A 
ATOM     53  N   UNL A   1      46.308  28.966  28.649  1.00  0.00    -0.354 N 
ATOM     54  N   UNL A   1      43.425  29.436  28.924  1.00  0.00    -0.248 NA
ATOM     55  C   UNL A   1      41.642  30.842  29.462  1.00  0.00     0.031 C 
ATOM     56  C   UNL A   1      47.693  30.669  28.992  1.00  0.00     0.029 A 
ATOM     57  C   UNL A   1      46.355  30.309  28.987  1.00  0.00     0.049 A 
ATOM     58  H   UNL A   1      45.485  28.432  28.569  1.00  0.00     0.167 HD
ATOM     59  C   UNL A   1      43.918  30.697  29.235  1.00  0.00     0.074 A 
ATOM     60  C   UNL A   1      42.772  31.531  29.530  1.00  0.00     0.031 C 
ATOM     61  C   UNL A   1      45.203  31.125  29.272  1.00  0.00     0.037 A 
BRANCH  48  62
ATOM     62  C   UNL A   1      49.353  26.749  27.946  1.00  0.00     0.064 A 
ATOM     63  C   UNL A   1      50.152  26.438  29.056  1.00  0.00     0.173 A 
ATOM     64  C   UNL A   1      49.937  26.671  26.672  1.00  0.00     0.173 A 
ATOM     65  F   UNL A   1      49.645  26.512  30.296  1.00  0.00    -0.203 F 
ATOM     66  C   UNL A   1      51.489  26.082  28.898  1.00  0.00     0.198 A 
ATOM     67  C   UNL A   1      51.267  26.291  26.516  1.00  0.00     0.198 A 
ATOM     68  F   UNL A   1      49.215  26.957  25.580  1.00  0.00    -0.203 F 
ATOM     69  F   UNL A   1      52.246  25.830  29.975  1.00  0.00    -0.200 F 
ATOM     70  C   UNL A   1      52.044  26.004  27.628  1.00  0.00     0.200 A 
ATOM     71  F   UNL A   1      51.798  26.205  25.289  1.00  0.00    -0.200 F 
ATOM     72  F   UNL A   1      53.329  25.656  27.477  1.00  0.00    -0.200 F 
ENDBRANCH  48  62
BRANCH  49  73
ATOM     73  C   UNL A   1      39.632  28.773  28.961  1.00  0.00     0.064 A 
ATOM     74  C   UNL A   1      38.858  29.242  27.892  1.00  0.00     0.173 A 
ATOM     75  C   UNL A   1      39.003  28.617  30.205  1.00  0.00     0.173 A 
ATOM     76  F   UNL A   1      39.421  29.430  26.689  1.00  0.00    -0.203 F 
ATOM     77  C   UNL A   1      37.512  29.561  28.064  1.00  0.00     0.198 A 
ATOM     78  C   UNL A   1      37.651  28.911  30.370  1.00  0.00     0.198 A 
ATOM     79  F   UNL A   1      39.701  28.173  31.260  1.00  0.00    -0.203 F 
ATOM     80  F   UNL A   1      36.804  30.050  27.037  1.00  0.00    -0.200 F 
ATOM     81  C   UNL A   1      36.909  29.389  29.301  1.00  0.00     0.200 A 
ATOM     82  F   UNL A   1      37.070  28.734  31.565  1.00  0.00    -0.200 F 
ATOM     83  F   UNL A   1      35.614  29.694  29.466  1.00  0.00    -0.200 F 
ENDBRANCH  49  73
BRANCH  61  84
ATOM     84  C   UNL A   1      45.439  32.568  29.612  1.00  0.00     0.064 A 
ATOM     85  C   UNL A   1      45.423  33.568  28.629  1.00  0.00     0.173 A 
ATOM     86  C   UNL A   1      45.644  32.960  30.945  1.00  0.00     0.173 A 
ATOM     87  F   UNL A   1      45.245  33.243  27.340  1.00  0.00    -0.203 F 
ATOM     88  C   UNL A   1      45.629  34.903  28.963  1.00  0.00     0.198 A 
ATOM     89  C   UNL A   1      45.822  34.299  31.279  1.00  0.00     0.198 A 
ATOM     90  F   UNL A   1      45.661  32.042  31.924  1.00  0.00    -0.203 F 
ATOM     91  F   UNL A   1      45.655  35.837  28.002  1.00  0.00    -0.200 F 
ATOM     92  C   UNL A   1      45.822  35.268  30.288  1.00  0.00     0.200 A 
ATOM     93  F   UNL A   1      45.995  34.650  32.560  1.00  0.00    -0.200 F 
ATOM     94  F   UNL A   1      46.014  36.555  30.609  1.00  0.00    -0.200 F 
ENDBRANCH  61  84
ENDBRANCH  35  36
ENDBRANCH  28  30
ENDBRANCH  27  28
ENDBRANCH  26  27
ENDBRANCH  25  26
ENDBRANCH  24  25
ENDBRANCH   1  24
TORSDOF 17
ENDMDL
