MODEL 1
REMARK VINA RESULT:     -10.4      0.000      0.000
REMARK SMILES COC(=O)[C@H]1CCN(C(=O)N[C@H](C(=O)OCCOCCOC(=O)c2ccc(-c3c4nc(c(-c5c(F)c(F)c(F)c(F)c5F)c5ccc([nH]5)c(-c5c(F)c(F)c(F)c(F)c5F)c5nc(c(-c6c(F)c(F)c(F)c(F)c6F)c6ccc3[nH]6)C=C5)C=C4)cc2)C2CC2)C1
REMARK SMILES IDX 17 1 16 2 15 3 13 4 14 5 12 6 11 7 9 8 10 9 8 11 5 12 6 13
REMARK SMILES IDX 90 14 7 15 3 16 4 17 2 18 1 19 87 20 88 21 89 22 18 23 19 24
REMARK SMILES IDX 20 25 21 26 22 27 23 28 24 29 25 30 86 31 26 32 85 33 27 34
REMARK SMILES IDX 28 35 29 36 79 37 30 38 84 39 78 40 80 41 31 42 83 43 77 44
REMARK SMILES IDX 76 45 32 47 64 48 44 49 63 50 45 51 48 52 62 53 81 54 46 55
REMARK SMILES IDX 47 56 61 58 82 59 49 60 33 61 34 62 42 63 35 64 36 65 40 66
REMARK SMILES IDX 43 67 37 68 38 69 41 70 39 71 65 72 66 73 74 74 67 75 68 76
REMARK SMILES IDX 72 77 75 78 69 79 70 80 73 81 71 82 50 83 51 84 59 85 52 86
REMARK SMILES IDX 53 87 57 88 60 89 54 90 55 91 58 92 56 93
REMARK H PARENT 11 10 80 46 48 57
REMARK Flexibility Score: inf
ROOT
ATOM      1  C   UNL A   1      34.149  29.709  26.889  1.00  0.00     0.202 C 
ENDROOT
BRANCH   1   2
ATOM      2  C   UNL A   1      33.452  28.726  25.950  1.00  0.00     0.261 C 
BRANCH   2   3
ATOM      3  O   UNL A   1      33.207  27.489  26.651  1.00  0.00    -0.462 OA
BRANCH   3   4
ATOM      4  C   UNL A   1      31.897  27.226  26.935  1.00  0.00     0.329 C 
ATOM      5  O   UNL A   1      31.273  27.813  27.811  1.00  0.00    -0.250 OA
BRANCH   4   6
ATOM      6  C   UNL A   1      31.296  26.247  25.904  1.00  0.00     0.197 C 
BRANCH   6   7
ATOM      7  N   UNL A   1      30.956  24.859  26.244  1.00  0.00    -0.324 N 
ATOM      8  C   UNL A   1      31.512  23.854  26.935  1.00  0.00     0.318 C 
ATOM      9  O   UNL A   1      30.701  23.154  27.550  1.00  0.00    -0.249 OA
ATOM     10  H   UNL A   1      30.087  24.596  25.862  1.00  0.00     0.166 HD
BRANCH   8  11
ATOM     11  N   UNL A   1      32.823  23.510  26.863  1.00  0.00    -0.324 N 
ATOM     12  C   UNL A   1      33.644  21.527  25.915  1.00  0.00     0.120 C 
ATOM     13  C   UNL A   1      33.909  22.749  24.998  1.00  0.00     0.039 C 
ATOM     14  C   UNL A   1      33.171  22.145  27.242  1.00  0.00     0.136 C 
ATOM     15  C   UNL A   1      33.863  23.927  25.958  1.00  0.00     0.122 C 
BRANCH  12  16
ATOM     16  C   UNL A   1      32.619  20.600  25.299  1.00  0.00     0.310 C 
ATOM     17  O   UNL A   1      31.456  20.927  25.109  1.00  0.00    -0.252 OA
BRANCH  16  18
ATOM     18  O   UNL A   1      33.176  19.433  24.886  1.00  0.00    -0.469 OA
ATOM     19  C   UNL A   1      32.907  18.286  25.694  1.00  0.00     0.282 C 
ENDBRANCH  16  18
ENDBRANCH  12  16
ENDBRANCH   8  11
ENDBRANCH   6   7
BRANCH   6  20
ATOM     20  C   UNL A   1      30.299  26.769  24.890  1.00  0.00     0.023 C 
ATOM     21  C   UNL A   1      30.469  28.005  24.044  1.00  0.00     0.007 C 
ATOM     22  C   UNL A   1      30.606  26.647  23.413  1.00  0.00     0.007 C 
ENDBRANCH   6  20
ENDBRANCH   4   6
ENDBRANCH   3   4
ENDBRANCH   2   3
ENDBRANCH   1   2
BRANCH   1  23
ATOM     23  O   UNL A   1      33.242  30.555  27.604  1.00  0.00    -0.374 OA
BRANCH  23  24
ATOM     24  C   UNL A   1      32.173  31.120  26.854  1.00  0.00     0.202 C 
BRANCH  24  25
ATOM     25  C   UNL A   1      31.900  32.608  27.100  1.00  0.00     0.261 C 
BRANCH  25  26
ATOM     26  O   UNL A   1      33.072  33.435  27.156  1.00  0.00    -0.460 OA
BRANCH  26  27
ATOM     27  C   UNL A   1      33.169  34.205  28.273  1.00  0.00     0.338 C 
ATOM     28  O   UNL A   1      32.399  35.075  28.639  1.00  0.00    -0.246 OA
BRANCH  27  29
ATOM     29  C   UNL A   1      34.384  33.851  29.032  1.00  0.00     0.060 A 
ATOM     30  C   UNL A   1      35.633  34.311  28.589  1.00  0.00     0.016 A 
ATOM     31  C   UNL A   1      34.301  32.971  30.111  1.00  0.00     0.016 A 
ATOM     32  C   UNL A   1      36.806  33.900  29.237  1.00  0.00     0.010 A 
ATOM     33  C   UNL A   1      35.472  32.551  30.743  1.00  0.00     0.010 A 
ATOM     34  C   UNL A   1      36.737  33.010  30.317  1.00  0.00    -0.014 A 
BRANCH  34  35
ATOM     35  C   UNL A   1      37.947  32.437  30.964  1.00  0.00     0.031 A 
ATOM     36  C   UNL A   1      38.567  31.210  30.362  1.00  0.00     0.074 A 
ATOM     37  C   UNL A   1      38.421  32.903  32.136  1.00  0.00     0.049 A 
ATOM     38  N   UNL A   1      39.530  30.453  30.825  1.00  0.00    -0.248 NA
ATOM     39  C   UNL A   1      38.030  30.779  29.062  1.00  0.00     0.031 C 
ATOM     40  C   UNL A   1      37.948  34.091  32.840  1.00  0.00     0.029 A 
ATOM     41  N   UNL A   1      39.362  32.367  32.988  1.00  0.00    -0.354 N 
ATOM     42  C   UNL A   1      39.757  29.501  29.844  1.00  0.00     0.074 A 
ATOM     43  C   UNL A   1      38.756  29.701  28.817  1.00  0.00     0.031 C 
ATOM     44  C   UNL A   1      38.492  34.118  34.070  1.00  0.00     0.029 A 
ATOM     45  C   UNL A   1      39.379  32.968  34.224  1.00  0.00     0.049 A 
ATOM     46  H   UNL A   1      39.960  31.627  32.737  1.00  0.00     0.167 HD
ATOM     47  C   UNL A   1      40.753  28.587  29.768  1.00  0.00     0.037 A 
ATOM     48  C   UNL A   1      40.016  32.612  35.357  1.00  0.00     0.037 A 
ATOM     49  C   UNL A   1      41.732  28.358  30.794  1.00  0.00     0.049 A 
ATOM     50  C   UNL A   1      40.991  31.465  35.339  1.00  0.00     0.074 A 
ATOM     51  C   UNL A   1      42.812  27.494  30.784  1.00  0.00     0.029 A 
ATOM     52  N   UNL A   1      41.730  28.983  32.031  1.00  0.00    -0.354 N 
ATOM     53  N   UNL A   1      41.297  30.657  34.355  1.00  0.00    -0.248 NA
ATOM     54  C   UNL A   1      41.750  31.217  36.575  1.00  0.00     0.031 C 
ATOM     55  C   UNL A   1      43.443  27.568  32.033  1.00  0.00     0.029 A 
ATOM     56  C   UNL A   1      42.775  28.504  32.805  1.00  0.00     0.049 A 
ATOM     57  H   UNL A   1      41.083  29.668  32.317  1.00  0.00     0.167 HD
ATOM     58  C   UNL A   1      42.339  29.867  34.822  1.00  0.00     0.074 A 
ATOM     59  C   UNL A   1      42.587  30.263  36.192  1.00  0.00     0.031 C 
ATOM     60  C   UNL A   1      43.047  28.923  34.154  1.00  0.00     0.037 A 
BRANCH  47  61
ATOM     61  C   UNL A   1      40.850  27.813  28.492  1.00  0.00     0.064 A 
ATOM     62  C   UNL A   1      40.174  26.589  28.347  1.00  0.00     0.173 A 
ATOM     63  C   UNL A   1      41.614  28.277  27.414  1.00  0.00     0.173 A 
ATOM     64  F   UNL A   1      39.441  26.100  29.359  1.00  0.00    -0.203 F 
ATOM     65  C   UNL A   1      40.291  25.841  27.183  1.00  0.00     0.198 A 
ATOM     66  C   UNL A   1      41.709  27.535  26.240  1.00  0.00     0.198 A 
ATOM     67  F   UNL A   1      42.275  29.439  27.506  1.00  0.00    -0.203 F 
ATOM     68  F   UNL A   1      39.681  24.651  27.088  1.00  0.00    -0.200 F 
ATOM     69  C   UNL A   1      41.055  26.316  26.128  1.00  0.00     0.200 A 
ATOM     70  F   UNL A   1      42.443  27.996  25.218  1.00  0.00    -0.200 F 
ATOM     71  F   UNL A   1      41.173  25.592  25.007  1.00  0.00    -0.200 F 
ENDBRANCH  47  61
BRANCH  48  72
ATOM     72  C   UNL A   1      39.770  33.356  36.618  1.00  0.00     0.064 A 
ATOM     73  C   UNL A   1      38.728  32.994  37.482  1.00  0.00     0.173 A 
ATOM     74  C   UNL A   1      40.534  34.484  36.948  1.00  0.00     0.173 A 
ATOM     75  F   UNL A   1      37.955  31.938  37.190  1.00  0.00    -0.203 F 
ATOM     76  C   UNL A   1      38.439  33.751  38.615  1.00  0.00     0.198 A 
ATOM     77  C   UNL A   1      40.255  35.231  38.092  1.00  0.00     0.198 A 
ATOM     78  F   UNL A   1      41.539  34.872  36.149  1.00  0.00    -0.203 F 
ATOM     79  F   UNL A   1      37.405  33.415  39.397  1.00  0.00    -0.200 F 
ATOM     80  C   UNL A   1      39.202  34.869  38.919  1.00  0.00     0.200 A 
ATOM     81  F   UNL A   1      40.993  36.311  38.382  1.00  0.00    -0.200 F 
ATOM     82  F   UNL A   1      38.913  35.606  40.000  1.00  0.00    -0.200 F 
ENDBRANCH  48  72
BRANCH  60  83
ATOM     83  C   UNL A   1      44.226  28.315  34.854  1.00  0.00     0.064 A 
ATOM     84  C   UNL A   1      44.127  27.121  35.581  1.00  0.00     0.173 A 
ATOM     85  C   UNL A   1      45.488  28.923  34.756  1.00  0.00     0.173 A 
ATOM     86  F   UNL A   1      42.939  26.514  35.722  1.00  0.00    -0.203 F 
ATOM     87  C   UNL A   1      45.245  26.565  36.196  1.00  0.00     0.198 A 
ATOM     88  C   UNL A   1      46.608  28.350  35.350  1.00  0.00     0.198 A 
ATOM     89  F   UNL A   1      45.635  30.067  34.071  1.00  0.00    -0.203 F 
ATOM     90  F   UNL A   1      45.121  25.443  36.919  1.00  0.00    -0.200 F 
ATOM     91  C   UNL A   1      46.486  27.175  36.075  1.00  0.00     0.200 A 
ATOM     92  F   UNL A   1      47.807  28.938  35.223  1.00  0.00    -0.200 F 
ATOM     93  F   UNL A   1      47.562  26.632  36.661  1.00  0.00    -0.200 F 
ENDBRANCH  60  83
ENDBRANCH  34  35
ENDBRANCH  27  29
ENDBRANCH  26  27
ENDBRANCH  25  26
ENDBRANCH  24  25
ENDBRANCH  23  24
ENDBRANCH   1  23
TORSDOF 19
ENDMDL
MODEL 2
REMARK VINA RESULT:     -10.2      1.073      7.444
REMARK SMILES COC(=O)[C@H]1CCN(C(=O)N[C@H](C(=O)OCCOCCOC(=O)c2ccc(-c3c4nc(c(-c5c(F)c(F)c(F)c(F)c5F)c5ccc([nH]5)c(-c5c(F)c(F)c(F)c(F)c5F)c5nc(c(-c6c(F)c(F)c(F)c(F)c6F)c6ccc3[nH]6)C=C5)C=C4)cc2)C2CC2)C1
REMARK SMILES IDX 17 1 16 2 15 3 13 4 14 5 12 6 11 7 9 8 10 9 8 11 5 12 6 13
REMARK SMILES IDX 90 14 7 15 3 16 4 17 2 18 1 19 87 20 88 21 89 22 18 23 19 24
REMARK SMILES IDX 20 25 21 26 22 27 23 28 24 29 25 30 86 31 26 32 85 33 27 34
REMARK SMILES IDX 28 35 29 36 79 37 30 38 84 39 78 40 80 41 31 42 83 43 77 44
REMARK SMILES IDX 76 45 32 47 64 48 44 49 63 50 45 51 48 52 62 53 81 54 46 55
REMARK SMILES IDX 47 56 61 58 82 59 49 60 33 61 34 62 42 63 35 64 36 65 40 66
REMARK SMILES IDX 43 67 37 68 38 69 41 70 39 71 65 72 66 73 74 74 67 75 68 76
REMARK SMILES IDX 72 77 75 78 69 79 70 80 73 81 71 82 50 83 51 84 59 85 52 86
REMARK SMILES IDX 53 87 57 88 60 89 54 90 55 91 58 92 56 93
REMARK H PARENT 11 10 80 46 48 57
REMARK Flexibility Score: inf
ROOT
ATOM      1  C   UNL A   1      32.936  30.400  26.454  1.00  0.00     0.202 C 
ENDROOT
BRANCH   1   2
ATOM      2  C   UNL A   1      33.178  29.082  25.719  1.00  0.00     0.261 C 
BRANCH   2   3
ATOM      3  O   UNL A   1      33.095  27.990  26.659  1.00  0.00    -0.462 OA
BRANCH   3   4
ATOM      4  C   UNL A   1      31.839  27.503  26.881  1.00  0.00     0.329 C 
ATOM      5  O   UNL A   1      31.085  27.961  27.730  1.00  0.00    -0.250 OA
BRANCH   4   6
ATOM      6  C   UNL A   1      31.462  26.449  25.817  1.00  0.00     0.197 C 
BRANCH   6   7
ATOM      7  N   UNL A   1      31.318  25.023  26.139  1.00  0.00    -0.324 N 
ATOM      8  C   UNL A   1      32.110  24.028  26.561  1.00  0.00     0.318 C 
ATOM      9  O   UNL A   1      31.561  23.237  27.335  1.00  0.00    -0.249 OA
ATOM     10  H   UNL A   1      30.391  24.716  26.012  1.00  0.00     0.166 HD
BRANCH   8  11
ATOM     11  N   UNL A   1      33.358  23.788  26.082  1.00  0.00    -0.324 N 
ATOM     12  C   UNL A   1      33.919  23.624  23.810  1.00  0.00     0.120 C 
ATOM     13  C   UNL A   1      34.405  24.964  24.422  1.00  0.00     0.039 C 
ATOM     14  C   UNL A   1      33.481  22.790  25.026  1.00  0.00     0.136 C 
ATOM     15  C   UNL A   1      34.489  24.663  25.909  1.00  0.00     0.122 C 
BRANCH  12  16
ATOM     16  C   UNL A   1      32.797  23.856  22.821  1.00  0.00     0.310 C 
ATOM     17  O   UNL A   1      31.615  23.793  23.129  1.00  0.00    -0.252 OA
BRANCH  16  18
ATOM     18  O   UNL A   1      33.265  24.250  21.609  1.00  0.00    -0.469 OA
ATOM     19  C   UNL A   1      32.752  25.483  21.106  1.00  0.00     0.282 C 
ENDBRANCH  16  18
ENDBRANCH  12  16
ENDBRANCH   8  11
ENDBRANCH   6   7
BRANCH   6  20
ATOM     20  C   UNL A   1      30.464  26.819  24.739  1.00  0.00     0.023 C 
ATOM     21  C   UNL A   1      30.197  28.211  24.226  1.00  0.00     0.007 C 
ATOM     22  C   UNL A   1      30.964  27.237  23.374  1.00  0.00     0.007 C 
ENDBRANCH   6  20
ENDBRANCH   4   6
ENDBRANCH   3   4
ENDBRANCH   2   3
ENDBRANCH   1   2
BRANCH   1  23
ATOM     23  O   UNL A   1      31.639  30.956  26.216  1.00  0.00    -0.374 OA
BRANCH  23  24
ATOM     24  C   UNL A   1      31.390  32.245  26.762  1.00  0.00     0.202 C 
BRANCH  24  25
ATOM     25  C   UNL A   1      32.523  32.843  27.604  1.00  0.00     0.261 C 
BRANCH  25  26
ATOM     26  O   UNL A   1      32.728  34.252  27.426  1.00  0.00    -0.460 OA
BRANCH  26  27
ATOM     27  C   UNL A   1      33.000  34.934  28.570  1.00  0.00     0.338 C 
ATOM     28  O   UNL A   1      32.424  35.919  28.997  1.00  0.00    -0.246 OA
BRANCH  27  29
ATOM     29  C   UNL A   1      34.139  34.314  29.274  1.00  0.00     0.060 A 
ATOM     30  C   UNL A   1      35.415  34.357  28.694  1.00  0.00     0.016 A 
ATOM     31  C   UNL A   1      33.924  33.592  30.448  1.00  0.00     0.016 A 
ATOM     32  C   UNL A   1      36.488  33.685  29.298  1.00  0.00     0.010 A 
ATOM     33  C   UNL A   1      34.991  32.911  31.037  1.00  0.00     0.010 A 
ATOM     34  C   UNL A   1      36.284  32.950  30.472  1.00  0.00    -0.014 A 
BRANCH  34  35
ATOM     35  C   UNL A   1      37.346  32.112  31.091  1.00  0.00     0.031 A 
ATOM     36  C   UNL A   1      38.007  32.607  32.345  1.00  0.00     0.074 A 
ATOM     37  C   UNL A   1      37.818  31.000  30.496  1.00  0.00     0.049 A 
ATOM     38  N   UNL A   1      39.046  32.127  32.980  1.00  0.00    -0.248 NA
ATOM     39  C   UNL A   1      37.415  33.801  32.966  1.00  0.00     0.031 C 
ATOM     40  C   UNL A   1      37.278  30.377  29.291  1.00  0.00     0.029 A 
ATOM     41  N   UNL A   1      38.932  30.243  30.788  1.00  0.00    -0.354 N 
ATOM     42  C   UNL A   1      39.188  32.920  34.108  1.00  0.00     0.074 A 
ATOM     43  C   UNL A   1      38.208  33.980  34.010  1.00  0.00     0.031 C 
ATOM     44  C   UNL A   1      38.132  29.428  28.867  1.00  0.00     0.029 A 
ATOM     45  C   UNL A   1      39.259  29.354  29.793  1.00  0.00     0.049 A 
ATOM     46  H   UNL A   1      39.442  30.332  31.625  1.00  0.00     0.167 HD
ATOM     47  C   UNL A   1      40.013  32.742  35.167  1.00  0.00     0.037 A 
ATOM     48  C   UNL A   1      40.358  28.590  29.633  1.00  0.00     0.037 A 
ATOM     49  C   UNL A   1      41.012  31.714  35.262  1.00  0.00     0.049 A 
ATOM     50  C   UNL A   1      41.391  28.528  30.726  1.00  0.00     0.074 A 
ATOM     51  C   UNL A   1      41.855  31.419  36.318  1.00  0.00     0.029 A 
ATOM     52  N   UNL A   1      41.318  30.825  34.244  1.00  0.00    -0.354 N 
ATOM     53  N   UNL A   1      41.438  29.188  31.856  1.00  0.00    -0.248 NA
ATOM     54  C   UNL A   1      42.496  27.573  30.546  1.00  0.00     0.031 C 
ATOM     55  C   UNL A   1      42.701  30.375  35.923  1.00  0.00     0.029 A 
ATOM     56  C   UNL A   1      42.358  29.997  34.636  1.00  0.00     0.049 A 
ATOM     57  H   UNL A   1      40.863  30.785  33.371  1.00  0.00     0.167 HD
ATOM     58  C   UNL A   1      42.520  28.668  32.556  1.00  0.00     0.074 A 
ATOM     59  C   UNL A   1      43.129  27.667  31.708  1.00  0.00     0.031 C 
ATOM     60  C   UNL A   1      42.941  28.975  33.807  1.00  0.00     0.037 A 
BRANCH  47  61
ATOM     61  C   UNL A   1      39.812  33.663  36.329  1.00  0.00     0.064 A 
ATOM     62  C   UNL A   1      40.513  34.878  36.406  1.00  0.00     0.173 A 
ATOM     63  C   UNL A   1      38.931  33.342  37.368  1.00  0.00     0.173 A 
ATOM     64  F   UNL A   1      41.378  35.220  35.438  1.00  0.00    -0.203 F 
ATOM     65  C   UNL A   1      40.367  35.720  37.501  1.00  0.00     0.198 A 
ATOM     66  C   UNL A   1      38.768  34.200  38.452  1.00  0.00     0.198 A 
ATOM     67  F   UNL A   1      38.239  32.194  37.338  1.00  0.00    -0.203 F 
ATOM     68  F   UNL A   1      41.087  36.848  37.578  1.00  0.00    -0.200 F 
ATOM     69  C   UNL A   1      39.492  35.383  38.522  1.00  0.00     0.200 A 
ATOM     70  F   UNL A   1      37.918  33.878  39.437  1.00  0.00    -0.200 F 
ATOM     71  F   UNL A   1      39.354  36.193  39.580  1.00  0.00    -0.200 F 
ENDBRANCH  47  61
BRANCH  48  72
ATOM     72  C   UNL A   1      40.546  27.799  28.391  1.00  0.00     0.064 A 
ATOM     73  C   UNL A   1      40.037  26.499  28.274  1.00  0.00     0.173 A 
ATOM     74  C   UNL A   1      41.295  28.310  27.321  1.00  0.00     0.173 A 
ATOM     75  F   UNL A   1      39.338  25.963  29.286  1.00  0.00    -0.203 F 
ATOM     76  C   UNL A   1      40.297  25.725  27.145  1.00  0.00     0.198 A 
ATOM     77  C   UNL A   1      41.539  27.540  26.184  1.00  0.00     0.198 A 
ATOM     78  F   UNL A   1      41.807  29.548  27.388  1.00  0.00    -0.203 F 
ATOM     79  F   UNL A   1      39.843  24.466  27.081  1.00  0.00    -0.200 F 
ATOM     80  C   UNL A   1      41.047  26.246  26.102  1.00  0.00     0.200 A 
ATOM     81  F   UNL A   1      42.266  28.045  25.178  1.00  0.00    -0.200 F 
ATOM     82  F   UNL A   1      41.310  25.494  25.023  1.00  0.00    -0.200 F 
ENDBRANCH  48  72
BRANCH  60  83
ATOM     83  C   UNL A   1      44.056  28.156  34.385  1.00  0.00     0.064 A 
ATOM     84  C   UNL A   1      45.384  28.605  34.395  1.00  0.00     0.173 A 
ATOM     85  C   UNL A   1      43.779  26.912  34.976  1.00  0.00     0.173 A 
ATOM     86  F   UNL A   1      45.704  29.776  33.824  1.00  0.00    -0.203 F 
ATOM     87  C   UNL A   1      46.394  27.835  34.964  1.00  0.00     0.198 A 
ATOM     88  C   UNL A   1      44.787  26.157  35.567  1.00  0.00     0.198 A 
ATOM     89  F   UNL A   1      42.524  26.438  34.992  1.00  0.00    -0.203 F 
ATOM     90  F   UNL A   1      47.663  28.266  34.930  1.00  0.00    -0.200 F 
ATOM     91  C   UNL A   1      46.095  26.616  35.556  1.00  0.00     0.200 A 
ATOM     92  F   UNL A   1      44.493  24.984  36.145  1.00  0.00    -0.200 F 
ATOM     93  F   UNL A   1      47.069  25.881  36.111  1.00  0.00    -0.200 F 
ENDBRANCH  60  83
ENDBRANCH  34  35
ENDBRANCH  27  29
ENDBRANCH  26  27
ENDBRANCH  25  26
ENDBRANCH  24  25
ENDBRANCH  23  24
ENDBRANCH   1  23
TORSDOF 19
ENDMDL
MODEL 3
REMARK VINA RESULT:     -10.1      5.169     10.740
REMARK SMILES COC(=O)[C@H]1CCN(C(=O)N[C@H](C(=O)OCCOCCOC(=O)c2ccc(-c3c4nc(c(-c5c(F)c(F)c(F)c(F)c5F)c5ccc([nH]5)c(-c5c(F)c(F)c(F)c(F)c5F)c5nc(c(-c6c(F)c(F)c(F)c(F)c6F)c6ccc3[nH]6)C=C5)C=C4)cc2)C2CC2)C1
REMARK SMILES IDX 17 1 16 2 15 3 13 4 14 5 12 6 11 7 9 8 10 9 8 11 5 12 6 13
REMARK SMILES IDX 90 14 7 15 3 16 4 17 2 18 1 19 87 20 88 21 89 22 18 23 19 24
REMARK SMILES IDX 20 25 21 26 22 27 23 28 24 29 25 30 86 31 26 32 85 33 27 34
REMARK SMILES IDX 28 35 29 36 79 37 30 38 84 39 78 40 80 41 31 42 83 43 77 44
REMARK SMILES IDX 76 45 32 47 64 48 44 49 63 50 45 51 48 52 62 53 81 54 46 55
REMARK SMILES IDX 47 56 61 58 82 59 49 60 33 61 34 62 42 63 35 64 36 65 40 66
REMARK SMILES IDX 43 67 37 68 38 69 41 70 39 71 65 72 66 73 74 74 67 75 68 76
REMARK SMILES IDX 72 77 75 78 69 79 70 80 73 81 71 82 50 83 51 84 59 85 52 86
REMARK SMILES IDX 53 87 57 88 60 89 54 90 55 91 58 92 56 93
REMARK H PARENT 11 10 80 46 48 57
REMARK Flexibility Score: inf
ROOT
ATOM      1  C   UNL A   1      37.046  23.322  25.610  1.00  0.00     0.202 C 
ENDROOT
BRANCH   1   2
ATOM      2  C   UNL A   1      35.685  23.633  24.988  1.00  0.00     0.261 C 
BRANCH   2   3
ATOM      3  O   UNL A   1      34.651  23.404  25.967  1.00  0.00    -0.462 OA
BRANCH   3   4
ATOM      4  C   UNL A   1      33.833  22.339  25.717  1.00  0.00     0.329 C 
ATOM      5  O   UNL A   1      34.181  21.176  25.880  1.00  0.00    -0.250 OA
BRANCH   4   6
ATOM      6  C   UNL A   1      32.401  22.811  25.385  1.00  0.00     0.197 C 
BRANCH   6   7
ATOM      7  N   UNL A   1      31.736  23.888  26.131  1.00  0.00    -0.324 N 
ATOM      8  C   UNL A   1      31.237  25.102  25.864  1.00  0.00     0.318 C 
ATOM      9  O   UNL A   1      30.218  25.383  26.503  1.00  0.00    -0.249 OA
ATOM     10  H   UNL A   1      31.627  23.655  27.082  1.00  0.00     0.166 HD
BRANCH   8  11
ATOM     11  N   UNL A   1      31.855  26.029  25.087  1.00  0.00    -0.324 N 
ATOM     12  C   UNL A   1      32.243  28.259  25.704  1.00  0.00     0.120 C 
ATOM     13  C   UNL A   1      33.547  27.420  25.749  1.00  0.00     0.039 C 
ATOM     14  C   UNL A   1      31.228  27.343  24.999  1.00  0.00     0.136 C 
ATOM     15  C   UNL A   1      33.250  26.257  24.815  1.00  0.00     0.122 C 
BRANCH  12  16
ATOM     16  C   UNL A   1      31.808  28.658  27.097  1.00  0.00     0.310 C 
ATOM     17  O   UNL A   1      31.619  27.847  27.993  1.00  0.00    -0.252 OA
BRANCH  16  18
ATOM     18  O   UNL A   1      31.773  30.007  27.249  1.00  0.00    -0.469 OA
ATOM     19  C   UNL A   1      33.035  30.673  27.250  1.00  0.00     0.282 C 
ENDBRANCH  16  18
ENDBRANCH  12  16
ENDBRANCH   8  11
ENDBRANCH   6   7
BRANCH   6  20
ATOM     20  C   UNL A   1      31.963  22.866  23.936  1.00  0.00     0.023 C 
ATOM     21  C   UNL A   1      32.880  22.924  22.741  1.00  0.00     0.007 C 
ATOM     22  C   UNL A   1      32.148  21.648  23.056  1.00  0.00     0.007 C 
ENDBRANCH   6  20
ENDBRANCH   4   6
ENDBRANCH   3   4
ENDBRANCH   2   3
ENDBRANCH   1   2
BRANCH   1  23
ATOM     23  O   UNL A   1      37.440  21.953  25.466  1.00  0.00    -0.374 OA
BRANCH  23  24
ATOM     24  C   UNL A   1      38.788  21.641  25.799  1.00  0.00     0.202 C 
BRANCH  24  25
ATOM     25  C   UNL A   1      39.228  20.201  25.516  1.00  0.00     0.261 C 
BRANCH  25  26
ATOM     26  O   UNL A   1      40.097  19.630  26.505  1.00  0.00    -0.460 OA
BRANCH  26  27
ATOM     27  C   UNL A   1      41.408  19.581  26.148  1.00  0.00     0.338 C 
ATOM     28  O   UNL A   1      41.988  18.667  25.591  1.00  0.00    -0.246 OA
BRANCH  27  29
ATOM     29  C   UNL A   1      42.088  20.832  26.537  1.00  0.00     0.060 A 
ATOM     30  C   UNL A   1      42.173  21.179  27.893  1.00  0.00     0.016 A 
ATOM     31  C   UNL A   1      42.538  21.716  25.556  1.00  0.00     0.016 A 
ATOM     32  C   UNL A   1      42.724  22.411  28.274  1.00  0.00     0.010 A 
ATOM     33  C   UNL A   1      43.069  22.949  25.938  1.00  0.00     0.010 A 
ATOM     34  C   UNL A   1      43.171  23.311  27.298  1.00  0.00    -0.014 A 
BRANCH  34  35
ATOM     35  C   UNL A   1      43.646  24.681  27.626  1.00  0.00     0.031 A 
ATOM     36  C   UNL A   1      42.625  25.733  27.954  1.00  0.00     0.074 A 
ATOM     37  C   UNL A   1      44.940  25.038  27.513  1.00  0.00     0.049 A 
ATOM     38  N   UNL A   1      42.786  27.020  28.130  1.00  0.00    -0.248 NA
ATOM     39  C   UNL A   1      41.237  25.269  28.104  1.00  0.00     0.031 C 
ATOM     40  C   UNL A   1      46.054  24.140  27.225  1.00  0.00     0.029 A 
ATOM     41  N   UNL A   1      45.521  26.286  27.542  1.00  0.00    -0.354 N 
ATOM     42  C   UNL A   1      41.535  27.505  28.476  1.00  0.00     0.074 A 
ATOM     43  C   UNL A   1      40.605  26.400  28.371  1.00  0.00     0.031 C 
ATOM     44  C   UNL A   1      47.153  24.871  26.965  1.00  0.00     0.029 A 
ATOM     45  C   UNL A   1      46.825  26.288  27.105  1.00  0.00     0.049 A 
ATOM     46  H   UNL A   1      45.051  27.096  27.846  1.00  0.00     0.167 HD
ATOM     47  C   UNL A   1      41.199  28.742  28.913  1.00  0.00     0.037 A 
ATOM     48  C   UNL A   1      47.648  27.317  26.822  1.00  0.00     0.037 A 
ATOM     49  C   UNL A   1      42.105  29.854  28.992  1.00  0.00     0.049 A 
ATOM     50  C   UNL A   1      47.214  28.727  27.124  1.00  0.00     0.074 A 
ATOM     51  C   UNL A   1      41.872  31.129  29.475  1.00  0.00     0.029 A 
ATOM     52  N   UNL A   1      43.418  29.827  28.549  1.00  0.00    -0.354 N 
ATOM     53  N   UNL A   1      46.066  29.157  27.585  1.00  0.00    -0.248 NA
ATOM     54  C   UNL A   1      48.210  29.789  26.916  1.00  0.00     0.031 C 
ATOM     55  C   UNL A   1      43.035  31.887  29.287  1.00  0.00     0.029 A 
ATOM     56  C   UNL A   1      44.001  31.072  28.721  1.00  0.00     0.049 A 
ATOM     57  H   UNL A   1      43.870  29.039  28.169  1.00  0.00     0.167 HD
ATOM     58  C   UNL A   1      46.231  30.518  27.806  1.00  0.00     0.074 A 
ATOM     59  C   UNL A   1      47.575  30.853  27.389  1.00  0.00     0.031 C 
ATOM     60  C   UNL A   1      45.350  31.398  28.342  1.00  0.00     0.037 A 
BRANCH  47  61
ATOM     61  C   UNL A   1      39.793  28.920  29.392  1.00  0.00     0.064 A 
ATOM     62  C   UNL A   1      38.798  29.393  28.521  1.00  0.00     0.173 A 
ATOM     63  C   UNL A   1      39.432  28.629  30.713  1.00  0.00     0.173 A 
ATOM     64  F   UNL A   1      39.103  29.697  27.250  1.00  0.00    -0.203 F 
ATOM     65  C   UNL A   1      37.498  29.603  28.966  1.00  0.00     0.198 A 
ATOM     66  C   UNL A   1      38.123  28.817  31.149  1.00  0.00     0.198 A 
ATOM     67  F   UNL A   1      40.347  28.174  31.580  1.00  0.00    -0.203 F 
ATOM     68  F   UNL A   1      36.578  30.106  28.131  1.00  0.00    -0.200 F 
ATOM     69  C   UNL A   1      37.161  29.312  30.278  1.00  0.00     0.200 A 
ATOM     70  F   UNL A   1      37.794  28.531  32.416  1.00  0.00    -0.200 F 
ATOM     71  F   UNL A   1      35.909  29.519  30.709  1.00  0.00    -0.200 F 
ENDBRANCH  47  61
BRANCH  48  72
ATOM     72  C   UNL A   1      48.985  27.064  26.228  1.00  0.00     0.064 A 
ATOM     73  C   UNL A   1      49.176  27.074  24.841  1.00  0.00     0.173 A 
ATOM     74  C   UNL A   1      50.082  26.743  27.040  1.00  0.00     0.173 A 
ATOM     75  F   UNL A   1      48.146  27.349  24.027  1.00  0.00    -0.203 F 
ATOM     76  C   UNL A   1      50.409  26.742  24.284  1.00  0.00     0.198 A 
ATOM     77  C   UNL A   1      51.320  26.428  26.482  1.00  0.00     0.198 A 
ATOM     78  F   UNL A   1      49.947  26.715  28.375  1.00  0.00    -0.203 F 
ATOM     79  F   UNL A   1      50.552  26.708  22.952  1.00  0.00    -0.200 F 
ATOM     80  C   UNL A   1      51.479  26.418  25.104  1.00  0.00     0.200 A 
ATOM     81  F   UNL A   1      52.352  26.114  27.277  1.00  0.00    -0.200 F 
ATOM     82  F   UNL A   1      52.660  26.084  24.566  1.00  0.00    -0.200 F 
ENDBRANCH  48  72
BRANCH  60  83
ATOM     83  C   UNL A   1      45.836  32.792  28.605  1.00  0.00     0.064 A 
ATOM     84  C   UNL A   1      45.660  33.830  27.680  1.00  0.00     0.173 A 
ATOM     85  C   UNL A   1      46.453  33.099  29.829  1.00  0.00     0.173 A 
ATOM     86  F   UNL A   1      45.095  33.583  26.488  1.00  0.00    -0.203 F 
ATOM     87  C   UNL A   1      46.096  35.122  27.965  1.00  0.00     0.198 A 
ATOM     88  C   UNL A   1      46.864  34.397  30.120  1.00  0.00     0.198 A 
ATOM     89  F   UNL A   1      46.644  32.141  30.748  1.00  0.00    -0.203 F 
ATOM     90  F   UNL A   1      45.952  36.092  27.051  1.00  0.00    -0.200 F 
ATOM     91  C   UNL A   1      46.690  35.406  29.186  1.00  0.00     0.200 A 
ATOM     92  F   UNL A   1      47.429  34.669  31.305  1.00  0.00    -0.200 F 
ATOM     93  F   UNL A   1      47.100  36.652  29.461  1.00  0.00    -0.200 F 
ENDBRANCH  60  83
ENDBRANCH  34  35
ENDBRANCH  27  29
ENDBRANCH  26  27
ENDBRANCH  25  26
ENDBRANCH  24  25
ENDBRANCH  23  24
ENDBRANCH   1  23
TORSDOF 19
ENDMDL
