MODEL 1
REMARK VINA RESULT:     -11.6      0.000      0.000
REMARK SMILES COc1ccc2c(c1)C=C(C(=O)OCCOCCOC(=O)c1ccc(-c3c4nc(c(-c5c(F)c(F)c(F)c(F)c5F)c5ccc([nH]5)c(-c5c(F)c(F)c(F)c(F)c5F)c5nc(c(-c6c(F)c(F)c(F)c(F)c6F)c6ccc3[nH]6)C=C5)C=C4)cc1)[C@H](C(F)(F)F)O2
REMARK SMILES IDX 17 1 16 2 15 3 14 4 13 5 11 6 12 7 10 8 3 9 4 10 8 11 5 12
REMARK SMILES IDX 7 13 6 14 9 15 90 16 85 17 2 18 1 19 86 20 87 21 88 22 89 23
REMARK SMILES IDX 18 24 19 25 20 26 21 27 22 28 23 29 84 30 24 31 83 32 25 33
REMARK SMILES IDX 26 34 27 35 77 36 28 37 82 38 76 39 78 40 29 41 81 42 75 43
REMARK SMILES IDX 74 44 30 46 62 47 42 48 61 49 43 50 46 51 60 52 79 53 44 54
REMARK SMILES IDX 45 55 59 57 80 58 47 59 31 60 32 61 40 62 33 63 34 64 38 65
REMARK SMILES IDX 41 66 35 67 36 68 39 69 37 70 63 71 64 72 72 73 65 74 66 75
REMARK SMILES IDX 70 76 73 77 67 78 68 79 71 80 69 81 48 82 49 83 57 84 50 85
REMARK SMILES IDX 51 86 55 87 58 88 52 89 53 90 56 91 54 92
REMARK H PARENT 78 45 46 56
REMARK Flexibility Score: inf
ROOT
ATOM      1  C   UNL A   1      37.955  19.555  24.960  1.00  0.00     0.202 C 
ENDROOT
BRANCH   1   2
ATOM      2  O   UNL A   1      37.442  20.886  24.913  1.00  0.00    -0.374 OA
BRANCH   2   3
ATOM      3  C   UNL A   1      36.033  21.067  25.001  1.00  0.00     0.202 C 
BRANCH   3   4
ATOM      4  C   UNL A   1      35.495  22.484  24.784  1.00  0.00     0.261 C 
BRANCH   4   5
ATOM      5  O   UNL A   1      34.122  22.600  25.187  1.00  0.00    -0.460 OA
BRANCH   5   6
ATOM      6  C   UNL A   1      33.417  23.556  24.538  1.00  0.00     0.338 C 
ATOM      7  O   UNL A   1      33.014  23.505  23.386  1.00  0.00    -0.246 OA
BRANCH   6   8
ATOM      8  C   UNL A   1      33.090  24.670  25.442  1.00  0.00     0.087 C 
ATOM      9  C   UNL A   1      33.553  29.203  27.018  1.00  0.00     0.119 A 
ATOM     10  C   UNL A   1      32.235  29.162  27.480  1.00  0.00     0.050 A 
ATOM     11  C   UNL A   1      34.096  28.084  26.374  1.00  0.00     0.058 A 
ATOM     12  C   UNL A   1      31.472  28.005  27.317  1.00  0.00     0.051 A 
ATOM     13  C   UNL A   1      33.336  26.924  26.202  1.00  0.00     0.021 A 
ATOM     14  C   UNL A   1      32.027  26.890  26.697  1.00  0.00     0.128 A 
ATOM     15  C   UNL A   1      33.824  25.795  25.411  1.00  0.00     0.027 C 
ATOM     16  O   UNL A   1      31.207  25.804  26.537  1.00  0.00    -0.475 OA
ATOM     17  C   UNL A   1      31.910  24.543  26.380  1.00  0.00     0.316 C 
BRANCH   9  18
ATOM     18  O   UNL A   1      34.393  30.280  27.100  1.00  0.00    -0.497 OA
ATOM     19  C   UNL A   1      33.855  31.470  27.666  1.00  0.00     0.278 C 
ENDBRANCH   9  18
BRANCH  17  20
ATOM     20  C   UNL A   1      30.875  23.436  26.113  1.00  0.00     0.430 C 
ATOM     21  F   UNL A   1      31.381  22.214  26.405  1.00  0.00    -0.167 F 
ATOM     22  F   UNL A   1      29.801  23.597  26.931  1.00  0.00    -0.167 F 
ATOM     23  F   UNL A   1      30.410  23.431  24.849  1.00  0.00    -0.167 F 
ENDBRANCH  17  20
ENDBRANCH   6   8
ENDBRANCH   5   6
ENDBRANCH   4   5
ENDBRANCH   3   4
ENDBRANCH   2   3
ENDBRANCH   1   2
BRANCH   1  24
ATOM     24  C   UNL A   1      39.305  19.340  25.655  1.00  0.00     0.261 C 
BRANCH  24  25
ATOM     25  O   UNL A   1      40.006  20.571  25.899  1.00  0.00    -0.460 OA
BRANCH  25  26
ATOM     26  C   UNL A   1      40.686  20.613  27.070  1.00  0.00     0.338 C 
ATOM     27  O   UNL A   1      41.189  19.674  27.672  1.00  0.00    -0.246 OA
BRANCH  26  28
ATOM     28  C   UNL A   1      40.912  22.010  27.472  1.00  0.00     0.060 A 
ATOM     29  C   UNL A   1      40.254  23.010  26.745  1.00  0.00     0.016 A 
ATOM     30  C   UNL A   1      41.814  22.341  28.484  1.00  0.00     0.016 A 
ATOM     31  C   UNL A   1      40.530  24.352  26.997  1.00  0.00     0.010 A 
ATOM     32  C   UNL A   1      42.096  23.688  28.730  1.00  0.00     0.010 A 
ATOM     33  C   UNL A   1      41.482  24.696  27.964  1.00  0.00    -0.014 A 
BRANCH  33  34
ATOM     34  C   UNL A   1      41.934  26.103  28.075  1.00  0.00     0.031 A 
ATOM     35  C   UNL A   1      43.264  26.491  27.495  1.00  0.00     0.074 A 
ATOM     36  C   UNL A   1      41.163  27.025  28.676  1.00  0.00     0.049 A 
ATOM     37  N   UNL A   1      43.874  27.649  27.513  1.00  0.00    -0.248 NA
ATOM     38  C   UNL A   1      44.012  25.426  26.809  1.00  0.00     0.031 C 
ATOM     39  C   UNL A   1      39.845  26.771  29.253  1.00  0.00     0.029 A 
ATOM     40  N   UNL A   1      41.387  28.356  28.912  1.00  0.00    -0.354 N 
ATOM     41  C   UNL A   1      45.079  27.449  26.855  1.00  0.00     0.074 A 
ATOM     42  C   UNL A   1      45.129  26.053  26.474  1.00  0.00     0.031 C 
ATOM     43  C   UNL A   1      39.383  27.910  29.796  1.00  0.00     0.029 A 
ATOM     44  C   UNL A   1      40.386  28.960  29.630  1.00  0.00     0.049 A 
ATOM     45  H   UNL A   1      42.188  28.834  28.596  1.00  0.00     0.167 HD
ATOM     46  C   UNL A   1      46.055  28.351  26.588  1.00  0.00     0.037 A 
ATOM     47  C   UNL A   1      40.303  30.214  30.119  1.00  0.00     0.037 A 
ATOM     48  C   UNL A   1      45.996  29.740  26.964  1.00  0.00     0.049 A 
ATOM     49  C   UNL A   1      41.417  31.188  29.849  1.00  0.00     0.074 A 
ATOM     50  C   UNL A   1      46.908  30.745  26.696  1.00  0.00     0.029 A 
ATOM     51  N   UNL A   1      44.972  30.314  27.704  1.00  0.00    -0.354 N 
ATOM     52  N   UNL A   1      42.534  31.007  29.186  1.00  0.00    -0.248 NA
ATOM     53  C   UNL A   1      41.257  32.545  30.391  1.00  0.00     0.031 C 
ATOM     54  C   UNL A   1      46.466  31.914  27.325  1.00  0.00     0.029 A 
ATOM     55  C   UNL A   1      45.248  31.652  27.934  1.00  0.00     0.049 A 
ATOM     56  H   UNL A   1      44.169  29.841  28.019  1.00  0.00     0.167 HD
ATOM     57  C   UNL A   1      43.199  32.225  29.212  1.00  0.00     0.074 A 
ATOM     58  C   UNL A   1      42.353  33.145  29.945  1.00  0.00     0.031 C 
ATOM     59  C   UNL A   1      44.399  32.555  28.673  1.00  0.00     0.037 A 
BRANCH  46  60
ATOM     60  C   UNL A   1      47.284  27.850  25.887  1.00  0.00     0.064 A 
ATOM     61  C   UNL A   1      48.442  27.478  26.587  1.00  0.00     0.173 A 
ATOM     62  C   UNL A   1      47.299  27.732  24.488  1.00  0.00     0.173 A 
ATOM     63  F   UNL A   1      48.485  27.584  27.924  1.00  0.00    -0.203 F 
ATOM     64  C   UNL A   1      49.580  27.044  25.912  1.00  0.00     0.198 A 
ATOM     65  C   UNL A   1      48.428  27.267  23.818  1.00  0.00     0.198 A 
ATOM     66  F   UNL A   1      46.218  28.069  23.769  1.00  0.00    -0.203 F 
ATOM     67  F   UNL A   1      50.694  26.751  26.599  1.00  0.00    -0.200 F 
ATOM     68  C   UNL A   1      49.570  26.933  24.530  1.00  0.00     0.200 A 
ATOM     69  F   UNL A   1      48.412  27.150  22.484  1.00  0.00    -0.200 F 
ATOM     70  F   UNL A   1      50.667  26.516  23.882  1.00  0.00    -0.200 F 
ENDBRANCH  46  60
BRANCH  47  71
ATOM     71  C   UNL A   1      39.118  30.603  30.926  1.00  0.00     0.064 A 
ATOM     72  C   UNL A   1      39.085  30.400  32.311  1.00  0.00     0.173 A 
ATOM     73  C   UNL A   1      38.004  31.210  30.326  1.00  0.00     0.173 A 
ATOM     74  F   UNL A   1      40.116  29.803  32.925  1.00  0.00    -0.203 F 
ATOM     75  C   UNL A   1      37.978  30.783  33.067  1.00  0.00     0.198 A 
ATOM     76  C   UNL A   1      36.910  31.618  31.086  1.00  0.00     0.198 A 
ATOM     77  F   UNL A   1      37.989  31.428  29.003  1.00  0.00    -0.203 F 
ATOM     78  F   UNL A   1      37.957  30.549  34.385  1.00  0.00    -0.200 F 
ATOM     79  C   UNL A   1      36.896  31.400  32.455  1.00  0.00     0.200 A 
ATOM     80  F   UNL A   1      35.874  32.225  30.493  1.00  0.00    -0.200 F 
ATOM     81  F   UNL A   1      35.838  31.780  33.185  1.00  0.00    -0.200 F 
ENDBRANCH  47  71
BRANCH  59  82
ATOM     82  C   UNL A   1      44.865  33.973  28.836  1.00  0.00     0.064 A 
ATOM     83  C   UNL A   1      45.680  34.362  29.910  1.00  0.00     0.173 A 
ATOM     84  C   UNL A   1      44.528  34.946  27.882  1.00  0.00     0.173 A 
ATOM     85  F   UNL A   1      46.019  33.475  30.857  1.00  0.00    -0.203 F 
ATOM     86  C   UNL A   1      46.123  35.677  30.033  1.00  0.00     0.198 A 
ATOM     87  C   UNL A   1      44.998  36.252  27.992  1.00  0.00     0.198 A 
ATOM     88  F   UNL A   1      43.757  34.625  26.833  1.00  0.00    -0.203 F 
ATOM     89  F   UNL A   1      46.863  36.037  31.091  1.00  0.00    -0.200 F 
ATOM     90  C   UNL A   1      45.787  36.619  29.071  1.00  0.00     0.200 A 
ATOM     91  F   UNL A   1      44.685  37.156  27.054  1.00  0.00    -0.200 F 
ATOM     92  F   UNL A   1      46.222  37.881  29.186  1.00  0.00    -0.200 F 
ENDBRANCH  59  82
ENDBRANCH  33  34
ENDBRANCH  26  28
ENDBRANCH  25  26
ENDBRANCH  24  25
ENDBRANCH   1  24
TORSDOF 16
ENDMDL
MODEL 2
REMARK VINA RESULT:     -11.5      2.336      8.335
REMARK SMILES COc1ccc2c(c1)C=C(C(=O)OCCOCCOC(=O)c1ccc(-c3c4nc(c(-c5c(F)c(F)c(F)c(F)c5F)c5ccc([nH]5)c(-c5c(F)c(F)c(F)c(F)c5F)c5nc(c(-c6c(F)c(F)c(F)c(F)c6F)c6ccc3[nH]6)C=C5)C=C4)cc1)[C@H](C(F)(F)F)O2
REMARK SMILES IDX 17 1 16 2 15 3 14 4 13 5 11 6 12 7 10 8 3 9 4 10 8 11 5 12
REMARK SMILES IDX 7 13 6 14 9 15 90 16 85 17 2 18 1 19 86 20 87 21 88 22 89 23
REMARK SMILES IDX 18 24 19 25 20 26 21 27 22 28 23 29 84 30 24 31 83 32 25 33
REMARK SMILES IDX 26 34 27 35 77 36 28 37 82 38 76 39 78 40 29 41 81 42 75 43
REMARK SMILES IDX 74 44 30 46 62 47 42 48 61 49 43 50 46 51 60 52 79 53 44 54
REMARK SMILES IDX 45 55 59 57 80 58 47 59 31 60 32 61 40 62 33 63 34 64 38 65
REMARK SMILES IDX 41 66 35 67 36 68 39 69 37 70 63 71 64 72 72 73 65 74 66 75
REMARK SMILES IDX 70 76 73 77 67 78 68 79 71 80 69 81 48 82 49 83 57 84 50 85
REMARK SMILES IDX 51 86 55 87 58 88 52 89 53 90 56 91 54 92
REMARK H PARENT 78 45 46 56
REMARK Flexibility Score: inf
ROOT
ATOM      1  C   UNL A   1      37.995  20.500  25.001  1.00  0.00     0.202 C 
ENDROOT
BRANCH   1   2
ATOM      2  O   UNL A   1      38.126  21.762  25.655  1.00  0.00    -0.374 OA
BRANCH   2   3
ATOM      3  C   UNL A   1      37.464  22.887  25.085  1.00  0.00     0.202 C 
BRANCH   3   4
ATOM      4  C   UNL A   1      36.470  23.637  25.975  1.00  0.00     0.261 C 
BRANCH   4   5
ATOM      5  O   UNL A   1      35.173  23.729  25.365  1.00  0.00    -0.460 OA
BRANCH   5   6
ATOM      6  C   UNL A   1      34.223  22.947  25.928  1.00  0.00     0.338 C 
ATOM      7  O   UNL A   1      33.609  23.179  26.959  1.00  0.00    -0.246 OA
BRANCH   6   8
ATOM      8  C   UNL A   1      33.925  21.787  25.074  1.00  0.00     0.087 C 
ATOM      9  C   UNL A   1      34.024  17.082  24.029  1.00  0.00     0.119 A 
ATOM     10  C   UNL A   1      32.848  17.235  23.292  1.00  0.00     0.050 A 
ATOM     11  C   UNL A   1      34.585  18.190  24.677  1.00  0.00     0.058 A 
ATOM     12  C   UNL A   1      32.246  18.490  23.186  1.00  0.00     0.051 A 
ATOM     13  C   UNL A   1      33.985  19.448  24.581  1.00  0.00     0.021 A 
ATOM     14  C   UNL A   1      32.823  19.590  23.813  1.00  0.00     0.128 A 
ATOM     15  C   UNL A   1      34.464  20.590  25.358  1.00  0.00     0.027 C 
ATOM     16  O   UNL A   1      32.157  20.781  23.698  1.00  0.00    -0.475 OA
ATOM     17  C   UNL A   1      32.991  21.953  23.895  1.00  0.00     0.316 C 
BRANCH   9  18
ATOM     18  O   UNL A   1      34.696  15.905  24.224  1.00  0.00    -0.497 OA
ATOM     19  C   UNL A   1      35.528  15.826  25.376  1.00  0.00     0.278 C 
ENDBRANCH   9  18
BRANCH  17  20
ATOM     20  C   UNL A   1      32.098  23.205  23.836  1.00  0.00     0.430 C 
ATOM     21  F   UNL A   1      32.840  24.326  23.674  1.00  0.00    -0.167 F 
ATOM     22  F   UNL A   1      31.280  23.142  22.752  1.00  0.00    -0.167 F 
ATOM     23  F   UNL A   1      31.307  23.351  24.917  1.00  0.00    -0.167 F 
ENDBRANCH  17  20
ENDBRANCH   6   8
ENDBRANCH   5   6
ENDBRANCH   4   5
ENDBRANCH   3   4
ENDBRANCH   2   3
ENDBRANCH   1   2
BRANCH   1  24
ATOM     24  C   UNL A   1      38.991  19.398  25.382  1.00  0.00     0.261 C 
BRANCH  24  25
ATOM     25  O   UNL A   1      39.882  19.796  26.439  1.00  0.00    -0.460 OA
BRANCH  25  26
ATOM     26  C   UNL A   1      41.191  19.547  26.199  1.00  0.00     0.338 C 
ATOM     27  O   UNL A   1      41.684  18.519  25.753  1.00  0.00    -0.246 OA
BRANCH  26  28
ATOM     28  C   UNL A   1      41.980  20.776  26.382  1.00  0.00     0.060 A 
ATOM     29  C   UNL A   1      42.279  21.166  27.694  1.00  0.00     0.016 A 
ATOM     30  C   UNL A   1      42.348  21.575  25.299  1.00  0.00     0.016 A 
ATOM     31  C   UNL A   1      42.909  22.384  27.932  1.00  0.00     0.010 A 
ATOM     32  C   UNL A   1      42.973  22.802  25.541  1.00  0.00     0.010 A 
ATOM     33  C   UNL A   1      43.224  23.227  26.859  1.00  0.00    -0.014 A 
BRANCH  33  34
ATOM     34  C   UNL A   1      43.688  24.608  27.127  1.00  0.00     0.031 A 
ATOM     35  C   UNL A   1      42.708  25.621  27.643  1.00  0.00     0.074 A 
ATOM     36  C   UNL A   1      44.971  24.951  26.921  1.00  0.00     0.049 A 
ATOM     37  N   UNL A   1      42.884  26.891  27.906  1.00  0.00    -0.248 NA
ATOM     38  C   UNL A   1      41.340  25.139  27.889  1.00  0.00     0.031 C 
ATOM     39  C   UNL A   1      46.017  24.049  26.446  1.00  0.00     0.029 A 
ATOM     40  N   UNL A   1      45.605  26.157  27.073  1.00  0.00    -0.354 N 
ATOM     41  C   UNL A   1      41.650  27.361  28.334  1.00  0.00     0.074 A 
ATOM     42  C   UNL A   1      40.726  26.248  28.270  1.00  0.00     0.031 C 
ATOM     43  C   UNL A   1      47.164  24.739  26.327  1.00  0.00     0.029 A 
ATOM     44  C   UNL A   1      46.922  26.135  26.687  1.00  0.00     0.049 A 
ATOM     45  H   UNL A   1      45.160  26.961  27.426  1.00  0.00     0.167 HD
ATOM     46  C   UNL A   1      41.319  28.608  28.749  1.00  0.00     0.037 A 
ATOM     47  C   UNL A   1      47.822  27.135  26.610  1.00  0.00     0.037 A 
ATOM     48  C   UNL A   1      42.245  29.709  28.817  1.00  0.00     0.049 A 
ATOM     49  C   UNL A   1      47.422  28.523  27.034  1.00  0.00     0.074 A 
ATOM     50  C   UNL A   1      42.022  30.997  29.271  1.00  0.00     0.029 A 
ATOM     51  N   UNL A   1      43.568  29.654  28.404  1.00  0.00    -0.354 N 
ATOM     52  N   UNL A   1      46.267  28.952  27.482  1.00  0.00    -0.248 NA
ATOM     53  C   UNL A   1      48.455  29.566  26.947  1.00  0.00     0.031 C 
ATOM     54  C   UNL A   1      43.193  31.737  29.077  1.00  0.00     0.029 A 
ATOM     55  C   UNL A   1      44.165  30.895  28.558  1.00  0.00     0.049 A 
ATOM     56  H   UNL A   1      44.018  28.851  28.053  1.00  0.00     0.167 HD
ATOM     57  C   UNL A   1      46.436  30.304  27.750  1.00  0.00     0.074 A 
ATOM     58  C   UNL A   1      47.812  30.623  27.427  1.00  0.00     0.031 C 
ATOM     59  C   UNL A   1      45.535  31.200  28.224  1.00  0.00     0.037 A 
BRANCH  46  60
ATOM     60  C   UNL A   1      39.887  28.853  29.124  1.00  0.00     0.064 A 
ATOM     61  C   UNL A   1      39.424  28.698  30.440  1.00  0.00     0.173 A 
ATOM     62  C   UNL A   1      38.962  29.259  28.149  1.00  0.00     0.173 A 
ATOM     63  F   UNL A   1      40.263  28.298  31.407  1.00  0.00    -0.203 F 
ATOM     64  C   UNL A   1      38.083  28.904  30.758  1.00  0.00     0.198 A 
ATOM     65  C   UNL A   1      37.629  29.495  28.476  1.00  0.00     0.198 A 
ATOM     66  F   UNL A   1      39.351  29.428  26.876  1.00  0.00    -0.203 F 
ATOM     67  F   UNL A   1      37.653  28.692  32.009  1.00  0.00    -0.200 F 
ATOM     68  C   UNL A   1      37.189  29.307  29.778  1.00  0.00     0.200 A 
ATOM     69  F   UNL A   1      36.770  29.896  27.530  1.00  0.00    -0.200 F 
ATOM     70  F   UNL A   1      35.900  29.504  30.085  1.00  0.00    -0.200 F 
ENDBRANCH  46  60
BRANCH  47  71
ATOM     71  C   UNL A   1      49.185  26.850  26.097  1.00  0.00     0.064 A 
ATOM     72  C   UNL A   1      50.199  26.389  26.945  1.00  0.00     0.173 A 
ATOM     73  C   UNL A   1      49.493  27.013  24.737  1.00  0.00     0.173 A 
ATOM     74  F   UNL A   1      49.959  26.241  28.256  1.00  0.00    -0.203 F 
ATOM     75  C   UNL A   1      51.473  26.106  26.455  1.00  0.00     0.198 A 
ATOM     76  C   UNL A   1      50.758  26.704  24.243  1.00  0.00     0.198 A 
ATOM     77  F   UNL A   1      48.555  27.450  23.884  1.00  0.00    -0.203 F 
ATOM     78  F   UNL A   1      52.435  25.697  27.293  1.00  0.00    -0.200 F 
ATOM     79  C   UNL A   1      51.749  26.255  25.103  1.00  0.00     0.200 A 
ATOM     80  F   UNL A   1      51.016  26.835  22.935  1.00  0.00    -0.200 F 
ATOM     81  F   UNL A   1      52.970  25.970  24.631  1.00  0.00    -0.200 F 
ENDBRANCH  47  71
BRANCH  59  82
ATOM     82  C   UNL A   1      46.009  32.607  28.444  1.00  0.00     0.064 A 
ATOM     83  C   UNL A   1      45.886  33.590  27.450  1.00  0.00     0.173 A 
ATOM     84  C   UNL A   1      46.553  32.989  29.680  1.00  0.00     0.173 A 
ATOM     85  F   UNL A   1      45.386  33.274  26.247  1.00  0.00    -0.203 F 
ATOM     86  C   UNL A   1      46.309  34.897  27.680  1.00  0.00     0.198 A 
ATOM     87  C   UNL A   1      46.947  34.304  29.916  1.00  0.00     0.198 A 
ATOM     88  F   UNL A   1      46.686  32.090  30.667  1.00  0.00    -0.203 F 
ATOM     89  F   UNL A   1      46.223  35.809  26.701  1.00  0.00    -0.200 F 
ATOM     90  C   UNL A   1      46.832  35.254  28.914  1.00  0.00     0.200 A 
ATOM     91  F   UNL A   1      47.438  34.650  31.114  1.00  0.00    -0.200 F 
ATOM     92  F   UNL A   1      47.230  36.515  29.135  1.00  0.00    -0.200 F 
ENDBRANCH  59  82
ENDBRANCH  33  34
ENDBRANCH  26  28
ENDBRANCH  25  26
ENDBRANCH  24  25
ENDBRANCH   1  24
TORSDOF 16
ENDMDL
MODEL 3
REMARK VINA RESULT:     -11.4      1.946      7.694
REMARK SMILES COc1ccc2c(c1)C=C(C(=O)OCCOCCOC(=O)c1ccc(-c3c4nc(c(-c5c(F)c(F)c(F)c(F)c5F)c5ccc([nH]5)c(-c5c(F)c(F)c(F)c(F)c5F)c5nc(c(-c6c(F)c(F)c(F)c(F)c6F)c6ccc3[nH]6)C=C5)C=C4)cc1)[C@H](C(F)(F)F)O2
REMARK SMILES IDX 17 1 16 2 15 3 14 4 13 5 11 6 12 7 10 8 3 9 4 10 8 11 5 12
REMARK SMILES IDX 7 13 6 14 9 15 90 16 85 17 2 18 1 19 86 20 87 21 88 22 89 23
REMARK SMILES IDX 18 24 19 25 20 26 21 27 22 28 23 29 84 30 24 31 83 32 25 33
REMARK SMILES IDX 26 34 27 35 77 36 28 37 82 38 76 39 78 40 29 41 81 42 75 43
REMARK SMILES IDX 74 44 30 46 62 47 42 48 61 49 43 50 46 51 60 52 79 53 44 54
REMARK SMILES IDX 45 55 59 57 80 58 47 59 31 60 32 61 40 62 33 63 34 64 38 65
REMARK SMILES IDX 41 66 35 67 36 68 39 69 37 70 63 71 64 72 72 73 65 74 66 75
REMARK SMILES IDX 70 76 73 77 67 78 68 79 71 80 69 81 48 82 49 83 57 84 50 85
REMARK SMILES IDX 51 86 55 87 58 88 52 89 53 90 56 91 54 92
REMARK H PARENT 78 45 46 56
REMARK Flexibility Score: inf
ROOT
ATOM      1  C   UNL A   1      35.396  20.348  25.017  1.00  0.00     0.202 C 
ENDROOT
BRANCH   1   2
ATOM      2  O   UNL A   1      34.622  21.292  24.278  1.00  0.00    -0.374 OA
BRANCH   2   3
ATOM      3  C   UNL A   1      33.205  21.152  24.284  1.00  0.00     0.202 C 
BRANCH   3   4
ATOM      4  C   UNL A   1      32.449  21.637  23.044  1.00  0.00     0.261 C 
BRANCH   4   5
ATOM      5  O   UNL A   1      32.076  23.019  23.153  1.00  0.00    -0.460 OA
BRANCH   5   6
ATOM      6  C   UNL A   1      32.878  23.879  22.483  1.00  0.00     0.338 C 
ATOM      7  O   UNL A   1      33.671  23.593  21.598  1.00  0.00    -0.246 OA
BRANCH   6   8
ATOM      8  C   UNL A   1      32.607  25.268  22.884  1.00  0.00     0.087 C 
ATOM      9  C   UNL A   1      29.965  29.301  22.891  1.00  0.00     0.119 A 
ATOM     10  C   UNL A   1      30.469  29.612  24.155  1.00  0.00     0.050 A 
ATOM     11  C   UNL A   1      30.366  28.118  22.257  1.00  0.00     0.058 A 
ATOM     12  C   UNL A   1      31.383  28.759  24.775  1.00  0.00     0.051 A 
ATOM     13  C   UNL A   1      31.276  27.255  22.873  1.00  0.00     0.021 A 
ATOM     14  C   UNL A   1      31.795  27.597  24.128  1.00  0.00     0.128 A 
ATOM     15  C   UNL A   1      31.605  25.949  22.304  1.00  0.00     0.027 C 
ATOM     16  O   UNL A   1      32.663  26.788  24.812  1.00  0.00    -0.475 OA
ATOM     17  C   UNL A   1      33.449  25.907  23.967  1.00  0.00     0.316 C 
BRANCH   9  18
ATOM     18  O   UNL A   1      29.052  30.043  22.191  1.00  0.00    -0.497 OA
ATOM     19  C   UNL A   1      27.687  29.901  22.569  1.00  0.00     0.278 C 
ENDBRANCH   9  18
BRANCH  17  20
ATOM     20  C   UNL A   1      34.299  24.995  24.869  1.00  0.00     0.430 C 
ATOM     21  F   UNL A   1      35.250  24.349  24.152  1.00  0.00    -0.167 F 
ATOM     22  F   UNL A   1      34.971  25.743  25.784  1.00  0.00    -0.167 F 
ATOM     23  F   UNL A   1      33.574  24.091  25.555  1.00  0.00    -0.167 F 
ENDBRANCH  17  20
ENDBRANCH   6   8
ENDBRANCH   5   6
ENDBRANCH   4   5
ENDBRANCH   3   4
ENDBRANCH   2   3
ENDBRANCH   1   2
BRANCH   1  24
ATOM     24  C   UNL A   1      36.917  20.372  24.823  1.00  0.00     0.261 C 
BRANCH  24  25
ATOM     25  O   UNL A   1      37.544  21.482  25.488  1.00  0.00    -0.460 OA
BRANCH  25  26
ATOM     26  C   UNL A   1      38.791  21.233  25.952  1.00  0.00     0.338 C 
ATOM     27  O   UNL A   1      39.457  20.219  25.788  1.00  0.00    -0.246 OA
BRANCH  26  28
ATOM     28  C   UNL A   1      39.354  22.447  26.564  1.00  0.00     0.060 A 
ATOM     29  C   UNL A   1      38.853  23.683  26.134  1.00  0.00     0.016 A 
ATOM     30  C   UNL A   1      40.408  22.383  27.475  1.00  0.00     0.016 A 
ATOM     31  C   UNL A   1      39.436  24.865  26.582  1.00  0.00     0.010 A 
ATOM     32  C   UNL A   1      40.999  23.572  27.916  1.00  0.00     0.010 A 
ATOM     33  C   UNL A   1      40.538  24.815  27.444  1.00  0.00    -0.014 A 
BRANCH  33  34
ATOM     34  C   UNL A   1      41.291  26.056  27.740  1.00  0.00     0.031 A 
ATOM     35  C   UNL A   1      40.599  27.177  28.460  1.00  0.00     0.074 A 
ATOM     36  C   UNL A   1      42.580  26.176  27.380  1.00  0.00     0.049 A 
ATOM     37  N   UNL A   1      41.050  28.362  28.784  1.00  0.00    -0.248 NA
ATOM     38  C   UNL A   1      39.205  26.932  28.861  1.00  0.00     0.031 C 
ATOM     39  C   UNL A   1      43.363  25.147  26.701  1.00  0.00     0.029 A 
ATOM     40  N   UNL A   1      43.451  27.225  27.526  1.00  0.00    -0.354 N 
ATOM     41  C   UNL A   1      39.995  29.007  29.414  1.00  0.00     0.074 A 
ATOM     42  C   UNL A   1      38.872  28.094  29.402  1.00  0.00     0.031 C 
ATOM     43  C   UNL A   1      44.598  25.624  26.469  1.00  0.00     0.029 A 
ATOM     44  C   UNL A   1      44.679  26.999  26.958  1.00  0.00     0.049 A 
ATOM     45  H   UNL A   1      43.218  28.059  27.994  1.00  0.00     0.167 HD
ATOM     46  C   UNL A   1      39.968  30.248  29.958  1.00  0.00     0.037 A 
ATOM     47  C   UNL A   1      45.740  27.820  26.825  1.00  0.00     0.037 A 
ATOM     48  C   UNL A   1      41.091  31.149  29.972  1.00  0.00     0.049 A 
ATOM     49  C   UNL A   1      45.674  29.210  27.398  1.00  0.00     0.074 A 
ATOM     50  C   UNL A   1      41.181  32.406  30.543  1.00  0.00     0.029 A 
ATOM     51  N   UNL A   1      42.316  30.891  29.374  1.00  0.00    -0.354 N 
ATOM     52  N   UNL A   1      44.690  29.799  28.033  1.00  0.00    -0.248 NA
ATOM     53  C   UNL A   1      46.870  30.049  27.240  1.00  0.00     0.031 C 
ATOM     54  C   UNL A   1      42.440  32.934  30.238  1.00  0.00     0.029 A 
ATOM     55  C   UNL A   1      43.157  31.982  29.529  1.00  0.00     0.049 A 
ATOM     56  H   UNL A   1      42.553  30.057  28.908  1.00  0.00     0.167 HD
ATOM     57  C   UNL A   1      45.150  31.065  28.369  1.00  0.00     0.074 A 
ATOM     58  C   UNL A   1      46.511  31.155  27.878  1.00  0.00     0.031 C 
ATOM     59  C   UNL A   1      44.507  32.061  29.028  1.00  0.00     0.037 A 
BRANCH  46  60
ATOM     60  C   UNL A   1      38.668  30.714  30.548  1.00  0.00     0.064 A 
ATOM     61  C   UNL A   1      38.415  30.662  31.927  1.00  0.00     0.173 A 
ATOM     62  C   UNL A   1      37.662  31.232  29.717  1.00  0.00     0.173 A 
ATOM     63  F   UNL A   1      39.338  30.163  32.764  1.00  0.00    -0.203 F 
ATOM     64  C   UNL A   1      37.190  31.074  32.447  1.00  0.00     0.198 A 
ATOM     65  C   UNL A   1      36.451  31.673  30.244  1.00  0.00     0.198 A 
ATOM     66  F   UNL A   1      37.853  31.310  28.391  1.00  0.00    -0.203 F 
ATOM     67  F   UNL A   1      36.949  30.959  33.761  1.00  0.00    -0.200 F 
ATOM     68  C   UNL A   1      36.212  31.584  31.607  1.00  0.00     0.200 A 
ATOM     69  F   UNL A   1      35.513  32.176  29.431  1.00  0.00    -0.200 F 
ATOM     70  F   UNL A   1      35.035  31.980  32.109  1.00  0.00    -0.200 F 
ENDBRANCH  46  60
BRANCH  47  71
ATOM     71  C   UNL A   1      46.947  27.340  26.105  1.00  0.00     0.064 A 
ATOM     72  C   UNL A   1      47.097  27.540  24.728  1.00  0.00     0.173 A 
ATOM     73  C   UNL A   1      47.987  26.693  26.790  1.00  0.00     0.173 A 
ATOM     74  F   UNL A   1      46.120  28.133  24.026  1.00  0.00    -0.203 F 
ATOM     75  C   UNL A   1      48.239  27.103  24.059  1.00  0.00     0.198 A 
ATOM     76  C   UNL A   1      49.140  26.282  26.127  1.00  0.00     0.198 A 
ATOM     77  F   UNL A   1      47.890  26.481  28.111  1.00  0.00    -0.203 F 
ATOM     78  F   UNL A   1      48.345  27.277  22.735  1.00  0.00    -0.200 F 
ATOM     79  C   UNL A   1      49.264  26.483  24.760  1.00  0.00     0.200 A 
ATOM     80  F   UNL A   1      50.132  25.697  26.810  1.00  0.00    -0.200 F 
ATOM     81  F   UNL A   1      50.368  26.077  24.119  1.00  0.00    -0.200 F 
ENDBRANCH  47  71
BRANCH  59  82
ATOM     82  C   UNL A   1      45.271  33.330  29.277  1.00  0.00     0.064 A 
ATOM     83  C   UNL A   1      45.227  34.405  28.377  1.00  0.00     0.173 A 
ATOM     84  C   UNL A   1      46.018  33.490  30.454  1.00  0.00     0.173 A 
ATOM     85  F   UNL A   1      44.538  34.298  27.231  1.00  0.00    -0.203 F 
ATOM     86  C   UNL A   1      45.921  35.584  28.636  1.00  0.00     0.198 A 
ATOM     87  C   UNL A   1      46.687  34.681  30.723  1.00  0.00     0.198 A 
ATOM     88  F   UNL A   1      46.088  32.495  31.351  1.00  0.00    -0.203 F 
ATOM     89  F   UNL A   1      45.902  36.581  27.739  1.00  0.00    -0.200 F 
ATOM     90  C   UNL A   1      46.645  35.724  29.811  1.00  0.00     0.200 A 
ATOM     91  F   UNL A   1      47.372  34.820  31.866  1.00  0.00    -0.200 F 
ATOM     92  F   UNL A   1      47.304  36.863  30.062  1.00  0.00    -0.200 F 
ENDBRANCH  59  82
ENDBRANCH  33  34
ENDBRANCH  26  28
ENDBRANCH  25  26
ENDBRANCH  24  25
ENDBRANCH   1  24
TORSDOF 16
ENDMDL
