MODEL 1
REMARK VINA RESULT:     -12.0      0.000      0.000
REMARK SMILES Cn1c(=O)c2c(nc(Nc3cccc(Cl)c3Cl)n2CC(=O)OCCOCCOC(=O)c2ccc(-c3c4nc(c(-c5c(F)c(F)c(F)c(F)c5F)c5ccc([nH]5)c(-c5c(F)c(F)c(F)c(F)c5F)c5nc(c(-c6c(F)c(F)c(F)c(F)c6F)c6ccc3[nH]6)C=C5)C=C4)cc2)n(C)c1=O
REMARK SMILES IDX 24 1 23 2 22 3 20 4 21 5 19 6 18 7 1 8 2 9 3 10 96 11 4 12
REMARK SMILES IDX 5 13 94 14 97 15 6 16 95 17 7 18 8 19 9 20 10 22 11 23 16 24
REMARK SMILES IDX 12 25 14 26 17 27 13 28 15 29 25 30 26 31 27 32 28 33 29 34
REMARK SMILES IDX 30 35 31 36 32 37 93 38 33 39 92 40 34 41 35 42 36 43 86 44
REMARK SMILES IDX 37 45 91 46 85 47 87 48 38 49 90 50 84 51 83 52 39 54 71 55
REMARK SMILES IDX 51 56 70 57 52 58 55 59 69 60 88 61 53 62 54 63 68 65 89 66
REMARK SMILES IDX 56 67 40 68 41 69 49 70 42 71 43 72 47 73 50 74 44 75 45 76
REMARK SMILES IDX 48 77 46 78 72 79 73 80 81 81 74 82 75 83 79 84 82 85 76 86
REMARK SMILES IDX 77 87 80 88 78 89 57 90 58 91 66 92 59 93 60 94 64 95 67 96
REMARK SMILES IDX 61 97 62 98 65 99 63 100
REMARK H PARENT 9 21 87 53 55 64
REMARK Flexibility Score: inf
ROOT
ATOM      1  C   UNL A   1      40.006  20.603  25.924  1.00  0.00     0.202 C 
ENDROOT
BRANCH   1   2
ATOM      2  C   UNL A   1      39.607  22.062  26.193  1.00  0.00     0.261 C 
BRANCH   2   3
ATOM      3  O   UNL A   1      38.183  22.255  26.377  1.00  0.00    -0.462 OA
BRANCH   3   4
ATOM      4  C   UNL A   1      37.747  23.535  26.208  1.00  0.00     0.326 C 
ATOM      5  O   UNL A   1      38.168  24.489  26.857  1.00  0.00    -0.250 OA
BRANCH   4   6
ATOM      6  C   UNL A   1      36.861  23.735  25.007  1.00  0.00     0.248 C 
BRANCH   6   7
ATOM      7  N   UNL A   1      35.426  23.545  25.154  1.00  0.00    -0.293 N 
ATOM      8  C   UNL A   1      34.754  18.645  24.882  1.00  0.00     0.159 C 
ATOM      9  N   UNL A   1      34.299  20.023  24.946  1.00  0.00    -0.261 N 
ATOM     10  C   UNL A   1      35.241  21.019  24.667  1.00  0.00     0.282 A 
ATOM     11  C   UNL A   1      32.934  20.249  25.189  1.00  0.00     0.332 A 
ATOM     12  O   UNL A   1      36.346  20.790  24.190  1.00  0.00    -0.267 OA
ATOM     13  C   UNL A   1      34.783  22.328  25.001  1.00  0.00     0.154 A 
ATOM     14  N   UNL A   1      32.524  21.578  25.297  1.00  0.00    -0.279 N 
ATOM     15  O   UNL A   1      32.136  19.313  25.295  1.00  0.00    -0.247 OA
ATOM     16  C   UNL A   1      33.471  22.575  25.256  1.00  0.00     0.170 A 
ATOM     17  C   UNL A   1      31.119  21.899  25.469  1.00  0.00     0.157 C 
ATOM     18  N   UNL A   1      33.244  23.892  25.453  1.00  0.00    -0.194 NA
ATOM     19  C   UNL A   1      34.416  24.487  25.318  1.00  0.00     0.210 A 
BRANCH  19  20
ATOM     20  N   UNL A   1      34.507  25.829  25.402  1.00  0.00    -0.324 N 
ATOM     21  H   UNL A   1      35.425  26.142  25.566  1.00  0.00     0.170 HD
BRANCH  20  22
ATOM     22  C   UNL A   1      33.579  26.876  25.309  1.00  0.00     0.061 A 
ATOM     23  C   UNL A   1      33.136  27.417  26.529  1.00  0.00     0.028 A 
ATOM     24  C   UNL A   1      32.982  27.337  24.118  1.00  0.00     0.083 A 
ATOM     25  C   UNL A   1      32.221  28.466  26.571  1.00  0.00     0.004 A 
ATOM     26  C   UNL A   1      32.112  28.439  24.157  1.00  0.00     0.061 A 
ATOM     27  Cl  UNL A   1      33.244  26.477  22.627  1.00  0.00    -0.080 Cl
ATOM     28  C   UNL A   1      31.740  29.003  25.382  1.00  0.00     0.022 A 
ATOM     29  Cl  UNL A   1      31.459  29.159  22.726  1.00  0.00    -0.083 Cl
ENDBRANCH  20  22
ENDBRANCH  19  20
ENDBRANCH   6   7
ENDBRANCH   4   6
ENDBRANCH   3   4
ENDBRANCH   2   3
ENDBRANCH   1   2
BRANCH   1  30
ATOM     30  O   UNL A   1      40.842  19.953  26.877  1.00  0.00    -0.374 OA
BRANCH  30  31
ATOM     31  C   UNL A   1      42.238  20.211  26.852  1.00  0.00     0.202 C 
BRANCH  31  32
ATOM     32  C   UNL A   1      43.095  19.371  25.916  1.00  0.00     0.261 C 
BRANCH  32  33
ATOM     33  O   UNL A   1      43.458  20.012  24.702  1.00  0.00    -0.460 OA
BRANCH  33  34
ATOM     34  C   UNL A   1      44.765  20.364  24.651  1.00  0.00     0.338 C 
ATOM     35  O   UNL A   1      45.721  19.618  24.545  1.00  0.00    -0.246 OA
BRANCH  34  36
ATOM     36  C   UNL A   1      44.892  21.802  24.916  1.00  0.00     0.060 A 
ATOM     37  C   UNL A   1      45.681  22.153  26.011  1.00  0.00     0.016 A 
ATOM     38  C   UNL A   1      44.032  22.721  24.299  1.00  0.00     0.016 A 
ATOM     39  C   UNL A   1      45.436  23.356  26.631  1.00  0.00     0.010 A 
ATOM     40  C   UNL A   1      43.781  23.922  24.924  1.00  0.00     0.010 A 
ATOM     41  C   UNL A   1      44.419  24.179  26.130  1.00  0.00    -0.014 A 
BRANCH  41  42
ATOM     42  C   UNL A   1      44.106  25.367  26.891  1.00  0.00     0.031 A 
ATOM     43  C   UNL A   1      45.105  26.442  26.713  1.00  0.00     0.074 A 
ATOM     44  C   UNL A   1      43.002  25.479  27.650  1.00  0.00     0.049 A 
ATOM     45  N   UNL A   1      45.946  26.894  27.582  1.00  0.00    -0.248 NA
ATOM     46  C   UNL A   1      45.306  26.953  25.347  1.00  0.00     0.031 C 
ATOM     47  C   UNL A   1      41.824  24.611  27.700  1.00  0.00     0.029 A 
ATOM     48  N   UNL A   1      42.685  26.478  28.514  1.00  0.00    -0.354 N 
ATOM     49  C   UNL A   1      46.674  27.873  26.920  1.00  0.00     0.074 A 
ATOM     50  C   UNL A   1      46.359  27.751  25.520  1.00  0.00     0.031 C 
ATOM     51  C   UNL A   1      40.838  25.241  28.382  1.00  0.00     0.029 A 
ATOM     52  C   UNL A   1      41.361  26.483  28.926  1.00  0.00     0.049 A 
ATOM     53  H   UNL A   1      43.341  27.143  28.822  1.00  0.00     0.167 HD
ATOM     54  C   UNL A   1      47.305  28.867  27.599  1.00  0.00     0.037 A 
ATOM     55  C   UNL A   1      40.752  27.502  29.583  1.00  0.00     0.037 A 
ATOM     56  C   UNL A   1      47.513  28.518  28.979  1.00  0.00     0.049 A 
ATOM     57  C   UNL A   1      41.824  28.331  30.201  1.00  0.00     0.074 A 
ATOM     58  C   UNL A   1      48.231  27.530  29.624  1.00  0.00     0.029 A 
ATOM     59  N   UNL A   1      46.629  29.001  29.911  1.00  0.00    -0.354 N 
ATOM     60  N   UNL A   1      42.586  27.921  31.179  1.00  0.00    -0.248 NA
ATOM     61  C   UNL A   1      42.356  29.437  29.417  1.00  0.00     0.031 C 
ATOM     62  C   UNL A   1      47.420  27.144  30.731  1.00  0.00     0.029 A 
ATOM     63  C   UNL A   1      46.285  27.955  30.729  1.00  0.00     0.049 A 
ATOM     64  H   UNL A   1      46.302  29.928  29.980  1.00  0.00     0.167 HD
ATOM     65  C   UNL A   1      43.846  28.422  30.883  1.00  0.00     0.074 A 
ATOM     66  C   UNL A   1      43.629  29.403  29.823  1.00  0.00     0.031 C 
ATOM     67  C   UNL A   1      44.976  27.794  31.319  1.00  0.00     0.037 A 
BRANCH  54  68
ATOM     68  C   UNL A   1      47.403  30.273  27.082  1.00  0.00     0.064 A 
ATOM     69  C   UNL A   1      48.639  30.940  27.107  1.00  0.00     0.173 A 
ATOM     70  C   UNL A   1      46.273  31.080  26.820  1.00  0.00     0.173 A 
ATOM     71  F   UNL A   1      49.769  30.274  27.388  1.00  0.00    -0.203 F 
ATOM     72  C   UNL A   1      48.729  32.323  26.926  1.00  0.00     0.198 A 
ATOM     73  C   UNL A   1      46.374  32.447  26.580  1.00  0.00     0.198 A 
ATOM     74  F   UNL A   1      45.024  30.605  26.898  1.00  0.00    -0.203 F 
ATOM     75  F   UNL A   1      49.912  32.937  27.070  1.00  0.00    -0.200 F 
ATOM     76  C   UNL A   1      47.597  33.074  26.662  1.00  0.00     0.200 A 
ATOM     77  F   UNL A   1      45.260  33.158  26.351  1.00  0.00    -0.200 F 
ATOM     78  F   UNL A   1      47.675  34.405  26.537  1.00  0.00    -0.200 F 
ENDBRANCH  54  68
BRANCH  55  79
ATOM     79  C   UNL A   1      39.383  28.027  29.356  1.00  0.00     0.064 A 
ATOM     80  C   UNL A   1      38.492  28.199  30.430  1.00  0.00     0.173 A 
ATOM     81  C   UNL A   1      39.025  28.647  28.142  1.00  0.00     0.173 A 
ATOM     82  F   UNL A   1      38.781  27.685  31.634  1.00  0.00    -0.203 F 
ATOM     83  C   UNL A   1      37.330  28.969  30.303  1.00  0.00     0.198 A 
ATOM     84  C   UNL A   1      37.862  29.408  28.016  1.00  0.00     0.198 A 
ATOM     85  F   UNL A   1      39.844  28.616  27.083  1.00  0.00    -0.203 F 
ATOM     86  F   UNL A   1      36.542  29.169  31.368  1.00  0.00    -0.200 F 
ATOM     87  C   UNL A   1      37.023  29.582  29.100  1.00  0.00     0.200 A 
ATOM     88  F   UNL A   1      37.599  30.029  26.858  1.00  0.00    -0.200 F 
ATOM     89  F   UNL A   1      35.947  30.375  28.997  1.00  0.00    -0.200 F 
ENDBRANCH  55  79
BRANCH  67  90
ATOM     90  C   UNL A   1      44.817  26.679  32.316  1.00  0.00     0.064 A 
ATOM     91  C   UNL A   1      44.722  26.880  33.705  1.00  0.00     0.173 A 
ATOM     92  C   UNL A   1      44.586  25.384  31.836  1.00  0.00     0.173 A 
ATOM     93  F   UNL A   1      44.833  28.105  34.232  1.00  0.00    -0.203 F 
ATOM     94  C   UNL A   1      44.446  25.823  34.572  1.00  0.00     0.198 A 
ATOM     95  C   UNL A   1      44.273  24.338  32.700  1.00  0.00     0.198 A 
ATOM     96  F   UNL A   1      44.608  25.143  30.516  1.00  0.00    -0.203 F 
ATOM     97  F   UNL A   1      44.365  26.039  35.893  1.00  0.00    -0.200 F 
ATOM     98  C   UNL A   1      44.211  24.555  34.067  1.00  0.00     0.200 A 
ATOM     99  F   UNL A   1      43.998  23.124  32.203  1.00  0.00    -0.200 F 
ATOM    100  F   UNL A   1      43.895  23.548  34.895  1.00  0.00    -0.200 F 
ENDBRANCH  67  90
ENDBRANCH  41  42
ENDBRANCH  34  36
ENDBRANCH  33  34
ENDBRANCH  32  33
ENDBRANCH  31  32
ENDBRANCH  30  31
ENDBRANCH   1  30
TORSDOF 17
ENDMDL
MODEL 2
REMARK VINA RESULT:     -12.0      3.703      9.006
REMARK SMILES Cn1c(=O)c2c(nc(Nc3cccc(Cl)c3Cl)n2CC(=O)OCCOCCOC(=O)c2ccc(-c3c4nc(c(-c5c(F)c(F)c(F)c(F)c5F)c5ccc([nH]5)c(-c5c(F)c(F)c(F)c(F)c5F)c5nc(c(-c6c(F)c(F)c(F)c(F)c6F)c6ccc3[nH]6)C=C5)C=C4)cc2)n(C)c1=O
REMARK SMILES IDX 24 1 23 2 22 3 20 4 21 5 19 6 18 7 1 8 2 9 3 10 96 11 4 12
REMARK SMILES IDX 5 13 94 14 97 15 6 16 95 17 7 18 8 19 9 20 10 22 11 23 16 24
REMARK SMILES IDX 12 25 14 26 17 27 13 28 15 29 25 30 26 31 27 32 28 33 29 34
REMARK SMILES IDX 30 35 31 36 32 37 93 38 33 39 92 40 34 41 35 42 36 43 86 44
REMARK SMILES IDX 37 45 91 46 85 47 87 48 38 49 90 50 84 51 83 52 39 54 71 55
REMARK SMILES IDX 51 56 70 57 52 58 55 59 69 60 88 61 53 62 54 63 68 65 89 66
REMARK SMILES IDX 56 67 40 68 41 69 49 70 42 71 43 72 47 73 50 74 44 75 45 76
REMARK SMILES IDX 48 77 46 78 72 79 73 80 81 81 74 82 75 83 79 84 82 85 76 86
REMARK SMILES IDX 77 87 80 88 78 89 57 90 58 91 66 92 59 93 60 94 64 95 67 96
REMARK SMILES IDX 61 97 62 98 65 99 63 100
REMARK H PARENT 9 21 87 53 55 64
REMARK Flexibility Score: inf
ROOT
ATOM      1  C   UNL A   1      34.057  28.429  26.558  1.00  0.00     0.202 C 
ENDROOT
BRANCH   1   2
ATOM      2  C   UNL A   1      33.737  27.162  25.751  1.00  0.00     0.261 C 
BRANCH   2   3
ATOM      3  O   UNL A   1      33.225  27.428  24.422  1.00  0.00    -0.462 OA
BRANCH   3   4
ATOM      4  C   UNL A   1      33.281  26.374  23.560  1.00  0.00     0.326 C 
ATOM      5  O   UNL A   1      34.030  25.411  23.709  1.00  0.00    -0.250 OA
BRANCH   4   6
ATOM      6  C   UNL A   1      32.195  26.367  22.517  1.00  0.00     0.248 C 
BRANCH   6   7
ATOM      7  N   UNL A   1      30.808  26.447  22.946  1.00  0.00    -0.293 N 
ATOM      8  C   UNL A   1      29.373  31.040  21.774  1.00  0.00     0.159 C 
ATOM      9  N   UNL A   1      29.200  29.738  22.392  1.00  0.00    -0.261 N 
ATOM     10  C   UNL A   1      30.348  28.955  22.562  1.00  0.00     0.282 A 
ATOM     11  C   UNL A   1      27.918  29.400  22.855  1.00  0.00     0.332 A 
ATOM     12  O   UNL A   1      31.486  29.382  22.405  1.00  0.00    -0.267 OA
ATOM     13  C   UNL A   1      30.055  27.610  22.932  1.00  0.00     0.154 A 
ATOM     14  N   UNL A   1      27.760  28.125  23.399  1.00  0.00    -0.279 N 
ATOM     15  O   UNL A   1      26.979  30.198  22.787  1.00  0.00    -0.247 OA
ATOM     16  C   UNL A   1      28.820  27.248  23.369  1.00  0.00     0.170 A 
ATOM     17  C   UNL A   1      26.486  27.726  23.972  1.00  0.00     0.157 C 
ATOM     18  N   UNL A   1      28.790  25.955  23.757  1.00  0.00    -0.194 NA
ATOM     19  C   UNL A   1      30.013  25.491  23.569  1.00  0.00     0.210 A 
BRANCH  19  20
ATOM     20  N   UNL A   1      30.318  24.226  23.922  1.00  0.00    -0.324 N 
ATOM     21  H   UNL A   1      29.799  23.554  23.427  1.00  0.00     0.170 HD
BRANCH  20  22
ATOM     22  C   UNL A   1      31.214  23.661  24.842  1.00  0.00     0.061 A 
ATOM     23  C   UNL A   1      31.321  24.317  26.081  1.00  0.00     0.028 A 
ATOM     24  C   UNL A   1      32.080  22.580  24.580  1.00  0.00     0.083 A 
ATOM     25  C   UNL A   1      32.170  23.850  27.081  1.00  0.00     0.004 A 
ATOM     26  C   UNL A   1      32.885  22.070  25.613  1.00  0.00     0.061 A 
ATOM     27  Cl  UNL A   1      32.225  21.955  22.963  1.00  0.00    -0.080 Cl
ATOM     28  C   UNL A   1      32.922  22.702  26.859  1.00  0.00     0.022 A 
ATOM     29  Cl  UNL A   1      33.861  20.654  25.416  1.00  0.00    -0.083 Cl
ENDBRANCH  20  22
ENDBRANCH  19  20
ENDBRANCH   6   7
ENDBRANCH   4   6
ENDBRANCH   3   4
ENDBRANCH   2   3
ENDBRANCH   1   2
BRANCH   1  30
ATOM     30  O   UNL A   1      33.402  29.640  26.187  1.00  0.00    -0.374 OA
BRANCH  30  31
ATOM     31  C   UNL A   1      32.840  30.454  27.205  1.00  0.00     0.202 C 
BRANCH  31  32
ATOM     32  C   UNL A   1      33.619  31.691  27.630  1.00  0.00     0.261 C 
BRANCH  32  33
ATOM     33  O   UNL A   1      34.991  31.686  27.267  1.00  0.00    -0.460 OA
BRANCH  33  34
ATOM     34  C   UNL A   1      35.772  32.406  28.107  1.00  0.00     0.338 C 
ATOM     35  O   UNL A   1      35.845  33.619  28.180  1.00  0.00    -0.246 OA
BRANCH  34  36
ATOM     36  C   UNL A   1      36.674  31.501  28.828  1.00  0.00     0.060 A 
ATOM     37  C   UNL A   1      37.812  32.086  29.382  1.00  0.00     0.016 A 
ATOM     38  C   UNL A   1      36.548  30.110  28.695  1.00  0.00     0.016 A 
ATOM     39  C   UNL A   1      38.917  31.293  29.588  1.00  0.00     0.010 A 
ATOM     40  C   UNL A   1      37.655  29.319  28.894  1.00  0.00     0.010 A 
ATOM     41  C   UNL A   1      38.848  29.937  29.248  1.00  0.00    -0.014 A 
BRANCH  41  42
ATOM     42  C   UNL A   1      40.070  29.173  29.354  1.00  0.00     0.031 A 
ATOM     43  C   UNL A   1      40.456  28.899  30.754  1.00  0.00     0.074 A 
ATOM     44  C   UNL A   1      40.755  28.738  28.282  1.00  0.00     0.049 A 
ATOM     45  N   UNL A   1      41.463  29.377  31.407  1.00  0.00    -0.248 NA
ATOM     46  C   UNL A   1      39.503  28.136  31.576  1.00  0.00     0.031 C 
ATOM     47  C   UNL A   1      40.350  28.711  26.875  1.00  0.00     0.029 A 
ATOM     48  N   UNL A   1      41.978  28.148  28.260  1.00  0.00    -0.354 N 
ATOM     49  C   UNL A   1      41.367  28.838  32.682  1.00  0.00     0.074 A 
ATOM     50  C   UNL A   1      40.068  28.225  32.780  1.00  0.00     0.031 C 
ATOM     51  C   UNL A   1      41.217  27.937  26.179  1.00  0.00     0.029 A 
ATOM     52  C   UNL A   1      42.301  27.535  27.059  1.00  0.00     0.049 A 
ATOM     53  H   UNL A   1      42.586  28.156  29.034  1.00  0.00     0.167 HD
ATOM     54  C   UNL A   1      42.457  28.729  33.487  1.00  0.00     0.037 A 
ATOM     55  C   UNL A   1      43.342  26.686  26.870  1.00  0.00     0.037 A 
ATOM     56  C   UNL A   1      43.513  29.615  33.076  1.00  0.00     0.049 A 
ATOM     57  C   UNL A   1      44.314  26.929  27.973  1.00  0.00     0.074 A 
ATOM     58  C   UNL A   1      43.635  30.988  32.982  1.00  0.00     0.029 A 
ATOM     59  N   UNL A   1      44.533  29.100  32.315  1.00  0.00    -0.354 N 
ATOM     60  N   UNL A   1      45.004  28.029  28.102  1.00  0.00    -0.248 NA
ATOM     61  C   UNL A   1      44.166  26.139  29.187  1.00  0.00     0.031 C 
ATOM     62  C   UNL A   1      44.400  31.213  31.800  1.00  0.00     0.029 A 
ATOM     63  C   UNL A   1      44.745  29.968  31.274  1.00  0.00     0.049 A 
ATOM     64  H   UNL A   1      45.022  28.262  32.486  1.00  0.00     0.167 HD
ATOM     65  C   UNL A   1      45.023  28.280  29.467  1.00  0.00     0.074 A 
ATOM     66  C   UNL A   1      44.548  27.047  30.089  1.00  0.00     0.031 C 
ATOM     67  C   UNL A   1      45.146  29.551  29.950  1.00  0.00     0.037 A 
BRANCH  54  68
ATOM     68  C   UNL A   1      42.672  27.569  34.416  1.00  0.00     0.064 A 
ATOM     69  C   UNL A   1      43.176  26.358  33.913  1.00  0.00     0.173 A 
ATOM     70  C   UNL A   1      42.143  27.519  35.725  1.00  0.00     0.173 A 
ATOM     71  F   UNL A   1      43.664  26.286  32.666  1.00  0.00    -0.203 F 
ATOM     72  C   UNL A   1      43.113  25.174  34.654  1.00  0.00     0.198 A 
ATOM     73  C   UNL A   1      42.136  26.351  36.482  1.00  0.00     0.198 A 
ATOM     74  F   UNL A   1      41.511  28.561  36.278  1.00  0.00    -0.203 F 
ATOM     75  F   UNL A   1      43.500  24.019  34.095  1.00  0.00    -0.200 F 
ATOM     76  C   UNL A   1      42.594  25.172  35.937  1.00  0.00     0.200 A 
ATOM     77  F   UNL A   1      41.606  26.369  37.714  1.00  0.00    -0.200 F 
ATOM     78  F   UNL A   1      42.488  24.031  36.629  1.00  0.00    -0.200 F 
ENDBRANCH  54  68
BRANCH  55  79
ATOM     79  C   UNL A   1      43.347  25.431  26.079  1.00  0.00     0.064 A 
ATOM     80  C   UNL A   1      44.413  25.132  25.212  1.00  0.00     0.173 A 
ATOM     81  C   UNL A   1      42.466  24.371  26.376  1.00  0.00     0.173 A 
ATOM     82  F   UNL A   1      45.325  26.069  24.917  1.00  0.00    -0.203 F 
ATOM     83  C   UNL A   1      44.602  23.843  24.700  1.00  0.00     0.198 A 
ATOM     84  C   UNL A   1      42.653  23.089  25.857  1.00  0.00     0.198 A 
ATOM     85  F   UNL A   1      41.469  24.528  27.256  1.00  0.00    -0.203 F 
ATOM     86  F   UNL A   1      45.670  23.579  23.934  1.00  0.00    -0.200 F 
ATOM     87  C   UNL A   1      43.729  22.821  25.032  1.00  0.00     0.200 A 
ATOM     88  F   UNL A   1      41.824  22.101  26.220  1.00  0.00    -0.200 F 
ATOM     89  F   UNL A   1      43.948  21.572  24.598  1.00  0.00    -0.200 F 
ENDBRANCH  55  79
BRANCH  67  90
ATOM     90  C   UNL A   1      45.488  30.641  28.973  1.00  0.00     0.064 A 
ATOM     91  C   UNL A   1      46.804  30.966  28.595  1.00  0.00     0.173 A 
ATOM     92  C   UNL A   1      44.446  31.263  28.275  1.00  0.00     0.173 A 
ATOM     93  F   UNL A   1      47.852  30.343  29.146  1.00  0.00    -0.203 F 
ATOM     94  C   UNL A   1      47.059  31.898  27.589  1.00  0.00     0.198 A 
ATOM     95  C   UNL A   1      44.703  32.164  27.245  1.00  0.00     0.198 A 
ATOM     96  F   UNL A   1      43.171  30.950  28.554  1.00  0.00    -0.203 F 
ATOM     97  F   UNL A   1      48.322  32.194  27.248  1.00  0.00    -0.200 F 
ATOM     98  C   UNL A   1      46.007  32.488  26.907  1.00  0.00     0.200 A 
ATOM     99  F   UNL A   1      43.682  32.694  26.556  1.00  0.00    -0.200 F 
ATOM    100  F   UNL A   1      46.249  33.345  25.906  1.00  0.00    -0.200 F 
ENDBRANCH  67  90
ENDBRANCH  41  42
ENDBRANCH  34  36
ENDBRANCH  33  34
ENDBRANCH  32  33
ENDBRANCH  31  32
ENDBRANCH  30  31
ENDBRANCH   1  30
TORSDOF 17
ENDMDL
MODEL 3
REMARK VINA RESULT:     -11.7      1.645      3.581
REMARK SMILES Cn1c(=O)c2c(nc(Nc3cccc(Cl)c3Cl)n2CC(=O)OCCOCCOC(=O)c2ccc(-c3c4nc(c(-c5c(F)c(F)c(F)c(F)c5F)c5ccc([nH]5)c(-c5c(F)c(F)c(F)c(F)c5F)c5nc(c(-c6c(F)c(F)c(F)c(F)c6F)c6ccc3[nH]6)C=C5)C=C4)cc2)n(C)c1=O
REMARK SMILES IDX 24 1 23 2 22 3 20 4 21 5 19 6 18 7 1 8 2 9 3 10 96 11 4 12
REMARK SMILES IDX 5 13 94 14 97 15 6 16 95 17 7 18 8 19 9 20 10 22 11 23 16 24
REMARK SMILES IDX 12 25 14 26 17 27 13 28 15 29 25 30 26 31 27 32 28 33 29 34
REMARK SMILES IDX 30 35 31 36 32 37 93 38 33 39 92 40 34 41 35 42 36 43 86 44
REMARK SMILES IDX 37 45 91 46 85 47 87 48 38 49 90 50 84 51 83 52 39 54 71 55
REMARK SMILES IDX 51 56 70 57 52 58 55 59 69 60 88 61 53 62 54 63 68 65 89 66
REMARK SMILES IDX 56 67 40 68 41 69 49 70 42 71 43 72 47 73 50 74 44 75 45 76
REMARK SMILES IDX 48 77 46 78 72 79 73 80 81 81 74 82 75 83 79 84 82 85 76 86
REMARK SMILES IDX 77 87 80 88 78 89 57 90 58 91 66 92 59 93 60 94 64 95 67 96
REMARK SMILES IDX 61 97 62 98 65 99 63 100
REMARK H PARENT 9 21 87 53 55 64
REMARK Flexibility Score: inf
ROOT
ATOM      1  C   UNL A   1      39.599  21.473  26.309  1.00  0.00     0.202 C 
ENDROOT
BRANCH   1   2
ATOM      2  C   UNL A   1      38.392  21.433  25.358  1.00  0.00     0.261 C 
BRANCH   2   3
ATOM      3  O   UNL A   1      37.142  21.814  25.984  1.00  0.00    -0.462 OA
BRANCH   3   4
ATOM      4  C   UNL A   1      36.752  23.100  25.756  1.00  0.00     0.326 C 
ATOM      5  O   UNL A   1      37.398  24.081  26.114  1.00  0.00    -0.250 OA
BRANCH   4   6
ATOM      6  C   UNL A   1      35.568  23.235  24.835  1.00  0.00     0.248 C 
BRANCH   6   7
ATOM      7  N   UNL A   1      34.249  22.875  25.329  1.00  0.00    -0.293 N 
ATOM      8  C   UNL A   1      31.860  27.183  25.845  1.00  0.00     0.159 C 
ATOM      9  N   UNL A   1      32.005  25.746  25.993  1.00  0.00    -0.261 N 
ATOM     10  C   UNL A   1      33.289  25.215  25.836  1.00  0.00     0.282 A 
ATOM     11  C   UNL A   1      30.869  25.012  26.373  1.00  0.00     0.332 A 
ATOM     12  O   UNL A   1      34.303  25.902  25.781  1.00  0.00    -0.267 OA
ATOM     13  C   UNL A   1      33.296  23.792  25.743  1.00  0.00     0.154 A 
ATOM     14  N   UNL A   1      31.014  23.627  26.460  1.00  0.00    -0.279 N 
ATOM     15  O   UNL A   1      29.797  25.570  26.622  1.00  0.00    -0.247 OA
ATOM     16  C   UNL A   1      32.208  23.054  26.088  1.00  0.00     0.170 A 
ATOM     17  C   UNL A   1      29.911  22.803  26.922  1.00  0.00     0.157 C 
ATOM     18  N   UNL A   1      32.463  21.730  26.016  1.00  0.00    -0.194 NA
ATOM     19  C   UNL A   1      33.722  21.624  25.628  1.00  0.00     0.210 A 
BRANCH  19  20
ATOM     20  N   UNL A   1      34.295  20.408  25.518  1.00  0.00    -0.324 N 
ATOM     21  H   UNL A   1      35.048  20.282  26.138  1.00  0.00     0.170 HD
BRANCH  20  22
ATOM     22  C   UNL A   1      34.053  19.286  24.712  1.00  0.00     0.061 A 
ATOM     23  C   UNL A   1      34.842  18.153  24.981  1.00  0.00     0.028 A 
ATOM     24  C   UNL A   1      33.183  19.247  23.604  1.00  0.00     0.083 A 
ATOM     25  C   UNL A   1      34.692  16.974  24.257  1.00  0.00     0.004 A 
ATOM     26  C   UNL A   1      32.985  18.036  22.919  1.00  0.00     0.061 A 
ATOM     27  Cl  UNL A   1      32.443  20.713  23.029  1.00  0.00    -0.080 Cl
ATOM     28  C   UNL A   1      33.734  16.904  23.251  1.00  0.00     0.022 A 
ATOM     29  Cl  UNL A   1      31.823  17.869  21.647  1.00  0.00    -0.083 Cl
ENDBRANCH  20  22
ENDBRANCH  19  20
ENDBRANCH   6   7
ENDBRANCH   4   6
ENDBRANCH   3   4
ENDBRANCH   2   3
ENDBRANCH   1   2
BRANCH   1  30
ATOM     30  O   UNL A   1      40.137  20.232  26.757  1.00  0.00    -0.374 OA
BRANCH  30  31
ATOM     31  C   UNL A   1      41.310  19.729  26.135  1.00  0.00     0.202 C 
BRANCH  31  32
ATOM     32  C   UNL A   1      42.565  20.587  26.197  1.00  0.00     0.261 C 
BRANCH  32  33
ATOM     33  O   UNL A   1      43.751  19.944  25.756  1.00  0.00    -0.460 OA
BRANCH  33  34
ATOM     34  C   UNL A   1      44.327  20.550  24.691  1.00  0.00     0.338 C 
ATOM     35  O   UNL A   1      44.772  20.013  23.694  1.00  0.00    -0.246 OA
BRANCH  34  36
ATOM     36  C   UNL A   1      44.502  21.978  24.981  1.00  0.00     0.060 A 
ATOM     37  C   UNL A   1      45.236  22.283  26.128  1.00  0.00     0.016 A 
ATOM     38  C   UNL A   1      43.726  22.942  24.322  1.00  0.00     0.016 A 
ATOM     39  C   UNL A   1      45.007  23.490  26.745  1.00  0.00     0.010 A 
ATOM     40  C   UNL A   1      43.491  24.147  24.944  1.00  0.00     0.010 A 
ATOM     41  C   UNL A   1      44.063  24.364  26.192  1.00  0.00    -0.014 A 
BRANCH  41  42
ATOM     42  C   UNL A   1      43.757  25.558  26.945  1.00  0.00     0.031 A 
ATOM     43  C   UNL A   1      44.751  26.633  26.746  1.00  0.00     0.074 A 
ATOM     44  C   UNL A   1      42.662  25.674  27.717  1.00  0.00     0.049 A 
ATOM     45  N   UNL A   1      45.602  27.094  27.601  1.00  0.00    -0.248 NA
ATOM     46  C   UNL A   1      44.935  27.132  25.373  1.00  0.00     0.031 C 
ATOM     47  C   UNL A   1      41.486  24.804  27.789  1.00  0.00     0.029 A 
ATOM     48  N   UNL A   1      42.353  26.680  28.575  1.00  0.00    -0.354 N 
ATOM     49  C   UNL A   1      46.321  28.068  26.921  1.00  0.00     0.074 A 
ATOM     50  C   UNL A   1      45.988  27.933  25.527  1.00  0.00     0.031 C 
ATOM     51  C   UNL A   1      40.507  25.440  28.477  1.00  0.00     0.029 A 
ATOM     52  C   UNL A   1      41.034  26.687  29.003  1.00  0.00     0.049 A 
ATOM     53  H   UNL A   1      43.012  27.349  28.870  1.00  0.00     0.167 HD
ATOM     54  C   UNL A   1      46.957  29.068  27.585  1.00  0.00     0.037 A 
ATOM     55  C   UNL A   1      40.431  27.711  29.659  1.00  0.00     0.037 A 
ATOM     56  C   UNL A   1      47.183  28.732  28.965  1.00  0.00     0.049 A 
ATOM     57  C   UNL A   1      41.509  28.547  30.257  1.00  0.00     0.074 A 
ATOM     58  C   UNL A   1      47.910  27.751  29.610  1.00  0.00     0.029 A 
ATOM     59  N   UNL A   1      46.308  29.223  29.903  1.00  0.00    -0.354 N 
ATOM     60  N   UNL A   1      42.283  28.147  31.229  1.00  0.00    -0.248 NA
ATOM     61  C   UNL A   1      42.030  29.647  29.457  1.00  0.00     0.031 C 
ATOM     62  C   UNL A   1      47.113  27.374  30.730  1.00  0.00     0.029 A 
ATOM     63  C   UNL A   1      45.976  28.183  30.735  1.00  0.00     0.049 A 
ATOM     64  H   UNL A   1      45.981  30.149  29.968  1.00  0.00     0.167 HD
ATOM     65  C   UNL A   1      43.539  28.647  30.914  1.00  0.00     0.074 A 
ATOM     66  C   UNL A   1      43.307  29.618  29.848  1.00  0.00     0.031 C 
ATOM     67  C   UNL A   1      44.675  28.024  31.342  1.00  0.00     0.037 A 
BRANCH  54  68
ATOM     68  C   UNL A   1      47.047  30.470  27.054  1.00  0.00     0.064 A 
ATOM     69  C   UNL A   1      48.270  31.160  27.109  1.00  0.00     0.173 A 
ATOM     70  C   UNL A   1      45.912  31.254  26.748  1.00  0.00     0.173 A 
ATOM     71  F   UNL A   1      49.402  30.517  27.432  1.00  0.00    -0.203 F 
ATOM     72  C   UNL A   1      48.341  32.542  26.914  1.00  0.00     0.198 A 
ATOM     73  C   UNL A   1      45.996  32.621  26.496  1.00  0.00     0.198 A 
ATOM     74  F   UNL A   1      44.669  30.759  26.794  1.00  0.00    -0.203 F 
ATOM     75  F   UNL A   1      49.508  33.178  27.086  1.00  0.00    -0.200 F 
ATOM     76  C   UNL A   1      47.206  33.270  26.606  1.00  0.00     0.200 A 
ATOM     77  F   UNL A   1      44.878  33.309  26.224  1.00  0.00    -0.200 F 
ATOM     78  F   UNL A   1      47.264  34.600  26.468  1.00  0.00    -0.200 F 
ENDBRANCH  54  68
BRANCH  55  79
ATOM     79  C   UNL A   1      39.058  28.232  29.444  1.00  0.00     0.064 A 
ATOM     80  C   UNL A   1      38.197  28.459  30.531  1.00  0.00     0.173 A 
ATOM     81  C   UNL A   1      38.670  28.794  28.211  1.00  0.00     0.173 A 
ATOM     82  F   UNL A   1      38.517  28.002  31.751  1.00  0.00    -0.203 F 
ATOM     83  C   UNL A   1      37.035  29.229  30.399  1.00  0.00     0.198 A 
ATOM     84  C   UNL A   1      37.507  29.554  28.080  1.00  0.00     0.198 A 
ATOM     85  F   UNL A   1      39.461  28.708  27.133  1.00  0.00    -0.203 F 
ATOM     86  F   UNL A   1      36.277  29.484  31.474  1.00  0.00    -0.200 F 
ATOM     87  C   UNL A   1      36.698  29.785  29.176  1.00  0.00     0.200 A 
ATOM     88  F   UNL A   1      37.215  30.120  26.900  1.00  0.00    -0.200 F 
ATOM     89  F   UNL A   1      35.624  30.578  29.064  1.00  0.00    -0.200 F 
ENDBRANCH  55  79
BRANCH  67  90
ATOM     90  C   UNL A   1      44.530  26.918  32.350  1.00  0.00     0.064 A 
ATOM     91  C   UNL A   1      44.359  25.564  32.005  1.00  0.00     0.173 A 
ATOM     92  C   UNL A   1      44.737  27.217  33.702  1.00  0.00     0.173 A 
ATOM     93  F   UNL A   1      44.253  25.188  30.725  1.00  0.00    -0.203 F 
ATOM     94  C   UNL A   1      44.359  24.565  32.977  1.00  0.00     0.198 A 
ATOM     95  C   UNL A   1      44.775  26.213  34.666  1.00  0.00     0.198 A 
ATOM     96  F   UNL A   1      44.962  28.484  34.083  1.00  0.00    -0.203 F 
ATOM     97  F   UNL A   1      44.190  23.282  32.625  1.00  0.00    -0.200 F 
ATOM     98  C   UNL A   1      44.577  24.890  34.307  1.00  0.00     0.200 A 
ATOM     99  F   UNL A   1      45.036  26.527  35.943  1.00  0.00    -0.200 F 
ATOM    100  F   UNL A   1      44.629  23.925  35.236  1.00  0.00    -0.200 F 
ENDBRANCH  67  90
ENDBRANCH  41  42
ENDBRANCH  34  36
ENDBRANCH  33  34
ENDBRANCH  32  33
ENDBRANCH  31  32
ENDBRANCH  30  31
ENDBRANCH   1  30
TORSDOF 17
ENDMDL
