MODEL 1
REMARK VINA RESULT:     -10.4      0.000      0.000
REMARK SMILES COc1cc(F)ccc1NCC(C)(C)C(=O)OCCOCCOC(=O)c1ccc(-c2c3nc(c(-c4c(F)c(F)c(F)c(F)c4F)c4ccc([nH]4)c(-c4c(F)c(F)c(F)c(F)c4F)c4nc(c(-c5c(F)c(F)c(F)c(F)c5F)c5ccc2[nH]5)C=C4)C=C3)cc1
REMARK SMILES IDX 19 1 18 2 17 3 15 4 16 5 12 6 13 7 14 8 11 9 10 10 9 12 3 13
REMARK SMILES IDX 4 14 5 15 8 16 6 17 7 18 2 19 1 20 20 21 21 22 22 23 23 24
REMARK SMILES IDX 24 25 25 26 26 27 27 28 88 29 28 30 87 31 29 32 30 33 31 34
REMARK SMILES IDX 81 35 32 36 86 37 80 38 82 39 33 40 85 41 79 42 78 43 34 45
REMARK SMILES IDX 66 46 46 47 65 48 47 49 50 50 64 51 83 52 48 53 49 54 63 56
REMARK SMILES IDX 84 57 51 58 35 59 36 60 44 61 37 62 38 63 42 64 45 65 39 66
REMARK SMILES IDX 40 67 43 68 41 69 67 70 68 71 76 72 69 73 70 74 74 75 77 76
REMARK SMILES IDX 71 77 72 78 75 79 73 80 52 81 53 82 61 83 54 84 55 85 59 86
REMARK SMILES IDX 62 87 56 88 57 89 60 90 58 91
REMARK H PARENT 10 11 82 44 50 55
REMARK Flexibility Score: inf
ROOT
ATOM      1  C   UNL A   1      32.464  27.356  26.909  1.00  0.00     0.202 C 
ENDROOT
BRANCH   1   2
ATOM      2  C   UNL A   1      33.150  26.254  26.100  1.00  0.00     0.261 C 
BRANCH   2   3
ATOM      3  O   UNL A   1      32.296  25.784  25.047  1.00  0.00    -0.463 OA
BRANCH   3   4
ATOM      4  C   UNL A   1      32.883  25.697  23.824  1.00  0.00     0.313 C 
ATOM      5  O   UNL A   1      33.947  26.234  23.539  1.00  0.00    -0.252 OA
BRANCH   4   6
ATOM      6  C   UNL A   1      32.065  24.856  22.837  1.00  0.00     0.080 C 
ATOM      7  C   UNL A   1      32.081  25.599  21.490  1.00  0.00     0.025 C 
ATOM      8  C   UNL A   1      30.590  24.714  23.271  1.00  0.00     0.025 C 
BRANCH   6   9
ATOM      9  C   UNL A   1      32.665  23.435  22.703  1.00  0.00     0.131 C 
BRANCH   9  10
ATOM     10  N   UNL A   1      33.202  22.906  23.942  1.00  0.00    -0.381 N 
ATOM     11  H   UNL A   1      32.566  22.765  24.680  1.00  0.00     0.160 HD
BRANCH  10  12
ATOM     12  C   UNL A   1      34.531  22.577  24.186  1.00  0.00     0.077 A 
ATOM     13  C   UNL A   1      34.838  21.816  25.340  1.00  0.00     0.144 A 
ATOM     14  C   UNL A   1      36.146  21.406  25.611  1.00  0.00     0.087 A 
ATOM     15  C   UNL A   1      37.167  21.798  24.759  1.00  0.00     0.127 A 
ATOM     16  C   UNL A   1      35.595  22.989  23.373  1.00  0.00     0.032 A 
ATOM     17  F   UNL A   1      38.423  21.406  25.010  1.00  0.00    -0.207 F 
ATOM     18  C   UNL A   1      36.908  22.595  23.653  1.00  0.00     0.041 A 
BRANCH  13  19
ATOM     19  O   UNL A   1      33.770  21.445  26.128  1.00  0.00    -0.494 OA
ATOM     20  C   UNL A   1      33.761  22.057  27.414  1.00  0.00     0.278 C 
ENDBRANCH  13  19
ENDBRANCH  10  12
ENDBRANCH   9  10
ENDBRANCH   6   9
ENDBRANCH   4   6
ENDBRANCH   3   4
ENDBRANCH   2   3
ENDBRANCH   1   2
BRANCH   1  21
ATOM     21  O   UNL A   1      31.501  28.149  26.216  1.00  0.00    -0.374 OA
BRANCH  21  22
ATOM     22  C   UNL A   1      31.986  29.207  25.389  1.00  0.00     0.202 C 
BRANCH  22  23
ATOM     23  C   UNL A   1      31.768  30.637  25.899  1.00  0.00     0.261 C 
BRANCH  23  24
ATOM     24  O   UNL A   1      32.294  30.847  27.222  1.00  0.00    -0.460 OA
BRANCH  24  25
ATOM     25  C   UNL A   1      33.096  31.932  27.343  1.00  0.00     0.338 C 
ATOM     26  O   UNL A   1      32.776  33.108  27.237  1.00  0.00    -0.246 OA
BRANCH  25  27
ATOM     27  C   UNL A   1      34.440  31.534  27.794  1.00  0.00     0.060 A 
ATOM     28  C   UNL A   1      34.640  30.185  28.119  1.00  0.00     0.016 A 
ATOM     29  C   UNL A   1      35.451  32.472  28.007  1.00  0.00     0.016 A 
ATOM     30  C   UNL A   1      35.836  29.778  28.704  1.00  0.00     0.010 A 
ATOM     31  C   UNL A   1      36.648  32.064  28.607  1.00  0.00     0.010 A 
ATOM     32  C   UNL A   1      36.830  30.722  28.990  1.00  0.00    -0.014 A 
BRANCH  32  33
ATOM     33  C   UNL A   1      37.991  30.324  29.822  1.00  0.00     0.031 A 
ATOM     34  C   UNL A   1      39.016  29.386  29.247  1.00  0.00     0.074 A 
ATOM     35  C   UNL A   1      38.157  30.829  31.057  1.00  0.00     0.049 A 
ATOM     36  N   UNL A   1      40.094  28.892  29.802  1.00  0.00    -0.248 NA
ATOM     37  C   UNL A   1      38.801  28.951  27.857  1.00  0.00     0.031 C 
ATOM     38  C   UNL A   1      37.261  31.786  31.703  1.00  0.00     0.029 A 
ATOM     39  N   UNL A   1      39.142  30.606  31.988  1.00  0.00    -0.354 N 
ATOM     40  C   UNL A   1      40.683  28.091  28.833  1.00  0.00     0.074 A 
ATOM     41  C   UNL A   1      39.832  28.141  27.664  1.00  0.00     0.031 C 
ATOM     42  C   UNL A   1      37.734  32.066  32.929  1.00  0.00     0.029 A 
ATOM     43  C   UNL A   1      38.947  31.284  33.165  1.00  0.00     0.049 A 
ATOM     44  H   UNL A   1      39.913  30.017  31.827  1.00  0.00     0.167 HD
ATOM     45  C   UNL A   1      41.837  27.387  28.909  1.00  0.00     0.037 A 
ATOM     46  C   UNL A   1      39.659  31.263  34.309  1.00  0.00     0.037 A 
ATOM     47  C   UNL A   1      42.685  27.344  30.070  1.00  0.00     0.049 A 
ATOM     48  C   UNL A   1      40.899  30.412  34.396  1.00  0.00     0.074 A 
ATOM     49  C   UNL A   1      43.879  26.663  30.239  1.00  0.00     0.029 A 
ATOM     50  N   UNL A   1      42.429  28.007  31.261  1.00  0.00    -0.354 N 
ATOM     51  N   UNL A   1      41.450  29.659  33.475  1.00  0.00    -0.248 NA
ATOM     52  C   UNL A   1      41.616  30.405  35.680  1.00  0.00     0.031 C 
ATOM     53  C   UNL A   1      44.323  26.879  31.547  1.00  0.00     0.029 A 
ATOM     54  C   UNL A   1      43.432  27.732  32.176  1.00  0.00     0.049 A 
ATOM     55  H   UNL A   1      41.652  28.586  31.430  1.00  0.00     0.167 HD
ATOM     56  C   UNL A   1      42.584  29.108  34.057  1.00  0.00     0.074 A 
ATOM     57  C   UNL A   1      42.651  29.620  35.410  1.00  0.00     0.031 C 
ATOM     58  C   UNL A   1      43.488  28.255  33.517  1.00  0.00     0.037 A 
BRANCH  45  59
ATOM     59  C   UNL A   1      42.253  26.592  27.709  1.00  0.00     0.064 A 
ATOM     60  C   UNL A   1      41.750  25.297  27.506  1.00  0.00     0.173 A 
ATOM     61  C   UNL A   1      43.204  27.078  26.802  1.00  0.00     0.173 A 
ATOM     62  F   UNL A   1      40.840  24.786  28.349  1.00  0.00    -0.203 F 
ATOM     63  C   UNL A   1      42.197  24.514  26.447  1.00  0.00     0.198 A 
ATOM     64  C   UNL A   1      43.632  26.301  25.730  1.00  0.00     0.198 A 
ATOM     65  F   UNL A   1      43.705  28.314  26.947  1.00  0.00    -0.203 F 
ATOM     66  F   UNL A   1      41.726  23.269  26.291  1.00  0.00    -0.200 F 
ATOM     67  C   UNL A   1      43.137  25.016  25.558  1.00  0.00     0.200 A 
ATOM     68  F   UNL A   1      44.525  26.793  24.860  1.00  0.00    -0.200 F 
ATOM     69  F   UNL A   1      43.564  24.261  24.537  1.00  0.00    -0.200 F 
ENDBRANCH  45  59
BRANCH  46  70
ATOM     70  C   UNL A   1      39.208  32.073  35.470  1.00  0.00     0.064 A 
ATOM     71  C   UNL A   1      39.591  33.415  35.609  1.00  0.00     0.173 A 
ATOM     72  C   UNL A   1      38.398  31.518  36.470  1.00  0.00     0.173 A 
ATOM     73  F   UNL A   1      40.363  33.994  34.677  1.00  0.00    -0.203 F 
ATOM     74  C   UNL A   1      39.197  34.165  36.715  1.00  0.00     0.198 A 
ATOM     75  C   UNL A   1      37.984  32.277  37.562  1.00  0.00     0.198 A 
ATOM     76  F   UNL A   1      37.985  30.246  36.367  1.00  0.00    -0.203 F 
ATOM     77  F   UNL A   1      39.601  35.437  36.838  1.00  0.00    -0.200 F 
ATOM     78  C   UNL A   1      38.391  33.597  37.689  1.00  0.00     0.200 A 
ATOM     79  F   UNL A   1      37.184  31.732  38.488  1.00  0.00    -0.200 F 
ATOM     80  F   UNL A   1      38.002  34.322  38.746  1.00  0.00    -0.200 F 
ENDBRANCH  46  70
BRANCH  58  81
ATOM     81  C   UNL A   1      44.644  27.827  34.372  1.00  0.00     0.064 A 
ATOM     82  C   UNL A   1      45.846  28.552  34.357  1.00  0.00     0.173 A 
ATOM     83  C   UNL A   1      44.595  26.650  35.132  1.00  0.00     0.173 A 
ATOM     84  F   UNL A   1      45.945  29.680  33.637  1.00  0.00    -0.203 F 
ATOM     85  C   UNL A   1      46.961  28.104  35.058  1.00  0.00     0.198 A 
ATOM     86  C   UNL A   1      45.706  26.218  35.852  1.00  0.00     0.198 A 
ATOM     87  F   UNL A   1      43.466  25.928  35.187  1.00  0.00    -0.203 F 
ATOM     88  F   UNL A   1      48.110  28.793  34.999  1.00  0.00    -0.200 F 
ATOM     89  C   UNL A   1      46.891  26.939  35.807  1.00  0.00     0.200 A 
ATOM     90  F   UNL A   1      45.630  25.104  36.592  1.00  0.00    -0.200 F 
ATOM     91  F   UNL A   1      47.964  26.511  36.484  1.00  0.00    -0.200 F 
ENDBRANCH  58  81
ENDBRANCH  32  33
ENDBRANCH  25  27
ENDBRANCH  24  25
ENDBRANCH  23  24
ENDBRANCH  22  23
ENDBRANCH  21  22
ENDBRANCH   1  21
TORSDOF 18
ENDMDL
MODEL 2
REMARK VINA RESULT:     -10.2      0.875      7.517
REMARK SMILES COc1cc(F)ccc1NCC(C)(C)C(=O)OCCOCCOC(=O)c1ccc(-c2c3nc(c(-c4c(F)c(F)c(F)c(F)c4F)c4ccc([nH]4)c(-c4c(F)c(F)c(F)c(F)c4F)c4nc(c(-c5c(F)c(F)c(F)c(F)c5F)c5ccc2[nH]5)C=C4)C=C3)cc1
REMARK SMILES IDX 19 1 18 2 17 3 15 4 16 5 12 6 13 7 14 8 11 9 10 10 9 12 3 13
REMARK SMILES IDX 4 14 5 15 8 16 6 17 7 18 2 19 1 20 20 21 21 22 22 23 23 24
REMARK SMILES IDX 24 25 25 26 26 27 27 28 88 29 28 30 87 31 29 32 30 33 31 34
REMARK SMILES IDX 81 35 32 36 86 37 80 38 82 39 33 40 85 41 79 42 78 43 34 45
REMARK SMILES IDX 66 46 46 47 65 48 47 49 50 50 64 51 83 52 48 53 49 54 63 56
REMARK SMILES IDX 84 57 51 58 35 59 36 60 44 61 37 62 38 63 42 64 45 65 39 66
REMARK SMILES IDX 40 67 43 68 41 69 67 70 68 71 76 72 69 73 70 74 74 75 77 76
REMARK SMILES IDX 71 77 72 78 75 79 73 80 52 81 53 82 61 83 54 84 55 85 59 86
REMARK SMILES IDX 62 87 56 88 57 89 60 90 58 91
REMARK H PARENT 10 11 82 44 50 55
REMARK Flexibility Score: inf
ROOT
ATOM      1  C   UNL A   1      32.645  29.267  25.153  1.00  0.00     0.202 C 
ENDROOT
BRANCH   1   2
ATOM      2  C   UNL A   1      32.234  28.908  23.723  1.00  0.00     0.261 C 
BRANCH   2   3
ATOM      3  O   UNL A   1      31.589  27.627  23.682  1.00  0.00    -0.463 OA
BRANCH   3   4
ATOM      4  C   UNL A   1      32.365  26.579  24.066  1.00  0.00     0.313 C 
ATOM      5  O   UNL A   1      33.555  26.473  23.788  1.00  0.00    -0.252 OA
BRANCH   4   6
ATOM      6  C   UNL A   1      31.589  25.538  24.882  1.00  0.00     0.080 C 
ATOM      7  C   UNL A   1      30.866  24.626  23.876  1.00  0.00     0.025 C 
ATOM      8  C   UNL A   1      30.511  26.184  25.779  1.00  0.00     0.025 C 
BRANCH   6   9
ATOM      9  C   UNL A   1      32.547  24.729  25.789  1.00  0.00     0.131 C 
BRANCH   9  10
ATOM     10  N   UNL A   1      33.125  23.567  25.143  1.00  0.00    -0.381 N 
ATOM     11  H   UNL A   1      32.513  22.992  24.627  1.00  0.00     0.160 HD
BRANCH  10  12
ATOM     12  C   UNL A   1      34.461  23.185  25.182  1.00  0.00     0.077 A 
ATOM     13  C   UNL A   1      34.782  21.822  24.970  1.00  0.00     0.144 A 
ATOM     14  C   UNL A   1      36.109  21.385  24.941  1.00  0.00     0.087 A 
ATOM     15  C   UNL A   1      37.125  22.298  25.176  1.00  0.00     0.127 A 
ATOM     16  C   UNL A   1      35.513  24.068  25.456  1.00  0.00     0.032 A 
ATOM     17  F   UNL A   1      38.400  21.888  25.145  1.00  0.00    -0.207 F 
ATOM     18  C   UNL A   1      36.842  23.629  25.446  1.00  0.00     0.041 A 
BRANCH  13  19
ATOM     19  O   UNL A   1      33.721  20.977  24.723  1.00  0.00    -0.494 OA
ATOM     20  C   UNL A   1      34.068  19.596  24.733  1.00  0.00     0.278 C 
ENDBRANCH  13  19
ENDBRANCH  10  12
ENDBRANCH   9  10
ENDBRANCH   6   9
ENDBRANCH   4   6
ENDBRANCH   3   4
ENDBRANCH   2   3
ENDBRANCH   1   2
BRANCH   1  21
ATOM     21  O   UNL A   1      31.611  29.749  26.010  1.00  0.00    -0.374 OA
BRANCH  21  22
ATOM     22  C   UNL A   1      31.034  31.017  25.701  1.00  0.00     0.202 C 
BRANCH  22  23
ATOM     23  C   UNL A   1      31.539  32.221  26.507  1.00  0.00     0.261 C 
BRANCH  23  24
ATOM     24  O   UNL A   1      32.592  31.877  27.426  1.00  0.00    -0.460 OA
BRANCH  24  25
ATOM     25  C   UNL A   1      33.500  32.861  27.636  1.00  0.00     0.338 C 
ATOM     26  O   UNL A   1      33.297  34.067  27.662  1.00  0.00    -0.246 OA
BRANCH  25  27
ATOM     27  C   UNL A   1      34.806  32.288  28.004  1.00  0.00     0.060 A 
ATOM     28  C   UNL A   1      34.862  30.911  28.254  1.00  0.00     0.016 A 
ATOM     29  C   UNL A   1      35.927  33.094  28.214  1.00  0.00     0.016 A 
ATOM     30  C   UNL A   1      36.025  30.340  28.762  1.00  0.00     0.010 A 
ATOM     31  C   UNL A   1      37.093  32.520  28.736  1.00  0.00     0.010 A 
ATOM     32  C   UNL A   1      37.133  31.148  29.045  1.00  0.00    -0.014 A 
BRANCH  32  33
ATOM     33  C   UNL A   1      38.274  30.578  29.802  1.00  0.00     0.031 A 
ATOM     34  C   UNL A   1      38.463  30.968  31.242  1.00  0.00     0.074 A 
ATOM     35  C   UNL A   1      39.102  29.687  29.231  1.00  0.00     0.049 A 
ATOM     36  N   UNL A   1      39.399  30.609  32.084  1.00  0.00    -0.248 NA
ATOM     37  C   UNL A   1      37.459  31.881  31.812  1.00  0.00     0.031 C 
ATOM     38  C   UNL A   1      38.990  29.191  27.861  1.00  0.00     0.029 A 
ATOM     39  N   UNL A   1      40.203  29.039  29.736  1.00  0.00    -0.354 N 
ATOM     40  C   UNL A   1      39.097  31.250  33.278  1.00  0.00     0.074 A 
ATOM     41  C   UNL A   1      37.909  32.042  33.049  1.00  0.00     0.031 C 
ATOM     42  C   UNL A   1      39.986  28.319  27.631  1.00  0.00     0.029 A 
ATOM     43  C   UNL A   1      40.823  28.220  28.826  1.00  0.00     0.049 A 
ATOM     44  H   UNL A   1      40.517  29.152  30.661  1.00  0.00     0.167 HD
ATOM     45  C   UNL A   1      39.748  31.173  34.463  1.00  0.00     0.037 A 
ATOM     46  C   UNL A   1      41.947  27.486  28.941  1.00  0.00     0.037 A 
ATOM     47  C   UNL A   1      40.927  30.380  34.691  1.00  0.00     0.049 A 
ATOM     48  C   UNL A   1      42.697  27.477  30.247  1.00  0.00     0.074 A 
ATOM     49  C   UNL A   1      41.652  30.234  35.861  1.00  0.00     0.029 A 
ATOM     50  N   UNL A   1      41.553  29.600  33.731  1.00  0.00    -0.354 N 
ATOM     51  N   UNL A   1      42.405  28.084  31.372  1.00  0.00    -0.248 NA
ATOM     52  C   UNL A   1      43.935  26.683  30.301  1.00  0.00     0.031 C 
ATOM     53  C   UNL A   1      42.743  29.400  35.597  1.00  0.00     0.029 A 
ATOM     54  C   UNL A   1      42.669  28.989  34.276  1.00  0.00     0.049 A 
ATOM     55  H   UNL A   1      41.249  29.497  32.800  1.00  0.00     0.167 HD
ATOM     56  C   UNL A   1      43.404  27.731  32.269  1.00  0.00     0.074 A 
ATOM     57  C   UNL A   1      44.308  26.847  31.563  1.00  0.00     0.031 C 
ATOM     58  C   UNL A   1      43.556  28.106  33.563  1.00  0.00     0.037 A 
BRANCH  45  59
ATOM     59  C   UNL A   1      39.213  31.976  35.609  1.00  0.00     0.064 A 
ATOM     60  C   UNL A   1      39.633  33.301  35.805  1.00  0.00     0.173 A 
ATOM     61  C   UNL A   1      38.346  31.414  36.555  1.00  0.00     0.173 A 
ATOM     62  F   UNL A   1      40.467  33.883  34.929  1.00  0.00    -0.203 F 
ATOM     63  C   UNL A   1      39.215  34.027  36.916  1.00  0.00     0.198 A 
ATOM     64  C   UNL A   1      37.911  32.151  37.654  1.00  0.00     0.198 A 
ATOM     65  F   UNL A   1      37.906  30.155  36.404  1.00  0.00    -0.203 F 
ATOM     66  F   UNL A   1      39.654  35.280  37.099  1.00  0.00    -0.200 F 
ATOM     67  C   UNL A   1      38.353  33.453  37.839  1.00  0.00     0.200 A 
ATOM     68  F   UNL A   1      37.063  31.602  38.534  1.00  0.00    -0.200 F 
ATOM     69  F   UNL A   1      37.949  34.155  38.906  1.00  0.00    -0.200 F 
ENDBRANCH  45  59
BRANCH  46  70
ATOM     70  C   UNL A   1      42.435  26.703  27.776  1.00  0.00     0.064 A 
ATOM     71  C   UNL A   1      42.057  25.364  27.595  1.00  0.00     0.173 A 
ATOM     72  C   UNL A   1      43.299  27.272  26.831  1.00  0.00     0.173 A 
ATOM     73  F   UNL A   1      41.229  24.775  28.470  1.00  0.00    -0.203 F 
ATOM     74  C   UNL A   1      42.542  24.619  26.522  1.00  0.00     0.198 A 
ATOM     75  C   UNL A   1      43.762  26.533  25.745  1.00  0.00     0.198 A 
ATOM     76  F   UNL A   1      43.667  28.556  26.948  1.00  0.00    -0.203 F 
ATOM     77  F   UNL A   1      42.188  23.333  26.388  1.00  0.00    -0.200 F 
ATOM     78  C   UNL A   1      43.391  25.204  25.596  1.00  0.00     0.200 A 
ATOM     79  F   UNL A   1      44.562  27.109  24.838  1.00  0.00    -0.200 F 
ATOM     80  F   UNL A   1      43.847  24.491  24.558  1.00  0.00    -0.200 F 
ENDBRANCH  46  70
BRANCH  58  81
ATOM     81  C   UNL A   1      44.729  27.555  34.318  1.00  0.00     0.064 A 
ATOM     82  C   UNL A   1      45.962  28.226  34.304  1.00  0.00     0.173 A 
ATOM     83  C   UNL A   1      44.660  26.320  34.978  1.00  0.00     0.173 A 
ATOM     84  F   UNL A   1      46.082  29.406  33.678  1.00  0.00    -0.203 F 
ATOM     85  C   UNL A   1      47.087  27.670  34.907  1.00  0.00     0.198 A 
ATOM     86  C   UNL A   1      45.780  25.779  35.602  1.00  0.00     0.198 A 
ATOM     87  F   UNL A   1      43.500  25.647  35.028  1.00  0.00    -0.203 F 
ATOM     88  F   UNL A   1      48.263  28.311  34.849  1.00  0.00    -0.200 F 
ATOM     89  C   UNL A   1      46.995  26.448  35.557  1.00  0.00     0.200 A 
ATOM     90  F   UNL A   1      45.686  24.609  36.247  1.00  0.00    -0.200 F 
ATOM     91  F   UNL A   1      48.077  25.917  36.141  1.00  0.00    -0.200 F 
ENDBRANCH  58  81
ENDBRANCH  32  33
ENDBRANCH  25  27
ENDBRANCH  24  25
ENDBRANCH  23  24
ENDBRANCH  22  23
ENDBRANCH  21  22
ENDBRANCH   1  21
TORSDOF 18
ENDMDL
MODEL 3
REMARK VINA RESULT:     -10.1      4.640      9.900
REMARK SMILES COc1cc(F)ccc1NCC(C)(C)C(=O)OCCOCCOC(=O)c1ccc(-c2c3nc(c(-c4c(F)c(F)c(F)c(F)c4F)c4ccc([nH]4)c(-c4c(F)c(F)c(F)c(F)c4F)c4nc(c(-c5c(F)c(F)c(F)c(F)c5F)c5ccc2[nH]5)C=C4)C=C3)cc1
REMARK SMILES IDX 19 1 18 2 17 3 15 4 16 5 12 6 13 7 14 8 11 9 10 10 9 12 3 13
REMARK SMILES IDX 4 14 5 15 8 16 6 17 7 18 2 19 1 20 20 21 21 22 22 23 23 24
REMARK SMILES IDX 24 25 25 26 26 27 27 28 88 29 28 30 87 31 29 32 30 33 31 34
REMARK SMILES IDX 81 35 32 36 86 37 80 38 82 39 33 40 85 41 79 42 78 43 34 45
REMARK SMILES IDX 66 46 46 47 65 48 47 49 50 50 64 51 83 52 48 53 49 54 63 56
REMARK SMILES IDX 84 57 51 58 35 59 36 60 44 61 37 62 38 63 42 64 45 65 39 66
REMARK SMILES IDX 40 67 43 68 41 69 67 70 68 71 76 72 69 73 70 74 74 75 77 76
REMARK SMILES IDX 71 77 72 78 75 79 73 80 52 81 53 82 61 83 54 84 55 85 59 86
REMARK SMILES IDX 62 87 56 88 57 89 60 90 58 91
REMARK H PARENT 10 11 82 44 50 55
REMARK Flexibility Score: inf
ROOT
ATOM      1  C   UNL A   1      36.740  22.125  24.464  1.00  0.00     0.202 C 
ENDROOT
BRANCH   1   2
ATOM      2  C   UNL A   1      36.805  23.650  24.576  1.00  0.00     0.261 C 
BRANCH   2   3
ATOM      3  O   UNL A   1      35.642  24.164  25.241  1.00  0.00    -0.463 OA
BRANCH   3   4
ATOM      4  C   UNL A   1      34.490  24.095  24.522  1.00  0.00     0.313 C 
ATOM      5  O   UNL A   1      34.419  24.342  23.323  1.00  0.00    -0.252 OA
BRANCH   4   6
ATOM      6  C   UNL A   1      33.286  23.681  25.375  1.00  0.00     0.080 C 
ATOM      7  C   UNL A   1      33.843  23.070  26.673  1.00  0.00     0.025 C 
ATOM      8  C   UNL A   1      32.426  22.599  24.687  1.00  0.00     0.025 C 
BRANCH   6   9
ATOM      9  C   UNL A   1      32.380  24.900  25.670  1.00  0.00     0.131 C 
BRANCH   9  10
ATOM     10  N   UNL A   1      32.817  26.125  25.028  1.00  0.00    -0.381 N 
ATOM     11  H   UNL A   1      33.135  26.053  24.099  1.00  0.00     0.160 HD
BRANCH  10  12
ATOM     12  C   UNL A   1      32.830  27.392  25.600  1.00  0.00     0.077 A 
ATOM     13  C   UNL A   1      31.831  28.319  25.214  1.00  0.00     0.144 A 
ATOM     14  C   UNL A   1      31.755  29.588  25.794  1.00  0.00     0.087 A 
ATOM     15  C   UNL A   1      32.710  29.961  26.728  1.00  0.00     0.127 A 
ATOM     16  C   UNL A   1      33.799  27.821  26.515  1.00  0.00     0.032 A 
ATOM     17  F   UNL A   1      32.642  31.174  27.292  1.00  0.00    -0.207 F 
ATOM     18  C   UNL A   1      33.737  29.099  27.084  1.00  0.00     0.041 A 
BRANCH  13  19
ATOM     19  O   UNL A   1      30.905  27.870  24.297  1.00  0.00    -0.494 OA
ATOM     20  C   UNL A   1      30.315  28.906  23.517  1.00  0.00     0.278 C 
ENDBRANCH  13  19
ENDBRANCH  10  12
ENDBRANCH   9  10
ENDBRANCH   6   9
ENDBRANCH   4   6
ENDBRANCH   3   4
ENDBRANCH   2   3
ENDBRANCH   1   2
BRANCH   1  21
ATOM     21  O   UNL A   1      37.846  21.400  24.998  1.00  0.00    -0.374 OA
BRANCH  21  22
ATOM     22  C   UNL A   1      37.774  19.974  24.981  1.00  0.00     0.202 C 
BRANCH  22  23
ATOM     23  C   UNL A   1      39.052  19.214  25.359  1.00  0.00     0.261 C 
BRANCH  23  24
ATOM     24  O   UNL A   1      39.888  19.944  26.276  1.00  0.00    -0.460 OA
BRANCH  24  25
ATOM     25  C   UNL A   1      41.209  19.660  26.181  1.00  0.00     0.338 C 
ATOM     26  O   UNL A   1      41.720  18.631  25.762  1.00  0.00    -0.246 OA
BRANCH  25  27
ATOM     27  C   UNL A   1      42.018  20.847  26.508  1.00  0.00     0.060 A 
ATOM     28  C   UNL A   1      42.128  21.202  27.859  1.00  0.00     0.016 A 
ATOM     29  C   UNL A   1      42.560  21.663  25.514  1.00  0.00     0.016 A 
ATOM     30  C   UNL A   1      42.740  22.400  28.219  1.00  0.00     0.010 A 
ATOM     31  C   UNL A   1      43.164  22.873  25.876  1.00  0.00     0.010 A 
ATOM     32  C   UNL A   1      43.223  23.262  27.227  1.00  0.00    -0.014 A 
BRANCH  32  33
ATOM     33  C   UNL A   1      43.653  24.631  27.601  1.00  0.00     0.031 A 
ATOM     34  C   UNL A   1      42.608  25.654  27.952  1.00  0.00     0.074 A 
ATOM     35  C   UNL A   1      44.957  24.947  27.675  1.00  0.00     0.049 A 
ATOM     36  N   UNL A   1      42.755  26.911  28.287  1.00  0.00    -0.248 NA
ATOM     37  C   UNL A   1      41.208  25.198  27.930  1.00  0.00     0.031 C 
ATOM     38  C   UNL A   1      46.062  24.029  27.409  1.00  0.00     0.029 A 
ATOM     39  N   UNL A   1      45.572  26.132  27.996  1.00  0.00    -0.354 N 
ATOM     40  C   UNL A   1      41.473  27.393  28.513  1.00  0.00     0.074 A 
ATOM     41  C   UNL A   1      40.556  26.305  28.254  1.00  0.00     0.031 C 
ATOM     42  C   UNL A   1      47.223  24.685  27.574  1.00  0.00     0.029 A 
ATOM     43  C   UNL A   1      46.941  26.076  27.926  1.00  0.00     0.049 A 
ATOM     44  H   UNL A   1      45.078  26.944  28.253  1.00  0.00     0.167 HD
ATOM     45  C   UNL A   1      41.098  28.630  28.915  1.00  0.00     0.037 A 
ATOM     46  C   UNL A   1      47.861  27.044  28.108  1.00  0.00     0.037 A 
ATOM     47  C   UNL A   1      42.011  29.710  29.179  1.00  0.00     0.049 A 
ATOM     48  C   UNL A   1      47.414  28.433  28.479  1.00  0.00     0.074 A 
ATOM     49  C   UNL A   1      41.723  30.998  29.596  1.00  0.00     0.029 A 
ATOM     50  N   UNL A   1      43.389  29.628  29.050  1.00  0.00    -0.354 N 
ATOM     51  N   UNL A   1      46.201  28.881  28.694  1.00  0.00    -0.248 NA
ATOM     52  C   UNL A   1      48.463  29.454  28.634  1.00  0.00     0.031 C 
ATOM     53  C   UNL A   1      42.925  31.709  29.678  1.00  0.00     0.029 A 
ATOM     54  C   UNL A   1      43.964  30.850  29.358  1.00  0.00     0.049 A 
ATOM     55  H   UNL A   1      43.885  28.822  28.779  1.00  0.00     0.167 HD
ATOM     56  C   UNL A   1      46.340  30.222  29.027  1.00  0.00     0.074 A 
ATOM     57  C   UNL A   1      47.757  30.516  28.997  1.00  0.00     0.031 C 
ATOM     58  C   UNL A   1      45.377  31.126  29.330  1.00  0.00     0.037 A 
BRANCH  45  59
ATOM     59  C   UNL A   1      39.632  28.897  29.084  1.00  0.00     0.064 A 
ATOM     60  C   UNL A   1      38.867  29.364  28.004  1.00  0.00     0.173 A 
ATOM     61  C   UNL A   1      39.004  28.765  30.329  1.00  0.00     0.173 A 
ATOM     62  F   UNL A   1      39.425  29.511  26.793  1.00  0.00    -0.203 F 
ATOM     63  C   UNL A   1      37.527  29.702  28.171  1.00  0.00     0.198 A 
ATOM     64  C   UNL A   1      37.657  29.082  30.487  1.00  0.00     0.198 A 
ATOM     65  F   UNL A   1      39.691  28.311  31.388  1.00  0.00    -0.203 F 
ATOM     66  F   UNL A   1      36.823  30.175  27.133  1.00  0.00    -0.200 F 
ATOM     67  C   UNL A   1      36.922  29.560  29.411  1.00  0.00     0.200 A 
ATOM     68  F   UNL A   1      37.068  28.926  31.681  1.00  0.00    -0.200 F 
ATOM     69  F   UNL A   1      35.632  29.883  29.569  1.00  0.00    -0.200 F 
ENDBRANCH  45  59
BRANCH  46  70
ATOM     70  C   UNL A   1      49.303  26.728  27.933  1.00  0.00     0.064 A 
ATOM     71  C   UNL A   1      49.887  26.692  26.658  1.00  0.00     0.173 A 
ATOM     72  C   UNL A   1      50.120  26.443  29.034  1.00  0.00     0.173 A 
ATOM     73  F   UNL A   1      49.147  26.962  25.572  1.00  0.00    -0.203 F 
ATOM     74  C   UNL A   1      51.230  26.363  26.491  1.00  0.00     0.198 A 
ATOM     75  C   UNL A   1      51.469  26.138  28.868  1.00  0.00     0.198 A 
ATOM     76  F   UNL A   1      49.613  26.491  30.275  1.00  0.00    -0.203 F 
ATOM     77  F   UNL A   1      51.757  26.307  25.259  1.00  0.00    -0.200 F 
ATOM     78  C   UNL A   1      52.021  26.089  27.596  1.00  0.00     0.200 A 
ATOM     79  F   UNL A   1      52.237  25.900  29.939  1.00  0.00    -0.200 F 
ATOM     80  F   UNL A   1      53.316  25.784  27.436  1.00  0.00    -0.200 F 
ENDBRANCH  46  70
BRANCH  58  81
ATOM     81  C   UNL A   1      45.810  32.521  29.676  1.00  0.00     0.064 A 
ATOM     82  C   UNL A   1      45.944  33.492  28.672  1.00  0.00     0.173 A 
ATOM     83  C   UNL A   1      46.181  32.868  30.982  1.00  0.00     0.173 A 
ATOM     84  F   UNL A   1      45.611  33.205  27.405  1.00  0.00    -0.203 F 
ATOM     85  C   UNL A   1      46.451  34.756  28.962  1.00  0.00     0.198 A 
ATOM     86  C   UNL A   1      46.664  34.141  31.273  1.00  0.00     0.198 A 
ATOM     87  F   UNL A   1      46.061  31.977  31.978  1.00  0.00    -0.203 F 
ATOM     88  F   UNL A   1      46.605  35.656  27.981  1.00  0.00    -0.200 F 
ATOM     89  C   UNL A   1      46.808  35.080  30.262  1.00  0.00     0.200 A 
ATOM     90  F   UNL A   1      46.990  34.461  32.533  1.00  0.00    -0.200 F 
ATOM     91  F   UNL A   1      47.292  36.298  30.540  1.00  0.00    -0.200 F 
ENDBRANCH  58  81
ENDBRANCH  32  33
ENDBRANCH  25  27
ENDBRANCH  24  25
ENDBRANCH  23  24
ENDBRANCH  22  23
ENDBRANCH  21  22
ENDBRANCH   1  21
TORSDOF 18
ENDMDL
