MODEL 1
REMARK VINA RESULT:     -10.6      0.000      0.000
REMARK SMILES CC(C)(CNC(=O)[C@H]1CCC[C@H](C(=O)OCCOCCOC(=O)c2ccc(-c3c4nc(c(-c5c(F)c(F)c(F)c(F)c5F)c5ccc([nH]5)c(-c5c(F)c(F)c(F)c(F)c5F)c5nc(c(-c6c(F)c(F)c(F)c(F)c6F)c6ccc3[nH]6)C=C5)C=C4)cc2)C1)S(C)(=O)=O
REMARK SMILES IDX 17 1 16 2 15 3 13 4 14 5 12 6 8 7 9 8 87 9 10 10 11 11 6 12
REMARK SMILES IDX 5 13 7 15 4 16 2 17 1 18 3 19 88 20 89 21 90 22 91 23 18 24
REMARK SMILES IDX 19 25 20 26 21 27 22 28 23 29 24 30 25 31 86 32 26 33 85 34
REMARK SMILES IDX 27 35 28 36 29 37 79 38 30 39 84 40 78 41 80 42 31 43 83 44
REMARK SMILES IDX 77 45 76 46 32 48 64 49 44 50 63 51 45 52 48 53 62 54 81 55
REMARK SMILES IDX 46 56 47 57 61 59 82 60 49 61 33 62 34 63 42 64 35 65 36 66
REMARK SMILES IDX 40 67 43 68 37 69 38 70 41 71 39 72 65 73 66 74 74 75 67 76
REMARK SMILES IDX 68 77 72 78 75 79 69 80 70 81 73 82 71 83 50 84 51 85 59 86
REMARK SMILES IDX 52 87 53 88 57 89 60 90 54 91 55 92 58 93 56 94
REMARK H PARENT 5 14 80 47 48 58
REMARK Flexibility Score: inf
ROOT
ATOM      1  C   UNL A   1      35.239  33.122  29.341  1.00  0.00     0.202 C 
ENDROOT
BRANCH   1   2
ATOM      2  C   UNL A   1      36.115  32.354  28.351  1.00  0.00     0.261 C 
BRANCH   2   3
ATOM      3  O   UNL A   1      35.305  31.637  27.406  1.00  0.00    -0.463 OA
BRANCH   3   4
ATOM      4  C   UNL A   1      34.991  30.365  27.759  1.00  0.00     0.309 C 
ATOM      5  O   UNL A   1      35.724  29.614  28.394  1.00  0.00    -0.252 OA
BRANCH   4   6
ATOM      6  C   UNL A   1      33.601  29.956  27.305  1.00  0.00     0.100 C 
ATOM      7  C   UNL A   1      32.402  28.278  25.792  1.00  0.00     0.079 C 
ATOM      8  C   UNL A   1      31.505  29.417  25.287  1.00  0.00     0.013 C 
ATOM      9  C   UNL A   1      33.748  28.823  26.284  1.00  0.00     0.028 C 
ATOM     10  C   UNL A   1      31.348  30.531  26.315  1.00  0.00     0.002 C 
ATOM     11  C   UNL A   1      32.702  31.073  26.762  1.00  0.00     0.015 C 
BRANCH   7  12
ATOM     12  C   UNL A   1      31.702  27.448  26.871  1.00  0.00     0.223 C 
ATOM     13  N   UNL A   1      31.238  26.204  26.571  1.00  0.00    -0.354 N 
ATOM     14  H   UNL A   1      30.772  25.738  27.304  1.00  0.00     0.163 HD
ATOM     15  O   UNL A   1      31.539  27.840  28.025  1.00  0.00    -0.275 OA
BRANCH  13  16
ATOM     16  C   UNL A   1      31.334  25.468  25.327  1.00  0.00     0.138 C 
BRANCH  16  17
ATOM     17  C   UNL A   1      32.247  24.232  25.371  1.00  0.00     0.084 C 
ATOM     18  C   UNL A   1      32.499  23.646  23.976  1.00  0.00     0.030 C 
ATOM     19  C   UNL A   1      33.600  24.697  25.956  1.00  0.00     0.030 C 
BRANCH  17  20
ATOM     20  S   UNL A   1      31.582  22.962  26.506  1.00  0.00     0.154 S 
ATOM     21  C   UNL A   1      32.867  22.525  27.661  1.00  0.00     0.158 C 
ATOM     22  O   UNL A   1      30.528  23.587  27.286  1.00  0.00    -0.229 OA
ATOM     23  O   UNL A   1      31.289  21.773  25.725  1.00  0.00    -0.229 OA
ENDBRANCH  17  20
ENDBRANCH  16  17
ENDBRANCH  13  16
ENDBRANCH   7  12
ENDBRANCH   4   6
ENDBRANCH   3   4
ENDBRANCH   2   3
ENDBRANCH   1   2
BRANCH   1  24
ATOM     24  O   UNL A   1      33.964  33.556  28.868  1.00  0.00    -0.374 OA
BRANCH  24  25
ATOM     25  C   UNL A   1      33.796  34.941  28.573  1.00  0.00     0.202 C 
BRANCH  25  26
ATOM     26  C   UNL A   1      32.965  35.762  29.570  1.00  0.00     0.261 C 
BRANCH  26  27
ATOM     27  O   UNL A   1      32.591  35.006  30.738  1.00  0.00    -0.460 OA
BRANCH  27  28
ATOM     28  C   UNL A   1      32.843  35.624  31.916  1.00  0.00     0.338 C 
ATOM     29  O   UNL A   1      32.173  36.491  32.461  1.00  0.00    -0.246 OA
BRANCH  28  30
ATOM     30  C   UNL A   1      33.985  34.990  32.598  1.00  0.00     0.060 A 
ATOM     31  C   UNL A   1      35.226  35.634  32.513  1.00  0.00     0.016 A 
ATOM     32  C   UNL A   1      33.875  33.738  33.205  1.00  0.00     0.016 A 
ATOM     33  C   UNL A   1      36.374  35.007  32.989  1.00  0.00     0.010 A 
ATOM     34  C   UNL A   1      35.032  33.102  33.673  1.00  0.00     0.010 A 
ATOM     35  C   UNL A   1      36.290  33.717  33.531  1.00  0.00    -0.014 A 
BRANCH  35  36
ATOM     36  C   UNL A   1      37.540  32.963  33.793  1.00  0.00     0.031 A 
ATOM     37  C   UNL A   1      38.299  33.229  35.064  1.00  0.00     0.074 A 
ATOM     38  C   UNL A   1      37.967  32.018  32.938  1.00  0.00     0.049 A 
ATOM     39  N   UNL A   1      39.410  32.691  35.499  1.00  0.00    -0.248 NA
ATOM     40  C   UNL A   1      37.724  34.236  35.970  1.00  0.00     0.031 C 
ATOM     41  C   UNL A   1      37.297  31.637  31.698  1.00  0.00     0.029 A 
ATOM     42  N   UNL A   1      39.072  31.205  32.990  1.00  0.00    -0.354 N 
ATOM     43  C   UNL A   1      39.668  33.293  36.723  1.00  0.00     0.074 A 
ATOM     44  C   UNL A   1      38.615  34.259  36.951  1.00  0.00     0.031 C 
ATOM     45  C   UNL A   1      38.011  30.668  31.098  1.00  0.00     0.029 A 
ATOM     46  C   UNL A   1      39.199  30.381  31.899  1.00  0.00     0.049 A 
ATOM     47  H   UNL A   1      39.713  31.212  33.738  1.00  0.00     0.167 HD
ATOM     48  C   UNL A   1      40.685  33.055  37.585  1.00  0.00     0.037 A 
ATOM     49  C   UNL A   1      40.173  29.506  31.579  1.00  0.00     0.037 A 
ATOM     50  C   UNL A   1      41.732  32.093  37.360  1.00  0.00     0.049 A 
ATOM     51  C   UNL A   1      41.331  29.310  32.522  1.00  0.00     0.074 A 
ATOM     52  C   UNL A   1      42.798  31.769  38.181  1.00  0.00     0.029 A 
ATOM     53  N   UNL A   1      41.846  31.304  36.226  1.00  0.00    -0.354 N 
ATOM     54  N   UNL A   1      41.555  29.867  33.687  1.00  0.00    -0.248 NA
ATOM     55  C   UNL A   1      42.372  28.358  32.105  1.00  0.00     0.031 C 
ATOM     56  C   UNL A   1      43.582  30.816  37.523  1.00  0.00     0.029 A 
ATOM     57  C   UNL A   1      42.979  30.512  36.314  1.00  0.00     0.049 A 
ATOM     58  H   UNL A   1      41.216  31.307  35.470  1.00  0.00     0.167 HD
ATOM     59  C   UNL A   1      42.743  29.318  34.153  1.00  0.00     0.074 A 
ATOM     60  C   UNL A   1      43.188  28.372  33.150  1.00  0.00     0.031 C 
ATOM     61  C   UNL A   1      43.406  29.571  35.309  1.00  0.00     0.037 A 
BRANCH  48  62
ATOM     62  C   UNL A   1      40.728  33.868  38.845  1.00  0.00     0.064 A 
ATOM     63  C   UNL A   1      40.054  33.462  40.006  1.00  0.00     0.173 A 
ATOM     64  C   UNL A   1      41.480  35.051  38.900  1.00  0.00     0.173 A 
ATOM     65  F   UNL A   1      39.310  32.347  39.999  1.00  0.00    -0.203 F 
ATOM     66  C   UNL A   1      40.114  34.224  41.171  1.00  0.00     0.198 A 
ATOM     67  C   UNL A   1      41.560  35.795  40.074  1.00  0.00     0.198 A 
ATOM     68  F   UNL A   1      42.147  35.480  37.817  1.00  0.00    -0.203 F 
ATOM     69  F   UNL A   1      39.429  33.840  42.256  1.00  0.00    -0.200 F 
ATOM     70  C   UNL A   1      40.871  35.386  41.206  1.00  0.00     0.200 A 
ATOM     71  F   UNL A   1      42.299  36.912  40.108  1.00  0.00    -0.200 F 
ATOM     72  F   UNL A   1      40.932  36.114  42.329  1.00  0.00    -0.200 F 
ENDBRANCH  48  62
BRANCH  49  73
ATOM     73  C   UNL A   1      40.103  28.758  30.298  1.00  0.00     0.064 A 
ATOM     74  C   UNL A   1      39.478  27.506  30.224  1.00  0.00     0.173 A 
ATOM     75  C   UNL A   1      40.677  29.272  29.127  1.00  0.00     0.173 A 
ATOM     76  F   UNL A   1      38.938  26.960  31.324  1.00  0.00    -0.203 F 
ATOM     77  C   UNL A   1      39.443  26.790  29.028  1.00  0.00     0.198 A 
ATOM     78  C   UNL A   1      40.619  28.568  27.926  1.00  0.00     0.198 A 
ATOM     79  F   UNL A   1      41.293  30.464  29.147  1.00  0.00    -0.203 F 
ATOM     80  F   UNL A   1      38.877  25.576  28.993  1.00  0.00    -0.200 F 
ATOM     81  C   UNL A   1      40.008  27.325  27.880  1.00  0.00     0.200 A 
ATOM     82  F   UNL A   1      41.158  29.092  26.817  1.00  0.00    -0.200 F 
ATOM     83  F   UNL A   1      39.972  26.636  26.730  1.00  0.00    -0.200 F 
ENDBRANCH  49  73
BRANCH  61  84
ATOM     84  C   UNL A   1      44.664  28.796  35.569  1.00  0.00     0.064 A 
ATOM     85  C   UNL A   1      45.923  29.297  35.209  1.00  0.00     0.173 A 
ATOM     86  C   UNL A   1      44.612  27.556  36.225  1.00  0.00     0.173 A 
ATOM     87  F   UNL A   1      46.025  30.471  34.567  1.00  0.00    -0.203 F 
ATOM     88  C   UNL A   1      47.084  28.575  35.478  1.00  0.00     0.198 A 
ATOM     89  C   UNL A   1      45.776  26.851  36.516  1.00  0.00     0.198 A 
ATOM     90  F   UNL A   1      43.432  27.037  36.596  1.00  0.00    -0.203 F 
ATOM     91  F   UNL A   1      48.273  29.053  35.087  1.00  0.00    -0.200 F 
ATOM     92  C   UNL A   1      47.010  27.357  36.136  1.00  0.00     0.200 A 
ATOM     93  F   UNL A   1      45.703  25.680  37.164  1.00  0.00    -0.200 F 
ATOM     94  F   UNL A   1      48.128  26.667  36.400  1.00  0.00    -0.200 F 
ENDBRANCH  61  84
ENDBRANCH  35  36
ENDBRANCH  28  30
ENDBRANCH  27  28
ENDBRANCH  26  27
ENDBRANCH  25  26
ENDBRANCH  24  25
ENDBRANCH   1  24
TORSDOF 18
ENDMDL
MODEL 2
REMARK VINA RESULT:     -10.5      6.794     11.719
REMARK SMILES CC(C)(CNC(=O)[C@H]1CCC[C@H](C(=O)OCCOCCOC(=O)c2ccc(-c3c4nc(c(-c5c(F)c(F)c(F)c(F)c5F)c5ccc([nH]5)c(-c5c(F)c(F)c(F)c(F)c5F)c5nc(c(-c6c(F)c(F)c(F)c(F)c6F)c6ccc3[nH]6)C=C5)C=C4)cc2)C1)S(C)(=O)=O
REMARK SMILES IDX 17 1 16 2 15 3 13 4 14 5 12 6 8 7 9 8 87 9 10 10 11 11 6 12
REMARK SMILES IDX 5 13 7 15 4 16 2 17 1 18 3 19 88 20 89 21 90 22 91 23 18 24
REMARK SMILES IDX 19 25 20 26 21 27 22 28 23 29 24 30 25 31 86 32 26 33 85 34
REMARK SMILES IDX 27 35 28 36 29 37 79 38 30 39 84 40 78 41 80 42 31 43 83 44
REMARK SMILES IDX 77 45 76 46 32 48 64 49 44 50 63 51 45 52 48 53 62 54 81 55
REMARK SMILES IDX 46 56 47 57 61 59 82 60 49 61 33 62 34 63 42 64 35 65 36 66
REMARK SMILES IDX 40 67 43 68 37 69 38 70 41 71 39 72 65 73 66 74 74 75 67 76
REMARK SMILES IDX 68 77 72 78 75 79 69 80 70 81 73 82 71 83 50 84 51 85 59 86
REMARK SMILES IDX 52 87 53 88 57 89 60 90 54 91 55 92 58 93 56 94
REMARK H PARENT 5 14 80 47 48 58
REMARK Flexibility Score: inf
ROOT
ATOM      1  C   UNL A   1      37.102  22.985  25.222  1.00  0.00     0.202 C 
ENDROOT
BRANCH   1   2
ATOM      2  C   UNL A   1      36.514  22.425  23.928  1.00  0.00     0.261 C 
BRANCH   2   3
ATOM      3  O   UNL A   1      35.876  23.463  23.167  1.00  0.00    -0.463 OA
BRANCH   3   4
ATOM      4  C   UNL A   1      34.533  23.335  23.024  1.00  0.00     0.309 C 
ATOM      5  O   UNL A   1      33.934  23.397  21.955  1.00  0.00    -0.252 OA
BRANCH   4   6
ATOM      6  C   UNL A   1      33.824  23.073  24.340  1.00  0.00     0.100 C 
ATOM      7  C   UNL A   1      32.190  21.445  25.446  1.00  0.00     0.079 C 
ATOM      8  C   UNL A   1      31.447  22.644  26.050  1.00  0.00     0.013 C 
ATOM      9  C   UNL A   1      32.920  21.849  24.160  1.00  0.00     0.028 C 
ATOM     10  C   UNL A   1      32.356  23.852  26.246  1.00  0.00     0.002 C 
ATOM     11  C   UNL A   1      33.043  24.249  24.942  1.00  0.00     0.015 C 
BRANCH   7  12
ATOM     12  C   UNL A   1      33.144  20.807  26.459  1.00  0.00     0.223 C 
ATOM     13  N   UNL A   1      33.272  19.452  26.507  1.00  0.00    -0.354 N 
ATOM     14  H   UNL A   1      33.881  19.109  27.201  1.00  0.00     0.163 HD
ATOM     15  O   UNL A   1      33.830  21.458  27.244  1.00  0.00    -0.275 OA
BRANCH  13  16
ATOM     16  C   UNL A   1      32.640  18.445  25.679  1.00  0.00     0.138 C 
BRANCH  16  17
ATOM     17  C   UNL A   1      33.443  18.027  24.437  1.00  0.00     0.084 C 
ATOM     18  C   UNL A   1      32.775  18.485  23.133  1.00  0.00     0.030 C 
ATOM     19  C   UNL A   1      34.823  18.714  24.545  1.00  0.00     0.030 C 
BRANCH  17  20
ATOM     20  S   UNL A   1      33.743  16.224  24.422  1.00  0.00     0.154 S 
ATOM     21  C   UNL A   1      35.212  15.899  25.377  1.00  0.00     0.158 C 
ATOM     22  O   UNL A   1      32.644  15.596  25.136  1.00  0.00    -0.229 OA
ATOM     23  O   UNL A   1      34.028  15.828  23.053  1.00  0.00    -0.229 OA
ENDBRANCH  17  20
ENDBRANCH  16  17
ENDBRANCH  13  16
ENDBRANCH   7  12
ENDBRANCH   4   6
ENDBRANCH   3   4
ENDBRANCH   2   3
ENDBRANCH   1   2
BRANCH   1  24
ATOM     24  O   UNL A   1      38.509  22.832  25.407  1.00  0.00    -0.374 OA
BRANCH  24  25
ATOM     25  C   UNL A   1      38.961  21.792  26.272  1.00  0.00     0.202 C 
BRANCH  25  26
ATOM     26  C   UNL A   1      39.418  20.488  25.604  1.00  0.00     0.261 C 
BRANCH  26  27
ATOM     27  O   UNL A   1      40.150  19.629  26.500  1.00  0.00    -0.460 OA
BRANCH  27  28
ATOM     28  C   UNL A   1      41.463  19.489  26.201  1.00  0.00     0.338 C 
ATOM     29  O   UNL A   1      42.009  18.529  25.676  1.00  0.00    -0.246 OA
BRANCH  28  30
ATOM     30  C   UNL A   1      42.183  20.753  26.433  1.00  0.00     0.060 A 
ATOM     31  C   UNL A   1      42.319  21.186  27.758  1.00  0.00     0.016 A 
ATOM     32  C   UNL A   1      42.612  21.558  25.376  1.00  0.00     0.016 A 
ATOM     33  C   UNL A   1      42.838  22.448  28.032  1.00  0.00     0.010 A 
ATOM     34  C   UNL A   1      43.123  22.833  25.651  1.00  0.00     0.010 A 
ATOM     35  C   UNL A   1      43.201  23.297  26.978  1.00  0.00    -0.014 A 
BRANCH  35  36
ATOM     36  C   UNL A   1      43.505  24.719  27.270  1.00  0.00     0.031 A 
ATOM     37  C   UNL A   1      44.892  25.237  27.008  1.00  0.00     0.074 A 
ATOM     38  C   UNL A   1      42.547  25.552  27.713  1.00  0.00     0.049 A 
ATOM     39  N   UNL A   1      45.381  26.438  27.188  1.00  0.00    -0.248 NA
ATOM     40  C   UNL A   1      45.859  24.270  26.464  1.00  0.00     0.031 C 
ATOM     41  C   UNL A   1      41.156  25.182  27.963  1.00  0.00     0.029 A 
ATOM     42  N   UNL A   1      42.605  26.886  28.030  1.00  0.00    -0.354 N 
ATOM     43  C   UNL A   1      46.707  26.371  26.783  1.00  0.00     0.074 A 
ATOM     44  C   UNL A   1      46.958  25.005  26.376  1.00  0.00     0.031 C 
ATOM     45  C   UNL A   1      40.492  26.264  28.405  1.00  0.00     0.029 A 
ATOM     46  C   UNL A   1      41.416  27.392  28.493  1.00  0.00     0.049 A 
ATOM     47  H   UNL A   1      43.421  27.429  27.935  1.00  0.00     0.167 HD
ATOM     48  C   UNL A   1      47.631  27.360  26.745  1.00  0.00     0.037 A 
ATOM     49  C   UNL A   1      41.115  28.624  28.950  1.00  0.00     0.037 A 
ATOM     50  C   UNL A   1      47.383  28.720  27.149  1.00  0.00     0.049 A 
ATOM     51  C   UNL A   1      42.179  29.690  28.963  1.00  0.00     0.074 A 
ATOM     52  C   UNL A   1      48.250  29.798  27.132  1.00  0.00     0.029 A 
ATOM     53  N   UNL A   1      46.175  29.185  27.647  1.00  0.00    -0.354 N 
ATOM     54  N   UNL A   1      43.424  29.624  28.559  1.00  0.00    -0.248 NA
ATOM     55  C   UNL A   1      41.793  31.006  29.495  1.00  0.00     0.031 C 
ATOM     56  C   UNL A   1      47.581  30.905  27.663  1.00  0.00     0.029 A 
ATOM     57  C   UNL A   1      46.282  30.529  27.966  1.00  0.00     0.049 A 
ATOM     58  H   UNL A   1      45.363  28.641  27.758  1.00  0.00     0.167 HD
ATOM     59  C   UNL A   1      43.961  30.888  28.761  1.00  0.00     0.074 A 
ATOM     60  C   UNL A   1      42.903  31.708  29.313  1.00  0.00     0.031 C 
ATOM     61  C   UNL A   1      45.218  31.332  28.510  1.00  0.00     0.037 A 
BRANCH  48  62
ATOM     62  C   UNL A   1      49.008  27.002  26.271  1.00  0.00     0.064 A 
ATOM     63  C   UNL A   1      49.996  26.545  27.156  1.00  0.00     0.173 A 
ATOM     64  C   UNL A   1      49.334  27.087  24.908  1.00  0.00     0.173 A 
ATOM     65  F   UNL A   1      49.739  26.460  28.468  1.00  0.00    -0.203 F 
ATOM     66  C   UNL A   1      51.266  26.207  26.696  1.00  0.00     0.198 A 
ATOM     67  C   UNL A   1      50.596  26.723  24.449  1.00  0.00     0.198 A 
ATOM     68  F   UNL A   1      48.423  27.515  24.021  1.00  0.00    -0.203 F 
ATOM     69  F   UNL A   1      52.208  25.812  27.564  1.00  0.00    -0.200 F 
ATOM     70  C   UNL A   1      51.564  26.290  25.343  1.00  0.00     0.200 A 
ATOM     71  F   UNL A   1      50.878  26.795  23.141  1.00  0.00    -0.200 F 
ATOM     72  F   UNL A   1      52.785  25.958  24.903  1.00  0.00    -0.200 F 
ENDBRANCH  48  62
BRANCH  49  73
ATOM     73  C   UNL A   1      39.746  28.914  29.449  1.00  0.00     0.064 A 
ATOM     74  C   UNL A   1      39.408  28.715  30.794  1.00  0.00     0.173 A 
ATOM     75  C   UNL A   1      38.744  29.377  28.585  1.00  0.00     0.173 A 
ATOM     76  F   UNL A   1      40.325  28.247  31.653  1.00  0.00    -0.203 F 
ATOM     77  C   UNL A   1      38.113  28.956  31.253  1.00  0.00     0.198 A 
ATOM     78  C   UNL A   1      37.457  29.642  29.049  1.00  0.00     0.198 A 
ATOM     79  F   UNL A   1      39.015  29.578  27.286  1.00  0.00    -0.203 F 
ATOM     80  F   UNL A   1      37.804  28.716  32.535  1.00  0.00    -0.200 F 
ATOM     81  C   UNL A   1      37.141  29.424  30.381  1.00  0.00     0.200 A 
ATOM     82  F   UNL A   1      36.524  30.104  28.205  1.00  0.00    -0.200 F 
ATOM     83  F   UNL A   1      35.898  29.657  30.824  1.00  0.00    -0.200 F 
ENDBRANCH  49  73
BRANCH  61  84
ATOM     84  C   UNL A   1      45.512  32.776  28.800  1.00  0.00     0.064 A 
ATOM     85  C   UNL A   1      46.071  33.181  30.020  1.00  0.00     0.173 A 
ATOM     86  C   UNL A   1      45.271  33.758  27.827  1.00  0.00     0.173 A 
ATOM     87  F   UNL A   1      46.307  32.280  30.987  1.00  0.00    -0.203 F 
ATOM     88  C   UNL A   1      46.359  34.521  30.265  1.00  0.00     0.198 A 
ATOM     89  C   UNL A   1      45.586  35.093  28.066  1.00  0.00     0.198 A 
ATOM     90  F   UNL A   1      44.744  33.421  26.641  1.00  0.00    -0.203 F 
ATOM     91  F   UNL A   1      46.854  34.891  31.454  1.00  0.00    -0.200 F 
ATOM     92  C   UNL A   1      46.123  35.474  29.286  1.00  0.00     0.200 A 
ATOM     93  F   UNL A   1      45.368  36.011  27.113  1.00  0.00    -0.200 F 
ATOM     94  F   UNL A   1      46.406  36.763  29.521  1.00  0.00    -0.200 F 
ENDBRANCH  61  84
ENDBRANCH  35  36
ENDBRANCH  28  30
ENDBRANCH  27  28
ENDBRANCH  26  27
ENDBRANCH  25  26
ENDBRANCH  24  25
ENDBRANCH   1  24
TORSDOF 18
ENDMDL
MODEL 3
REMARK VINA RESULT:     -10.4      5.418      8.283
REMARK SMILES CC(C)(CNC(=O)[C@H]1CCC[C@H](C(=O)OCCOCCOC(=O)c2ccc(-c3c4nc(c(-c5c(F)c(F)c(F)c(F)c5F)c5ccc([nH]5)c(-c5c(F)c(F)c(F)c(F)c5F)c5nc(c(-c6c(F)c(F)c(F)c(F)c6F)c6ccc3[nH]6)C=C5)C=C4)cc2)C1)S(C)(=O)=O
REMARK SMILES IDX 17 1 16 2 15 3 13 4 14 5 12 6 8 7 9 8 87 9 10 10 11 11 6 12
REMARK SMILES IDX 5 13 7 15 4 16 2 17 1 18 3 19 88 20 89 21 90 22 91 23 18 24
REMARK SMILES IDX 19 25 20 26 21 27 22 28 23 29 24 30 25 31 86 32 26 33 85 34
REMARK SMILES IDX 27 35 28 36 29 37 79 38 30 39 84 40 78 41 80 42 31 43 83 44
REMARK SMILES IDX 77 45 76 46 32 48 64 49 44 50 63 51 45 52 48 53 62 54 81 55
REMARK SMILES IDX 46 56 47 57 61 59 82 60 49 61 33 62 34 63 42 64 35 65 36 66
REMARK SMILES IDX 40 67 43 68 37 69 38 70 41 71 39 72 65 73 66 74 74 75 67 76
REMARK SMILES IDX 68 77 72 78 75 79 69 80 70 81 73 82 71 83 50 84 51 85 59 86
REMARK SMILES IDX 52 87 53 88 57 89 60 90 54 91 55 92 58 93 56 94
REMARK H PARENT 5 14 80 47 48 58
REMARK Flexibility Score: inf
ROOT
ATOM      1  C   UNL A   1      34.139  34.900  29.511  1.00  0.00     0.202 C 
ENDROOT
BRANCH   1   2
ATOM      2  C   UNL A   1      34.167  34.246  28.130  1.00  0.00     0.261 C 
BRANCH   2   3
ATOM      3  O   UNL A   1      33.846  32.849  28.221  1.00  0.00    -0.463 OA
BRANCH   3   4
ATOM      4  C   UNL A   1      32.821  32.437  27.434  1.00  0.00     0.309 C 
ATOM      5  O   UNL A   1      31.786  33.067  27.245  1.00  0.00    -0.252 OA
BRANCH   4   6
ATOM      6  C   UNL A   1      33.091  31.098  26.771  1.00  0.00     0.100 C 
ATOM      7  C   UNL A   1      31.887  29.020  25.891  1.00  0.00     0.079 C 
ATOM      8  C   UNL A   1      32.958  28.149  26.564  1.00  0.00     0.013 C 
ATOM      9  C   UNL A   1      31.754  30.368  26.608  1.00  0.00     0.028 C 
ATOM     10  C   UNL A   1      34.291  28.874  26.704  1.00  0.00     0.002 C 
ATOM     11  C   UNL A   1      34.131  30.196  27.448  1.00  0.00     0.015 C 
BRANCH   7  12
ATOM     12  C   UNL A   1      32.167  29.201  24.398  1.00  0.00     0.223 C 
ATOM     13  N   UNL A   1      31.167  29.607  23.567  1.00  0.00    -0.354 N 
ATOM     14  H   UNL A   1      31.410  29.675  22.614  1.00  0.00     0.163 HD
ATOM     15  O   UNL A   1      33.270  29.010  23.889  1.00  0.00    -0.275 OA
BRANCH  13  16
ATOM     16  C   UNL A   1      29.798  29.954  23.887  1.00  0.00     0.138 C 
BRANCH  16  17
ATOM     17  C   UNL A   1      28.896  30.228  22.673  1.00  0.00     0.084 C 
ATOM     18  C   UNL A   1      29.666  30.149  21.348  1.00  0.00     0.030 C 
ATOM     19  C   UNL A   1      27.806  29.133  22.670  1.00  0.00     0.030 C 
BRANCH  17  20
ATOM     20  S   UNL A   1      28.039  31.835  22.839  1.00  0.00     0.154 S 
ATOM     21  C   UNL A   1      29.208  33.023  23.471  1.00  0.00     0.158 C 
ATOM     22  O   UNL A   1      27.689  32.280  21.501  1.00  0.00    -0.229 OA
ATOM     23  O   UNL A   1      26.998  31.687  23.841  1.00  0.00    -0.229 OA
ENDBRANCH  17  20
ENDBRANCH  16  17
ENDBRANCH  13  16
ENDBRANCH   7  12
ENDBRANCH   4   6
ENDBRANCH   3   4
ENDBRANCH   2   3
ENDBRANCH   1   2
BRANCH   1  24
ATOM     24  O   UNL A   1      33.735  34.075  30.603  1.00  0.00    -0.374 OA
BRANCH  24  25
ATOM     25  C   UNL A   1      33.929  34.574  31.925  1.00  0.00     0.202 C 
BRANCH  25  26
ATOM     26  C   UNL A   1      34.682  33.661  32.904  1.00  0.00     0.261 C 
BRANCH  26  27
ATOM     27  O   UNL A   1      36.094  33.591  32.626  1.00  0.00    -0.460 OA
BRANCH  27  28
ATOM     28  C   UNL A   1      36.759  32.637  33.318  1.00  0.00     0.338 C 
ATOM     29  O   UNL A   1      36.615  32.332  34.493  1.00  0.00    -0.246 OA
BRANCH  28  30
ATOM     30  C   UNL A   1      37.608  31.841  32.413  1.00  0.00     0.060 A 
ATOM     31  C   UNL A   1      38.571  31.009  32.997  1.00  0.00     0.016 A 
ATOM     32  C   UNL A   1      37.546  31.991  31.027  1.00  0.00     0.016 A 
ATOM     33  C   UNL A   1      39.512  30.361  32.200  1.00  0.00     0.010 A 
ATOM     34  C   UNL A   1      38.500  31.349  30.227  1.00  0.00     0.010 A 
ATOM     35  C   UNL A   1      39.509  30.564  30.814  1.00  0.00    -0.014 A 
BRANCH  35  36
ATOM     36  C   UNL A   1      40.662  30.083  30.014  1.00  0.00     0.031 A 
ATOM     37  C   UNL A   1      41.811  31.018  29.757  1.00  0.00     0.074 A 
ATOM     38  C   UNL A   1      40.710  28.817  29.565  1.00  0.00     0.049 A 
ATOM     39  N   UNL A   1      42.917  30.814  29.087  1.00  0.00    -0.248 NA
ATOM     40  C   UNL A   1      41.701  32.365  30.339  1.00  0.00     0.031 C 
ATOM     41  C   UNL A   1      39.681  27.804  29.786  1.00  0.00     0.029 A 
ATOM     42  N   UNL A   1      41.670  28.169  28.829  1.00  0.00    -0.354 N 
ATOM     43  C   UNL A   1      43.631  32.002  29.165  1.00  0.00     0.074 A 
ATOM     44  C   UNL A   1      42.823  32.934  29.921  1.00  0.00     0.031 C 
ATOM     45  C   UNL A   1      40.060  26.661  29.189  1.00  0.00     0.029 A 
ATOM     46  C   UNL A   1      41.344  26.871  28.522  1.00  0.00     0.049 A 
ATOM     47  H   UNL A   1      42.512  28.595  28.546  1.00  0.00     0.167 HD
ATOM     48  C   UNL A   1      44.855  32.288  28.660  1.00  0.00     0.037 A 
ATOM     49  C   UNL A   1      42.003  25.963  27.776  1.00  0.00     0.037 A 
ATOM     50  C   UNL A   1      45.661  31.361  27.908  1.00  0.00     0.049 A 
ATOM     51  C   UNL A   1      43.331  26.328  27.166  1.00  0.00     0.074 A 
ATOM     52  C   UNL A   1      46.920  31.553  27.368  1.00  0.00     0.029 A 
ATOM     53  N   UNL A   1      45.280  30.068  27.587  1.00  0.00    -0.354 N 
ATOM     54  N   UNL A   1      44.008  27.446  27.263  1.00  0.00    -0.248 NA
ATOM     55  C   UNL A   1      43.989  25.301  26.344  1.00  0.00     0.031 C 
ATOM     56  C   UNL A   1      47.282  30.389  26.682  1.00  0.00     0.029 A 
ATOM     57  C   UNL A   1      46.270  29.457  26.834  1.00  0.00     0.049 A 
ATOM     58  H   UNL A   1      44.432  29.645  27.855  1.00  0.00     0.167 HD
ATOM     59  C   UNL A   1      45.178  27.250  26.540  1.00  0.00     0.074 A 
ATOM     60  C   UNL A   1      45.126  25.899  26.019  1.00  0.00     0.031 C 
ATOM     61  C   UNL A   1      46.205  28.110  26.328  1.00  0.00     0.037 A 
BRANCH  48  62
ATOM     62  C   UNL A   1      45.389  33.672  28.883  1.00  0.00     0.064 A 
ATOM     63  C   UNL A   1      45.118  34.719  27.990  1.00  0.00     0.173 A 
ATOM     64  C   UNL A   1      46.154  33.961  30.024  1.00  0.00     0.173 A 
ATOM     65  F   UNL A   1      44.404  34.490  26.878  1.00  0.00    -0.203 F 
ATOM     66  C   UNL A   1      45.613  36.000  28.219  1.00  0.00     0.198 A 
ATOM     67  C   UNL A   1      46.624  35.249  30.263  1.00  0.00     0.198 A 
ATOM     68  F   UNL A   1      46.437  32.995  30.911  1.00  0.00    -0.203 F 
ATOM     69  F   UNL A   1      45.378  36.976  27.332  1.00  0.00    -0.200 F 
ATOM     70  C   UNL A   1      46.360  36.266  29.358  1.00  0.00     0.200 A 
ATOM     71  F   UNL A   1      47.337  35.506  31.368  1.00  0.00    -0.200 F 
ATOM     72  F   UNL A   1      46.830  37.501  29.579  1.00  0.00    -0.200 F 
ENDBRANCH  48  62
BRANCH  49  73
ATOM     73  C   UNL A   1      41.409  24.620  27.550  1.00  0.00     0.064 A 
ATOM     74  C   UNL A   1      40.273  24.457  26.746  1.00  0.00     0.173 A 
ATOM     75  C   UNL A   1      41.955  23.477  28.150  1.00  0.00     0.173 A 
ATOM     76  F   UNL A   1      39.699  25.524  26.172  1.00  0.00    -0.203 F 
ATOM     77  C   UNL A   1      39.698  23.200  26.562  1.00  0.00     0.198 A 
ATOM     78  C   UNL A   1      41.394  22.218  27.946  1.00  0.00     0.198 A 
ATOM     79  F   UNL A   1      43.039  23.581  28.934  1.00  0.00    -0.203 F 
ATOM     80  F   UNL A   1      38.586  23.076  25.824  1.00  0.00    -0.200 F 
ATOM     81  C   UNL A   1      40.262  22.082  27.158  1.00  0.00     0.200 A 
ATOM     82  F   UNL A   1      41.949  21.139  28.515  1.00  0.00    -0.200 F 
ATOM     83  F   UNL A   1      39.709  20.874  26.979  1.00  0.00    -0.200 F 
ENDBRANCH  49  73
BRANCH  61  84
ATOM     84  C   UNL A   1      47.371  27.610  25.525  1.00  0.00     0.064 A 
ATOM     85  C   UNL A   1      47.438  27.791  24.136  1.00  0.00     0.173 A 
ATOM     86  C   UNL A   1      48.453  26.981  26.160  1.00  0.00     0.173 A 
ATOM     87  F   UNL A   1      46.422  28.374  23.482  1.00  0.00    -0.203 F 
ATOM     88  C   UNL A   1      48.536  27.342  23.408  1.00  0.00     0.198 A 
ATOM     89  C   UNL A   1      49.561  26.558  25.433  1.00  0.00     0.198 A 
ATOM     90  F   UNL A   1      48.440  26.790  27.487  1.00  0.00    -0.203 F 
ATOM     91  F   UNL A   1      48.561  27.488  22.077  1.00  0.00    -0.200 F 
ATOM     92  C   UNL A   1      49.599  26.732  24.057  1.00  0.00     0.200 A 
ATOM     93  F   UNL A   1      50.594  25.981  26.064  1.00  0.00    -0.200 F 
ATOM     94  F   UNL A   1      50.659  26.306  23.356  1.00  0.00    -0.200 F 
ENDBRANCH  61  84
ENDBRANCH  35  36
ENDBRANCH  28  30
ENDBRANCH  27  28
ENDBRANCH  26  27
ENDBRANCH  25  26
ENDBRANCH  24  25
ENDBRANCH   1  24
TORSDOF 18
ENDMDL
