MODEL 1
REMARK VINA RESULT:     -11.4      0.000      0.000
REMARK SMILES C[C@@H](C(=O)OCCOCCOC(=O)c1ccc(-c2c3nc(c(-c4c(F)c(F)c(F)c(F)c4F)c4ccc([nH]4)c(-c4c(F)c(F)c(F)c(F)c4F)c4nc(c(-c5c(F)c(F)c(F)c(F)c5F)c5ccc2[nH]5)C=C4)C=C3)cc1)c1ccc(-c2ccn(C(F)F)c(=O)c2)cc1
REMARK SMILES IDX 7 1 6 2 5 3 3 4 4 5 2 6 1 7 77 8 78 9 92 10 79 11 91 12
REMARK SMILES IDX 80 13 81 14 82 15 90 16 83 17 88 18 84 19 89 20 85 21 86 22
REMARK SMILES IDX 87 23 8 24 9 25 10 26 11 27 12 28 13 29 14 30 15 31 76 32
REMARK SMILES IDX 16 33 75 34 17 35 18 36 19 37 69 38 20 39 74 40 68 41 70 42
REMARK SMILES IDX 21 43 73 44 67 45 66 46 22 48 54 49 34 50 53 51 35 52 38 53
REMARK SMILES IDX 52 54 71 55 36 56 37 57 51 59 72 60 39 61 23 62 24 63 32 64
REMARK SMILES IDX 25 65 26 66 30 67 33 68 27 69 28 70 31 71 29 72 55 73 56 74
REMARK SMILES IDX 64 75 57 76 58 77 62 78 65 79 59 80 60 81 63 82 61 83 40 84
REMARK SMILES IDX 41 85 49 86 42 87 43 88 47 89 50 90 44 91 45 92 48 93 46 94
REMARK H PARENT 70 47 38 58
REMARK Flexibility Score: inf
ROOT
ATOM      1  C   UNL A   1      30.445  27.513  24.424  1.00  0.00     0.202 C 
ENDROOT
BRANCH   1   2
ATOM      2  C   UNL A   1      30.400  26.041  24.843  1.00  0.00     0.261 C 
BRANCH   2   3
ATOM      3  O   UNL A   1      30.849  25.198  23.768  1.00  0.00    -0.463 OA
BRANCH   3   4
ATOM      4  C   UNL A   1      31.949  24.441  24.035  1.00  0.00     0.313 C 
ATOM      5  O   UNL A   1      31.903  23.269  24.395  1.00  0.00    -0.252 OA
BRANCH   4   6
ATOM      6  C   UNL A   1      33.265  25.201  23.807  1.00  0.00     0.126 C 
ATOM      7  C   UNL A   1      33.450  25.715  22.374  1.00  0.00     0.025 C 
BRANCH   6   8
ATOM      8  C   UNL A   1      34.452  24.406  24.357  1.00  0.00    -0.034 A 
ATOM      9  C   UNL A   1      35.223  23.649  23.458  1.00  0.00     0.005 A 
ATOM     10  C   UNL A   1      34.842  24.421  25.704  1.00  0.00     0.005 A 
ATOM     11  C   UNL A   1      36.353  22.944  23.883  1.00  0.00     0.009 A 
ATOM     12  C   UNL A   1      35.973  23.711  26.132  1.00  0.00     0.009 A 
ATOM     13  C   UNL A   1      36.744  22.976  25.224  1.00  0.00    -0.018 A 
BRANCH  13  14
ATOM     14  C   UNL A   1      37.945  22.249  25.675  1.00  0.00    -0.011 A 
ATOM     15  C   UNL A   1      38.980  22.869  26.482  1.00  0.00     0.027 A 
ATOM     16  C   UNL A   1      38.084  20.961  25.315  1.00  0.00     0.080 A 
ATOM     17  C   UNL A   1      40.060  22.173  26.856  1.00  0.00     0.095 A 
ATOM     18  C   UNL A   1      39.278  20.171  25.728  1.00  0.00     0.255 A 
ATOM     19  N   UNL A   1      40.218  20.849  26.490  1.00  0.00    -0.258 N 
ATOM     20  O   UNL A   1      39.357  18.999  25.376  1.00  0.00    -0.269 OA
BRANCH  19  21
ATOM     21  C   UNL A   1      41.391  20.113  26.886  1.00  0.00     0.451 C 
ATOM     22  F   UNL A   1      42.332  20.127  25.911  1.00  0.00    -0.185 F 
ATOM     23  F   UNL A   1      41.940  20.640  28.008  1.00  0.00    -0.185 F 
ENDBRANCH  19  21
ENDBRANCH  13  14
ENDBRANCH   6   8
ENDBRANCH   4   6
ENDBRANCH   3   4
ENDBRANCH   2   3
ENDBRANCH   1   2
BRANCH   1  24
ATOM     24  O   UNL A   1      31.454  28.308  25.048  1.00  0.00    -0.374 OA
BRANCH  24  25
ATOM     25  C   UNL A   1      31.352  29.725  24.911  1.00  0.00     0.202 C 
BRANCH  25  26
ATOM     26  C   UNL A   1      31.753  30.553  26.139  1.00  0.00     0.261 C 
BRANCH  26  27
ATOM     27  O   UNL A   1      33.145  30.400  26.473  1.00  0.00    -0.460 OA
BRANCH  27  28
ATOM     28  C   UNL A   1      33.655  31.392  27.241  1.00  0.00     0.338 C 
ATOM     29  O   UNL A   1      33.069  32.378  27.665  1.00  0.00    -0.246 OA
BRANCH  28  30
ATOM     30  C   UNL A   1      35.027  31.062  27.669  1.00  0.00     0.060 A 
ATOM     31  C   UNL A   1      35.356  29.705  27.782  1.00  0.00     0.016 A 
ATOM     32  C   UNL A   1      35.943  32.047  28.044  1.00  0.00     0.016 A 
ATOM     33  C   UNL A   1      36.585  29.326  28.319  1.00  0.00     0.010 A 
ATOM     34  C   UNL A   1      37.173  31.664  28.593  1.00  0.00     0.010 A 
ATOM     35  C   UNL A   1      37.484  30.303  28.767  1.00  0.00    -0.014 A 
BRANCH  35  36
ATOM     36  C   UNL A   1      38.672  29.889  29.553  1.00  0.00     0.031 A 
ATOM     37  C   UNL A   1      38.834  30.403  30.957  1.00  0.00     0.074 A 
ATOM     38  C   UNL A   1      39.573  29.032  29.042  1.00  0.00     0.049 A 
ATOM     39  N   UNL A   1      39.794  30.182  31.820  1.00  0.00    -0.248 NA
ATOM     40  C   UNL A   1      37.768  31.285  31.458  1.00  0.00     0.031 C 
ATOM     41  C   UNL A   1      39.507  28.433  27.711  1.00  0.00     0.029 A 
ATOM     42  N   UNL A   1      40.725  28.520  29.587  1.00  0.00    -0.354 N 
ATOM     43  C   UNL A   1      39.448  30.894  32.961  1.00  0.00     0.074 A 
ATOM     44  C   UNL A   1      38.208  31.581  32.672  1.00  0.00     0.031 C 
ATOM     45  C   UNL A   1      40.579  27.640  27.537  1.00  0.00     0.029 A 
ATOM     46  C   UNL A   1      41.417  27.698  28.734  1.00  0.00     0.049 A 
ATOM     47  H   UNL A   1      41.024  28.723  30.503  1.00  0.00     0.167 HD
ATOM     48  C   UNL A   1      40.101  30.960  34.145  1.00  0.00     0.037 A 
ATOM     49  C   UNL A   1      42.604  27.078  28.896  1.00  0.00     0.037 A 
ATOM     50  C   UNL A   1      41.333  30.276  34.435  1.00  0.00     0.049 A 
ATOM     51  C   UNL A   1      43.344  27.224  30.200  1.00  0.00     0.074 A 
ATOM     52  C   UNL A   1      42.063  30.271  35.611  1.00  0.00     0.029 A 
ATOM     53  N   UNL A   1      42.022  29.480  33.533  1.00  0.00    -0.354 N 
ATOM     54  N   UNL A   1      42.999  27.880  31.280  1.00  0.00    -0.248 NA
ATOM     55  C   UNL A   1      44.638  26.535  30.308  1.00  0.00     0.031 C 
ATOM     56  C   UNL A   1      43.217  29.507  35.406  1.00  0.00     0.029 A 
ATOM     57  C   UNL A   1      43.182  28.997  34.118  1.00  0.00     0.049 A 
ATOM     58  H   UNL A   1      41.731  29.285  32.614  1.00  0.00     0.167 HD
ATOM     59  C   UNL A   1      44.016  27.665  32.201  1.00  0.00     0.074 A 
ATOM     60  C   UNL A   1      44.987  26.806  31.558  1.00  0.00     0.031 C 
ATOM     61  C   UNL A   1      44.135  28.136  33.467  1.00  0.00     0.037 A 
BRANCH  48  62
ATOM     62  C   UNL A   1      39.501  31.823  35.216  1.00  0.00     0.064 A 
ATOM     63  C   UNL A   1      39.723  33.208  35.256  1.00  0.00     0.173 A 
ATOM     64  C   UNL A   1      38.669  31.263  36.197  1.00  0.00     0.173 A 
ATOM     65  F   UNL A   1      40.523  33.789  34.349  1.00  0.00    -0.203 F 
ATOM     66  C   UNL A   1      39.150  33.996  36.251  1.00  0.00     0.198 A 
ATOM     67  C   UNL A   1      38.078  32.058  37.175  1.00  0.00     0.198 A 
ATOM     68  F   UNL A   1      38.423  29.944  36.202  1.00  0.00    -0.203 F 
ATOM     69  F   UNL A   1      39.410  35.311  36.294  1.00  0.00    -0.200 F 
ATOM     70  C   UNL A   1      38.324  33.422  37.205  1.00  0.00     0.200 A 
ATOM     71  F   UNL A   1      37.271  31.503  38.090  1.00  0.00    -0.200 F 
ATOM     72  F   UNL A   1      37.770  34.183  38.159  1.00  0.00    -0.200 F 
ENDBRANCH  48  62
BRANCH  49  73
ATOM     73  C   UNL A   1      43.175  26.272  27.786  1.00  0.00     0.064 A 
ATOM     74  C   UNL A   1      42.932  24.895  27.691  1.00  0.00     0.173 A 
ATOM     75  C   UNL A   1      43.989  26.862  26.808  1.00  0.00     0.173 A 
ATOM     76  F   UNL A   1      42.181  24.282  28.618  1.00  0.00    -0.203 F 
ATOM     77  C   UNL A   1      43.496  24.135  26.668  1.00  0.00     0.198 A 
ATOM     78  C   UNL A   1      44.531  26.105  25.772  1.00  0.00     0.198 A 
ATOM     79  F   UNL A   1      44.255  28.175  26.857  1.00  0.00    -0.203 F 
ATOM     80  F   UNL A   1      43.284  22.812  26.625  1.00  0.00    -0.200 F 
ATOM     81  C   UNL A   1      44.290  24.741  25.707  1.00  0.00     0.200 A 
ATOM     82  F   UNL A   1      45.290  26.697  24.839  1.00  0.00    -0.200 F 
ATOM     83  F   UNL A   1      44.830  24.010  24.722  1.00  0.00    -0.200 F 
ENDBRANCH  49  73
BRANCH  61  84
ATOM     84  C   UNL A   1      45.340  27.708  34.253  1.00  0.00     0.064 A 
ATOM     85  C   UNL A   1      45.342  26.528  35.013  1.00  0.00     0.173 A 
ATOM     86  C   UNL A   1      46.522  28.463  34.209  1.00  0.00     0.173 A 
ATOM     87  F   UNL A   1      44.232  25.779  35.098  1.00  0.00    -0.203 F 
ATOM     88  C   UNL A   1      46.475  26.134  35.719  1.00  0.00     0.198 A 
ATOM     89  C   UNL A   1      47.662  28.050  34.893  1.00  0.00     0.198 A 
ATOM     90  F   UNL A   1      46.575  29.594  33.491  1.00  0.00    -0.203 F 
ATOM     91  F   UNL A   1      46.441  25.026  36.472  1.00  0.00    -0.200 F 
ATOM     92  C   UNL A   1      47.635  26.890  35.652  1.00  0.00     0.200 A 
ATOM     93  F   UNL A   1      48.786  28.775  34.818  1.00  0.00    -0.200 F 
ATOM     94  F   UNL A   1      48.728  26.504  36.326  1.00  0.00    -0.200 F 
ENDBRANCH  61  84
ENDBRANCH  35  36
ENDBRANCH  28  30
ENDBRANCH  27  28
ENDBRANCH  26  27
ENDBRANCH  25  26
ENDBRANCH  24  25
ENDBRANCH   1  24
TORSDOF 17
ENDMDL
MODEL 2
REMARK VINA RESULT:     -11.3      0.600      7.286
REMARK SMILES C[C@@H](C(=O)OCCOCCOC(=O)c1ccc(-c2c3nc(c(-c4c(F)c(F)c(F)c(F)c4F)c4ccc([nH]4)c(-c4c(F)c(F)c(F)c(F)c4F)c4nc(c(-c5c(F)c(F)c(F)c(F)c5F)c5ccc2[nH]5)C=C4)C=C3)cc1)c1ccc(-c2ccn(C(F)F)c(=O)c2)cc1
REMARK SMILES IDX 7 1 6 2 5 3 3 4 4 5 2 6 1 7 77 8 78 9 92 10 79 11 91 12
REMARK SMILES IDX 80 13 81 14 82 15 90 16 83 17 88 18 84 19 89 20 85 21 86 22
REMARK SMILES IDX 87 23 8 24 9 25 10 26 11 27 12 28 13 29 14 30 15 31 76 32
REMARK SMILES IDX 16 33 75 34 17 35 18 36 19 37 69 38 20 39 74 40 68 41 70 42
REMARK SMILES IDX 21 43 73 44 67 45 66 46 22 48 54 49 34 50 53 51 35 52 38 53
REMARK SMILES IDX 52 54 71 55 36 56 37 57 51 59 72 60 39 61 23 62 24 63 32 64
REMARK SMILES IDX 25 65 26 66 30 67 33 68 27 69 28 70 31 71 29 72 55 73 56 74
REMARK SMILES IDX 64 75 57 76 58 77 62 78 65 79 59 80 60 81 63 82 61 83 40 84
REMARK SMILES IDX 41 85 49 86 42 87 43 88 47 89 50 90 44 91 45 92 48 93 46 94
REMARK H PARENT 70 47 38 58
REMARK Flexibility Score: inf
ROOT
ATOM      1  C   UNL A   1      31.078  27.874  23.809  1.00  0.00     0.202 C 
ENDROOT
BRANCH   1   2
ATOM      2  C   UNL A   1      30.579  26.632  24.552  1.00  0.00     0.261 C 
BRANCH   2   3
ATOM      3  O   UNL A   1      30.677  25.469  23.711  1.00  0.00    -0.463 OA
BRANCH   3   4
ATOM      4  C   UNL A   1      31.710  24.627  23.991  1.00  0.00     0.313 C 
ATOM      5  O   UNL A   1      31.613  23.644  24.719  1.00  0.00    -0.252 OA
BRANCH   4   6
ATOM      6  C   UNL A   1      33.010  25.019  23.274  1.00  0.00     0.126 C 
ATOM      7  C   UNL A   1      32.948  24.883  21.748  1.00  0.00     0.025 C 
BRANCH   6   8
ATOM      8  C   UNL A   1      34.215  24.337  23.925  1.00  0.00    -0.034 A 
ATOM      9  C   UNL A   1      34.818  23.259  23.253  1.00  0.00     0.005 A 
ATOM     10  C   UNL A   1      34.783  24.750  25.140  1.00  0.00     0.005 A 
ATOM     11  C   UNL A   1      35.955  22.626  23.763  1.00  0.00     0.009 A 
ATOM     12  C   UNL A   1      35.921  24.113  25.654  1.00  0.00     0.009 A 
ATOM     13  C   UNL A   1      36.523  23.054  24.966  1.00  0.00    -0.018 A 
BRANCH  13  14
ATOM     14  C   UNL A   1      37.732  22.402  25.501  1.00  0.00    -0.011 A 
ATOM     15  C   UNL A   1      38.682  23.090  26.355  1.00  0.00     0.027 A 
ATOM     16  C   UNL A   1      37.963  21.118  25.173  1.00  0.00     0.080 A 
ATOM     17  C   UNL A   1      39.774  22.461  26.806  1.00  0.00     0.095 A 
ATOM     18  C   UNL A   1      39.172  20.402  25.671  1.00  0.00     0.255 A 
ATOM     19  N   UNL A   1      40.025  21.143  26.474  1.00  0.00    -0.258 N 
ATOM     20  O   UNL A   1      39.335  19.231  25.346  1.00  0.00    -0.269 OA
BRANCH  19  21
ATOM     21  C   UNL A   1      41.211  20.480  26.952  1.00  0.00     0.451 C 
ATOM     22  F   UNL A   1      42.131  20.347  25.967  1.00  0.00    -0.185 F 
ATOM     23  F   UNL A   1      41.780  21.174  27.968  1.00  0.00    -0.185 F 
ENDBRANCH  19  21
ENDBRANCH  13  14
ENDBRANCH   6   8
ENDBRANCH   4   6
ENDBRANCH   3   4
ENDBRANCH   2   3
ENDBRANCH   1   2
BRANCH   1  24
ATOM     24  O   UNL A   1      31.853  28.792  24.580  1.00  0.00    -0.374 OA
BRANCH  24  25
ATOM     25  C   UNL A   1      31.252  30.044  24.911  1.00  0.00     0.202 C 
BRANCH  25  26
ATOM     26  C   UNL A   1      31.482  30.546  26.342  1.00  0.00     0.261 C 
BRANCH  26  27
ATOM     27  O   UNL A   1      32.848  30.381  26.769  1.00  0.00    -0.460 OA
BRANCH  27  28
ATOM     28  C   UNL A   1      33.436  31.510  27.230  1.00  0.00     0.338 C 
ATOM     29  O   UNL A   1      32.924  32.613  27.362  1.00  0.00    -0.246 OA
BRANCH  28  30
ATOM     30  C   UNL A   1      34.791  31.219  27.734  1.00  0.00     0.060 A 
ATOM     31  C   UNL A   1      35.088  29.886  28.046  1.00  0.00     0.016 A 
ATOM     32  C   UNL A   1      35.720  32.229  27.987  1.00  0.00     0.016 A 
ATOM     33  C   UNL A   1      36.296  29.564  28.661  1.00  0.00     0.010 A 
ATOM     34  C   UNL A   1      36.929  31.905  28.615  1.00  0.00     0.010 A 
ATOM     35  C   UNL A   1      37.206  30.577  28.988  1.00  0.00    -0.014 A 
BRANCH  35  36
ATOM     36  C   UNL A   1      38.368  30.257  29.854  1.00  0.00     0.031 A 
ATOM     37  C   UNL A   1      39.469  29.391  29.308  1.00  0.00     0.074 A 
ATOM     38  C   UNL A   1      38.464  30.765  31.094  1.00  0.00     0.049 A 
ATOM     39  N   UNL A   1      40.567  28.976  29.887  1.00  0.00    -0.248 NA
ATOM     40  C   UNL A   1      39.311  28.929  27.920  1.00  0.00     0.031 C 
ATOM     41  C   UNL A   1      37.484  31.649  31.723  1.00  0.00     0.029 A 
ATOM     42  N   UNL A   1      39.438  30.607  32.050  1.00  0.00    -0.354 N 
ATOM     43  C   UNL A   1      41.229  28.209  28.937  1.00  0.00     0.074 A 
ATOM     44  C   UNL A   1      40.396  28.187  27.754  1.00  0.00     0.031 C 
ATOM     45  C   UNL A   1      37.901  31.948  32.965  1.00  0.00     0.029 A 
ATOM     46  C   UNL A   1      39.162  31.256  33.227  1.00  0.00     0.049 A 
ATOM     47  H   UNL A   1      40.255  30.078  31.903  1.00  0.00     0.167 HD
ATOM     48  C   UNL A   1      42.428  27.588  29.038  1.00  0.00     0.037 A 
ATOM     49  C   UNL A   1      39.844  31.272  34.390  1.00  0.00     0.037 A 
ATOM     50  C   UNL A   1      43.259  27.610  30.213  1.00  0.00     0.049 A 
ATOM     51  C   UNL A   1      41.142  30.516  34.500  1.00  0.00     0.074 A 
ATOM     52  C   UNL A   1      44.498  27.023  30.407  1.00  0.00     0.029 A 
ATOM     53  N   UNL A   1      42.931  28.251  31.398  1.00  0.00    -0.354 N 
ATOM     54  N   UNL A   1      41.771  29.813  33.590  1.00  0.00    -0.248 NA
ATOM     55  C   UNL A   1      41.829  30.562  35.799  1.00  0.00     0.031 C 
ATOM     56  C   UNL A   1      44.898  27.271  31.725  1.00  0.00     0.029 A 
ATOM     57  C   UNL A   1      43.931  28.053  32.336  1.00  0.00     0.049 A 
ATOM     58  H   UNL A   1      42.109  28.770  31.551  1.00  0.00     0.167 HD
ATOM     59  C   UNL A   1      42.934  29.356  34.196  1.00  0.00     0.074 A 
ATOM     60  C   UNL A   1      42.932  29.870  35.548  1.00  0.00     0.031 C 
ATOM     61  C   UNL A   1      43.918  28.578  33.677  1.00  0.00     0.037 A 
BRANCH  48  62
ATOM     62  C   UNL A   1      42.907  26.812  27.848  1.00  0.00     0.064 A 
ATOM     63  C   UNL A   1      42.580  25.458  27.673  1.00  0.00     0.173 A 
ATOM     64  C   UNL A   1      43.674  27.436  26.854  1.00  0.00     0.173 A 
ATOM     65  F   UNL A   1      41.861  24.812  28.602  1.00  0.00    -0.203 F 
ATOM     66  C   UNL A   1      43.023  24.754  26.556  1.00  0.00     0.198 A 
ATOM     67  C   UNL A   1      44.094  26.735  25.726  1.00  0.00     0.198 A 
ATOM     68  F   UNL A   1      44.011  28.729  26.972  1.00  0.00    -0.203 F 
ATOM     69  F   UNL A   1      42.735  23.451  26.430  1.00  0.00    -0.200 F 
ATOM     70  C   UNL A   1      43.774  25.394  25.581  1.00  0.00     0.200 A 
ATOM     71  F   UNL A   1      44.810  27.359  24.779  1.00  0.00    -0.200 F 
ATOM     72  F   UNL A   1      44.195  24.716  24.505  1.00  0.00    -0.200 F 
ENDBRANCH  48  62
BRANCH  49  73
ATOM     73  C   UNL A   1      39.303  32.021  35.554  1.00  0.00     0.064 A 
ATOM     74  C   UNL A   1      39.658  33.356  35.786  1.00  0.00     0.173 A 
ATOM     75  C   UNL A   1      38.432  31.408  36.468  1.00  0.00     0.173 A 
ATOM     76  F   UNL A   1      40.508  33.976  34.954  1.00  0.00    -0.203 F 
ATOM     77  C   UNL A   1      39.176  34.046  36.896  1.00  0.00     0.198 A 
ATOM     78  C   UNL A   1      37.930  32.107  37.563  1.00  0.00     0.198 A 
ATOM     79  F   UNL A   1      38.065  30.130  36.293  1.00  0.00    -0.203 F 
ATOM     80  F   UNL A   1      39.566  35.309  37.119  1.00  0.00    -0.200 F 
ATOM     81  C   UNL A   1      38.308  33.423  37.780  1.00  0.00     0.200 A 
ATOM     82  F   UNL A   1      37.085  31.504  38.410  1.00  0.00    -0.200 F 
ATOM     83  F   UNL A   1      37.843  34.088  38.847  1.00  0.00    -0.200 F 
ENDBRANCH  49  73
BRANCH  61  84
ATOM     84  C   UNL A   1      45.088  28.264  34.562  1.00  0.00     0.064 A 
ATOM     85  C   UNL A   1      45.125  27.104  35.349  1.00  0.00     0.173 A 
ATOM     86  C   UNL A   1      46.207  29.112  34.589  1.00  0.00     0.173 A 
ATOM     87  F   UNL A   1      44.075  26.269  35.370  1.00  0.00    -0.203 F 
ATOM     88  C   UNL A   1      46.228  26.816  36.148  1.00  0.00     0.198 A 
ATOM     89  C   UNL A   1      47.319  28.806  35.367  1.00  0.00     0.198 A 
ATOM     90  F   UNL A   1      46.225  30.230  33.848  1.00  0.00    -0.203 F 
ATOM     91  F   UNL A   1      46.225  25.723  36.925  1.00  0.00    -0.200 F 
ATOM     92  C   UNL A   1      47.327  27.662  36.151  1.00  0.00     0.200 A 
ATOM     93  F   UNL A   1      48.385  29.619  35.358  1.00  0.00    -0.200 F 
ATOM     94  F   UNL A   1      48.391  27.380  36.915  1.00  0.00    -0.200 F 
ENDBRANCH  61  84
ENDBRANCH  35  36
ENDBRANCH  28  30
ENDBRANCH  27  28
ENDBRANCH  26  27
ENDBRANCH  25  26
ENDBRANCH  24  25
ENDBRANCH   1  24
TORSDOF 17
ENDMDL
MODEL 3
REMARK VINA RESULT:     -11.3      4.242      6.769
REMARK SMILES C[C@@H](C(=O)OCCOCCOC(=O)c1ccc(-c2c3nc(c(-c4c(F)c(F)c(F)c(F)c4F)c4ccc([nH]4)c(-c4c(F)c(F)c(F)c(F)c4F)c4nc(c(-c5c(F)c(F)c(F)c(F)c5F)c5ccc2[nH]5)C=C4)C=C3)cc1)c1ccc(-c2ccn(C(F)F)c(=O)c2)cc1
REMARK SMILES IDX 7 1 6 2 5 3 3 4 4 5 2 6 1 7 77 8 78 9 92 10 79 11 91 12
REMARK SMILES IDX 80 13 81 14 82 15 90 16 83 17 88 18 84 19 89 20 85 21 86 22
REMARK SMILES IDX 87 23 8 24 9 25 10 26 11 27 12 28 13 29 14 30 15 31 76 32
REMARK SMILES IDX 16 33 75 34 17 35 18 36 19 37 69 38 20 39 74 40 68 41 70 42
REMARK SMILES IDX 21 43 73 44 67 45 66 46 22 48 54 49 34 50 53 51 35 52 38 53
REMARK SMILES IDX 52 54 71 55 36 56 37 57 51 59 72 60 39 61 23 62 24 63 32 64
REMARK SMILES IDX 25 65 26 66 30 67 33 68 27 69 28 70 31 71 29 72 55 73 56 74
REMARK SMILES IDX 64 75 57 76 58 77 62 78 65 79 59 80 60 81 63 82 61 83 40 84
REMARK SMILES IDX 41 85 49 86 42 87 43 88 47 89 50 90 44 91 45 92 48 93 46 94
REMARK H PARENT 70 47 38 58
REMARK Flexibility Score: inf
ROOT
ATOM      1  C   UNL A   1      34.275  31.671  27.566  1.00  0.00     0.202 C 
ENDROOT
BRANCH   1   2
ATOM      2  C   UNL A   1      33.827  30.269  27.146  1.00  0.00     0.261 C 
BRANCH   2   3
ATOM      3  O   UNL A   1      32.918  30.343  26.033  1.00  0.00    -0.463 OA
BRANCH   3   4
ATOM      4  C   UNL A   1      32.595  29.152  25.459  1.00  0.00     0.313 C 
ATOM      5  O   UNL A   1      31.499  28.612  25.572  1.00  0.00    -0.252 OA
BRANCH   4   6
ATOM      6  C   UNL A   1      33.741  28.564  24.622  1.00  0.00     0.126 C 
ATOM      7  C   UNL A   1      33.885  29.193  23.230  1.00  0.00     0.025 C 
BRANCH   6   8
ATOM      8  C   UNL A   1      33.685  27.035  24.626  1.00  0.00    -0.034 A 
ATOM      9  C   UNL A   1      33.687  26.369  25.864  1.00  0.00     0.005 A 
ATOM     10  C   UNL A   1      33.591  26.255  23.463  1.00  0.00     0.005 A 
ATOM     11  C   UNL A   1      33.582  24.977  25.942  1.00  0.00     0.009 A 
ATOM     12  C   UNL A   1      33.491  24.859  23.541  1.00  0.00     0.009 A 
ATOM     13  C   UNL A   1      33.475  24.209  24.780  1.00  0.00    -0.018 A 
BRANCH  13  14
ATOM     14  C   UNL A   1      33.347  22.742  24.856  1.00  0.00    -0.011 A 
ATOM     15  C   UNL A   1      32.067  22.072  24.995  1.00  0.00     0.027 A 
ATOM     16  C   UNL A   1      34.467  22.000  24.802  1.00  0.00     0.080 A 
ATOM     17  C   UNL A   1      32.002  20.737  25.074  1.00  0.00     0.095 A 
ATOM     18  C   UNL A   1      34.410  20.513  24.884  1.00  0.00     0.255 A 
ATOM     19  N   UNL A   1      33.145  19.963  25.023  1.00  0.00    -0.258 N 
ATOM     20  O   UNL A   1      35.461  19.882  24.827  1.00  0.00    -0.269 OA
BRANCH  19  21
ATOM     21  C   UNL A   1      33.065  18.529  25.124  1.00  0.00     0.451 C 
ATOM     22  F   UNL A   1      32.646  18.145  26.354  1.00  0.00    -0.185 F 
ATOM     23  F   UNL A   1      32.201  18.025  24.209  1.00  0.00    -0.185 F 
ENDBRANCH  19  21
ENDBRANCH  13  14
ENDBRANCH   6   8
ENDBRANCH   4   6
ENDBRANCH   3   4
ENDBRANCH   2   3
ENDBRANCH   1   2
BRANCH   1  24
ATOM     24  O   UNL A   1      33.987  32.040  28.915  1.00  0.00    -0.374 OA
BRANCH  24  25
ATOM     25  C   UNL A   1      34.363  33.352  29.332  1.00  0.00     0.202 C 
BRANCH  25  26
ATOM     26  C   UNL A   1      34.565  33.550  30.840  1.00  0.00     0.261 C 
BRANCH  26  27
ATOM     27  O   UNL A   1      34.501  32.310  31.570  1.00  0.00    -0.460 OA
BRANCH  27  28
ATOM     28  C   UNL A   1      35.520  32.112  32.439  1.00  0.00     0.338 C 
ATOM     29  O   UNL A   1      35.554  32.412  33.624  1.00  0.00    -0.246 OA
BRANCH  28  30
ATOM     30  C   UNL A   1      36.586  31.308  31.811  1.00  0.00     0.060 A 
ATOM     31  C   UNL A   1      37.768  31.126  32.541  1.00  0.00     0.016 A 
ATOM     32  C   UNL A   1      36.476  30.824  30.507  1.00  0.00     0.016 A 
ATOM     33  C   UNL A   1      38.865  30.503  31.950  1.00  0.00     0.010 A 
ATOM     34  C   UNL A   1      37.584  30.207  29.911  1.00  0.00     0.010 A 
ATOM     35  C   UNL A   1      38.794  30.077  30.617  1.00  0.00    -0.014 A 
BRANCH  35  36
ATOM     36  C   UNL A   1      40.033  29.641  29.928  1.00  0.00     0.031 A 
ATOM     37  C   UNL A   1      41.163  30.621  29.768  1.00  0.00     0.074 A 
ATOM     38  C   UNL A   1      40.170  28.378  29.488  1.00  0.00     0.049 A 
ATOM     39  N   UNL A   1      42.328  30.461  29.193  1.00  0.00    -0.248 NA
ATOM     40  C   UNL A   1      40.951  31.962  30.334  1.00  0.00     0.031 C 
ATOM     41  C   UNL A   1      39.165  27.326  29.619  1.00  0.00     0.029 A 
ATOM     42  N   UNL A   1      41.215  27.769  28.838  1.00  0.00    -0.354 N 
ATOM     43  C   UNL A   1      42.986  31.677  29.329  1.00  0.00     0.074 A 
ATOM     44  C   UNL A   1      42.080  32.575  30.011  1.00  0.00     0.031 C 
ATOM     45  C   UNL A   1      39.638  26.200  29.056  1.00  0.00     0.029 A 
ATOM     46  C   UNL A   1      40.967  26.461  28.505  1.00  0.00     0.049 A 
ATOM     47  H   UNL A   1      42.062  28.227  28.632  1.00  0.00     0.167 HD
ATOM     48  C   UNL A   1      44.237  32.010  28.930  1.00  0.00     0.037 A 
ATOM     49  C   UNL A   1      41.721  25.582  27.815  1.00  0.00     0.037 A 
ATOM     50  C   UNL A   1      45.140  31.118  28.253  1.00  0.00     0.049 A 
ATOM     51  C   UNL A   1      43.082  25.999  27.322  1.00  0.00     0.074 A 
ATOM     52  C   UNL A   1      46.433  31.360  27.822  1.00  0.00     0.029 A 
ATOM     53  N   UNL A   1      44.840  29.810  27.902  1.00  0.00    -0.354 N 
ATOM     54  N   UNL A   1      43.705  27.142  27.475  1.00  0.00    -0.248 NA
ATOM     55  C   UNL A   1      43.848  24.999  26.564  1.00  0.00     0.031 C 
ATOM     56  C   UNL A   1      46.898  30.212  27.170  1.00  0.00     0.029 A 
ATOM     57  C   UNL A   1      45.913  29.240  27.238  1.00  0.00     0.049 A 
ATOM     58  H   UNL A   1      43.989  29.354  28.097  1.00  0.00     0.167 HD
ATOM     59  C   UNL A   1      44.939  26.992  26.857  1.00  0.00     0.074 A 
ATOM     60  C   UNL A   1      44.985  25.642  26.337  1.00  0.00     0.031 C 
ATOM     61  C   UNL A   1      45.947  27.892  26.733  1.00  0.00     0.037 A 
BRANCH  48  62
ATOM     62  C   UNL A   1      44.697  33.412  29.199  1.00  0.00     0.064 A 
ATOM     63  C   UNL A   1      44.457  34.453  28.289  1.00  0.00     0.173 A 
ATOM     64  C   UNL A   1      45.356  33.726  30.397  1.00  0.00     0.173 A 
ATOM     65  F   UNL A   1      43.843  34.201  27.123  1.00  0.00    -0.203 F 
ATOM     66  C   UNL A   1      44.881  35.752  28.559  1.00  0.00     0.198 A 
ATOM     67  C   UNL A   1      45.756  35.031  30.675  1.00  0.00     0.198 A 
ATOM     68  F   UNL A   1      45.606  32.768  31.302  1.00  0.00    -0.203 F 
ATOM     69  F   UNL A   1      44.680  36.722  27.656  1.00  0.00    -0.200 F 
ATOM     70  C   UNL A   1      45.524  36.040  29.754  1.00  0.00     0.200 A 
ATOM     71  F   UNL A   1      46.367  35.310  31.835  1.00  0.00    -0.200 F 
ATOM     72  F   UNL A   1      45.928  37.292  30.014  1.00  0.00    -0.200 F 
ENDBRANCH  48  62
BRANCH  49  73
ATOM     73  C   UNL A   1      41.199  24.219  27.536  1.00  0.00     0.064 A 
ATOM     74  C   UNL A   1      41.754  23.090  28.154  1.00  0.00     0.173 A 
ATOM     75  C   UNL A   1      40.146  24.018  26.632  1.00  0.00     0.173 A 
ATOM     76  F   UNL A   1      42.780  23.230  29.006  1.00  0.00    -0.203 F 
ATOM     77  C   UNL A   1      41.285  21.810  27.866  1.00  0.00     0.198 A 
ATOM     78  C   UNL A   1      39.661  22.740  26.364  1.00  0.00     0.198 A 
ATOM     79  F   UNL A   1      39.584  25.066  26.012  1.00  0.00    -0.203 F 
ATOM     80  F   UNL A   1      41.862  20.743  28.436  1.00  0.00    -0.200 F 
ATOM     81  C   UNL A   1      40.236  21.637  26.976  1.00  0.00     0.200 A 
ATOM     82  F   UNL A   1      38.641  22.578  25.511  1.00  0.00    -0.200 F 
ATOM     83  F   UNL A   1      39.784  20.405  26.701  1.00  0.00    -0.200 F 
ENDBRANCH  49  73
BRANCH  61  84
ATOM     84  C   UNL A   1      47.196  27.438  26.036  1.00  0.00     0.064 A 
ATOM     85  C   UNL A   1      48.250  26.833  26.736  1.00  0.00     0.173 A 
ATOM     86  C   UNL A   1      47.321  27.568  24.644  1.00  0.00     0.173 A 
ATOM     87  F   UNL A   1      48.185  26.698  28.069  1.00  0.00    -0.203 F 
ATOM     88  C   UNL A   1      49.393  26.397  26.071  1.00  0.00     0.198 A 
ATOM     89  C   UNL A   1      48.453  27.106  23.979  1.00  0.00     0.198 A 
ATOM     90  F   UNL A   1      46.338  28.133  23.928  1.00  0.00    -0.203 F 
ATOM     91  F   UNL A   1      50.407  25.860  26.765  1.00  0.00    -0.200 F 
ATOM     92  C   UNL A   1      49.490  26.527  24.694  1.00  0.00     0.200 A 
ATOM     93  F   UNL A   1      48.540  27.221  22.647  1.00  0.00    -0.200 F 
ATOM     94  F   UNL A   1      50.589  26.100  24.055  1.00  0.00    -0.200 F 
ENDBRANCH  61  84
ENDBRANCH  35  36
ENDBRANCH  28  30
ENDBRANCH  27  28
ENDBRANCH  26  27
ENDBRANCH  25  26
ENDBRANCH  24  25
ENDBRANCH   1  24
TORSDOF 17
ENDMDL
