MODEL 1
REMARK VINA RESULT:     -12.0      0.000      0.000
REMARK SMILES COc1ccc2c(c1C)OC(=O)[C@@H](CC(=O)N[C@@H](CC1=c3ccccc3=NC1)C(=O)OCCOCCOC(=O)c1ccc(-c3c4nc(c(-c5c(F)c(F)c(F)c(F)c5F)c5ccc([nH]5)c(-c5c(F)c(F)c(F)c(F)c5F)c5nc(c(-c6c(F)c(F)c(F)c(F)c6F)c6ccc3[nH]6)C=C5)C=C4)cc1)[C@H]2C
REMARK SMILES IDX 33 1 32 2 31 3 29 4 30 5 18 6 17 7 15 8 16 9 14 11 13 12
REMARK SMILES IDX 3 13 4 14 8 15 5 16 7 17 9 18 6 19 10 20 103 21 11 22 104 23
REMARK SMILES IDX 12 24 2 25 1 26 19 27 20 28 21 29 28 30 22 31 26 32 27 33
REMARK SMILES IDX 23 34 25 35 24 36 34 37 35 38 36 39 37 40 38 41 39 42 40 43
REMARK SMILES IDX 41 44 102 45 42 46 101 47 43 48 44 49 45 50 95 51 46 52
REMARK SMILES IDX 100 53 94 54 96 55 47 56 99 57 93 58 92 59 48 61 80 62 60 63
REMARK SMILES IDX 79 64 61 65 64 66 78 67 97 68 62 69 63 70 77 72 98 73 65 74
REMARK SMILES IDX 49 75 50 76 58 77 51 78 52 79 56 80 59 81 53 82 54 83 57 84
REMARK SMILES IDX 55 85 81 86 82 87 90 88 83 89 84 90 88 91 91 92 85 93 86 94
REMARK SMILES IDX 89 95 87 96 66 97 67 98 75 99 68 100 69 101 73 102 76 103
REMARK SMILES IDX 70 104 71 105 74 106 72 107
REMARK H PARENT 17 10 96 60 64 71
REMARK Flexibility Score: inf
ROOT
ATOM      1  C   UNL A   1      33.155  27.468  26.401  1.00  0.00     0.202 C 
ENDROOT
BRANCH   1   2
ATOM      2  C   UNL A   1      32.610  26.084  26.763  1.00  0.00     0.261 C 
BRANCH   2   3
ATOM      3  O   UNL A   1      31.176  26.054  26.728  1.00  0.00    -0.462 OA
BRANCH   3   4
ATOM      4  C   UNL A   1      30.633  24.862  26.365  1.00  0.00     0.329 C 
ATOM      5  O   UNL A   1      29.622  24.371  26.855  1.00  0.00    -0.250 OA
BRANCH   4   6
ATOM      6  C   UNL A   1      31.432  24.161  25.260  1.00  0.00     0.196 C 
BRANCH   6   7
ATOM      7  N   UNL A   1      31.820  22.764  25.526  1.00  0.00    -0.342 N 
ATOM      8  C   UNL A   1      32.732  21.913  24.991  1.00  0.00     0.221 C 
ATOM      9  O   UNL A   1      32.643  20.729  25.331  1.00  0.00    -0.275 OA
ATOM     10  H   UNL A   1      31.300  22.355  26.255  1.00  0.00     0.164 HD
BRANCH   8  11
ATOM     11  C   UNL A   1      33.925  22.359  24.160  1.00  0.00     0.116 C 
BRANCH  11  12
ATOM     12  C   UNL A   1      35.240  22.614  24.894  1.00  0.00     0.116 C 
ATOM     13  C   UNL A   1      39.731  22.265  26.866  1.00  0.00     0.125 A 
ATOM     14  C   UNL A   1      39.545  21.096  26.116  1.00  0.00     0.047 A 
ATOM     15  C   UNL A   1      38.829  23.337  26.752  1.00  0.00     0.034 A 
ATOM     16  C   UNL A   1      38.491  20.995  25.210  1.00  0.00     0.012 A 
ATOM     17  C   UNL A   1      37.764  23.202  25.852  1.00  0.00     0.140 A 
ATOM     18  C   UNL A   1      38.964  24.583  27.580  1.00  0.00     0.052 C 
ATOM     19  C   UNL A   1      37.598  22.056  25.069  1.00  0.00    -0.001 A 
ATOM     20  O   UNL A   1      36.834  24.265  25.731  1.00  0.00    -0.426 OA
ATOM     21  C   UNL A   1      36.424  21.979  24.138  1.00  0.00     0.035 C 
ATOM     22  C   UNL A   1      35.574  24.075  25.149  1.00  0.00     0.315 C 
ATOM     23  C   UNL A   1      36.753  22.624  22.785  1.00  0.00     0.014 C 
ATOM     24  O   UNL A   1      34.807  25.008  24.955  1.00  0.00    -0.251 OA
BRANCH  13  25
ATOM     25  O   UNL A   1      40.749  22.385  27.778  1.00  0.00    -0.496 OA
ATOM     26  C   UNL A   1      41.570  21.224  27.887  1.00  0.00     0.278 C 
ENDBRANCH  13  25
ENDBRANCH  11  12
ENDBRANCH   8  11
ENDBRANCH   6   7
BRANCH   6  27
ATOM     27  C   UNL A   1      30.670  24.275  23.920  1.00  0.00     0.070 C 
BRANCH  27  28
ATOM     28  C   UNL A   1      30.998  25.531  23.168  1.00  0.00    -0.037 C 
ATOM     29  C   UNL A   1      30.255  26.628  23.054  1.00  0.00     0.001 A 
ATOM     30  C   UNL A   1      32.323  25.722  22.492  1.00  0.00     0.174 C 
ATOM     31  C   UNL A   1      28.957  27.017  23.501  1.00  0.00     0.010 A 
ATOM     32  C   UNL A   1      31.176  27.580  22.414  1.00  0.00     0.065 A 
ATOM     33  N   UNL A   1      32.347  27.141  22.065  1.00  0.00    -0.280 NA
ATOM     34  C   UNL A   1      28.587  28.300  23.362  1.00  0.00     0.001 A 
ATOM     35  C   UNL A   1      30.692  28.971  22.285  1.00  0.00     0.028 A 
ATOM     36  C   UNL A   1      29.472  29.281  22.756  1.00  0.00     0.002 A 
ENDBRANCH  27  28
ENDBRANCH   6  27
ENDBRANCH   4   6
ENDBRANCH   3   4
ENDBRANCH   2   3
ENDBRANCH   1   2
BRANCH   1  37
ATOM     37  O   UNL A   1      32.439  28.180  25.394  1.00  0.00    -0.374 OA
BRANCH  37  38
ATOM     38  C   UNL A   1      31.568  29.233  25.817  1.00  0.00     0.202 C 
BRANCH  38  39
ATOM     39  C   UNL A   1      32.195  30.615  26.038  1.00  0.00     0.261 C 
BRANCH  39  40
ATOM     40  O   UNL A   1      32.702  30.780  27.377  1.00  0.00    -0.460 OA
BRANCH  40  41
ATOM     41  C   UNL A   1      33.506  31.856  27.548  1.00  0.00     0.338 C 
ATOM     42  O   UNL A   1      33.191  33.036  27.518  1.00  0.00    -0.246 OA
BRANCH  41  43
ATOM     43  C   UNL A   1      34.861  31.432  27.924  1.00  0.00     0.060 A 
ATOM     44  C   UNL A   1      35.059  30.101  28.309  1.00  0.00     0.016 A 
ATOM     45  C   UNL A   1      35.870  32.382  28.084  1.00  0.00     0.016 A 
ATOM     46  C   UNL A   1      36.263  29.722  28.898  1.00  0.00     0.010 A 
ATOM     47  C   UNL A   1      37.072  32.003  28.690  1.00  0.00     0.010 A 
ATOM     48  C   UNL A   1      37.256  30.682  29.136  1.00  0.00    -0.014 A 
BRANCH  48  49
ATOM     49  C   UNL A   1      38.404  30.337  30.005  1.00  0.00     0.031 A 
ATOM     50  C   UNL A   1      39.506  29.479  29.449  1.00  0.00     0.074 A 
ATOM     51  C   UNL A   1      38.486  30.819  31.256  1.00  0.00     0.049 A 
ATOM     52  N   UNL A   1      40.605  29.060  30.025  1.00  0.00    -0.248 NA
ATOM     53  C   UNL A   1      39.353  29.039  28.053  1.00  0.00     0.031 C 
ATOM     54  C   UNL A   1      37.509  31.705  31.883  1.00  0.00     0.029 A 
ATOM     55  N   UNL A   1      39.444  30.629  32.219  1.00  0.00    -0.354 N 
ATOM     56  C   UNL A   1      41.280  28.325  29.060  1.00  0.00     0.074 A 
ATOM     57  C   UNL A   1      40.453  28.322  27.872  1.00  0.00     0.031 C 
ATOM     58  C   UNL A   1      37.918  31.985  33.132  1.00  0.00     0.029 A 
ATOM     59  C   UNL A   1      39.170  31.276  33.397  1.00  0.00     0.049 A 
ATOM     60  H   UNL A   1      40.251  30.083  32.078  1.00  0.00     0.167 HD
ATOM     61  C   UNL A   1      42.485  27.715  29.154  1.00  0.00     0.037 A 
ATOM     62  C   UNL A   1      39.850  31.282  34.560  1.00  0.00     0.037 A 
ATOM     63  C   UNL A   1      43.296  27.698  30.342  1.00  0.00     0.049 A 
ATOM     64  C   UNL A   1      41.133  30.503  34.676  1.00  0.00     0.074 A 
ATOM     65  C   UNL A   1      44.529  27.102  30.536  1.00  0.00     0.029 A 
ATOM     66  N   UNL A   1      42.946  28.297  31.542  1.00  0.00    -0.354 N 
ATOM     67  N   UNL A   1      41.769  29.815  33.759  1.00  0.00    -0.248 NA
ATOM     68  C   UNL A   1      41.790  30.496  35.992  1.00  0.00     0.031 C 
ATOM     69  C   UNL A   1      44.905  27.301  31.869  1.00  0.00     0.029 A 
ATOM     70  C   UNL A   1      43.926  28.061  32.491  1.00  0.00     0.049 A 
ATOM     71  H   UNL A   1      42.123  28.816  31.696  1.00  0.00     0.167 HD
ATOM     72  C   UNL A   1      42.906  29.309  34.377  1.00  0.00     0.074 A 
ATOM     73  C   UNL A   1      42.878  29.777  35.746  1.00  0.00     0.031 C 
ATOM     74  C   UNL A   1      43.883  28.528  33.854  1.00  0.00     0.037 A 
BRANCH  61  75
ATOM     75  C   UNL A   1      42.992  26.998  27.938  1.00  0.00     0.064 A 
ATOM     76  C   UNL A   1      42.725  25.636  27.729  1.00  0.00     0.173 A 
ATOM     77  C   UNL A   1      43.719  27.685  26.955  1.00  0.00     0.173 A 
ATOM     78  F   UNL A   1      42.044  24.933  28.646  1.00  0.00    -0.203 F 
ATOM     79  C   UNL A   1      43.186  24.985  26.588  1.00  0.00     0.198 A 
ATOM     80  C   UNL A   1      44.157  27.036  25.805  1.00  0.00     0.198 A 
ATOM     81  F   UNL A   1      43.996  28.989  27.107  1.00  0.00    -0.203 F 
ATOM     82  F   UNL A   1      42.950  23.676  26.425  1.00  0.00    -0.200 F 
ATOM     83  C   UNL A   1      43.895  25.686  25.624  1.00  0.00     0.200 A 
ATOM     84  F   UNL A   1      44.835  27.716  24.869  1.00  0.00    -0.200 F 
ATOM     85  F   UNL A   1      44.332  25.058  24.523  1.00  0.00    -0.200 F 
ENDBRANCH  61  75
BRANCH  62  86
ATOM     86  C   UNL A   1      39.324  32.061  35.708  1.00  0.00     0.064 A 
ATOM     87  C   UNL A   1      38.423  31.487  36.613  1.00  0.00     0.173 A 
ATOM     88  C   UNL A   1      39.730  33.384  35.936  1.00  0.00     0.173 A 
ATOM     89  F   UNL A   1      37.987  30.233  36.419  1.00  0.00    -0.203 F 
ATOM     90  C   UNL A   1      37.947  32.207  37.707  1.00  0.00     0.198 A 
ATOM     91  C   UNL A   1      39.270  34.096  37.041  1.00  0.00     0.198 A 
ATOM     92  F   UNL A   1      40.585  33.979  35.093  1.00  0.00    -0.203 F 
ATOM     93  F   UNL A   1      37.065  31.645  38.545  1.00  0.00    -0.200 F 
ATOM     94  C   UNL A   1      38.377  33.507  37.925  1.00  0.00     0.200 A 
ATOM     95  F   UNL A   1      39.691  35.351  37.251  1.00  0.00    -0.200 F 
ATOM     96  F   UNL A   1      37.926  34.197  38.982  1.00  0.00    -0.200 F 
ENDBRANCH  62  86
BRANCH  74  97
ATOM     97  C   UNL A   1      45.015  28.133  34.755  1.00  0.00     0.064 A 
ATOM     98  C   UNL A   1      44.986  26.932  35.479  1.00  0.00     0.173 A 
ATOM     99  C   UNL A   1      46.173  28.921  34.833  1.00  0.00     0.173 A 
ATOM    100  F   UNL A   1      43.896  26.151  35.447  1.00  0.00    -0.203 F 
ATOM    101  C   UNL A   1      46.072  26.541  36.257  1.00  0.00     0.198 A 
ATOM    102  C   UNL A   1      47.266  28.514  35.592  1.00  0.00     0.198 A 
ATOM    103  F   UNL A   1      46.253  30.074  34.151  1.00  0.00    -0.203 F 
ATOM    104  F   UNL A   1      46.013  25.403  36.963  1.00  0.00    -0.200 F 
ATOM    105  C   UNL A   1      47.215  27.327  36.305  1.00  0.00     0.200 A 
ATOM    106  F   UNL A   1      48.375  29.268  35.626  1.00  0.00    -0.200 F 
ATOM    107  F   UNL A   1      48.266  26.939  37.041  1.00  0.00    -0.200 F 
ENDBRANCH  74  97
ENDBRANCH  48  49
ENDBRANCH  41  43
ENDBRANCH  40  41
ENDBRANCH  39  40
ENDBRANCH  38  39
ENDBRANCH  37  38
ENDBRANCH   1  37
TORSDOF 20
ENDMDL
MODEL 2
REMARK VINA RESULT:     -11.4      4.633     10.390
REMARK SMILES COc1ccc2c(c1C)OC(=O)[C@@H](CC(=O)N[C@@H](CC1=c3ccccc3=NC1)C(=O)OCCOCCOC(=O)c1ccc(-c3c4nc(c(-c5c(F)c(F)c(F)c(F)c5F)c5ccc([nH]5)c(-c5c(F)c(F)c(F)c(F)c5F)c5nc(c(-c6c(F)c(F)c(F)c(F)c6F)c6ccc3[nH]6)C=C5)C=C4)cc1)[C@H]2C
REMARK SMILES IDX 33 1 32 2 31 3 29 4 30 5 18 6 17 7 15 8 16 9 14 11 13 12
REMARK SMILES IDX 3 13 4 14 8 15 5 16 7 17 9 18 6 19 10 20 103 21 11 22 104 23
REMARK SMILES IDX 12 24 2 25 1 26 19 27 20 28 21 29 28 30 22 31 26 32 27 33
REMARK SMILES IDX 23 34 25 35 24 36 34 37 35 38 36 39 37 40 38 41 39 42 40 43
REMARK SMILES IDX 41 44 102 45 42 46 101 47 43 48 44 49 45 50 95 51 46 52
REMARK SMILES IDX 100 53 94 54 96 55 47 56 99 57 93 58 92 59 48 61 80 62 60 63
REMARK SMILES IDX 79 64 61 65 64 66 78 67 97 68 62 69 63 70 77 72 98 73 65 74
REMARK SMILES IDX 49 75 50 76 58 77 51 78 52 79 56 80 59 81 53 82 54 83 57 84
REMARK SMILES IDX 55 85 81 86 82 87 90 88 83 89 84 90 88 91 91 92 85 93 86 94
REMARK SMILES IDX 89 95 87 96 66 97 67 98 75 99 68 100 69 101 73 102 76 103
REMARK SMILES IDX 70 104 71 105 74 106 72 107
REMARK H PARENT 17 10 96 60 64 71
REMARK Flexibility Score: inf
ROOT
ATOM      1  C   UNL A   1      38.180  32.916  37.407  1.00  0.00     0.202 C 
ENDROOT
BRANCH   1   2
ATOM      2  C   UNL A   1      37.763  33.693  36.156  1.00  0.00     0.261 C 
BRANCH   2   3
ATOM      3  O   UNL A   1      38.204  33.040  34.956  1.00  0.00    -0.462 OA
BRANCH   3   4
ATOM      4  C   UNL A   1      38.029  33.755  33.814  1.00  0.00     0.329 C 
ATOM      5  O   UNL A   1      37.684  34.931  33.766  1.00  0.00    -0.250 OA
BRANCH   4   6
ATOM      6  C   UNL A   1      38.302  32.929  32.551  1.00  0.00     0.196 C 
BRANCH   6   7
ATOM      7  N   UNL A   1      38.777  33.679  31.374  1.00  0.00    -0.342 N 
ATOM      8  C   UNL A   1      38.190  34.146  30.243  1.00  0.00     0.221 C 
ATOM      9  O   UNL A   1      38.949  34.561  29.363  1.00  0.00    -0.275 OA
ATOM     10  H   UNL A   1      39.739  33.887  31.418  1.00  0.00     0.164 HD
BRANCH   8  11
ATOM     11  C   UNL A   1      36.689  34.338  30.084  1.00  0.00     0.116 C 
BRANCH  11  12
ATOM     12  C   UNL A   1      35.929  33.301  29.260  1.00  0.00     0.116 C 
ATOM     13  C   UNL A   1      34.508  29.265  26.838  1.00  0.00     0.125 A 
ATOM     14  C   UNL A   1      35.718  28.935  27.464  1.00  0.00     0.047 A 
ATOM     15  C   UNL A   1      33.840  30.458  27.161  1.00  0.00     0.034 A 
ATOM     16  C   UNL A   1      36.254  29.761  28.449  1.00  0.00     0.012 A 
ATOM     17  C   UNL A   1      34.411  31.283  28.138  1.00  0.00     0.140 A 
ATOM     18  C   UNL A   1      32.570  30.871  26.472  1.00  0.00     0.052 C 
ATOM     19  C   UNL A   1      35.595  30.939  28.796  1.00  0.00    -0.001 A 
ATOM     20  O   UNL A   1      33.761  32.499  28.469  1.00  0.00    -0.426 OA
ATOM     21  C   UNL A   1      36.153  31.882  29.821  1.00  0.00     0.035 C 
ATOM     22  C   UNL A   1      34.431  33.528  29.144  1.00  0.00     0.315 C 
ATOM     23  C   UNL A   1      35.535  31.623  31.201  1.00  0.00     0.014 C 
ATOM     24  O   UNL A   1      33.850  34.539  29.517  1.00  0.00    -0.251 OA
BRANCH  13  25
ATOM     25  O   UNL A   1      33.966  28.479  25.852  1.00  0.00    -0.496 OA
ATOM     26  C   UNL A   1      33.400  27.259  26.328  1.00  0.00     0.278 C 
ENDBRANCH  13  25
ENDBRANCH  11  12
ENDBRANCH   8  11
ENDBRANCH   6   7
BRANCH   6  27
ATOM     27  C   UNL A   1      39.265  31.768  32.890  1.00  0.00     0.070 C 
BRANCH  27  28
ATOM     28  C   UNL A   1      38.713  30.425  32.513  1.00  0.00    -0.037 C 
ATOM     29  C   UNL A   1      39.021  29.690  31.448  1.00  0.00     0.001 A 
ATOM     30  C   UNL A   1      37.753  29.689  33.400  1.00  0.00     0.174 C 
ATOM     31  C   UNL A   1      39.871  29.863  30.315  1.00  0.00     0.010 A 
ATOM     32  C   UNL A   1      38.355  28.409  31.734  1.00  0.00     0.065 A 
ATOM     33  N   UNL A   1      37.622  28.338  32.804  1.00  0.00    -0.280 NA
ATOM     34  C   UNL A   1      40.091  28.811  29.510  1.00  0.00     0.001 A 
ATOM     35  C   UNL A   1      38.636  27.303  30.795  1.00  0.00     0.028 A 
ATOM     36  C   UNL A   1      39.471  27.521  29.764  1.00  0.00     0.002 A 
ENDBRANCH  27  28
ENDBRANCH   6  27
ENDBRANCH   4   6
ENDBRANCH   3   4
ENDBRANCH   2   3
ENDBRANCH   1   2
BRANCH   1  37
ATOM     37  O   UNL A   1      39.144  33.549  38.246  1.00  0.00    -0.374 OA
BRANCH  37  38
ATOM     38  C   UNL A   1      38.677  34.151  39.456  1.00  0.00     0.202 C 
BRANCH  38  39
ATOM     39  C   UNL A   1      39.310  35.488  39.864  1.00  0.00     0.261 C 
BRANCH  39  40
ATOM     40  O   UNL A   1      39.513  36.365  38.738  1.00  0.00    -0.460 OA
BRANCH  40  41
ATOM     41  C   UNL A   1      40.789  36.786  38.573  1.00  0.00     0.338 C 
ATOM     42  O   UNL A   1      41.484  37.397  39.372  1.00  0.00    -0.246 OA
BRANCH  41  43
ATOM     43  C   UNL A   1      41.334  36.292  37.302  1.00  0.00     0.060 A 
ATOM     44  C   UNL A   1      40.465  36.161  36.212  1.00  0.00     0.016 A 
ATOM     45  C   UNL A   1      42.630  35.780  37.251  1.00  0.00     0.016 A 
ATOM     46  C   UNL A   1      40.882  35.476  35.073  1.00  0.00     0.010 A 
ATOM     47  C   UNL A   1      43.041  35.079  36.113  1.00  0.00     0.010 A 
ATOM     48  C   UNL A   1      42.155  34.889  35.038  1.00  0.00    -0.014 A 
BRANCH  48  49
ATOM     49  C   UNL A   1      42.484  33.936  33.954  1.00  0.00     0.031 A 
ATOM     50  C   UNL A   1      42.768  34.469  32.577  1.00  0.00     0.074 A 
ATOM     51  C   UNL A   1      42.573  32.619  34.203  1.00  0.00     0.049 A 
ATOM     52  N   UNL A   1      43.083  33.822  31.484  1.00  0.00    -0.248 NA
ATOM     53  C   UNL A   1      42.694  35.930  32.412  1.00  0.00     0.031 C 
ATOM     54  C   UNL A   1      42.376  31.993  35.507  1.00  0.00     0.029 A 
ATOM     55  N   UNL A   1      42.859  31.575  33.361  1.00  0.00    -0.354 N 
ATOM     56  C   UNL A   1      43.261  34.793  30.508  1.00  0.00     0.074 A 
ATOM     57  C   UNL A   1      42.985  36.072  31.126  1.00  0.00     0.031 C 
ATOM     58  C   UNL A   1      42.547  30.666  35.380  1.00  0.00     0.029 A 
ATOM     59  C   UNL A   1      42.838  30.351  33.981  1.00  0.00     0.049 A 
ATOM     60  H   UNL A   1      43.059  31.691  32.404  1.00  0.00     0.167 HD
ATOM     61  C   UNL A   1      43.632  34.633  29.216  1.00  0.00     0.037 A 
ATOM     62  C   UNL A   1      43.024  29.119  33.472  1.00  0.00     0.037 A 
ATOM     63  C   UNL A   1      43.883  33.360  28.595  1.00  0.00     0.049 A 
ATOM     64  C   UNL A   1      43.323  28.957  32.005  1.00  0.00     0.074 A 
ATOM     65  C   UNL A   1      44.258  33.095  27.289  1.00  0.00     0.029 A 
ATOM     66  N   UNL A   1      43.773  32.136  29.237  1.00  0.00    -0.354 N 
ATOM     67  N   UNL A   1      43.497  29.879  31.089  1.00  0.00    -0.248 NA
ATOM     68  C   UNL A   1      43.447  27.582  31.499  1.00  0.00     0.031 C 
ATOM     69  C   UNL A   1      44.330  31.708  27.129  1.00  0.00     0.029 A 
ATOM     70  C   UNL A   1      44.045  31.111  28.347  1.00  0.00     0.049 A 
ATOM     71  H   UNL A   1      43.539  32.015  30.185  1.00  0.00     0.167 HD
ATOM     72  C   UNL A   1      43.767  29.202  29.908  1.00  0.00     0.074 A 
ATOM     73  C   UNL A   1      43.744  27.789  30.223  1.00  0.00     0.031 C 
ATOM     74  C   UNL A   1      44.012  29.707  28.674  1.00  0.00     0.037 A 
BRANCH  61  75
ATOM     75  C   UNL A   1      43.769  35.871  28.380  1.00  0.00     0.064 A 
ATOM     76  C   UNL A   1      42.654  36.473  27.778  1.00  0.00     0.173 A 
ATOM     77  C   UNL A   1      45.020  36.480  28.207  1.00  0.00     0.173 A 
ATOM     78  F   UNL A   1      41.439  35.921  27.903  1.00  0.00    -0.203 F 
ATOM     79  C   UNL A   1      42.791  37.632  27.017  1.00  0.00     0.198 A 
ATOM     80  C   UNL A   1      45.150  37.651  27.466  1.00  0.00     0.198 A 
ATOM     81  F   UNL A   1      46.116  35.944  28.765  1.00  0.00    -0.203 F 
ATOM     82  F   UNL A   1      41.719  38.171  26.422  1.00  0.00    -0.200 F 
ATOM     83  C   UNL A   1      44.037  38.223  26.868  1.00  0.00     0.200 A 
ATOM     84  F   UNL A   1      46.352  38.227  27.329  1.00  0.00    -0.200 F 
ATOM     85  F   UNL A   1      44.165  39.342  26.142  1.00  0.00    -0.200 F 
ENDBRANCH  61  75
BRANCH  62  86
ATOM     86  C   UNL A   1      42.932  27.938  34.366  1.00  0.00     0.064 A 
ATOM     87  C   UNL A   1      41.739  27.214  34.480  1.00  0.00     0.173 A 
ATOM     88  C   UNL A   1      44.040  27.498  35.104  1.00  0.00     0.173 A 
ATOM     89  F   UNL A   1      40.646  27.614  33.813  1.00  0.00    -0.203 F 
ATOM     90  C   UNL A   1      41.656  26.090  35.299  1.00  0.00     0.198 A 
ATOM     91  C   UNL A   1      43.963  26.362  35.908  1.00  0.00     0.198 A 
ATOM     92  F   UNL A   1      45.201  28.164  35.035  1.00  0.00    -0.203 F 
ATOM     93  F   UNL A   1      40.497  25.428  35.412  1.00  0.00    -0.200 F 
ATOM     94  C   UNL A   1      42.770  25.660  36.005  1.00  0.00     0.200 A 
ATOM     95  F   UNL A   1      45.042  25.948  36.585  1.00  0.00    -0.200 F 
ATOM     96  F   UNL A   1      42.693  24.574  36.786  1.00  0.00    -0.200 F 
ENDBRANCH  62  86
BRANCH  74  97
ATOM     97  C   UNL A   1      44.287  28.734  27.565  1.00  0.00     0.064 A 
ATOM     98  C   UNL A   1      45.558  28.167  27.390  1.00  0.00     0.173 A 
ATOM     99  C   UNL A   1      43.251  28.304  26.722  1.00  0.00     0.173 A 
ATOM    100  F   UNL A   1      46.583  28.556  28.163  1.00  0.00    -0.203 F 
ATOM    101  C   UNL A   1      45.784  27.212  26.403  1.00  0.00     0.198 A 
ATOM    102  C   UNL A   1      43.476  27.330  25.752  1.00  0.00     0.198 A 
ATOM    103  F   UNL A   1      42.016  28.809  26.855  1.00  0.00    -0.203 F 
ATOM    104  F   UNL A   1      47.012  26.703  26.235  1.00  0.00    -0.200 F 
ATOM    105  C   UNL A   1      44.741  26.787  25.592  1.00  0.00     0.200 A 
ATOM    106  F   UNL A   1      42.464  26.911  24.979  1.00  0.00    -0.200 F 
ATOM    107  F   UNL A   1      44.957  25.854  24.654  1.00  0.00    -0.200 F 
ENDBRANCH  74  97
ENDBRANCH  48  49
ENDBRANCH  41  43
ENDBRANCH  40  41
ENDBRANCH  39  40
ENDBRANCH  38  39
ENDBRANCH  37  38
ENDBRANCH   1  37
TORSDOF 20
ENDMDL
MODEL 3
REMARK VINA RESULT:     -11.0      4.288      8.097
REMARK SMILES COc1ccc2c(c1C)OC(=O)[C@@H](CC(=O)N[C@@H](CC1=c3ccccc3=NC1)C(=O)OCCOCCOC(=O)c1ccc(-c3c4nc(c(-c5c(F)c(F)c(F)c(F)c5F)c5ccc([nH]5)c(-c5c(F)c(F)c(F)c(F)c5F)c5nc(c(-c6c(F)c(F)c(F)c(F)c6F)c6ccc3[nH]6)C=C5)C=C4)cc1)[C@H]2C
REMARK SMILES IDX 33 1 32 2 31 3 29 4 30 5 18 6 17 7 15 8 16 9 14 11 13 12
REMARK SMILES IDX 3 13 4 14 8 15 5 16 7 17 9 18 6 19 10 20 103 21 11 22 104 23
REMARK SMILES IDX 12 24 2 25 1 26 19 27 20 28 21 29 28 30 22 31 26 32 27 33
REMARK SMILES IDX 23 34 25 35 24 36 34 37 35 38 36 39 37 40 38 41 39 42 40 43
REMARK SMILES IDX 41 44 102 45 42 46 101 47 43 48 44 49 45 50 95 51 46 52
REMARK SMILES IDX 100 53 94 54 96 55 47 56 99 57 93 58 92 59 48 61 80 62 60 63
REMARK SMILES IDX 79 64 61 65 64 66 78 67 97 68 62 69 63 70 77 72 98 73 65 74
REMARK SMILES IDX 49 75 50 76 58 77 51 78 52 79 56 80 59 81 53 82 54 83 57 84
REMARK SMILES IDX 55 85 81 86 82 87 90 88 83 89 84 90 88 91 91 92 85 93 86 94
REMARK SMILES IDX 89 95 87 96 66 97 67 98 75 99 68 100 69 101 73 102 76 103
REMARK SMILES IDX 70 104 71 105 74 106 72 107
REMARK H PARENT 17 10 96 60 64 71
REMARK Flexibility Score: inf
ROOT
ATOM      1  C   UNL A   1      33.987  30.596  27.629  1.00  0.00     0.202 C 
ENDROOT
BRANCH   1   2
ATOM      2  C   UNL A   1      32.832  29.954  26.855  1.00  0.00     0.261 C 
BRANCH   2   3
ATOM      3  O   UNL A   1      32.955  28.524  26.812  1.00  0.00    -0.462 OA
BRANCH   3   4
ATOM      4  C   UNL A   1      31.823  27.840  27.122  1.00  0.00     0.329 C 
ATOM      5  O   UNL A   1      31.028  28.157  28.001  1.00  0.00    -0.250 OA
BRANCH   4   6
ATOM      6  C   UNL A   1      31.629  26.591  26.254  1.00  0.00     0.196 C 
BRANCH   6   7
ATOM      7  N   UNL A   1      31.584  25.303  26.969  1.00  0.00    -0.342 N 
ATOM      8  C   UNL A   1      32.156  24.087  26.774  1.00  0.00     0.221 C 
ATOM      9  O   UNL A   1      31.728  23.162  27.471  1.00  0.00    -0.275 OA
ATOM     10  H   UNL A   1      31.010  25.330  27.768  1.00  0.00     0.164 HD
BRANCH   8  11
ATOM     11  C   UNL A   1      33.375  23.853  25.895  1.00  0.00     0.116 C 
BRANCH  11  12
ATOM     12  C   UNL A   1      33.751  22.407  25.582  1.00  0.00     0.116 C 
ATOM     13  C   UNL A   1      33.745  17.672  24.256  1.00  0.00     0.125 A 
ATOM     14  C   UNL A   1      32.468  18.162  23.949  1.00  0.00     0.047 A 
ATOM     15  C   UNL A   1      34.780  18.552  24.612  1.00  0.00     0.034 A 
ATOM     16  C   UNL A   1      32.217  19.532  23.946  1.00  0.00     0.012 A 
ATOM     17  C   UNL A   1      34.497  19.924  24.625  1.00  0.00     0.140 A 
ATOM     18  C   UNL A   1      36.146  18.061  25.001  1.00  0.00     0.052 C 
ATOM     19  C   UNL A   1      33.237  20.422  24.278  1.00  0.00    -0.001 A 
ATOM     20  O   UNL A   1      35.523  20.830  24.996  1.00  0.00    -0.426 OA
ATOM     21  C   UNL A   1      33.006  21.903  24.330  1.00  0.00     0.035 C 
ATOM     22  C   UNL A   1      35.235  22.146  25.382  1.00  0.00     0.315 C 
ATOM     23  C   UNL A   1      33.421  22.571  23.013  1.00  0.00     0.014 C 
ATOM     24  O   UNL A   1      36.121  22.958  25.609  1.00  0.00    -0.251 OA
BRANCH  13  25
ATOM     25  O   UNL A   1      34.016  16.327  24.283  1.00  0.00    -0.496 OA
ATOM     26  C   UNL A   1      33.055  15.555  25.001  1.00  0.00     0.278 C 
ENDBRANCH  13  25
ENDBRANCH  11  12
ENDBRANCH   8  11
ENDBRANCH   6   7
BRANCH   6  27
ATOM     27  C   UNL A   1      30.378  26.770  25.363  1.00  0.00     0.070 C 
BRANCH  27  28
ATOM     28  C   UNL A   1      30.640  27.619  24.155  1.00  0.00    -0.037 C 
ATOM     29  C   UNL A   1      29.751  28.279  23.416  1.00  0.00     0.001 A 
ATOM     30  C   UNL A   1      32.033  27.896  23.672  1.00  0.00     0.174 C 
ATOM     31  C   UNL A   1      28.330  28.407  23.425  1.00  0.00     0.010 A 
ATOM     32  C   UNL A   1      30.602  29.097  22.539  1.00  0.00     0.065 A 
ATOM     33  N   UNL A   1      31.887  28.931  22.620  1.00  0.00    -0.280 NA
ATOM     34  C   UNL A   1      27.763  29.328  22.630  1.00  0.00     0.001 A 
ATOM     35  C   UNL A   1      29.903  30.080  21.683  1.00  0.00     0.028 A 
ATOM     36  C   UNL A   1      28.564  30.174  21.762  1.00  0.00     0.002 A 
ENDBRANCH  27  28
ENDBRANCH   6  27
ENDBRANCH   4   6
ENDBRANCH   3   4
ENDBRANCH   2   3
ENDBRANCH   1   2
BRANCH   1  37
ATOM     37  O   UNL A   1      34.197  31.988  27.401  1.00  0.00    -0.374 OA
BRANCH  37  38
ATOM     38  C   UNL A   1      34.407  32.823  28.543  1.00  0.00     0.202 C 
BRANCH  38  39
ATOM     39  C   UNL A   1      34.709  32.125  29.876  1.00  0.00     0.261 C 
BRANCH  39  40
ATOM     40  O   UNL A   1      35.380  32.993  30.810  1.00  0.00    -0.460 OA
BRANCH  40  41
ATOM     41  C   UNL A   1      36.091  32.352  31.766  1.00  0.00     0.338 C 
ATOM     42  O   UNL A   1      35.674  31.859  32.804  1.00  0.00    -0.246 OA
BRANCH  41  43
ATOM     43  C   UNL A   1      37.488  32.184  31.344  1.00  0.00     0.060 A 
ATOM     44  C   UNL A   1      37.852  32.615  30.063  1.00  0.00     0.016 A 
ATOM     45  C   UNL A   1      38.368  31.433  32.124  1.00  0.00     0.016 A 
ATOM     46  C   UNL A   1      39.093  32.258  29.539  1.00  0.00     0.010 A 
ATOM     47  C   UNL A   1      39.606  31.063  31.590  1.00  0.00     0.010 A 
ATOM     48  C   UNL A   1      39.955  31.439  30.281  1.00  0.00    -0.014 A 
BRANCH  48  49
ATOM     49  C   UNL A   1      41.135  30.839  29.618  1.00  0.00     0.031 A 
ATOM     50  C   UNL A   1      42.364  31.681  29.416  1.00  0.00     0.074 A 
ATOM     51  C   UNL A   1      41.127  29.549  29.242  1.00  0.00     0.049 A 
ATOM     52  N   UNL A   1      43.509  31.362  28.868  1.00  0.00    -0.248 NA
ATOM     53  C   UNL A   1      42.295  33.068  29.904  1.00  0.00     0.031 C 
ATOM     54  C   UNL A   1      40.016  28.621  29.437  1.00  0.00     0.029 A 
ATOM     55  N   UNL A   1      42.094  28.801  28.620  1.00  0.00    -0.354 N 
ATOM     56  C   UNL A   1      44.301  32.499  28.960  1.00  0.00     0.074 A 
ATOM     57  C   UNL A   1      43.497  33.527  29.584  1.00  0.00     0.031 C 
ATOM     58  C   UNL A   1      40.364  27.421  28.942  1.00  0.00     0.029 A 
ATOM     59  C   UNL A   1      41.710  27.507  28.374  1.00  0.00     0.049 A 
ATOM     60  H   UNL A   1      42.978  29.158  28.374  1.00  0.00     0.167 HD
ATOM     61  C   UNL A   1      45.586  32.666  28.569  1.00  0.00     0.037 A 
ATOM     62  C   UNL A   1      42.369  26.512  27.751  1.00  0.00     0.037 A 
ATOM     63  C   UNL A   1      46.378  31.651  27.927  1.00  0.00     0.049 A 
ATOM     64  C   UNL A   1      43.757  26.756  27.223  1.00  0.00     0.074 A 
ATOM     65  C   UNL A   1      47.688  31.727  27.489  1.00  0.00     0.029 A 
ATOM     66  N   UNL A   1      45.926  30.376  27.623  1.00  0.00    -0.354 N 
ATOM     67  N   UNL A   1      44.503  27.829  27.319  1.00  0.00    -0.248 NA
ATOM     68  C   UNL A   1      44.395  25.649  26.493  1.00  0.00     0.031 C 
ATOM     69  C   UNL A   1      48.014  30.512  26.876  1.00  0.00     0.029 A 
ATOM     70  C   UNL A   1      46.922  29.665  26.976  1.00  0.00     0.049 A 
ATOM     71  H   UNL A   1      45.030  30.028  27.837  1.00  0.00     0.167 HD
ATOM     72  C   UNL A   1      45.699  27.526  26.681  1.00  0.00     0.074 A 
ATOM     73  C   UNL A   1      45.585  26.162  26.209  1.00  0.00     0.031 C 
ATOM     74  C   UNL A   1      46.792  28.308  26.505  1.00  0.00     0.037 A 
BRANCH  61  75
ATOM     75  C   UNL A   1      46.211  34.008  28.810  1.00  0.00     0.064 A 
ATOM     76  C   UNL A   1      46.924  34.281  29.988  1.00  0.00     0.173 A 
ATOM     77  C   UNL A   1      46.129  35.018  27.842  1.00  0.00     0.173 A 
ATOM     78  F   UNL A   1      47.020  33.351  30.949  1.00  0.00    -0.203 F 
ATOM     79  C   UNL A   1      47.515  35.525  30.194  1.00  0.00     0.198 A 
ATOM     80  C   UNL A   1      46.741  36.252  28.041  1.00  0.00     0.198 A 
ATOM     81  F   UNL A   1      45.461  34.804  26.697  1.00  0.00    -0.203 F 
ATOM     82  F   UNL A   1      48.161  35.776  31.340  1.00  0.00    -0.200 F 
ATOM     83  C   UNL A   1      47.429  36.506  29.217  1.00  0.00     0.200 A 
ATOM     84  F   UNL A   1      46.666  37.197  27.093  1.00  0.00    -0.200 F 
ATOM     85  F   UNL A   1      48.005  37.700  29.415  1.00  0.00    -0.200 F 
ENDBRANCH  61  75
BRANCH  62  86
ATOM     86  C   UNL A   1      41.716  25.188  27.598  1.00  0.00     0.064 A 
ATOM     87  C   UNL A   1      42.118  24.095  28.375  1.00  0.00     0.173 A 
ATOM     88  C   UNL A   1      40.664  24.997  26.691  1.00  0.00     0.173 A 
ATOM     89  F   UNL A   1      43.138  24.224  29.236  1.00  0.00    -0.203 F 
ATOM     90  C   UNL A   1      41.491  22.857  28.252  1.00  0.00     0.198 A 
ATOM     91  C   UNL A   1      40.023  23.765  26.583  1.00  0.00     0.198 A 
ATOM     92  F   UNL A   1      40.249  26.012  25.920  1.00  0.00    -0.203 F 
ATOM     93  F   UNL A   1      41.910  21.819  28.988  1.00  0.00    -0.200 F 
ATOM     94  C   UNL A   1      40.438  22.695  27.363  1.00  0.00     0.200 A 
ATOM     95  F   UNL A   1      39.004  23.614  25.727  1.00  0.00    -0.200 F 
ATOM     96  F   UNL A   1      39.829  21.507  27.251  1.00  0.00    -0.200 F 
ENDBRANCH  62  86
BRANCH  74  97
ATOM     97  C   UNL A   1      47.964  27.714  25.780  1.00  0.00     0.064 A 
ATOM     98  C   UNL A   1      48.033  27.718  24.380  1.00  0.00     0.173 A 
ATOM     99  C   UNL A   1      49.062  27.210  26.494  1.00  0.00     0.173 A 
ATOM    100  F   UNL A   1      47.003  28.178  23.654  1.00  0.00    -0.203 F 
ATOM    101  C   UNL A   1      49.157  27.229  23.719  1.00  0.00     0.198 A 
ATOM    102  C   UNL A   1      50.194  26.744  25.830  1.00  0.00     0.198 A 
ATOM    103  F   UNL A   1      49.047  27.193  27.834  1.00  0.00    -0.203 F 
ATOM    104  F   UNL A   1      49.192  27.217  22.380  1.00  0.00    -0.200 F 
ATOM    105  C   UNL A   1      50.239  26.752  24.445  1.00  0.00     0.200 A 
ATOM    106  F   UNL A   1      51.244  26.297  26.532  1.00  0.00    -0.200 F 
ATOM    107  F   UNL A   1      51.327  26.297  23.806  1.00  0.00    -0.200 F 
ENDBRANCH  74  97
ENDBRANCH  48  49
ENDBRANCH  41  43
ENDBRANCH  40  41
ENDBRANCH  39  40
ENDBRANCH  38  39
ENDBRANCH  37  38
ENDBRANCH   1  37
TORSDOF 20
ENDMDL
