MODEL 1
REMARK VINA RESULT:     -13.4      0.000      0.000
REMARK SMILES O=C(OCCOCCOC(=O)c1ccc(-c2c3nc(c(-c4c(F)c(F)c(F)c(F)c4F)c4ccc([nH]4)c(-c4c(F)c(F)c(F)c(F)c4F)c4nc(c(-c5c(F)c(F)c(F)c(F)c5F)c5ccc2[nH]5)C=C4)C=C3)cc1)C1=Cc2ccc(Cl)c(Cl)c2O[C@@H]1C(F)(F)F
REMARK SMILES IDX 7 1 6 2 5 3 4 4 3 5 2 6 1 7 75 8 76 9 86 10 77 11 85 12
REMARK SMILES IDX 78 13 84 14 79 15 82 16 80 17 83 18 81 19 87 20 88 21 89 22
REMARK SMILES IDX 90 23 8 24 9 25 10 26 11 27 12 28 13 29 74 30 14 31 73 32
REMARK SMILES IDX 15 33 16 34 17 35 67 36 18 37 72 38 66 39 68 40 19 41 71 42
REMARK SMILES IDX 65 43 64 44 20 46 52 47 32 48 51 49 33 50 36 51 50 52 69 53
REMARK SMILES IDX 34 54 35 55 49 57 70 58 37 59 21 60 22 61 30 62 23 63 24 64
REMARK SMILES IDX 28 65 31 66 25 67 26 68 29 69 27 70 53 71 54 72 62 73 55 74
REMARK SMILES IDX 56 75 60 76 63 77 57 78 58 79 61 80 59 81 38 82 39 83 47 84
REMARK SMILES IDX 40 85 41 86 45 87 48 88 42 89 43 90 46 91 44 92
REMARK H PARENT 68 45 36 56
REMARK Flexibility Score: inf
ROOT
ATOM      1  C   UNL A   1      42.055  20.709  26.130  1.00  0.00     0.202 C 
ENDROOT
BRANCH   1   2
ATOM      2  O   UNL A   1      40.821  21.158  26.705  1.00  0.00    -0.374 OA
BRANCH   2   3
ATOM      3  C   UNL A   1      39.458  21.724  26.137  1.00  0.00     0.202 C 
BRANCH   3   4
ATOM      4  C   UNL A   1      37.798  20.822  25.044  1.00  0.00     0.261 C 
BRANCH   4   5
ATOM      5  O   UNL A   1      36.305  21.113  25.233  1.00  0.00    -0.460 OA
BRANCH   5   6
ATOM      6  C   UNL A   1      35.845  22.039  24.388  1.00  0.00     0.338 C 
ATOM      7  O   UNL A   1      36.419  22.630  23.512  1.00  0.00    -0.246 OA
BRANCH   6   8
ATOM      8  C   UNL A   1      34.628  22.314  25.121  1.00  0.00     0.087 C 
ATOM      9  C   UNL A   1      34.671  23.656  25.762  1.00  0.00     0.027 C 
ATOM     10  C   UNL A   1      33.414  21.812  23.699  1.00  0.00     0.316 C 
ATOM     11  C   UNL A   1      33.730  25.088  25.155  1.00  0.00     0.019 A 
ATOM     12  O   UNL A   1      32.455  23.335  23.000  1.00  0.00    -0.474 OA
ATOM     13  C   UNL A   1      34.016  26.320  25.676  1.00  0.00     0.013 A 
ATOM     14  C   UNL A   1      32.733  24.989  23.731  1.00  0.00     0.148 A 
ATOM     15  C   UNL A   1      33.538  27.404  24.924  1.00  0.00     0.023 A 
ATOM     16  C   UNL A   1      32.469  26.107  22.979  1.00  0.00     0.102 A 
ATOM     17  C   UNL A   1      32.870  27.310  23.629  1.00  0.00     0.063 A 
ATOM     18  Cl  UNL A   1      32.081  26.005  21.319  1.00  0.00    -0.079 Cl
ATOM     19  Cl  UNL A   1      32.699  28.858  22.852  1.00  0.00    -0.083 Cl
BRANCH  10  20
ATOM     20  C   UNL A   1      32.908  20.438  24.307  1.00  0.00     0.430 C 
ATOM     21  F   UNL A   1      32.103  20.534  25.379  1.00  0.00    -0.167 F 
ATOM     22  F   UNL A   1      32.139  19.838  23.348  1.00  0.00    -0.167 F 
ATOM     23  F   UNL A   1      33.886  19.541  24.564  1.00  0.00    -0.167 F 
ENDBRANCH  10  20
ENDBRANCH   6   8
ENDBRANCH   5   6
ENDBRANCH   4   5
ENDBRANCH   3   4
ENDBRANCH   2   3
ENDBRANCH   1   2
BRANCH   1  24
ATOM     24  C   UNL A   1      43.100  21.737  25.745  1.00  0.00     0.261 C 
BRANCH  24  25
ATOM     25  O   UNL A   1      42.521  22.950  25.311  1.00  0.00    -0.460 OA
BRANCH  25  26
ATOM     26  C   UNL A   1      43.373  23.995  25.272  1.00  0.00     0.338 C 
ATOM     27  O   UNL A   1      44.366  24.138  24.586  1.00  0.00    -0.246 OA
BRANCH  26  28
ATOM     28  C   UNL A   1      42.869  24.981  26.237  1.00  0.00     0.060 A 
ATOM     29  C   UNL A   1      43.451  26.249  26.259  1.00  0.00     0.016 A 
ATOM     30  C   UNL A   1      41.789  24.660  27.074  1.00  0.00     0.016 A 
ATOM     31  C   UNL A   1      42.919  27.223  27.096  1.00  0.00     0.010 A 
ATOM     32  C   UNL A   1      41.252  25.632  27.898  1.00  0.00     0.010 A 
ATOM     33  C   UNL A   1      41.820  26.914  27.911  1.00  0.00    -0.014 A 
BRANCH  33  34
ATOM     34  C   UNL A   1      41.421  27.826  28.992  1.00  0.00     0.031 A 
ATOM     35  C   UNL A   1      42.201  27.727  30.262  1.00  0.00     0.074 A 
ATOM     36  C   UNL A   1      40.369  28.650  28.871  1.00  0.00     0.049 A 
ATOM     37  N   UNL A   1      42.002  28.318  31.406  1.00  0.00    -0.248 NA
ATOM     38  C   UNL A   1      43.351  26.806  30.240  1.00  0.00     0.031 C 
ATOM     39  C   UNL A   1      39.555  28.809  27.672  1.00  0.00     0.029 A 
ATOM     40  N   UNL A   1      39.793  29.492  29.785  1.00  0.00    -0.354 N 
ATOM     41  C   UNL A   1      42.999  27.837  32.239  1.00  0.00     0.074 A 
ATOM     42  C   UNL A   1      43.772  26.876  31.489  1.00  0.00     0.031 C 
ATOM     43  C   UNL A   1      38.585  29.706  27.915  1.00  0.00     0.029 A 
ATOM     44  C   UNL A   1      38.673  30.128  29.311  1.00  0.00     0.049 A 
ATOM     45  H   UNL A   1      40.149  29.628  30.693  1.00  0.00     0.167 HD
ATOM     46  C   UNL A   1      43.243  28.175  33.524  1.00  0.00     0.037 A 
ATOM     47  C   UNL A   1      37.800  30.927  29.955  1.00  0.00     0.037 A 
ATOM     48  C   UNL A   1      42.424  29.093  34.264  1.00  0.00     0.049 A 
ATOM     49  C   UNL A   1      38.039  31.224  31.413  1.00  0.00     0.074 A 
ATOM     50  C   UNL A   1      42.565  29.510  35.571  1.00  0.00     0.029 A 
ATOM     51  N   UNL A   1      41.285  29.711  33.760  1.00  0.00    -0.354 N 
ATOM     52  N   UNL A   1      39.004  30.802  32.197  1.00  0.00    -0.248 NA
ATOM     53  C   UNL A   1      37.071  32.104  32.080  1.00  0.00     0.031 C 
ATOM     54  C   UNL A   1      41.468  30.317  35.886  1.00  0.00     0.029 A 
ATOM     55  C   UNL A   1      40.694  30.482  34.745  1.00  0.00     0.049 A 
ATOM     56  H   UNL A   1      40.950  29.614  32.839  1.00  0.00     0.167 HD
ATOM     57  C   UNL A   1      38.785  31.396  33.433  1.00  0.00     0.074 A 
ATOM     58  C   UNL A   1      37.591  32.205  33.295  1.00  0.00     0.031 C 
ATOM     59  C   UNL A   1      39.512  31.292  34.574  1.00  0.00     0.037 A 
BRANCH  46  60
ATOM     60  C   UNL A   1      44.390  27.483  34.197  1.00  0.00     0.064 A 
ATOM     61  C   UNL A   1      45.695  27.999  34.157  1.00  0.00     0.173 A 
ATOM     62  C   UNL A   1      44.190  26.253  34.839  1.00  0.00     0.173 A 
ATOM     63  F   UNL A   1      45.946  29.159  33.530  1.00  0.00    -0.203 F 
ATOM     64  C   UNL A   1      46.765  27.282  34.686  1.00  0.00     0.198 A 
ATOM     65  C   UNL A   1      45.255  25.561  35.407  1.00  0.00     0.198 A 
ATOM     66  F   UNL A   1      42.965  25.710  34.901  1.00  0.00    -0.203 F 
ATOM     67  F   UNL A   1      48.014  27.750  34.553  1.00  0.00    -0.200 F 
ATOM     68  C   UNL A   1      46.543  26.066  35.315  1.00  0.00     0.200 A 
ATOM     69  F   UNL A   1      45.037  24.391  36.023  1.00  0.00    -0.200 F 
ATOM     70  F   UNL A   1      47.574  25.372  35.815  1.00  0.00    -0.200 F 
ENDBRANCH  46  60
BRANCH  47  71
ATOM     71  C   UNL A   1      36.627  31.482  29.231  1.00  0.00     0.064 A 
ATOM     72  C   UNL A   1      36.560  32.841  28.894  1.00  0.00     0.173 A 
ATOM     73  C   UNL A   1      35.551  30.664  28.851  1.00  0.00     0.173 A 
ATOM     74  F   UNL A   1      37.551  33.669  29.254  1.00  0.00    -0.203 F 
ATOM     75  C   UNL A   1      35.458  33.363  28.220  1.00  0.00     0.198 A 
ATOM     76  C   UNL A   1      34.465  31.182  28.149  1.00  0.00     0.198 A 
ATOM     77  F   UNL A   1      35.563  29.356  29.146  1.00  0.00    -0.203 F 
ATOM     78  F   UNL A   1      35.400  34.674  27.948  1.00  0.00    -0.200 F 
ATOM     79  C   UNL A   1      34.414  32.532  27.839  1.00  0.00     0.200 A 
ATOM     80  F   UNL A   1      33.466  30.371  27.771  1.00  0.00    -0.200 F 
ATOM     81  F   UNL A   1      33.360  33.033  27.182  1.00  0.00    -0.200 F 
ENDBRANCH  47  71
BRANCH  59  82
ATOM     82  C   UNL A   1      39.089  32.123  35.751  1.00  0.00     0.064 A 
ATOM     83  C   UNL A   1      38.282  31.611  36.777  1.00  0.00     0.173 A 
ATOM     84  C   UNL A   1      39.586  33.429  35.894  1.00  0.00     0.173 A 
ATOM     85  F   UNL A   1      37.773  30.374  36.684  1.00  0.00    -0.203 F 
ATOM     86  C   UNL A   1      37.977  32.383  37.895  1.00  0.00     0.198 A 
ATOM     87  C   UNL A   1      39.312  34.181  37.031  1.00  0.00     0.198 A 
ATOM     88  F   UNL A   1      40.371  33.961  34.945  1.00  0.00    -0.203 F 
ATOM     89  F   UNL A   1      37.173  31.890  38.847  1.00  0.00    -0.200 F 
ATOM     90  C   UNL A   1      38.504  33.660  38.028  1.00  0.00     0.200 A 
ATOM     91  F   UNL A   1      39.843  35.404  37.167  1.00  0.00    -0.200 F 
ATOM     92  F   UNL A   1      38.230  34.389  39.118  1.00  0.00    -0.200 F 
ENDBRANCH  59  82
ENDBRANCH  33  34
ENDBRANCH  26  28
ENDBRANCH  25  26
ENDBRANCH  24  25
ENDBRANCH   1  24
TORSDOF 15
ENDMDL
MODEL 2
REMARK VINA RESULT:     -13.2      0.529      1.669
REMARK SMILES O=C(OCCOCCOC(=O)c1ccc(-c2c3nc(c(-c4c(F)c(F)c(F)c(F)c4F)c4ccc([nH]4)c(-c4c(F)c(F)c(F)c(F)c4F)c4nc(c(-c5c(F)c(F)c(F)c(F)c5F)c5ccc2[nH]5)C=C4)C=C3)cc1)C1=Cc2ccc(Cl)c(Cl)c2O[C@@H]1C(F)(F)F
REMARK SMILES IDX 7 1 6 2 5 3 4 4 3 5 2 6 1 7 75 8 76 9 86 10 77 11 85 12
REMARK SMILES IDX 78 13 84 14 79 15 82 16 80 17 83 18 81 19 87 20 88 21 89 22
REMARK SMILES IDX 90 23 8 24 9 25 10 26 11 27 12 28 13 29 74 30 14 31 73 32
REMARK SMILES IDX 15 33 16 34 17 35 67 36 18 37 72 38 66 39 68 40 19 41 71 42
REMARK SMILES IDX 65 43 64 44 20 46 52 47 32 48 51 49 33 50 36 51 50 52 69 53
REMARK SMILES IDX 34 54 35 55 49 57 70 58 37 59 21 60 22 61 30 62 23 63 24 64
REMARK SMILES IDX 28 65 31 66 25 67 26 68 29 69 27 70 53 71 54 72 62 73 55 74
REMARK SMILES IDX 56 75 60 76 63 77 57 78 58 79 61 80 59 81 38 82 39 83 47 84
REMARK SMILES IDX 40 85 41 86 45 87 48 88 42 89 43 90 46 91 44 92
REMARK H PARENT 68 45 36 56
REMARK Flexibility Score: inf
ROOT
ATOM      1  C   UNL A   1      42.973  21.049  26.097  1.00  0.00     0.202 C 
ENDROOT
BRANCH   1   2
ATOM      2  O   UNL A   1      41.601  20.812  25.762  1.00  0.00    -0.374 OA
BRANCH   2   3
ATOM      3  C   UNL A   1      40.207  21.149  26.430  1.00  0.00     0.202 C 
BRANCH   3   4
ATOM      4  C   UNL A   1      38.578  22.502  25.900  1.00  0.00     0.261 C 
BRANCH   4   5
ATOM      5  O   UNL A   1      37.075  22.226  26.024  1.00  0.00    -0.460 OA
BRANCH   5   6
ATOM      6  C   UNL A   1      36.434  22.310  24.856  1.00  0.00     0.338 C 
ATOM      7  O   UNL A   1      36.876  22.466  23.749  1.00  0.00    -0.246 OA
BRANCH   6   8
ATOM      8  C   UNL A   1      35.121  22.519  25.426  1.00  0.00     0.087 C 
ATOM      9  C   UNL A   1      34.986  23.889  25.991  1.00  0.00     0.027 C 
ATOM     10  C   UNL A   1      34.128  21.856  23.901  1.00  0.00     0.316 C 
ATOM     11  C   UNL A   1      34.021  25.211  25.200  1.00  0.00     0.019 A 
ATOM     12  O   UNL A   1      33.150  23.262  23.012  1.00  0.00    -0.474 OA
ATOM     13  C   UNL A   1      34.149  26.485  25.681  1.00  0.00     0.013 A 
ATOM     14  C   UNL A   1      33.213  24.966  23.677  1.00  0.00     0.148 A 
ATOM     15  C   UNL A   1      33.687  27.490  24.819  1.00  0.00     0.023 A 
ATOM     16  C   UNL A   1      32.960  26.023  22.838  1.00  0.00     0.102 A 
ATOM     17  C   UNL A   1      33.188  27.283  23.462  1.00  0.00     0.063 A 
ATOM     18  Cl  UNL A   1      32.783  25.813  21.152  1.00  0.00    -0.079 Cl
ATOM     19  Cl  UNL A   1      32.998  28.775  22.586  1.00  0.00    -0.083 Cl
BRANCH  10  20
ATOM     20  C   UNL A   1      33.656  20.475  24.522  1.00  0.00     0.430 C 
ATOM     21  F   UNL A   1      33.048  20.550  25.718  1.00  0.00    -0.167 F 
ATOM     22  F   UNL A   1      32.704  19.966  23.680  1.00  0.00    -0.167 F 
ATOM     23  F   UNL A   1      34.612  19.521  24.566  1.00  0.00    -0.167 F 
ENDBRANCH  10  20
ENDBRANCH   6   8
ENDBRANCH   5   6
ENDBRANCH   4   5
ENDBRANCH   3   4
ENDBRANCH   2   3
ENDBRANCH   1   2
BRANCH   1  24
ATOM     24  C   UNL A   1      43.749  22.088  25.312  1.00  0.00     0.261 C 
BRANCH  24  25
ATOM     25  O   UNL A   1      43.016  23.283  25.137  1.00  0.00    -0.460 OA
BRANCH  25  26
ATOM     26  C   UNL A   1      43.768  24.401  25.097  1.00  0.00     0.338 C 
ATOM     27  O   UNL A   1      44.734  24.640  24.399  1.00  0.00    -0.246 OA
BRANCH  26  28
ATOM     28  C   UNL A   1      43.191  25.328  26.078  1.00  0.00     0.060 A 
ATOM     29  C   UNL A   1      43.594  26.664  26.050  1.00  0.00     0.016 A 
ATOM     30  C   UNL A   1      42.216  24.881  26.983  1.00  0.00     0.016 A 
ATOM     31  C   UNL A   1      42.982  27.573  26.906  1.00  0.00     0.010 A 
ATOM     32  C   UNL A   1      41.599  25.787  27.826  1.00  0.00     0.010 A 
ATOM     33  C   UNL A   1      41.986  27.134  27.789  1.00  0.00    -0.014 A 
BRANCH  33  34
ATOM     34  C   UNL A   1      41.529  28.006  28.881  1.00  0.00     0.031 A 
ATOM     35  C   UNL A   1      42.299  27.923  30.157  1.00  0.00     0.074 A 
ATOM     36  C   UNL A   1      40.437  28.776  28.761  1.00  0.00     0.049 A 
ATOM     37  N   UNL A   1      42.058  28.484  31.309  1.00  0.00    -0.248 NA
ATOM     38  C   UNL A   1      43.495  27.063  30.133  1.00  0.00     0.031 C 
ATOM     39  C   UNL A   1      39.629  28.916  27.556  1.00  0.00     0.029 A 
ATOM     40  N   UNL A   1      39.809  29.572  29.683  1.00  0.00    -0.354 N 
ATOM     41  C   UNL A   1      43.069  28.039  32.146  1.00  0.00     0.074 A 
ATOM     42  C   UNL A   1      43.898  27.132  31.388  1.00  0.00     0.031 C 
ATOM     43  C   UNL A   1      38.612  29.757  27.804  1.00  0.00     0.029 A 
ATOM     44  C   UNL A   1      38.663  30.158  29.208  1.00  0.00     0.049 A 
ATOM     45  H   UNL A   1      40.148  29.710  30.597  1.00  0.00     0.167 HD
ATOM     46  C   UNL A   1      43.282  28.366  33.439  1.00  0.00     0.037 A 
ATOM     47  C   UNL A   1      37.744  30.899  29.855  1.00  0.00     0.037 A 
ATOM     48  C   UNL A   1      42.409  29.227  34.186  1.00  0.00     0.049 A 
ATOM     49  C   UNL A   1      37.951  31.182  31.321  1.00  0.00     0.074 A 
ATOM     50  C   UNL A   1      42.514  29.628  35.501  1.00  0.00     0.029 A 
ATOM     51  N   UNL A   1      41.245  29.796  33.678  1.00  0.00    -0.354 N 
ATOM     52  N   UNL A   1      38.928  30.797  32.108  1.00  0.00    -0.248 NA
ATOM     53  C   UNL A   1      36.933  32.000  31.991  1.00  0.00     0.031 C 
ATOM     54  C   UNL A   1      41.374  30.371  35.816  1.00  0.00     0.029 A 
ATOM     55  C   UNL A   1      40.605  30.518  34.670  1.00  0.00     0.049 A 
ATOM     56  H   UNL A   1      40.925  29.698  32.753  1.00  0.00     0.167 HD
ATOM     57  C   UNL A   1      38.666  31.356  33.352  1.00  0.00     0.074 A 
ATOM     58  C   UNL A   1      37.433  32.105  33.214  1.00  0.00     0.031 C 
ATOM     59  C   UNL A   1      39.384  31.269  34.499  1.00  0.00     0.037 A 
BRANCH  46  60
ATOM     60  C   UNL A   1      44.455  27.722  34.114  1.00  0.00     0.064 A 
ATOM     61  C   UNL A   1      44.336  26.510  34.813  1.00  0.00     0.173 A 
ATOM     62  C   UNL A   1      45.704  28.358  34.111  1.00  0.00     0.173 A 
ATOM     63  F   UNL A   1      43.155  25.874  34.871  1.00  0.00    -0.203 F 
ATOM     64  C   UNL A   1      45.409  25.990  35.532  1.00  0.00     0.198 A 
ATOM     65  C   UNL A   1      46.787  27.811  34.792  1.00  0.00     0.198 A 
ATOM     66  F   UNL A   1      45.873  29.520  33.464  1.00  0.00    -0.203 F 
ATOM     67  F   UNL A   1      45.246  24.882  36.269  1.00  0.00    -0.200 F 
ATOM     68  C   UNL A   1      46.635  26.638  35.516  1.00  0.00     0.200 A 
ATOM     69  F   UNL A   1      47.974  28.433  34.767  1.00  0.00    -0.200 F 
ATOM     70  F   UNL A   1      47.665  26.142  36.214  1.00  0.00    -0.200 F 
ENDBRANCH  46  60
BRANCH  47  71
ATOM     71  C   UNL A   1      36.551  31.406  29.127  1.00  0.00     0.064 A 
ATOM     72  C   UNL A   1      35.499  30.549  28.774  1.00  0.00     0.173 A 
ATOM     73  C   UNL A   1      36.432  32.760  28.776  1.00  0.00     0.173 A 
ATOM     74  F   UNL A   1      35.574  29.243  29.066  1.00  0.00    -0.203 F 
ATOM     75  C   UNL A   1      34.383  31.023  28.087  1.00  0.00     0.198 A 
ATOM     76  C   UNL A   1      35.301  33.238  28.118  1.00  0.00     0.198 A 
ATOM     77  F   UNL A   1      37.408  33.625  29.089  1.00  0.00    -0.203 F 
ATOM     78  F   UNL A   1      33.411  30.174  27.725  1.00  0.00    -0.200 F 
ATOM     79  C   UNL A   1      34.280  32.368  27.767  1.00  0.00     0.200 A 
ATOM     80  F   UNL A   1      35.200  34.542  27.823  1.00  0.00    -0.200 F 
ATOM     81  F   UNL A   1      33.202  32.825  27.115  1.00  0.00    -0.200 F 
ENDBRANCH  47  71
BRANCH  59  82
ATOM     82  C   UNL A   1      38.907  32.056  35.686  1.00  0.00     0.064 A 
ATOM     83  C   UNL A   1      38.188  31.466  36.734  1.00  0.00     0.173 A 
ATOM     84  C   UNL A   1      39.264  33.408  35.811  1.00  0.00     0.173 A 
ATOM     85  F   UNL A   1      37.813  30.181  36.659  1.00  0.00    -0.203 F 
ATOM     86  C   UNL A   1      37.832  32.207  37.859  1.00  0.00     0.198 A 
ATOM     87  C   UNL A   1      38.942  34.133  36.953  1.00  0.00     0.198 A 
ATOM     88  F   UNL A   1      39.961  34.017  34.840  1.00  0.00    -0.203 F 
ATOM     89  F   UNL A   1      37.112  31.636  38.834  1.00  0.00    -0.200 F 
ATOM     90  C   UNL A   1      38.222  33.534  37.974  1.00  0.00     0.200 A 
ATOM     91  F   UNL A   1      39.341  35.407  37.072  1.00  0.00    -0.200 F 
ATOM     92  F   UNL A   1      37.901  34.235  39.070  1.00  0.00    -0.200 F 
ENDBRANCH  59  82
ENDBRANCH  33  34
ENDBRANCH  26  28
ENDBRANCH  25  26
ENDBRANCH  24  25
ENDBRANCH   1  24
TORSDOF 15
ENDMDL
MODEL 3
REMARK VINA RESULT:     -13.0      1.719      2.061
REMARK SMILES O=C(OCCOCCOC(=O)c1ccc(-c2c3nc(c(-c4c(F)c(F)c(F)c(F)c4F)c4ccc([nH]4)c(-c4c(F)c(F)c(F)c(F)c4F)c4nc(c(-c5c(F)c(F)c(F)c(F)c5F)c5ccc2[nH]5)C=C4)C=C3)cc1)C1=Cc2ccc(Cl)c(Cl)c2O[C@@H]1C(F)(F)F
REMARK SMILES IDX 7 1 6 2 5 3 4 4 3 5 2 6 1 7 75 8 76 9 86 10 77 11 85 12
REMARK SMILES IDX 78 13 84 14 79 15 82 16 80 17 83 18 81 19 87 20 88 21 89 22
REMARK SMILES IDX 90 23 8 24 9 25 10 26 11 27 12 28 13 29 74 30 14 31 73 32
REMARK SMILES IDX 15 33 16 34 17 35 67 36 18 37 72 38 66 39 68 40 19 41 71 42
REMARK SMILES IDX 65 43 64 44 20 46 52 47 32 48 51 49 33 50 36 51 50 52 69 53
REMARK SMILES IDX 34 54 35 55 49 57 70 58 37 59 21 60 22 61 30 62 23 63 24 64
REMARK SMILES IDX 28 65 31 66 25 67 26 68 29 69 27 70 53 71 54 72 62 73 55 74
REMARK SMILES IDX 56 75 60 76 63 77 57 78 58 79 61 80 59 81 38 82 39 83 47 84
REMARK SMILES IDX 40 85 41 86 45 87 48 88 42 89 43 90 46 91 44 92
REMARK H PARENT 68 45 36 56
REMARK Flexibility Score: inf
ROOT
ATOM      1  C   UNL A   1      42.126  21.121  27.110  1.00  0.00     0.202 C 
ENDROOT
BRANCH   1   2
ATOM      2  O   UNL A   1      41.249  20.000  26.947  1.00  0.00    -0.374 OA
BRANCH   2   3
ATOM      3  C   UNL A   1      40.316  19.463  25.788  1.00  0.00     0.202 C 
BRANCH   3   4
ATOM      4  C   UNL A   1      38.201  19.731  25.320  1.00  0.00     0.261 C 
BRANCH   4   5
ATOM      5  O   UNL A   1      37.596  20.741  24.338  1.00  0.00    -0.460 OA
BRANCH   5   6
ATOM      6  C   UNL A   1      36.412  21.209  24.738  1.00  0.00     0.338 C 
ATOM      7  O   UNL A   1      35.414  20.609  25.041  1.00  0.00    -0.246 OA
BRANCH   6   8
ATOM      8  C   UNL A   1      36.646  22.574  24.321  1.00  0.00     0.087 C 
ATOM      9  C   UNL A   1      35.792  22.942  23.159  1.00  0.00     0.027 C 
ATOM     10  C   UNL A   1      36.498  23.355  26.086  1.00  0.00     0.316 C 
ATOM     11  C   UNL A   1      34.340  24.030  23.285  1.00  0.00     0.019 A 
ATOM     12  O   UNL A   1      34.924  24.462  26.254  1.00  0.00    -0.474 OA
ATOM     13  C   UNL A   1      33.501  24.118  22.209  1.00  0.00     0.013 A 
ATOM     14  C   UNL A   1      33.822  24.688  24.811  1.00  0.00     0.148 A 
ATOM     15  C   UNL A   1      32.238  24.660  22.489  1.00  0.00     0.023 A 
ATOM     16  C   UNL A   1      32.510  25.033  25.018  1.00  0.00     0.102 A 
ATOM     17  C   UNL A   1      31.747  25.030  23.814  1.00  0.00     0.063 A 
ATOM     18  Cl  UNL A   1      31.821  25.062  26.581  1.00  0.00    -0.079 Cl
ATOM     19  Cl  UNL A   1      30.040  25.372  23.823  1.00  0.00    -0.083 Cl
BRANCH  10  20
ATOM     20  C   UNL A   1      38.033  23.666  26.326  1.00  0.00     0.430 C 
ATOM     21  F   UNL A   1      38.642  24.383  25.366  1.00  0.00    -0.167 F 
ATOM     22  F   UNL A   1      38.110  24.450  27.445  1.00  0.00    -0.167 F 
ATOM     23  F   UNL A   1      38.789  22.584  26.620  1.00  0.00    -0.167 F 
ENDBRANCH  10  20
ENDBRANCH   6   8
ENDBRANCH   5   6
ENDBRANCH   4   5
ENDBRANCH   3   4
ENDBRANCH   2   3
ENDBRANCH   1   2
BRANCH   1  24
ATOM     24  C   UNL A   1      42.835  21.680  25.893  1.00  0.00     0.261 C 
BRANCH  24  25
ATOM     25  O   UNL A   1      42.230  22.864  25.419  1.00  0.00    -0.460 OA
BRANCH  25  26
ATOM     26  C   UNL A   1      43.068  23.914  25.302  1.00  0.00     0.338 C 
ATOM     27  O   UNL A   1      44.023  24.042  24.560  1.00  0.00    -0.246 OA
BRANCH  26  28
ATOM     28  C   UNL A   1      42.606  24.926  26.260  1.00  0.00     0.060 A 
ATOM     29  C   UNL A   1      43.230  26.175  26.262  1.00  0.00     0.016 A 
ATOM     30  C   UNL A   1      41.525  24.650  27.111  1.00  0.00     0.016 A 
ATOM     31  C   UNL A   1      42.737  27.175  27.093  1.00  0.00     0.010 A 
ATOM     32  C   UNL A   1      41.027  25.649  27.929  1.00  0.00     0.010 A 
ATOM     33  C   UNL A   1      41.638  26.912  27.921  1.00  0.00    -0.014 A 
BRANCH  33  34
ATOM     34  C   UNL A   1      41.279  27.848  28.995  1.00  0.00     0.031 A 
ATOM     35  C   UNL A   1      42.076  27.747  30.254  1.00  0.00     0.074 A 
ATOM     36  C   UNL A   1      40.246  28.697  28.879  1.00  0.00     0.049 A 
ATOM     37  N   UNL A   1      41.911  28.359  31.392  1.00  0.00    -0.248 NA
ATOM     38  C   UNL A   1      43.203  26.797  30.227  1.00  0.00     0.031 C 
ATOM     39  C   UNL A   1      39.417  28.860  27.691  1.00  0.00     0.029 A 
ATOM     40  N   UNL A   1      39.706  29.566  29.790  1.00  0.00    -0.354 N 
ATOM     41  C   UNL A   1      42.909  27.864  32.217  1.00  0.00     0.074 A 
ATOM     42  C   UNL A   1      43.645  26.873  31.468  1.00  0.00     0.031 C 
ATOM     43  C   UNL A   1      38.474  29.785  27.937  1.00  0.00     0.029 A 
ATOM     44  C   UNL A   1      38.595  30.224  29.325  1.00  0.00     0.049 A 
ATOM     45  H   UNL A   1      40.080  29.705  30.690  1.00  0.00     0.167 HD
ATOM     46  C   UNL A   1      43.182  28.213  33.493  1.00  0.00     0.037 A 
ATOM     47  C   UNL A   1      37.753  31.052  29.971  1.00  0.00     0.037 A 
ATOM     48  C   UNL A   1      42.398  29.162  34.233  1.00  0.00     0.049 A 
ATOM     49  C   UNL A   1      38.023  31.363  31.421  1.00  0.00     0.074 A 
ATOM     50  C   UNL A   1      42.571  29.594  35.531  1.00  0.00     0.029 A 
ATOM     51  N   UNL A   1      41.267  29.802  33.737  1.00  0.00    -0.354 N 
ATOM     52  N   UNL A   1      38.989  30.929  32.196  1.00  0.00    -0.248 NA
ATOM     53  C   UNL A   1      37.088  32.277  32.090  1.00  0.00     0.031 C 
ATOM     54  C   UNL A   1      41.499  30.431  35.851  1.00  0.00     0.029 A 
ATOM     55  C   UNL A   1      40.712  30.601  34.721  1.00  0.00     0.049 A 
ATOM     56  H   UNL A   1      40.915  29.701  32.824  1.00  0.00     0.167 HD
ATOM     57  C   UNL A   1      38.806  31.545  33.426  1.00  0.00     0.074 A 
ATOM     58  C   UNL A   1      37.630  32.381  33.296  1.00  0.00     0.031 C 
ATOM     59  C   UNL A   1      39.547  31.438  34.557  1.00  0.00     0.037 A 
BRANCH  46  60
ATOM     60  C   UNL A   1      44.322  27.502  34.158  1.00  0.00     0.064 A 
ATOM     61  C   UNL A   1      45.633  28.003  34.120  1.00  0.00     0.173 A 
ATOM     62  C   UNL A   1      44.109  26.268  34.788  1.00  0.00     0.173 A 
ATOM     63  F   UNL A   1      45.896  29.166  33.504  1.00  0.00    -0.203 F 
ATOM     64  C   UNL A   1      46.695  27.269  34.640  1.00  0.00     0.198 A 
ATOM     65  C   UNL A   1      45.167  25.559  35.347  1.00  0.00     0.198 A 
ATOM     66  F   UNL A   1      42.878  25.740  34.847  1.00  0.00    -0.203 F 
ATOM     67  F   UNL A   1      47.949  27.723  34.509  1.00  0.00    -0.200 F 
ATOM     68  C   UNL A   1      46.460  26.050  35.258  1.00  0.00     0.200 A 
ATOM     69  F   UNL A   1      44.936  24.386  35.953  1.00  0.00    -0.200 F 
ATOM     70  F   UNL A   1      47.484  25.339  35.750  1.00  0.00    -0.200 F 
ENDBRANCH  46  60
BRANCH  47  71
ATOM     71  C   UNL A   1      36.582  31.627  29.258  1.00  0.00     0.064 A 
ATOM     72  C   UNL A   1      36.549  32.980  28.892  1.00  0.00     0.173 A 
ATOM     73  C   UNL A   1      35.475  30.835  28.918  1.00  0.00     0.173 A 
ATOM     74  F   UNL A   1      37.572  33.785  29.213  1.00  0.00    -0.203 F 
ATOM     75  C   UNL A   1      35.450  33.520  28.228  1.00  0.00     0.198 A 
ATOM     76  C   UNL A   1      34.390  31.369  28.226  1.00  0.00     0.198 A 
ATOM     77  F   UNL A   1      35.453  29.534  29.244  1.00  0.00    -0.203 F 
ATOM     78  F   UNL A   1      35.426  34.826  27.927  1.00  0.00    -0.200 F 
ATOM     79  C   UNL A   1      34.374  32.713  27.887  1.00  0.00     0.200 A 
ATOM     80  F   UNL A   1      33.360  30.582  27.887  1.00  0.00    -0.200 F 
ATOM     81  F   UNL A   1      33.322  33.232  27.240  1.00  0.00    -0.200 F 
ENDBRANCH  47  71
BRANCH  59  82
ATOM     82  C   UNL A   1      39.165  32.295  35.729  1.00  0.00     0.064 A 
ATOM     83  C   UNL A   1      38.344  31.826  36.763  1.00  0.00     0.173 A 
ATOM     84  C   UNL A   1      39.714  33.581  35.857  1.00  0.00     0.173 A 
ATOM     85  F   UNL A   1      37.785  30.609  36.685  1.00  0.00    -0.203 F 
ATOM     86  C   UNL A   1      38.076  32.618  37.876  1.00  0.00     0.198 A 
ATOM     87  C   UNL A   1      39.476  34.354  36.989  1.00  0.00     0.198 A 
ATOM     88  F   UNL A   1      40.514  34.074  34.900  1.00  0.00    -0.203 F 
ATOM     89  F   UNL A   1      37.258  32.167  38.837  1.00  0.00    -0.200 F 
ATOM     90  C   UNL A   1      38.654  33.875  37.995  1.00  0.00     0.200 A 
ATOM     91  F   UNL A   1      40.056  35.556  37.111  1.00  0.00    -0.200 F 
ATOM     92  F   UNL A   1      38.416  34.624  39.080  1.00  0.00    -0.200 F 
ENDBRANCH  59  82
ENDBRANCH  33  34
ENDBRANCH  26  28
ENDBRANCH  25  26
ENDBRANCH  24  25
ENDBRANCH   1  24
TORSDOF 15
ENDMDL
