MODEL 1
REMARK VINA RESULT:     -10.4      0.000      0.000
REMARK SMILES CC(=O)NNC(=O)CSC[C@@H]([NH3+])C(=O)OCCOCCOC(=O)c1ccc(-c2c3nc(c(-c4c(F)c(F)c(F)c(F)c4F)c4ccc([nH]4)c(-c4c(F)c(F)c(F)c(F)c4F)c4nc(c(-c5c(F)c(F)c(F)c(F)c5F)c5ccc2[nH]5)C=C4)C=C3)cc1
REMARK SMILES IDX 16 1 15 2 13 3 14 4 11 5 10 6 9 7 8 8 6 9 5 10 7 12 4 13
REMARK SMILES IDX 1 14 2 15 3 16 12 18 17 22 18 23 19 24 20 25 21 26 22 27
REMARK SMILES IDX 23 28 24 29 25 30 86 31 26 32 85 33 27 34 28 35 29 36 79 37
REMARK SMILES IDX 30 38 84 39 78 40 80 41 31 42 83 43 77 44 76 45 32 47 64 48
REMARK SMILES IDX 44 49 63 50 45 51 48 52 62 53 81 54 46 55 47 56 61 58 82 59
REMARK SMILES IDX 49 60 33 61 34 62 42 63 35 64 36 65 40 66 43 67 37 68 38 69
REMARK SMILES IDX 41 70 39 71 65 72 66 73 74 74 67 75 68 76 72 77 75 78 69 79
REMARK SMILES IDX 70 80 73 81 71 82 50 83 51 84 59 85 52 86 53 87 57 88 60 89
REMARK SMILES IDX 54 90 55 91 58 92 56 93
REMARK H PARENT 5 11 4 17 12 19 12 20 12 21 80 46 48 57
REMARK Flexibility Score: inf
ROOT
ATOM      1  C   UNL A   1      31.718  26.458  23.712  1.00  0.00     0.261 C 
ENDROOT
BRANCH   1   2
ATOM      2  O   UNL A   1      31.725  25.383  22.760  1.00  0.00    -0.459 OA
BRANCH   2   3
ATOM      3  C   UNL A   1      32.945  25.048  22.266  1.00  0.00     0.365 C 
ATOM      4  O   UNL A   1      33.671  25.801  21.621  1.00  0.00    -0.245 OA
BRANCH   3   5
ATOM      5  C   UNL A   1      33.395  23.623  22.639  1.00  0.00     0.301 C 
BRANCH   5   6
ATOM      6  C   UNL A   1      33.904  23.474  24.081  1.00  0.00     0.147 C 
BRANCH   6   7
ATOM      7  S   UNL A   1      35.735  23.297  24.207  1.00  0.00    -0.145 SA
BRANCH   7   8
ATOM      8  C   UNL A   1      35.874  22.119  25.597  1.00  0.00     0.171 C 
BRANCH   8   9
ATOM      9  C   UNL A   1      36.468  20.794  25.159  1.00  0.00     0.248 C 
ATOM     10  N   UNL A   1      35.642  19.707  25.014  1.00  0.00    -0.267 N 
ATOM     11  H   UNL A   1      36.050  18.850  24.754  1.00  0.00     0.191 HD
ATOM     12  O   UNL A   1      37.670  20.661  24.928  1.00  0.00    -0.272 OA
BRANCH  10  13
ATOM     13  N   UNL A   1      34.263  19.737  25.208  1.00  0.00    -0.268 N 
ATOM     14  C   UNL A   1      34.022  17.526  24.154  1.00  0.00     0.116 C 
ATOM     15  C   UNL A   1      33.417  18.726  24.829  1.00  0.00     0.235 C 
ATOM     16  O   UNL A   1      32.206  18.823  25.024  1.00  0.00    -0.274 OA
ATOM     17  H   UNL A   1      33.875  20.530  25.643  1.00  0.00     0.191 HD
ENDBRANCH  10  13
ENDBRANCH   8   9
ENDBRANCH   7   8
ENDBRANCH   6   7
ENDBRANCH   5   6
BRANCH   5  18
ATOM     18  N   UNL A   1      32.282  22.695  22.329  1.00  0.00    -0.345 N 
ATOM     19  H   UNL A   1      32.375  21.851  22.895  1.00  0.00     0.345 HD
ATOM     20  H   UNL A   1      32.312  22.446  21.340  1.00  0.00     0.345 HD
ATOM     21  H   UNL A   1      31.392  23.148  22.539  1.00  0.00     0.345 HD
ENDBRANCH   5  18
ENDBRANCH   3   5
ENDBRANCH   2   3
ENDBRANCH   1   2
BRANCH   1  22
ATOM     22  C   UNL A   1      31.318  27.783  23.058  1.00  0.00     0.202 C 
BRANCH  22  23
ATOM     23  O   UNL A   1      31.040  28.865  23.944  1.00  0.00    -0.374 OA
BRANCH  23  24
ATOM     24  C   UNL A   1      31.956  29.102  25.014  1.00  0.00     0.202 C 
BRANCH  24  25
ATOM     25  C   UNL A   1      31.772  30.404  25.804  1.00  0.00     0.261 C 
BRANCH  25  26
ATOM     26  O   UNL A   1      32.459  30.380  27.071  1.00  0.00    -0.460 OA
BRANCH  26  27
ATOM     27  C   UNL A   1      33.187  31.489  27.332  1.00  0.00     0.338 C 
ATOM     28  O   UNL A   1      32.778  32.644  27.405  1.00  0.00    -0.246 OA
BRANCH  27  29
ATOM     29  C   UNL A   1      34.573  31.146  27.695  1.00  0.00     0.060 A 
ATOM     30  C   UNL A   1      34.863  29.788  27.885  1.00  0.00     0.016 A 
ATOM     31  C   UNL A   1      35.529  32.122  27.984  1.00  0.00     0.016 A 
ATOM     32  C   UNL A   1      36.074  29.405  28.452  1.00  0.00     0.010 A 
ATOM     33  C   UNL A   1      36.748  31.735  28.559  1.00  0.00     0.010 A 
ATOM     34  C   UNL A   1      36.999  30.381  28.849  1.00  0.00    -0.014 A 
BRANCH  34  35
ATOM     35  C   UNL A   1      38.100  29.979  29.761  1.00  0.00     0.031 A 
ATOM     36  C   UNL A   1      39.161  29.045  29.242  1.00  0.00     0.074 A 
ATOM     37  C   UNL A   1      38.210  30.503  30.994  1.00  0.00     0.049 A 
ATOM     38  N   UNL A   1      40.255  28.620  29.822  1.00  0.00    -0.248 NA
ATOM     39  C   UNL A   1      38.963  28.520  27.881  1.00  0.00     0.031 C 
ATOM     40  C   UNL A   1      37.272  31.446  31.598  1.00  0.00     0.029 A 
ATOM     41  N   UNL A   1      39.176  30.323  31.953  1.00  0.00    -0.354 N 
ATOM     42  C   UNL A   1      40.870  27.781  28.902  1.00  0.00     0.074 A 
ATOM     43  C   UNL A   1      40.014  27.726  27.738  1.00  0.00     0.031 C 
ATOM     44  C   UNL A   1      37.713  31.770  32.827  1.00  0.00     0.029 A 
ATOM     45  C   UNL A   1      38.954  31.046  33.098  1.00  0.00     0.049 A 
ATOM     46  H   UNL A   1      39.952  29.731  31.832  1.00  0.00     0.167 HD
ATOM     47  C   UNL A   1      42.051  27.125  29.009  1.00  0.00     0.037 A 
ATOM     48  C   UNL A   1      39.676  31.117  34.234  1.00  0.00     0.037 A 
ATOM     49  C   UNL A   1      42.914  27.187  30.158  1.00  0.00     0.049 A 
ATOM     50  C   UNL A   1      40.967  30.346  34.343  1.00  0.00     0.074 A 
ATOM     51  C   UNL A   1      44.137  26.571  30.354  1.00  0.00     0.029 A 
ATOM     52  N   UNL A   1      42.639  27.909  31.309  1.00  0.00    -0.354 N 
ATOM     53  N   UNL A   1      41.557  29.584  33.454  1.00  0.00    -0.248 NA
ATOM     54  C   UNL A   1      41.698  30.459  35.614  1.00  0.00     0.031 C 
ATOM     55  C   UNL A   1      44.585  26.889  31.642  1.00  0.00     0.029 A 
ATOM     56  C   UNL A   1      43.662  27.739  32.228  1.00  0.00     0.049 A 
ATOM     57  H   UNL A   1      41.836  28.460  31.453  1.00  0.00     0.167 HD
ATOM     58  C   UNL A   1      42.743  29.160  34.040  1.00  0.00     0.074 A 
ATOM     59  C   UNL A   1      42.793  29.753  35.360  1.00  0.00     0.031 C 
ATOM     60  C   UNL A   1      43.707  28.355  33.529  1.00  0.00     0.037 A 
BRANCH  47  61
ATOM     61  C   UNL A   1      42.467  26.262  27.854  1.00  0.00     0.064 A 
ATOM     62  C   UNL A   1      42.003  24.946  27.712  1.00  0.00     0.173 A 
ATOM     63  C   UNL A   1      43.325  26.767  26.865  1.00  0.00     0.173 A 
ATOM     64  F   UNL A   1      41.195  24.412  28.640  1.00  0.00    -0.203 F 
ATOM     65  C   UNL A   1      42.406  24.157  26.637  1.00  0.00     0.198 A 
ATOM     66  C   UNL A   1      43.703  25.985  25.778  1.00  0.00     0.198 A 
ATOM     67  F   UNL A   1      43.794  28.021  26.953  1.00  0.00    -0.203 F 
ATOM     68  F   UNL A   1      41.989  22.887  26.547  1.00  0.00    -0.200 F 
ATOM     69  C   UNL A   1      43.250  24.679  25.668  1.00  0.00     0.200 A 
ATOM     70  F   UNL A   1      44.512  26.494  24.837  1.00  0.00    -0.200 F 
ATOM     71  F   UNL A   1      43.633  23.921  24.633  1.00  0.00    -0.200 F 
ENDBRANCH  47  61
BRANCH  48  72
ATOM     72  C   UNL A   1      39.211  31.969  35.358  1.00  0.00     0.064 A 
ATOM     73  C   UNL A   1      39.560  33.324  35.432  1.00  0.00     0.173 A 
ATOM     74  C   UNL A   1      38.429  31.439  36.394  1.00  0.00     0.173 A 
ATOM     75  F   UNL A   1      40.330  33.870  34.478  1.00  0.00    -0.203 F 
ATOM     76  C   UNL A   1      39.160  34.113  36.509  1.00  0.00     0.198 A 
ATOM     77  C   UNL A   1      38.008  32.234  37.458  1.00  0.00     0.198 A 
ATOM     78  F   UNL A   1      38.071  30.147  36.372  1.00  0.00    -0.203 F 
ATOM     79  F   UNL A   1      39.547  35.394  36.578  1.00  0.00    -0.200 F 
ATOM     80  C   UNL A   1      38.381  33.569  37.518  1.00  0.00     0.200 A 
ATOM     81  F   UNL A   1      37.248  31.707  38.427  1.00  0.00    -0.200 F 
ATOM     82  F   UNL A   1      37.997  34.328  38.553  1.00  0.00    -0.200 F 
ENDBRANCH  48  72
BRANCH  60  83
ATOM     83  C   UNL A   1      44.924  28.113  34.375  1.00  0.00     0.064 A 
ATOM     84  C   UNL A   1      46.038  28.963  34.327  1.00  0.00     0.173 A 
ATOM     85  C   UNL A   1      44.958  27.033  35.271  1.00  0.00     0.173 A 
ATOM     86  F   UNL A   1      46.060  30.002  33.479  1.00  0.00    -0.203 F 
ATOM     87  C   UNL A   1      47.155  28.723  35.124  1.00  0.00     0.198 A 
ATOM     88  C   UNL A   1      46.064  26.813  36.086  1.00  0.00     0.198 A 
ATOM     89  F   UNL A   1      43.914  26.196  35.361  1.00  0.00    -0.203 F 
ATOM     90  F   UNL A   1      48.228  29.519  35.027  1.00  0.00    -0.200 F 
ATOM     91  C   UNL A   1      47.164  27.653  36.006  1.00  0.00     0.200 A 
ATOM     92  F   UNL A   1      46.067  25.786  36.947  1.00  0.00    -0.200 F 
ATOM     93  F   UNL A   1      48.239  27.425  36.775  1.00  0.00    -0.200 F 
ENDBRANCH  60  83
ENDBRANCH  34  35
ENDBRANCH  27  29
ENDBRANCH  26  27
ENDBRANCH  25  26
ENDBRANCH  24  25
ENDBRANCH  23  24
ENDBRANCH  22  23
ENDBRANCH   1  22
TORSDOF 20
ENDMDL
MODEL 2
REMARK VINA RESULT:     -10.2      1.474      7.771
REMARK SMILES CC(=O)NNC(=O)CSC[C@@H]([NH3+])C(=O)OCCOCCOC(=O)c1ccc(-c2c3nc(c(-c4c(F)c(F)c(F)c(F)c4F)c4ccc([nH]4)c(-c4c(F)c(F)c(F)c(F)c4F)c4nc(c(-c5c(F)c(F)c(F)c(F)c5F)c5ccc2[nH]5)C=C4)C=C3)cc1
REMARK SMILES IDX 16 1 15 2 13 3 14 4 11 5 10 6 9 7 8 8 6 9 5 10 7 12 4 13
REMARK SMILES IDX 1 14 2 15 3 16 12 18 17 22 18 23 19 24 20 25 21 26 22 27
REMARK SMILES IDX 23 28 24 29 25 30 86 31 26 32 85 33 27 34 28 35 29 36 79 37
REMARK SMILES IDX 30 38 84 39 78 40 80 41 31 42 83 43 77 44 76 45 32 47 64 48
REMARK SMILES IDX 44 49 63 50 45 51 48 52 62 53 81 54 46 55 47 56 61 58 82 59
REMARK SMILES IDX 49 60 33 61 34 62 42 63 35 64 36 65 40 66 43 67 37 68 38 69
REMARK SMILES IDX 41 70 39 71 65 72 66 73 74 74 67 75 68 76 72 77 75 78 69 79
REMARK SMILES IDX 70 80 73 81 71 82 50 83 51 84 59 85 52 86 53 87 57 88 60 89
REMARK SMILES IDX 54 90 55 91 58 92 56 93
REMARK H PARENT 5 11 4 17 12 19 12 20 12 21 80 46 48 57
REMARK Flexibility Score: inf
ROOT
ATOM      1  C   UNL A   1      30.782  26.895  24.190  1.00  0.00     0.261 C 
ENDROOT
BRANCH   1   2
ATOM      2  O   UNL A   1      30.692  25.503  24.529  1.00  0.00    -0.459 OA
BRANCH   2   3
ATOM      3  C   UNL A   1      30.415  25.236  25.832  1.00  0.00     0.365 C 
ATOM      4  O   UNL A   1      29.565  25.819  26.501  1.00  0.00    -0.245 OA
BRANCH   3   5
ATOM      5  C   UNL A   1      31.231  24.066  26.412  1.00  0.00     0.301 C 
BRANCH   5   6
ATOM      6  C   UNL A   1      31.033  22.729  25.683  1.00  0.00     0.147 C 
BRANCH   6   7
ATOM      7  S   UNL A   1      32.501  22.191  24.707  1.00  0.00    -0.145 SA
BRANCH   7   8
ATOM      8  C   UNL A   1      33.173  20.878  25.786  1.00  0.00     0.171 C 
BRANCH   8   9
ATOM      9  C   UNL A   1      33.943  21.450  26.962  1.00  0.00     0.248 C 
ATOM     10  N   UNL A   1      35.306  21.583  26.866  1.00  0.00    -0.267 N 
ATOM     11  H   UNL A   1      35.790  21.932  27.649  1.00  0.00     0.191 HD
ATOM     12  O   UNL A   1      33.382  21.802  28.000  1.00  0.00    -0.272 OA
BRANCH  10  13
ATOM     13  N   UNL A   1      36.049  21.258  25.735  1.00  0.00    -0.268 N 
ATOM     14  C   UNL A   1      36.286  23.638  25.152  1.00  0.00     0.116 C 
ATOM     15  C   UNL A   1      36.561  22.186  24.864  1.00  0.00     0.235 C 
ATOM     16  O   UNL A   1      37.203  21.828  23.878  1.00  0.00    -0.274 OA
ATOM     17  H   UNL A   1      36.218  20.306  25.550  1.00  0.00     0.191 HD
ENDBRANCH  10  13
ENDBRANCH   8   9
ENDBRANCH   7   8
ENDBRANCH   6   7
ENDBRANCH   5   6
BRANCH   5  18
ATOM     18  N   UNL A   1      32.653  24.481  26.466  1.00  0.00    -0.345 N 
ATOM     19  H   UNL A   1      32.856  25.098  25.680  1.00  0.00     0.345 HD
ATOM     20  H   UNL A   1      33.251  23.656  26.413  1.00  0.00     0.345 HD
ATOM     21  H   UNL A   1      32.831  24.975  27.340  1.00  0.00     0.345 HD
ENDBRANCH   5  18
ENDBRANCH   3   5
ENDBRANCH   2   3
ENDBRANCH   1   2
BRANCH   1  22
ATOM     22  C   UNL A   1      32.181  27.450  24.470  1.00  0.00     0.202 C 
BRANCH  22  23
ATOM     23  O   UNL A   1      32.272  28.449  25.483  1.00  0.00    -0.374 OA
BRANCH  23  24
ATOM     24  C   UNL A   1      31.428  29.595  25.365  1.00  0.00     0.202 C 
BRANCH  24  25
ATOM     25  C   UNL A   1      31.776  30.801  26.248  1.00  0.00     0.261 C 
BRANCH  25  26
ATOM     26  O   UNL A   1      32.824  30.506  27.193  1.00  0.00    -0.460 OA
BRANCH  26  27
ATOM     27  C   UNL A   1      33.565  31.578  27.557  1.00  0.00     0.338 C 
ATOM     28  O   UNL A   1      33.157  32.707  27.817  1.00  0.00    -0.246 OA
BRANCH  27  29
ATOM     29  C   UNL A   1      34.973  31.206  27.775  1.00  0.00     0.060 A 
ATOM     30  C   UNL A   1      35.258  29.839  27.895  1.00  0.00     0.016 A 
ATOM     31  C   UNL A   1      35.968  32.160  28.001  1.00  0.00     0.016 A 
ATOM     32  C   UNL A   1      36.512  29.424  28.332  1.00  0.00     0.010 A 
ATOM     33  C   UNL A   1      37.229  31.740  28.445  1.00  0.00     0.010 A 
ATOM     34  C   UNL A   1      37.485  30.375  28.669  1.00  0.00    -0.014 A 
BRANCH  34  35
ATOM     35  C   UNL A   1      38.662  29.930  29.459  1.00  0.00     0.031 A 
ATOM     36  C   UNL A   1      38.818  30.437  30.868  1.00  0.00     0.074 A 
ATOM     37  C   UNL A   1      39.524  29.021  28.972  1.00  0.00     0.049 A 
ATOM     38  N   UNL A   1      39.713  30.127  31.772  1.00  0.00    -0.248 NA
ATOM     39  C   UNL A   1      37.828  31.427  31.321  1.00  0.00     0.031 C 
ATOM     40  C   UNL A   1      39.461  28.425  27.640  1.00  0.00     0.029 A 
ATOM     41  N   UNL A   1      40.618  28.432  29.556  1.00  0.00    -0.354 N 
ATOM     42  C   UNL A   1      39.395  30.883  32.893  1.00  0.00     0.074 A 
ATOM     43  C   UNL A   1      38.249  31.693  32.549  1.00  0.00     0.031 C 
ATOM     44  C   UNL A   1      40.469  27.544  27.510  1.00  0.00     0.029 A 
ATOM     45  C   UNL A   1      41.255  27.527  28.743  1.00  0.00     0.049 A 
ATOM     46  H   UNL A   1      40.917  28.638  30.471  1.00  0.00     0.167 HD
ATOM     47  C   UNL A   1      39.996  30.892  34.107  1.00  0.00     0.037 A 
ATOM     48  C   UNL A   1      42.346  26.771  28.973  1.00  0.00     0.037 A 
ATOM     49  C   UNL A   1      41.128  30.079  34.461  1.00  0.00     0.049 A 
ATOM     50  C   UNL A   1      43.020  26.829  30.319  1.00  0.00     0.074 A 
ATOM     51  C   UNL A   1      41.797  30.006  35.670  1.00  0.00     0.029 A 
ATOM     52  N   UNL A   1      41.762  29.197  33.598  1.00  0.00    -0.354 N 
ATOM     53  N   UNL A   1      42.691  27.520  31.384  1.00  0.00    -0.248 NA
ATOM     54  C   UNL A   1      44.212  25.987  30.499  1.00  0.00     0.031 C 
ATOM     55  C   UNL A   1      42.861  29.108  35.527  1.00  0.00     0.029 A 
ATOM     56  C   UNL A   1      42.826  28.588  34.244  1.00  0.00     0.049 A 
ATOM     57  H   UNL A   1      41.495  29.029  32.666  1.00  0.00     0.167 HD
ATOM     58  C   UNL A   1      43.607  27.169  32.368  1.00  0.00     0.074 A 
ATOM     59  C   UNL A   1      44.504  26.198  31.775  1.00  0.00     0.031 C 
ATOM     60  C   UNL A   1      43.695  27.607  33.648  1.00  0.00     0.037 A 
BRANCH  47  61
ATOM     61  C   UNL A   1      39.448  31.834  35.140  1.00  0.00     0.064 A 
ATOM     62  C   UNL A   1      39.788  33.194  35.152  1.00  0.00     0.173 A 
ATOM     63  C   UNL A   1      38.556  31.371  36.118  1.00  0.00     0.173 A 
ATOM     64  F   UNL A   1      40.651  33.682  34.248  1.00  0.00    -0.203 F 
ATOM     65  C   UNL A   1      39.276  34.052  36.122  1.00  0.00     0.198 A 
ATOM     66  C   UNL A   1      38.024  32.236  37.070  1.00  0.00     0.198 A 
ATOM     67  F   UNL A   1      38.197  30.078  36.149  1.00  0.00    -0.203 F 
ATOM     68  F   UNL A   1      39.651  35.338  36.144  1.00  0.00    -0.200 F 
ATOM     69  C   UNL A   1      38.389  33.573  37.076  1.00  0.00     0.200 A 
ATOM     70  F   UNL A   1      37.160  31.774  37.985  1.00  0.00    -0.200 F 
ATOM     71  F   UNL A   1      37.894  34.400  38.007  1.00  0.00    -0.200 F 
ENDBRANCH  47  61
BRANCH  48  72
ATOM     72  C   UNL A   1      42.863  25.870  27.911  1.00  0.00     0.064 A 
ATOM     73  C   UNL A   1      43.777  26.330  26.953  1.00  0.00     0.173 A 
ATOM     74  C   UNL A   1      42.434  24.538  27.818  1.00  0.00     0.173 A 
ATOM     75  F   UNL A   1      44.195  27.605  26.985  1.00  0.00    -0.203 F 
ATOM     76  C   UNL A   1      44.229  25.497  25.931  1.00  0.00     0.198 A 
ATOM     77  C   UNL A   1      42.907  23.699  26.811  1.00  0.00     0.198 A 
ATOM     78  F   UNL A   1      41.558  24.051  28.708  1.00  0.00    -0.203 F 
ATOM     79  F   UNL A   1      45.066  25.976  25.002  1.00  0.00    -0.200 F 
ATOM     80  C   UNL A   1      43.798  24.182  25.864  1.00  0.00     0.200 A 
ATOM     81  F   UNL A   1      42.493  22.425  26.755  1.00  0.00    -0.200 F 
ATOM     82  F   UNL A   1      44.232  23.382  24.881  1.00  0.00    -0.200 F 
ENDBRANCH  48  72
BRANCH  60  83
ATOM     83  C   UNL A   1      44.762  27.001  34.513  1.00  0.00     0.064 A 
ATOM     84  C   UNL A   1      44.538  25.831  35.253  1.00  0.00     0.173 A 
ATOM     85  C   UNL A   1      46.038  27.583  34.572  1.00  0.00     0.173 A 
ATOM     86  F   UNL A   1      43.332  25.244  35.240  1.00  0.00    -0.203 F 
ATOM     87  C   UNL A   1      45.543  25.283  36.046  1.00  0.00     0.198 A 
ATOM     88  C   UNL A   1      47.049  27.016  35.342  1.00  0.00     0.198 A 
ATOM     89  F   UNL A   1      46.306  28.697  33.875  1.00  0.00    -0.203 F 
ATOM     90  F   UNL A   1      45.293  24.193  36.783  1.00  0.00    -0.200 F 
ATOM     91  C   UNL A   1      46.799  25.872  36.084  1.00  0.00     0.200 A 
ATOM     92  F   UNL A   1      48.266  27.578  35.369  1.00  0.00    -0.200 F 
ATOM     93  F   UNL A   1      47.766  25.341  36.845  1.00  0.00    -0.200 F 
ENDBRANCH  60  83
ENDBRANCH  34  35
ENDBRANCH  27  29
ENDBRANCH  26  27
ENDBRANCH  25  26
ENDBRANCH  24  25
ENDBRANCH  23  24
ENDBRANCH  22  23
ENDBRANCH   1  22
TORSDOF 20
ENDMDL
MODEL 3
REMARK VINA RESULT:     -10.2      1.113      2.548
REMARK SMILES CC(=O)NNC(=O)CSC[C@@H]([NH3+])C(=O)OCCOCCOC(=O)c1ccc(-c2c3nc(c(-c4c(F)c(F)c(F)c(F)c4F)c4ccc([nH]4)c(-c4c(F)c(F)c(F)c(F)c4F)c4nc(c(-c5c(F)c(F)c(F)c(F)c5F)c5ccc2[nH]5)C=C4)C=C3)cc1
REMARK SMILES IDX 16 1 15 2 13 3 14 4 11 5 10 6 9 7 8 8 6 9 5 10 7 12 4 13
REMARK SMILES IDX 1 14 2 15 3 16 12 18 17 22 18 23 19 24 20 25 21 26 22 27
REMARK SMILES IDX 23 28 24 29 25 30 86 31 26 32 85 33 27 34 28 35 29 36 79 37
REMARK SMILES IDX 30 38 84 39 78 40 80 41 31 42 83 43 77 44 76 45 32 47 64 48
REMARK SMILES IDX 44 49 63 50 45 51 48 52 62 53 81 54 46 55 47 56 61 58 82 59
REMARK SMILES IDX 49 60 33 61 34 62 42 63 35 64 36 65 40 66 43 67 37 68 38 69
REMARK SMILES IDX 41 70 39 71 65 72 66 73 74 74 67 75 68 76 72 77 75 78 69 79
REMARK SMILES IDX 70 80 73 81 71 82 50 83 51 84 59 85 52 86 53 87 57 88 60 89
REMARK SMILES IDX 54 90 55 91 58 92 56 93
REMARK H PARENT 5 11 4 17 12 19 12 20 12 21 80 46 48 57
REMARK Flexibility Score: inf
ROOT
ATOM      1  C   UNL A   1      31.652  26.457  23.677  1.00  0.00     0.261 C 
ENDROOT
BRANCH   1   2
ATOM      2  O   UNL A   1      31.589  25.391  22.716  1.00  0.00    -0.459 OA
BRANCH   2   3
ATOM      3  C   UNL A   1      32.743  25.140  22.046  1.00  0.00     0.365 C 
ATOM      4  O   UNL A   1      33.278  25.916  21.257  1.00  0.00    -0.245 OA
BRANCH   3   5
ATOM      5  C   UNL A   1      33.389  23.789  22.407  1.00  0.00     0.301 C 
BRANCH   5   6
ATOM      6  C   UNL A   1      34.185  23.795  23.720  1.00  0.00     0.147 C 
BRANCH   6   7
ATOM      7  S   UNL A   1      34.864  22.145  24.184  1.00  0.00    -0.145 SA
BRANCH   7   8
ATOM      8  C   UNL A   1      34.115  21.913  25.835  1.00  0.00     0.171 C 
BRANCH   8   9
ATOM      9  C   UNL A   1      32.870  21.049  25.775  1.00  0.00     0.248 C 
ATOM     10  N   UNL A   1      31.637  21.649  25.837  1.00  0.00    -0.267 N 
ATOM     11  H   UNL A   1      30.841  21.069  25.822  1.00  0.00     0.191 HD
ATOM     12  O   UNL A   1      32.929  19.823  25.671  1.00  0.00    -0.272 OA
BRANCH  10  13
ATOM     13  N   UNL A   1      31.436  23.025  25.916  1.00  0.00    -0.268 N 
ATOM     14  C   UNL A   1      29.417  22.695  27.286  1.00  0.00     0.116 C 
ATOM     15  C   UNL A   1      30.397  23.607  26.598  1.00  0.00     0.235 C 
ATOM     16  O   UNL A   1      30.274  24.831  26.620  1.00  0.00    -0.274 OA
ATOM     17  H   UNL A   1      32.077  23.613  25.457  1.00  0.00     0.191 HD
ENDBRANCH  10  13
ENDBRANCH   8   9
ENDBRANCH   7   8
ENDBRANCH   6   7
ENDBRANCH   5   6
BRANCH   5  18
ATOM     18  N   UNL A   1      32.328  22.755  22.387  1.00  0.00    -0.345 N 
ATOM     19  H   UNL A   1      32.746  21.842  22.209  1.00  0.00     0.345 HD
ATOM     20  H   UNL A   1      31.655  22.971  21.651  1.00  0.00     0.345 HD
ATOM     21  H   UNL A   1      31.852  22.738  23.290  1.00  0.00     0.345 HD
ENDBRANCH   5  18
ENDBRANCH   3   5
ENDBRANCH   2   3
ENDBRANCH   1   2
BRANCH   1  22
ATOM     22  C   UNL A   1      30.976  27.725  23.151  1.00  0.00     0.202 C 
BRANCH  22  23
ATOM     23  O   UNL A   1      30.791  28.779  24.094  1.00  0.00    -0.374 OA
BRANCH  23  24
ATOM     24  C   UNL A   1      31.860  29.059  24.998  1.00  0.00     0.202 C 
BRANCH  24  25
ATOM     25  C   UNL A   1      31.764  30.365  25.796  1.00  0.00     0.261 C 
BRANCH  25  26
ATOM     26  O   UNL A   1      32.512  30.313  27.028  1.00  0.00    -0.460 OA
BRANCH  26  27
ATOM     27  C   UNL A   1      33.223  31.433  27.297  1.00  0.00     0.338 C 
ATOM     28  O   UNL A   1      32.795  32.581  27.372  1.00  0.00    -0.246 OA
BRANCH  27  29
ATOM     29  C   UNL A   1      34.612  31.109  27.664  1.00  0.00     0.060 A 
ATOM     30  C   UNL A   1      34.927  29.753  27.826  1.00  0.00     0.016 A 
ATOM     31  C   UNL A   1      35.546  32.098  27.984  1.00  0.00     0.016 A 
ATOM     32  C   UNL A   1      36.141  29.383  28.395  1.00  0.00     0.010 A 
ATOM     33  C   UNL A   1      36.767  31.723  28.561  1.00  0.00     0.010 A 
ATOM     34  C   UNL A   1      37.042  30.368  28.823  1.00  0.00    -0.014 A 
BRANCH  34  35
ATOM     35  C   UNL A   1      38.144  29.967  29.736  1.00  0.00     0.031 A 
ATOM     36  C   UNL A   1      39.207  29.035  29.217  1.00  0.00     0.074 A 
ATOM     37  C   UNL A   1      38.252  30.491  30.969  1.00  0.00     0.049 A 
ATOM     38  N   UNL A   1      40.301  28.613  29.799  1.00  0.00    -0.248 NA
ATOM     39  C   UNL A   1      39.011  28.510  27.857  1.00  0.00     0.031 C 
ATOM     40  C   UNL A   1      37.312  31.433  31.572  1.00  0.00     0.029 A 
ATOM     41  N   UNL A   1      39.217  30.313  31.928  1.00  0.00    -0.354 N 
ATOM     42  C   UNL A   1      40.918  27.774  28.878  1.00  0.00     0.074 A 
ATOM     43  C   UNL A   1      40.063  27.718  27.714  1.00  0.00     0.031 C 
ATOM     44  C   UNL A   1      37.751  31.758  32.801  1.00  0.00     0.029 A 
ATOM     45  C   UNL A   1      38.994  31.036  33.074  1.00  0.00     0.049 A 
ATOM     46  H   UNL A   1      39.995  29.722  31.808  1.00  0.00     0.167 HD
ATOM     47  C   UNL A   1      42.100  27.120  28.986  1.00  0.00     0.037 A 
ATOM     48  C   UNL A   1      39.715  31.108  34.209  1.00  0.00     0.037 A 
ATOM     49  C   UNL A   1      42.962  27.183  30.136  1.00  0.00     0.049 A 
ATOM     50  C   UNL A   1      41.007  30.340  34.320  1.00  0.00     0.074 A 
ATOM     51  C   UNL A   1      44.186  26.570  30.333  1.00  0.00     0.029 A 
ATOM     52  N   UNL A   1      42.685  27.905  31.287  1.00  0.00    -0.354 N 
ATOM     53  N   UNL A   1      41.598  29.578  33.431  1.00  0.00    -0.248 NA
ATOM     54  C   UNL A   1      41.737  30.453  35.591  1.00  0.00     0.031 C 
ATOM     55  C   UNL A   1      44.632  26.888  31.621  1.00  0.00     0.029 A 
ATOM     56  C   UNL A   1      43.707  27.737  32.207  1.00  0.00     0.049 A 
ATOM     57  H   UNL A   1      41.881  28.454  31.430  1.00  0.00     0.167 HD
ATOM     58  C   UNL A   1      42.785  29.156  34.017  1.00  0.00     0.074 A 
ATOM     59  C   UNL A   1      42.833  29.750  35.338  1.00  0.00     0.031 C 
ATOM     60  C   UNL A   1      43.751  28.352  33.508  1.00  0.00     0.037 A 
BRANCH  47  61
ATOM     61  C   UNL A   1      42.518  26.258  27.832  1.00  0.00     0.064 A 
ATOM     62  C   UNL A   1      43.406  26.720  26.849  1.00  0.00     0.173 A 
ATOM     63  C   UNL A   1      42.038  24.944  27.719  1.00  0.00     0.173 A 
ATOM     64  F   UNL A   1      43.879  27.974  26.904  1.00  0.00    -0.203 F 
ATOM     65  C   UNL A   1      43.777  25.908  25.781  1.00  0.00     0.198 A 
ATOM     66  C   UNL A   1      42.432  24.126  26.664  1.00  0.00     0.198 A 
ATOM     67  F   UNL A   1      41.188  24.454  28.633  1.00  0.00    -0.203 F 
ATOM     68  F   UNL A   1      44.590  26.385  24.828  1.00  0.00    -0.200 F 
ATOM     69  C   UNL A   1      43.295  24.609  25.693  1.00  0.00     0.200 A 
ATOM     70  F   UNL A   1      41.973  22.869  26.586  1.00  0.00    -0.200 F 
ATOM     71  F   UNL A   1      43.656  23.828  24.666  1.00  0.00    -0.200 F 
ENDBRANCH  47  61
BRANCH  48  72
ATOM     72  C   UNL A   1      39.248  31.960  35.334  1.00  0.00     0.064 A 
ATOM     73  C   UNL A   1      38.462  31.429  36.365  1.00  0.00     0.173 A 
ATOM     74  C   UNL A   1      39.559  33.326  35.386  1.00  0.00     0.173 A 
ATOM     75  F   UNL A   1      38.116  30.133  36.344  1.00  0.00    -0.203 F 
ATOM     76  C   UNL A   1      37.987  32.237  37.397  1.00  0.00     0.198 A 
ATOM     77  C   UNL A   1      39.106  34.128  36.431  1.00  0.00     0.198 A 
ATOM     78  F   UNL A   1      40.305  33.882  34.421  1.00  0.00    -0.203 F 
ATOM     79  F   UNL A   1      37.199  31.714  38.345  1.00  0.00    -0.200 F 
ATOM     80  C   UNL A   1      38.314  33.584  37.432  1.00  0.00     0.200 A 
ATOM     81  F   UNL A   1      39.430  35.428  36.466  1.00  0.00    -0.200 F 
ATOM     82  F   UNL A   1      37.857  34.360  38.424  1.00  0.00    -0.200 F 
ENDBRANCH  48  72
BRANCH  60  83
ATOM     83  C   UNL A   1      44.968  28.113  34.354  1.00  0.00     0.064 A 
ATOM     84  C   UNL A   1      45.046  27.035  35.248  1.00  0.00     0.173 A 
ATOM     85  C   UNL A   1      46.084  28.956  34.241  1.00  0.00     0.173 A 
ATOM     86  F   UNL A   1      44.001  26.207  35.401  1.00  0.00    -0.203 F 
ATOM     87  C   UNL A   1      46.186  26.829  36.021  1.00  0.00     0.198 A 
ATOM     88  C   UNL A   1      47.232  28.730  34.994  1.00  0.00     0.198 A 
ATOM     89  F   UNL A   1      46.063  29.996  33.393  1.00  0.00    -0.203 F 
ATOM     90  F   UNL A   1      46.221  25.822  36.904  1.00  0.00    -0.200 F 
ATOM     91  C   UNL A   1      47.279  27.672  35.888  1.00  0.00     0.200 A 
ATOM     92  F   UNL A   1      48.293  29.538  34.856  1.00  0.00    -0.200 F 
ATOM     93  F   UNL A   1      48.377  27.469  36.631  1.00  0.00    -0.200 F 
ENDBRANCH  60  83
ENDBRANCH  34  35
ENDBRANCH  27  29
ENDBRANCH  26  27
ENDBRANCH  25  26
ENDBRANCH  24  25
ENDBRANCH  23  24
ENDBRANCH  22  23
ENDBRANCH   1  22
TORSDOF 20
ENDMDL
