MODEL 1
REMARK VINA RESULT:     -11.9      0.000      0.000
REMARK SMILES Cc1nsc(N(C)C(=O)c2ccc(=O)n(C)n2)c1C(=O)OCCOCCOC(=O)c1ccc(-c2c3nc(c(-c4c(F)c(F)c(F)c(F)c4F)c4ccc([nH]4)c(-c4c(F)c(F)c(F)c(F)c4F)c4nc(c(-c5c(F)c(F)c(F)c(F)c5F)c5ccc2[nH]5)C=C4)C=C3)cc1
REMARK SMILES IDX 23 1 22 2 21 3 19 4 20 5 18 6 1 7 2 8 3 9 4 10 5 11 6 12
REMARK SMILES IDX 7 13 8 14 9 15 10 16 11 17 17 18 12 19 15 20 13 21 16 22
REMARK SMILES IDX 14 23 24 24 25 25 26 26 27 27 28 28 29 29 30 30 31 31 92 32
REMARK SMILES IDX 32 33 91 34 33 35 34 36 35 37 85 38 36 39 90 40 84 41 86 42
REMARK SMILES IDX 37 43 89 44 83 45 82 46 38 48 70 49 50 50 69 51 51 52 54 53
REMARK SMILES IDX 68 54 87 55 52 56 53 57 67 59 88 60 55 61 39 62 40 63 48 64
REMARK SMILES IDX 41 65 42 66 46 67 49 68 43 69 44 70 47 71 45 72 71 73 72 74
REMARK SMILES IDX 80 75 73 76 74 77 78 78 81 79 75 80 76 81 79 82 77 83 56 84
REMARK SMILES IDX 57 85 65 86 58 87 59 88 63 89 66 90 60 91 61 92 64 93 62 94
REMARK H PARENT 86 47 54 58
REMARK Flexibility Score: inf
ROOT
ATOM      1  C   UNL A   1      36.605  22.733  23.821  1.00  0.00     0.202 C 
ENDROOT
BRANCH   1   2
ATOM      2  C   UNL A   1      35.502  23.765  23.533  1.00  0.00     0.261 C 
BRANCH   2   3
ATOM      3  O   UNL A   1      34.625  23.290  22.510  1.00  0.00    -0.460 OA
BRANCH   3   4
ATOM      4  C   UNL A   1      33.299  23.317  22.841  1.00  0.00     0.343 C 
ATOM      5  O   UNL A   1      32.507  24.184  22.518  1.00  0.00    -0.246 OA
BRANCH   4   6
ATOM      6  C   UNL A   1      32.970  22.193  23.698  1.00  0.00     0.117 A 
ATOM      7  C   UNL A   1      31.993  20.736  21.733  1.00  0.00     0.069 C 
ATOM      8  C   UNL A   1      32.386  20.982  23.156  1.00  0.00     0.068 A 
ATOM      9  N   UNL A   1      32.148  20.009  24.028  1.00  0.00    -0.195 NA
ATOM     10  S   UNL A   1      32.599  20.515  25.520  1.00  0.00    -0.017 S 
ATOM     11  C   UNL A   1      33.040  22.135  25.098  1.00  0.00     0.133 A 
BRANCH  11  12
ATOM     12  N   UNL A   1      33.294  23.045  26.180  1.00  0.00    -0.299 N 
ATOM     13  C   UNL A   1      34.468  22.947  27.056  1.00  0.00     0.154 C 
BRANCH  12  14
ATOM     14  C   UNL A   1      32.343  24.049  26.495  1.00  0.00     0.279 C 
ATOM     15  O   UNL A   1      31.503  24.013  27.384  1.00  0.00    -0.267 OA
BRANCH  14  16
ATOM     16  C   UNL A   1      32.391  25.381  25.740  1.00  0.00     0.149 A 
ATOM     17  C   UNL A   1      33.648  26.159  25.819  1.00  0.00     0.042 A 
ATOM     18  N   UNL A   1      31.322  25.797  25.135  1.00  0.00    -0.165 NA
ATOM     19  C   UNL A   1      33.718  27.309  25.152  1.00  0.00     0.076 A 
ATOM     20  N   UNL A   1      31.396  27.030  24.513  1.00  0.00    -0.232 N 
ATOM     21  C   UNL A   1      32.536  27.821  24.441  1.00  0.00     0.266 A 
ATOM     22  C   UNL A   1      30.154  27.569  24.006  1.00  0.00     0.178 C 
ATOM     23  O   UNL A   1      32.610  28.909  23.874  1.00  0.00    -0.268 OA
ENDBRANCH  14  16
ENDBRANCH  12  14
ENDBRANCH  11  12
ENDBRANCH   4   6
ENDBRANCH   3   4
ENDBRANCH   2   3
ENDBRANCH   1   2
BRANCH   1  24
ATOM     24  O   UNL A   1      37.502  22.935  24.925  1.00  0.00    -0.374 OA
BRANCH  24  25
ATOM     25  C   UNL A   1      37.976  21.824  25.680  1.00  0.00     0.202 C 
BRANCH  25  26
ATOM     26  C   UNL A   1      39.390  21.817  26.193  1.00  0.00     0.261 C 
BRANCH  26  27
ATOM     27  O   UNL A   1      39.692  23.080  26.728  1.00  0.00    -0.460 OA
BRANCH  27  28
ATOM     28  C   UNL A   1      40.813  23.063  27.475  1.00  0.00     0.338 C 
ATOM     29  O   UNL A   1      41.142  22.246  28.314  1.00  0.00    -0.246 OA
BRANCH  28  30
ATOM     30  C   UNL A   1      41.492  24.337  27.254  1.00  0.00     0.060 A 
ATOM     31  C   UNL A   1      42.246  24.754  28.347  1.00  0.00     0.016 A 
ATOM     32  C   UNL A   1      40.884  25.227  26.353  1.00  0.00     0.016 A 
ATOM     33  C   UNL A   1      42.083  26.052  28.742  1.00  0.00     0.010 A 
ATOM     34  C   UNL A   1      40.694  26.513  26.768  1.00  0.00     0.010 A 
ATOM     35  C   UNL A   1      41.214  26.870  28.004  1.00  0.00    -0.014 A 
BRANCH  35  36
ATOM     36  C   UNL A   1      40.990  28.200  28.495  1.00  0.00     0.031 A 
ATOM     37  C   UNL A   1      42.037  29.114  28.012  1.00  0.00     0.074 A 
ATOM     38  C   UNL A   1      39.950  28.542  29.271  1.00  0.00     0.049 A 
ATOM     39  N   UNL A   1      43.026  29.574  28.698  1.00  0.00    -0.248 NA
ATOM     40  C   UNL A   1      42.139  29.337  26.562  1.00  0.00     0.031 C 
ATOM     41  C   UNL A   1      38.744  27.789  29.615  1.00  0.00     0.029 A 
ATOM     42  N   UNL A   1      39.760  29.731  29.893  1.00  0.00    -0.354 N 
ATOM     43  C   UNL A   1      43.786  30.303  27.799  1.00  0.00     0.074 A 
ATOM     44  C   UNL A   1      43.312  29.964  26.483  1.00  0.00     0.031 C 
ATOM     45  C   UNL A   1      37.855  28.625  30.208  1.00  0.00     0.029 A 
ATOM     46  C   UNL A   1      38.490  29.916  30.414  1.00  0.00     0.049 A 
ATOM     47  H   UNL A   1      40.470  30.409  29.970  1.00  0.00     0.167 HD
ATOM     48  C   UNL A   1      44.572  31.321  28.232  1.00  0.00     0.037 A 
ATOM     49  C   UNL A   1      38.021  31.090  30.907  1.00  0.00     0.037 A 
ATOM     50  C   UNL A   1      44.821  31.220  29.648  1.00  0.00     0.049 A 
ATOM     51  C   UNL A   1      39.208  31.911  31.275  1.00  0.00     0.074 A 
ATOM     52  C   UNL A   1      45.489  30.317  30.452  1.00  0.00     0.029 A 
ATOM     53  N   UNL A   1      44.003  31.937  30.489  1.00  0.00    -0.354 N 
ATOM     54  N   UNL A   1      40.017  31.608  32.253  1.00  0.00    -0.248 NA
ATOM     55  C   UNL A   1      39.764  32.794  30.260  1.00  0.00     0.031 C 
ATOM     56  C   UNL A   1      44.714  30.233  31.648  1.00  0.00     0.029 A 
ATOM     57  C   UNL A   1      43.646  31.124  31.535  1.00  0.00     0.049 A 
ATOM     58  H   UNL A   1      43.722  32.870  30.362  1.00  0.00     0.167 HD
ATOM     59  C   UNL A   1      41.285  31.896  31.770  1.00  0.00     0.074 A 
ATOM     60  C   UNL A   1      41.060  32.696  30.568  1.00  0.00     0.031 C 
ATOM     61  C   UNL A   1      42.380  31.217  32.226  1.00  0.00     0.037 A 
BRANCH  48  62
ATOM     62  C   UNL A   1      44.771  32.590  27.450  1.00  0.00     0.064 A 
ATOM     63  C   UNL A   1      45.959  32.761  26.720  1.00  0.00     0.173 A 
ATOM     64  C   UNL A   1      43.980  33.749  27.617  1.00  0.00     0.173 A 
ATOM     65  F   UNL A   1      46.797  31.730  26.527  1.00  0.00    -0.203 F 
ATOM     66  C   UNL A   1      46.356  34.015  26.250  1.00  0.00     0.198 A 
ATOM     67  C   UNL A   1      44.350  34.985  27.096  1.00  0.00     0.198 A 
ATOM     68  F   UNL A   1      42.885  33.768  28.384  1.00  0.00    -0.203 F 
ATOM     69  F   UNL A   1      47.554  34.155  25.667  1.00  0.00    -0.200 F 
ATOM     70  C   UNL A   1      45.553  35.125  26.440  1.00  0.00     0.200 A 
ATOM     71  F   UNL A   1      43.567  36.051  27.313  1.00  0.00    -0.200 F 
ATOM     72  F   UNL A   1      45.957  36.337  26.039  1.00  0.00    -0.200 F 
ENDBRANCH  48  62
BRANCH  49  73
ATOM     73  C   UNL A   1      36.688  31.702  30.682  1.00  0.00     0.064 A 
ATOM     74  C   UNL A   1      35.907  32.131  31.769  1.00  0.00     0.173 A 
ATOM     75  C   UNL A   1      36.298  32.163  29.410  1.00  0.00     0.173 A 
ATOM     76  F   UNL A   1      36.237  31.771  33.018  1.00  0.00    -0.203 F 
ATOM     77  C   UNL A   1      34.828  33.003  31.598  1.00  0.00     0.198 A 
ATOM     78  C   UNL A   1      35.218  33.031  29.240  1.00  0.00     0.198 A 
ATOM     79  F   UNL A   1      37.019  31.866  28.319  1.00  0.00    -0.203 F 
ATOM     80  F   UNL A   1      34.152  33.448  32.666  1.00  0.00    -0.200 F 
ATOM     81  C   UNL A   1      34.494  33.464  30.336  1.00  0.00     0.200 A 
ATOM     82  F   UNL A   1      34.929  33.501  28.018  1.00  0.00    -0.200 F 
ATOM     83  F   UNL A   1      33.506  34.356  30.178  1.00  0.00    -0.200 F 
ENDBRANCH  49  73
BRANCH  61  84
ATOM     84  C   UNL A   1      42.184  30.334  33.430  1.00  0.00     0.064 A 
ATOM     85  C   UNL A   1      42.242  30.789  34.761  1.00  0.00     0.173 A 
ATOM     86  C   UNL A   1      41.813  28.999  33.228  1.00  0.00     0.173 A 
ATOM     87  F   UNL A   1      42.488  32.074  35.040  1.00  0.00    -0.203 F 
ATOM     88  C   UNL A   1      41.998  29.931  35.834  1.00  0.00     0.198 A 
ATOM     89  C   UNL A   1      41.530  28.153  34.298  1.00  0.00     0.198 A 
ATOM     90  F   UNL A   1      41.684  28.521  31.980  1.00  0.00    -0.203 F 
ATOM     91  F   UNL A   1      42.083  30.386  37.093  1.00  0.00    -0.200 F 
ATOM     92  C   UNL A   1      41.637  28.615  35.601  1.00  0.00     0.200 A 
ATOM     93  F   UNL A   1      41.133  26.896  34.066  1.00  0.00    -0.200 F 
ATOM     94  F   UNL A   1      41.366  27.798  36.628  1.00  0.00    -0.200 F 
ENDBRANCH  61  84
ENDBRANCH  35  36
ENDBRANCH  28  30
ENDBRANCH  27  28
ENDBRANCH  26  27
ENDBRANCH  25  26
ENDBRANCH  24  25
ENDBRANCH   1  24
TORSDOF 17
ENDMDL
MODEL 2
REMARK VINA RESULT:     -11.8      3.013      4.250
REMARK SMILES Cc1nsc(N(C)C(=O)c2ccc(=O)n(C)n2)c1C(=O)OCCOCCOC(=O)c1ccc(-c2c3nc(c(-c4c(F)c(F)c(F)c(F)c4F)c4ccc([nH]4)c(-c4c(F)c(F)c(F)c(F)c4F)c4nc(c(-c5c(F)c(F)c(F)c(F)c5F)c5ccc2[nH]5)C=C4)C=C3)cc1
REMARK SMILES IDX 23 1 22 2 21 3 19 4 20 5 18 6 1 7 2 8 3 9 4 10 5 11 6 12
REMARK SMILES IDX 7 13 8 14 9 15 10 16 11 17 17 18 12 19 15 20 13 21 16 22
REMARK SMILES IDX 14 23 24 24 25 25 26 26 27 27 28 28 29 29 30 30 31 31 92 32
REMARK SMILES IDX 32 33 91 34 33 35 34 36 35 37 85 38 36 39 90 40 84 41 86 42
REMARK SMILES IDX 37 43 89 44 83 45 82 46 38 48 70 49 50 50 69 51 51 52 54 53
REMARK SMILES IDX 68 54 87 55 52 56 53 57 67 59 88 60 55 61 39 62 40 63 48 64
REMARK SMILES IDX 41 65 42 66 46 67 49 68 43 69 44 70 47 71 45 72 71 73 72 74
REMARK SMILES IDX 80 75 73 76 74 77 78 78 81 79 75 80 76 81 79 82 77 83 56 84
REMARK SMILES IDX 57 85 65 86 58 87 59 88 63 89 66 90 60 91 61 92 64 93 62 94
REMARK H PARENT 86 47 54 58
REMARK Flexibility Score: inf
ROOT
ATOM      1  C   UNL A   1      39.467  20.771  26.086  1.00  0.00     0.202 C 
ENDROOT
BRANCH   1   2
ATOM      2  C   UNL A   1      38.504  21.922  25.757  1.00  0.00     0.261 C 
BRANCH   2   3
ATOM      3  O   UNL A   1      37.151  21.461  25.758  1.00  0.00    -0.460 OA
BRANCH   3   4
ATOM      4  C   UNL A   1      36.447  21.761  24.625  1.00  0.00     0.343 C 
ATOM      5  O   UNL A   1      36.926  22.163  23.581  1.00  0.00    -0.246 OA
BRANCH   4   6
ATOM      6  C   UNL A   1      35.024  21.600  24.859  1.00  0.00     0.117 A 
ATOM      7  C   UNL A   1      35.099  18.974  24.678  1.00  0.00     0.069 C 
ATOM      8  C   UNL A   1      34.416  20.284  24.909  1.00  0.00     0.068 A 
ATOM      9  N   UNL A   1      33.111  20.255  25.153  1.00  0.00    -0.195 NA
ATOM     10  S   UNL A   1      32.568  21.793  25.313  1.00  0.00    -0.017 S 
ATOM     11  C   UNL A   1      34.051  22.608  24.946  1.00  0.00     0.133 A 
BRANCH  11  12
ATOM     12  N   UNL A   1      33.982  24.028  24.745  1.00  0.00    -0.299 N 
ATOM     13  C   UNL A   1      34.012  25.000  25.845  1.00  0.00     0.154 C 
BRANCH  12  14
ATOM     14  C   UNL A   1      33.796  24.547  23.438  1.00  0.00     0.279 C 
ATOM     15  O   UNL A   1      34.345  24.167  22.412  1.00  0.00    -0.267 OA
BRANCH  14  16
ATOM     16  C   UNL A   1      32.737  25.629  23.211  1.00  0.00     0.149 A 
ATOM     17  C   UNL A   1      33.203  26.931  22.684  1.00  0.00     0.042 A 
ATOM     18  N   UNL A   1      31.510  25.387  23.551  1.00  0.00    -0.165 NA
ATOM     19  C   UNL A   1      32.295  27.880  22.459  1.00  0.00     0.076 A 
ATOM     20  N   UNL A   1      30.599  26.413  23.379  1.00  0.00    -0.232 N 
ATOM     21  C   UNL A   1      30.887  27.651  22.819  1.00  0.00     0.266 A 
ATOM     22  C   UNL A   1      29.281  26.201  23.933  1.00  0.00     0.178 C 
ATOM     23  O   UNL A   1      30.077  28.558  22.648  1.00  0.00    -0.268 OA
ENDBRANCH  14  16
ENDBRANCH  12  14
ENDBRANCH  11  12
ENDBRANCH   4   6
ENDBRANCH   3   4
ENDBRANCH   2   3
ENDBRANCH   1   2
BRANCH   1  24
ATOM     24  O   UNL A   1      40.403  20.909  27.168  1.00  0.00    -0.374 OA
BRANCH  24  25
ATOM     25  C   UNL A   1      41.795  21.052  26.902  1.00  0.00     0.202 C 
BRANCH  25  26
ATOM     26  C   UNL A   1      42.544  19.943  26.217  1.00  0.00     0.261 C 
BRANCH  26  27
ATOM     27  O   UNL A   1      43.045  20.412  24.992  1.00  0.00    -0.460 OA
BRANCH  27  28
ATOM     28  C   UNL A   1      44.390  20.373  24.943  1.00  0.00     0.338 C 
ATOM     29  O   UNL A   1      45.119  19.409  25.085  1.00  0.00    -0.246 OA
BRANCH  28  30
ATOM     30  C   UNL A   1      44.856  21.758  24.897  1.00  0.00     0.060 A 
ATOM     31  C   UNL A   1      45.659  22.104  25.979  1.00  0.00     0.016 A 
ATOM     32  C   UNL A   1      44.033  22.676  24.222  1.00  0.00     0.016 A 
ATOM     33  C   UNL A   1      45.360  23.278  26.611  1.00  0.00     0.010 A 
ATOM     34  C   UNL A   1      43.711  23.831  24.875  1.00  0.00     0.010 A 
ATOM     35  C   UNL A   1      44.309  24.058  26.106  1.00  0.00    -0.014 A 
BRANCH  35  36
ATOM     36  C   UNL A   1      43.956  25.238  26.843  1.00  0.00     0.031 A 
ATOM     37  C   UNL A   1      44.969  26.288  26.656  1.00  0.00     0.074 A 
ATOM     38  C   UNL A   1      42.839  25.349  27.579  1.00  0.00     0.049 A 
ATOM     39  N   UNL A   1      45.869  26.642  27.508  1.00  0.00    -0.248 NA
ATOM     40  C   UNL A   1      45.162  26.822  25.300  1.00  0.00     0.031 C 
ATOM     41  C   UNL A   1      41.667  24.478  27.650  1.00  0.00     0.029 A 
ATOM     42  N   UNL A   1      42.521  26.365  28.418  1.00  0.00    -0.354 N 
ATOM     43  C   UNL A   1      46.641  27.586  26.852  1.00  0.00     0.074 A 
ATOM     44  C   UNL A   1      46.291  27.513  25.458  1.00  0.00     0.031 C 
ATOM     45  C   UNL A   1      40.679  25.118  28.325  1.00  0.00     0.029 A 
ATOM     46  C   UNL A   1      41.205  26.367  28.852  1.00  0.00     0.049 A 
ATOM     47  H   UNL A   1      43.173  27.048  28.697  1.00  0.00     0.167 HD
ATOM     48  C   UNL A   1      47.319  28.528  27.556  1.00  0.00     0.037 A 
ATOM     49  C   UNL A   1      40.619  27.381  29.537  1.00  0.00     0.037 A 
ATOM     50  C   UNL A   1      47.467  28.139  28.936  1.00  0.00     0.049 A 
ATOM     51  C   UNL A   1      41.714  28.166  30.172  1.00  0.00     0.074 A 
ATOM     52  C   UNL A   1      48.135  27.121  29.589  1.00  0.00     0.029 A 
ATOM     53  N   UNL A   1      46.541  28.614  29.833  1.00  0.00    -0.354 N 
ATOM     54  N   UNL A   1      42.467  27.704  31.132  1.00  0.00    -0.248 NA
ATOM     55  C   UNL A   1      42.280  29.275  29.417  1.00  0.00     0.031 C 
ATOM     56  C   UNL A   1      47.281  26.741  30.667  1.00  0.00     0.029 A 
ATOM     57  C   UNL A   1      46.165  27.577  30.650  1.00  0.00     0.049 A 
ATOM     58  H   UNL A   1      46.205  29.537  29.880  1.00  0.00     0.167 HD
ATOM     59  C   UNL A   1      43.745  28.155  30.833  1.00  0.00     0.074 A 
ATOM     60  C   UNL A   1      43.554  29.182  29.811  1.00  0.00     0.031 C 
ATOM     61  C   UNL A   1      44.847  27.453  31.231  1.00  0.00     0.037 A 
BRANCH  48  62
ATOM     62  C   UNL A   1      47.485  29.943  27.079  1.00  0.00     0.064 A 
ATOM     63  C   UNL A   1      48.749  30.550  27.174  1.00  0.00     0.173 A 
ATOM     64  C   UNL A   1      46.406  30.813  26.801  1.00  0.00     0.173 A 
ATOM     65  F   UNL A   1      49.838  29.820  27.461  1.00  0.00    -0.203 F 
ATOM     66  C   UNL A   1      48.908  31.933  27.063  1.00  0.00     0.198 A 
ATOM     67  C   UNL A   1      46.577  32.183  26.633  1.00  0.00     0.198 A 
ATOM     68  F   UNL A   1      45.134  30.401  26.796  1.00  0.00    -0.203 F 
ATOM     69  F   UNL A   1      50.111  32.482  27.282  1.00  0.00    -0.200 F 
ATOM     70  C   UNL A   1      47.823  32.748  26.796  1.00  0.00     0.200 A 
ATOM     71  F   UNL A   1      45.507  32.956  26.398  1.00  0.00    -0.200 F 
ATOM     72  F   UNL A   1      47.964  34.078  26.746  1.00  0.00    -0.200 F 
ENDBRANCH  48  62
BRANCH  49  73
ATOM     73  C   UNL A   1      39.267  27.956  29.329  1.00  0.00     0.064 A 
ATOM     74  C   UNL A   1      38.407  28.171  30.420  1.00  0.00     0.173 A 
ATOM     75  C   UNL A   1      38.918  28.591  28.121  1.00  0.00     0.173 A 
ATOM     76  F   UNL A   1      38.692  27.637  31.616  1.00  0.00    -0.203 F 
ATOM     77  C   UNL A   1      37.290  29.006  30.320  1.00  0.00     0.198 A 
ATOM     78  C   UNL A   1      37.800  29.421  28.022  1.00  0.00     0.198 A 
ATOM     79  F   UNL A   1      39.710  28.503  27.043  1.00  0.00    -0.203 F 
ATOM     80  F   UNL A   1      36.535  29.246  31.401  1.00  0.00    -0.200 F 
ATOM     81  C   UNL A   1      36.996  29.642  29.126  1.00  0.00     0.200 A 
ATOM     82  F   UNL A   1      37.548  30.062  26.871  1.00  0.00    -0.200 F 
ATOM     83  F   UNL A   1      35.969  30.499  29.048  1.00  0.00    -0.200 F 
ENDBRANCH  49  73
BRANCH  61  84
ATOM     84  C   UNL A   1      44.624  26.323  32.202  1.00  0.00     0.064 A 
ATOM     85  C   UNL A   1      44.471  26.493  33.591  1.00  0.00     0.173 A 
ATOM     86  C   UNL A   1      44.449  25.029  31.694  1.00  0.00     0.173 A 
ATOM     87  F   UNL A   1      44.520  27.710  34.145  1.00  0.00    -0.203 F 
ATOM     88  C   UNL A   1      44.212  25.411  34.431  1.00  0.00     0.198 A 
ATOM     89  C   UNL A   1      44.152  23.956  32.530  1.00  0.00     0.198 A 
ATOM     90  F   UNL A   1      44.527  24.813  30.372  1.00  0.00    -0.203 F 
ATOM     91  F   UNL A   1      44.093  25.598  35.755  1.00  0.00    -0.200 F 
ATOM     92  C   UNL A   1      44.048  24.143  33.899  1.00  0.00     0.200 A 
ATOM     93  F   UNL A   1      43.944  22.741  32.005  1.00  0.00    -0.200 F 
ATOM     94  F   UNL A   1      43.764  23.107  34.701  1.00  0.00    -0.200 F 
ENDBRANCH  61  84
ENDBRANCH  35  36
ENDBRANCH  28  30
ENDBRANCH  27  28
ENDBRANCH  26  27
ENDBRANCH  25  26
ENDBRANCH  24  25
ENDBRANCH   1  24
TORSDOF 17
ENDMDL
MODEL 3
REMARK VINA RESULT:     -11.8      1.714      3.566
REMARK SMILES Cc1nsc(N(C)C(=O)c2ccc(=O)n(C)n2)c1C(=O)OCCOCCOC(=O)c1ccc(-c2c3nc(c(-c4c(F)c(F)c(F)c(F)c4F)c4ccc([nH]4)c(-c4c(F)c(F)c(F)c(F)c4F)c4nc(c(-c5c(F)c(F)c(F)c(F)c5F)c5ccc2[nH]5)C=C4)C=C3)cc1
REMARK SMILES IDX 23 1 22 2 21 3 19 4 20 5 18 6 1 7 2 8 3 9 4 10 5 11 6 12
REMARK SMILES IDX 7 13 8 14 9 15 10 16 11 17 17 18 12 19 15 20 13 21 16 22
REMARK SMILES IDX 14 23 24 24 25 25 26 26 27 27 28 28 29 29 30 30 31 31 92 32
REMARK SMILES IDX 32 33 91 34 33 35 34 36 35 37 85 38 36 39 90 40 84 41 86 42
REMARK SMILES IDX 37 43 89 44 83 45 82 46 38 48 70 49 50 50 69 51 51 52 54 53
REMARK SMILES IDX 68 54 87 55 52 56 53 57 67 59 88 60 55 61 39 62 40 63 48 64
REMARK SMILES IDX 41 65 42 66 46 67 49 68 43 69 44 70 47 71 45 72 71 73 72 74
REMARK SMILES IDX 80 75 73 76 74 77 78 78 81 79 75 80 76 81 79 82 77 83 56 84
REMARK SMILES IDX 57 85 65 86 58 87 59 88 63 89 66 90 60 91 61 92 64 93 62 94
REMARK H PARENT 86 47 54 58
REMARK Flexibility Score: inf
ROOT
ATOM      1  C   UNL A   1      37.244  21.646  25.250  1.00  0.00     0.202 C 
ENDROOT
BRANCH   1   2
ATOM      2  C   UNL A   1      36.609  22.233  23.980  1.00  0.00     0.261 C 
BRANCH   2   3
ATOM      3  O   UNL A   1      35.804  23.370  24.300  1.00  0.00    -0.460 OA
BRANCH   3   4
ATOM      4  C   UNL A   1      34.644  23.467  23.582  1.00  0.00     0.343 C 
ATOM      5  O   UNL A   1      34.562  23.462  22.368  1.00  0.00    -0.246 OA
BRANCH   4   6
ATOM      6  C   UNL A   1      33.514  23.647  24.473  1.00  0.00     0.117 A 
ATOM      7  C   UNL A   1      33.513  26.271  24.249  1.00  0.00     0.069 C 
ATOM      8  C   UNL A   1      32.980  24.967  24.750  1.00  0.00     0.068 A 
ATOM      9  N   UNL A   1      31.929  25.011  25.561  1.00  0.00    -0.195 NA
ATOM     10  S   UNL A   1      31.557  23.486  26.029  1.00  0.00    -0.017 S 
ATOM     11  C   UNL A   1      32.873  22.671  25.252  1.00  0.00     0.133 A 
BRANCH  11  12
ATOM     12  N   UNL A   1      33.076  21.291  25.591  1.00  0.00    -0.299 N 
ATOM     13  C   UNL A   1      33.707  20.852  26.842  1.00  0.00     0.154 C 
BRANCH  12  14
ATOM     14  C   UNL A   1      32.735  20.278  24.658  1.00  0.00     0.279 C 
ATOM     15  O   UNL A   1      32.091  20.417  23.626  1.00  0.00    -0.267 OA
BRANCH  14  16
ATOM     16  C   UNL A   1      33.286  18.864  24.860  1.00  0.00     0.149 A 
ATOM     17  C   UNL A   1      34.644  18.586  24.341  1.00  0.00     0.042 A 
ATOM     18  N   UNL A   1      32.524  17.966  25.404  1.00  0.00    -0.165 NA
ATOM     19  C   UNL A   1      35.150  17.368  24.526  1.00  0.00     0.076 A 
ATOM     20  N   UNL A   1      33.044  16.690  25.516  1.00  0.00    -0.232 N 
ATOM     21  C   UNL A   1      34.330  16.316  25.146  1.00  0.00     0.266 A 
ATOM     22  C   UNL A   1      32.127  15.659  25.947  1.00  0.00     0.178 C 
ATOM     23  O   UNL A   1      34.801  15.187  25.261  1.00  0.00    -0.268 OA
ENDBRANCH  14  16
ENDBRANCH  12  14
ENDBRANCH  11  12
ENDBRANCH   4   6
ENDBRANCH   3   4
ENDBRANCH   2   3
ENDBRANCH   1   2
BRANCH   1  24
ATOM     24  O   UNL A   1      38.381  20.774  25.142  1.00  0.00    -0.374 OA
BRANCH  24  25
ATOM     25  C   UNL A   1      39.472  20.897  26.050  1.00  0.00     0.202 C 
BRANCH  25  26
ATOM     26  C   UNL A   1      39.647  22.164  26.842  1.00  0.00     0.261 C 
BRANCH  26  27
ATOM     27  O   UNL A   1      40.810  22.821  26.409  1.00  0.00    -0.460 OA
BRANCH  27  28
ATOM     28  C   UNL A   1      41.610  23.171  27.435  1.00  0.00     0.338 C 
ATOM     29  O   UNL A   1      41.773  22.589  28.491  1.00  0.00    -0.246 OA
BRANCH  28  30
ATOM     30  C   UNL A   1      42.106  24.515  27.149  1.00  0.00     0.060 A 
ATOM     31  C   UNL A   1      42.941  25.015  28.144  1.00  0.00     0.016 A 
ATOM     32  C   UNL A   1      41.291  25.330  26.345  1.00  0.00     0.016 A 
ATOM     33  C   UNL A   1      42.683  26.286  28.575  1.00  0.00     0.010 A 
ATOM     34  C   UNL A   1      41.011  26.585  26.800  1.00  0.00     0.010 A 
ATOM     35  C   UNL A   1      41.640  26.999  27.966  1.00  0.00    -0.014 A 
BRANCH  35  36
ATOM     36  C   UNL A   1      41.332  28.294  28.500  1.00  0.00     0.031 A 
ATOM     37  C   UNL A   1      42.371  29.268  28.132  1.00  0.00     0.074 A 
ATOM     38  C   UNL A   1      40.229  28.560  29.219  1.00  0.00     0.049 A 
ATOM     39  N   UNL A   1      43.293  29.731  28.904  1.00  0.00    -0.248 NA
ATOM     40  C   UNL A   1      42.559  29.565  26.704  1.00  0.00     0.031 C 
ATOM     41  C   UNL A   1      39.035  27.747  29.446  1.00  0.00     0.029 A 
ATOM     42  N   UNL A   1      39.952  29.709  29.881  1.00  0.00    -0.354 N 
ATOM     43  C   UNL A   1      44.081  30.530  28.092  1.00  0.00     0.074 A 
ATOM     44  C   UNL A   1      43.708  30.238  26.733  1.00  0.00     0.031 C 
ATOM     45  C   UNL A   1      38.076  28.520  30.015  1.00  0.00     0.029 A 
ATOM     46  C   UNL A   1      38.644  29.822  30.322  1.00  0.00     0.049 A 
ATOM     47  H   UNL A   1      40.627  30.409  30.036  1.00  0.00     0.167 HD
ATOM     48  C   UNL A   1      44.795  31.555  28.624  1.00  0.00     0.037 A 
ATOM     49  C   UNL A   1      38.097  30.953  30.835  1.00  0.00     0.037 A 
ATOM     50  C   UNL A   1      44.954  31.395  30.048  1.00  0.00     0.049 A 
ATOM     51  C   UNL A   1      39.223  31.798  31.320  1.00  0.00     0.074 A 
ATOM     52  C   UNL A   1      45.603  30.479  30.853  1.00  0.00     0.029 A 
ATOM     53  N   UNL A   1      44.055  32.039  30.862  1.00  0.00    -0.354 N 
ATOM     54  N   UNL A   1      39.977  31.479  32.336  1.00  0.00    -0.248 NA
ATOM     55  C   UNL A   1      39.808  32.750  30.386  1.00  0.00     0.031 C 
ATOM     56  C   UNL A   1      44.755  30.309  31.988  1.00  0.00     0.029 A 
ATOM     57  C   UNL A   1      43.662  31.164  31.844  1.00  0.00     0.049 A 
ATOM     58  H   UNL A   1      43.745  32.967  30.760  1.00  0.00     0.167 HD
ATOM     59  C   UNL A   1      41.262  31.836  31.953  1.00  0.00     0.074 A 
ATOM     60  C   UNL A   1      41.085  32.685  30.777  1.00  0.00     0.031 C 
ATOM     61  C   UNL A   1      42.350  31.177  32.451  1.00  0.00     0.037 A 
BRANCH  48  62
ATOM     62  C   UNL A   1      44.994  32.866  27.916  1.00  0.00     0.064 A 
ATOM     63  C   UNL A   1      46.273  33.195  27.438  1.00  0.00     0.173 A 
ATOM     64  C   UNL A   1      44.057  33.924  27.942  1.00  0.00     0.173 A 
ATOM     65  F   UNL A   1      47.246  32.271  27.398  1.00  0.00    -0.203 F 
ATOM     66  C   UNL A   1      46.607  34.502  27.074  1.00  0.00     0.198 A 
ATOM     67  C   UNL A   1      44.376  35.212  27.522  1.00  0.00     0.198 A 
ATOM     68  F   UNL A   1      42.839  33.793  28.477  1.00  0.00    -0.203 F 
ATOM     69  F   UNL A   1      47.870  34.795  26.741  1.00  0.00    -0.200 F 
ATOM     70  C   UNL A   1      45.659  35.509  27.119  1.00  0.00     0.200 A 
ATOM     71  F   UNL A   1      43.448  36.176  27.597  1.00  0.00    -0.200 F 
ATOM     72  F   UNL A   1      45.991  36.772  26.825  1.00  0.00    -0.200 F 
ENDBRANCH  48  62
BRANCH  49  73
ATOM     73  C   UNL A   1      36.758  31.525  30.549  1.00  0.00     0.064 A 
ATOM     74  C   UNL A   1      35.906  31.908  31.599  1.00  0.00     0.173 A 
ATOM     75  C   UNL A   1      36.422  31.997  29.265  1.00  0.00     0.173 A 
ATOM     76  F   UNL A   1      36.181  31.536  32.858  1.00  0.00    -0.203 F 
ATOM     77  C   UNL A   1      34.809  32.748  31.385  1.00  0.00     0.198 A 
ATOM     78  C   UNL A   1      35.324  32.832  29.052  1.00  0.00     0.198 A 
ATOM     79  F   UNL A   1      37.210  31.744  28.210  1.00  0.00    -0.203 F 
ATOM     80  F   UNL A   1      34.062  33.151  32.422  1.00  0.00    -0.200 F 
ATOM     81  C   UNL A   1      34.528  33.221  30.114  1.00  0.00     0.200 A 
ATOM     82  F   UNL A   1      35.085  33.315  27.824  1.00  0.00    -0.200 F 
ATOM     83  F   UNL A   1      33.521  34.084  29.918  1.00  0.00    -0.200 F 
ENDBRANCH  49  73
BRANCH  61  84
ATOM     84  C   UNL A   1      42.111  30.231  33.598  1.00  0.00     0.064 A 
ATOM     85  C   UNL A   1      41.764  28.875  33.444  1.00  0.00     0.173 A 
ATOM     86  C   UNL A   1      42.348  30.685  34.902  1.00  0.00     0.173 A 
ATOM     87  F   UNL A   1      41.620  28.335  32.229  1.00  0.00    -0.203 F 
ATOM     88  C   UNL A   1      41.608  28.035  34.547  1.00  0.00     0.198 A 
ATOM     89  C   UNL A   1      42.232  29.835  35.999  1.00  0.00     0.198 A 
ATOM     90  F   UNL A   1      42.738  31.952  35.109  1.00  0.00    -0.203 F 
ATOM     91  F   UNL A   1      41.255  26.752  34.372  1.00  0.00    -0.200 F 
ATOM     92  C   UNL A   1      41.848  28.515  35.823  1.00  0.00     0.200 A 
ATOM     93  F   UNL A   1      42.513  30.291  37.226  1.00  0.00    -0.200 F 
ATOM     94  F   UNL A   1      41.734  27.700  36.882  1.00  0.00    -0.200 F 
ENDBRANCH  61  84
ENDBRANCH  35  36
ENDBRANCH  28  30
ENDBRANCH  27  28
ENDBRANCH  26  27
ENDBRANCH  25  26
ENDBRANCH  24  25
ENDBRANCH   1  24
TORSDOF 17
ENDMDL
