MODEL 1
REMARK VINA RESULT:     -11.5      0.000      0.000
REMARK SMILES CC(C)(C)c1nnsc1C(=O)N[C@](C)(C(=O)OCCOCCOC(=O)c1ccc(-c2c3nc(c(-c4c(F)c(F)c(F)c(F)c4F)c4ccc([nH]4)c(-c4c(F)c(F)c(F)c(F)c4F)c4nc(c(-c5c(F)c(F)c(F)c(F)c5F)c5ccc2[nH]5)C=C4)C=C3)cc1)C(F)(F)F
REMARK SMILES IDX 19 1 18 2 17 3 15 4 16 5 13 6 14 7 12 8 10 9 11 10 9 12 5 13
REMARK SMILES IDX 6 14 7 15 8 16 2 17 1 18 3 19 4 20 89 21 90 22 91 23 92 24
REMARK SMILES IDX 20 25 21 26 22 27 23 28 24 29 25 30 26 31 27 32 88 33 28 34
REMARK SMILES IDX 87 35 29 36 30 37 31 38 81 39 32 40 86 41 80 42 82 43 33 44
REMARK SMILES IDX 85 45 79 46 78 47 34 49 66 50 46 51 65 52 47 53 50 54 64 55
REMARK SMILES IDX 83 56 48 57 49 58 63 60 84 61 51 62 35 63 36 64 44 65 37 66
REMARK SMILES IDX 38 67 42 68 45 69 39 70 40 71 43 72 41 73 67 74 68 75 76 76
REMARK SMILES IDX 69 77 70 78 74 79 77 80 71 81 72 82 75 83 73 84 52 85 53 86
REMARK SMILES IDX 61 87 54 88 55 89 59 90 62 91 56 92 57 93 60 94 58 95
REMARK H PARENT 12 11 82 48 50 59
REMARK Flexibility Score: inf
ROOT
ATOM      1  C   UNL A   1      32.448  28.899  25.282  1.00  0.00     0.202 C 
ENDROOT
BRANCH   1   2
ATOM      2  C   UNL A   1      31.176  28.194  24.787  1.00  0.00     0.261 C 
BRANCH   2   3
ATOM      3  O   UNL A   1      31.399  26.790  24.463  1.00  0.00    -0.461 OA
BRANCH   3   4
ATOM      4  C   UNL A   1      31.100  25.882  25.434  1.00  0.00     0.341 C 
ATOM      5  O   UNL A   1      30.350  26.180  26.357  1.00  0.00    -0.249 OA
BRANCH   4   6
ATOM      6  C   UNL A   1      31.941  24.562  25.394  1.00  0.00     0.231 C 
ATOM      7  C   UNL A   1      31.664  23.306  26.236  1.00  0.00     0.058 C 
BRANCH   6   8
ATOM      8  N   UNL A   1      32.044  24.085  23.983  1.00  0.00    -0.328 N 
ATOM      9  C   UNL A   1      32.898  23.199  23.350  1.00  0.00     0.266 C 
ATOM     10  O   UNL A   1      32.913  23.340  22.122  1.00  0.00    -0.268 OA
ATOM     11  H   UNL A   1      31.371  24.480  23.383  1.00  0.00     0.165 HD
BRANCH   9  12
ATOM     12  C   UNL A   1      33.592  22.085  23.984  1.00  0.00     0.137 A 
ATOM     13  C   UNL A   1      34.869  21.667  24.414  1.00  0.00     0.094 A 
ATOM     14  N   UNL A   1      34.862  20.375  24.979  1.00  0.00    -0.142 NA
ATOM     15  N   UNL A   1      33.705  19.763  24.892  1.00  0.00    -0.090 NA
ATOM     16  S   UNL A   1      32.551  20.686  24.154  1.00  0.00    -0.006 S 
BRANCH  13  17
ATOM     17  C   UNL A   1      36.277  22.301  24.395  1.00  0.00     0.008 C 
ATOM     18  C   UNL A   1      36.517  23.225  25.598  1.00  0.00     0.018 C 
ATOM     19  C   UNL A   1      36.620  22.941  23.041  1.00  0.00     0.018 C 
ATOM     20  C   UNL A   1      37.382  21.240  24.621  1.00  0.00     0.018 C 
ENDBRANCH  13  17
ENDBRANCH   9  12
ENDBRANCH   6   8
BRANCH   6  21
ATOM     21  C   UNL A   1      33.281  25.052  26.034  1.00  0.00     0.422 C 
ATOM     22  F   UNL A   1      34.140  25.460  25.063  1.00  0.00    -0.168 F 
ATOM     23  F   UNL A   1      33.065  26.137  26.829  1.00  0.00    -0.168 F 
ATOM     24  F   UNL A   1      33.902  24.153  26.816  1.00  0.00    -0.168 F 
ENDBRANCH   6  21
ENDBRANCH   4   6
ENDBRANCH   3   4
ENDBRANCH   2   3
ENDBRANCH   1   2
BRANCH   1  25
ATOM     25  O   UNL A   1      32.372  30.329  25.256  1.00  0.00    -0.374 OA
BRANCH  25  26
ATOM     26  C   UNL A   1      31.353  30.920  26.057  1.00  0.00     0.202 C 
BRANCH  26  27
ATOM     27  C   UNL A   1      31.749  32.228  26.775  1.00  0.00     0.261 C 
BRANCH  27  28
ATOM     28  O   UNL A   1      32.754  32.044  27.788  1.00  0.00    -0.460 OA
BRANCH  28  29
ATOM     29  C   UNL A   1      33.684  33.024  27.888  1.00  0.00     0.338 C 
ATOM     30  O   UNL A   1      33.491  34.224  27.911  1.00  0.00    -0.246 OA
BRANCH  29  31
ATOM     31  C   UNL A   1      35.030  32.436  28.059  1.00  0.00     0.060 A 
ATOM     32  C   UNL A   1      35.131  31.047  28.142  1.00  0.00     0.016 A 
ATOM     33  C   UNL A   1      36.160  33.233  28.263  1.00  0.00     0.016 A 
ATOM     34  C   UNL A   1      36.344  30.459  28.512  1.00  0.00     0.010 A 
ATOM     35  C   UNL A   1      37.394  32.638  28.550  1.00  0.00     0.010 A 
ATOM     36  C   UNL A   1      37.473  31.253  28.770  1.00  0.00    -0.014 A 
BRANCH  36  37
ATOM     37  C   UNL A   1      38.630  30.661  29.502  1.00  0.00     0.031 A 
ATOM     38  C   UNL A   1      38.828  31.016  30.959  1.00  0.00     0.074 A 
ATOM     39  C   UNL A   1      39.440  29.752  28.927  1.00  0.00     0.049 A 
ATOM     40  N   UNL A   1      39.707  30.563  31.820  1.00  0.00    -0.248 NA
ATOM     41  C   UNL A   1      37.917  32.025  31.524  1.00  0.00     0.031 C 
ATOM     42  C   UNL A   1      39.362  29.308  27.538  1.00  0.00     0.029 A 
ATOM     43  N   UNL A   1      40.480  29.023  29.455  1.00  0.00    -0.354 N 
ATOM     44  C   UNL A   1      39.450  31.229  33.012  1.00  0.00     0.074 A 
ATOM     45  C   UNL A   1      38.385  32.169  32.753  1.00  0.00     0.031 C 
ATOM     46  C   UNL A   1      40.295  28.363  27.329  1.00  0.00     0.029 A 
ATOM     47  C   UNL A   1      41.055  28.154  28.561  1.00  0.00     0.049 A 
ATOM     48  H   UNL A   1      40.784  29.116  30.387  1.00  0.00     0.167 HD
ATOM     49  C   UNL A   1      40.021  31.058  34.228  1.00  0.00     0.037 A 
ATOM     50  C   UNL A   1      42.078  27.289  28.719  1.00  0.00     0.037 A 
ATOM     51  C   UNL A   1      41.069  30.112  34.505  1.00  0.00     0.049 A 
ATOM     52  C   UNL A   1      42.738  27.155  30.070  1.00  0.00     0.074 A 
ATOM     53  C   UNL A   1      41.695  29.847  35.709  1.00  0.00     0.029 A 
ATOM     54  N   UNL A   1      41.647  29.280  33.559  1.00  0.00    -0.354 N 
ATOM     55  N   UNL A   1      42.453  27.757  31.200  1.00  0.00    -0.248 NA
ATOM     56  C   UNL A   1      43.861  26.210  30.168  1.00  0.00     0.031 C 
ATOM     57  C   UNL A   1      42.695  28.898  35.481  1.00  0.00     0.029 A 
ATOM     58  C   UNL A   1      42.643  28.519  34.149  1.00  0.00     0.049 A 
ATOM     59  H   UNL A   1      41.388  29.235  32.610  1.00  0.00     0.167 HD
ATOM     60  C   UNL A   1      43.329  27.235  32.146  1.00  0.00     0.074 A 
ATOM     61  C   UNL A   1      44.148  26.259  31.461  1.00  0.00     0.031 C 
ATOM     62  C   UNL A   1      43.443  27.536  33.463  1.00  0.00     0.037 A 
BRANCH  49  63
ATOM     63  C   UNL A   1      39.528  31.921  35.355  1.00  0.00     0.064 A 
ATOM     64  C   UNL A   1      38.557  31.469  36.263  1.00  0.00     0.173 A 
ATOM     65  C   UNL A   1      40.054  33.207  35.547  1.00  0.00     0.173 A 
ATOM     66  F   UNL A   1      38.010  30.253  36.118  1.00  0.00    -0.203 F 
ATOM     67  C   UNL A   1      38.108  32.286  37.299  1.00  0.00     0.198 A 
ATOM     68  C   UNL A   1      39.630  34.007  36.605  1.00  0.00     0.198 A 
ATOM     69  F   UNL A   1      40.988  33.688  34.712  1.00  0.00    -0.203 F 
ATOM     70  F   UNL A   1      37.139  31.854  38.118  1.00  0.00    -0.200 F 
ATOM     71  C   UNL A   1      38.651  33.550  37.474  1.00  0.00     0.200 A 
ATOM     72  F   UNL A   1      40.167  35.222  36.782  1.00  0.00    -0.200 F 
ATOM     73  F   UNL A   1      38.224  34.330  38.476  1.00  0.00    -0.200 F 
ENDBRANCH  49  63
BRANCH  50  74
ATOM     74  C   UNL A   1      42.545  26.465  27.571  1.00  0.00     0.064 A 
ATOM     75  C   UNL A   1      42.008  25.194  27.319  1.00  0.00     0.173 A 
ATOM     76  C   UNL A   1      43.568  26.917  26.724  1.00  0.00     0.173 A 
ATOM     77  F   UNL A   1      41.048  24.703  28.117  1.00  0.00    -0.203 F 
ATOM     78  C   UNL A   1      42.492  24.398  26.283  1.00  0.00     0.198 A 
ATOM     79  C   UNL A   1      44.029  26.133  25.667  1.00  0.00     0.198 A 
ATOM     80  F   UNL A   1      44.122  28.122  26.922  1.00  0.00    -0.203 F 
ATOM     81  F   UNL A   1      42.003  23.163  26.105  1.00  0.00    -0.200 F 
ATOM     82  C   UNL A   1      43.498  24.870  25.455  1.00  0.00     0.200 A 
ATOM     83  F   UNL A   1      44.994  26.598  24.862  1.00  0.00    -0.200 F 
ATOM     84  F   UNL A   1      43.966  24.103  24.460  1.00  0.00    -0.200 F 
ENDBRANCH  50  74
BRANCH  62  85
ATOM     85  C   UNL A   1      44.448  26.767  34.273  1.00  0.00     0.064 A 
ATOM     86  C   UNL A   1      44.132  25.546  34.887  1.00  0.00     0.173 A 
ATOM     87  C   UNL A   1      45.766  27.237  34.394  1.00  0.00     0.173 A 
ATOM     88  F   UNL A   1      42.885  25.054  34.810  1.00  0.00    -0.203 F 
ATOM     89  C   UNL A   1      45.087  24.842  35.618  1.00  0.00     0.198 A 
ATOM     90  C   UNL A   1      46.727  26.513  35.094  1.00  0.00     0.198 A 
ATOM     91  F   UNL A   1      46.128  28.393  33.817  1.00  0.00    -0.203 F 
ATOM     92  F   UNL A   1      44.747  23.705  36.240  1.00  0.00    -0.200 F 
ATOM     93  C   UNL A   1      46.385  25.321  35.713  1.00  0.00     0.200 A 
ATOM     94  F   UNL A   1      47.985  26.969  35.169  1.00  0.00    -0.200 F 
ATOM     95  F   UNL A   1      47.304  24.638  36.408  1.00  0.00    -0.200 F 
ENDBRANCH  62  85
ENDBRANCH  36  37
ENDBRANCH  29  31
ENDBRANCH  28  29
ENDBRANCH  27  28
ENDBRANCH  26  27
ENDBRANCH  25  26
ENDBRANCH   1  25
TORSDOF 18
ENDMDL
MODEL 2
REMARK VINA RESULT:     -11.3      0.593      2.044
REMARK SMILES CC(C)(C)c1nnsc1C(=O)N[C@](C)(C(=O)OCCOCCOC(=O)c1ccc(-c2c3nc(c(-c4c(F)c(F)c(F)c(F)c4F)c4ccc([nH]4)c(-c4c(F)c(F)c(F)c(F)c4F)c4nc(c(-c5c(F)c(F)c(F)c(F)c5F)c5ccc2[nH]5)C=C4)C=C3)cc1)C(F)(F)F
REMARK SMILES IDX 19 1 18 2 17 3 15 4 16 5 13 6 14 7 12 8 10 9 11 10 9 12 5 13
REMARK SMILES IDX 6 14 7 15 8 16 2 17 1 18 3 19 4 20 89 21 90 22 91 23 92 24
REMARK SMILES IDX 20 25 21 26 22 27 23 28 24 29 25 30 26 31 27 32 88 33 28 34
REMARK SMILES IDX 87 35 29 36 30 37 31 38 81 39 32 40 86 41 80 42 82 43 33 44
REMARK SMILES IDX 85 45 79 46 78 47 34 49 66 50 46 51 65 52 47 53 50 54 64 55
REMARK SMILES IDX 83 56 48 57 49 58 63 60 84 61 51 62 35 63 36 64 44 65 37 66
REMARK SMILES IDX 38 67 42 68 45 69 39 70 40 71 43 72 41 73 67 74 68 75 76 76
REMARK SMILES IDX 69 77 70 78 74 79 77 80 71 81 72 82 75 83 73 84 52 85 53 86
REMARK SMILES IDX 61 87 54 88 55 89 59 90 62 91 56 92 57 93 60 94 58 95
REMARK H PARENT 12 11 82 48 50 59
REMARK Flexibility Score: inf
ROOT
ATOM      1  C   UNL A   1      33.157  28.883  25.833  1.00  0.00     0.202 C 
ENDROOT
BRANCH   1   2
ATOM      2  C   UNL A   1      32.533  28.832  24.431  1.00  0.00     0.261 C 
BRANCH   2   3
ATOM      3  O   UNL A   1      32.414  27.473  23.916  1.00  0.00    -0.461 OA
BRANCH   3   4
ATOM      4  C   UNL A   1      31.467  26.680  24.492  1.00  0.00     0.341 C 
ATOM      5  O   UNL A   1      30.521  27.174  25.094  1.00  0.00    -0.249 OA
BRANCH   4   6
ATOM      6  C   UNL A   1      31.803  25.150  24.514  1.00  0.00     0.231 C 
ATOM      7  C   UNL A   1      30.833  24.033  24.929  1.00  0.00     0.058 C 
BRANCH   6   8
ATOM      8  N   UNL A   1      32.337  24.742  23.180  1.00  0.00    -0.328 N 
ATOM      9  C   UNL A   1      33.242  23.774  22.785  1.00  0.00     0.266 C 
ATOM     10  O   UNL A   1      33.706  23.980  21.658  1.00  0.00    -0.268 OA
ATOM     11  H   UNL A   1      31.972  25.269  22.432  1.00  0.00     0.165 HD
BRANCH   9  12
ATOM     12  C   UNL A   1      33.525  22.533  23.497  1.00  0.00     0.137 A 
ATOM     13  C   UNL A   1      34.536  21.873  24.227  1.00  0.00     0.094 A 
ATOM     14  N   UNL A   1      34.147  20.590  24.665  1.00  0.00    -0.142 NA
ATOM     15  N   UNL A   1      32.976  20.207  24.216  1.00  0.00    -0.090 NA
ATOM     16  S   UNL A   1      32.255  21.349  23.264  1.00  0.00    -0.006 S 
BRANCH  13  17
ATOM     17  C   UNL A   1      35.979  22.234  24.644  1.00  0.00     0.008 C 
ATOM     18  C   UNL A   1      36.034  22.922  26.016  1.00  0.00     0.018 C 
ATOM     19  C   UNL A   1      36.745  22.980  23.542  1.00  0.00     0.018 C 
ATOM     20  C   UNL A   1      36.824  20.966  24.923  1.00  0.00     0.018 C 
ENDBRANCH  13  17
ENDBRANCH   9  12
ENDBRANCH   6   8
BRANCH   6  21
ATOM     21  C   UNL A   1      32.832  25.096  25.691  1.00  0.00     0.422 C 
ATOM     22  F   UNL A   1      32.880  23.842  26.211  1.00  0.00    -0.168 F 
ATOM     23  F   UNL A   1      34.089  25.368  25.242  1.00  0.00    -0.168 F 
ATOM     24  F   UNL A   1      32.608  25.972  26.684  1.00  0.00    -0.168 F 
ENDBRANCH   6  21
ENDBRANCH   4   6
ENDBRANCH   3   4
ENDBRANCH   2   3
ENDBRANCH   1   2
BRANCH   1  25
ATOM     25  O   UNL A   1      32.450  29.719  26.757  1.00  0.00    -0.374 OA
BRANCH  25  26
ATOM     26  C   UNL A   1      31.786  30.850  26.203  1.00  0.00     0.202 C 
BRANCH  26  27
ATOM     27  C   UNL A   1      31.828  32.132  27.063  1.00  0.00     0.261 C 
BRANCH  27  28
ATOM     28  O   UNL A   1      33.060  32.865  26.939  1.00  0.00    -0.460 OA
BRANCH  28  29
ATOM     29  C   UNL A   1      33.642  33.250  28.100  1.00  0.00     0.338 C 
ATOM     30  O   UNL A   1      33.168  33.966  28.960  1.00  0.00    -0.246 OA
BRANCH  29  31
ATOM     31  C   UNL A   1      34.961  32.600  28.252  1.00  0.00     0.060 A 
ATOM     32  C   UNL A   1      34.990  31.223  28.475  1.00  0.00     0.016 A 
ATOM     33  C   UNL A   1      36.145  33.341  28.303  1.00  0.00     0.016 A 
ATOM     34  C   UNL A   1      36.190  30.602  28.832  1.00  0.00     0.010 A 
ATOM     35  C   UNL A   1      37.361  32.703  28.577  1.00  0.00     0.010 A 
ATOM     36  C   UNL A   1      37.376  31.346  28.937  1.00  0.00    -0.014 A 
BRANCH  36  37
ATOM     37  C   UNL A   1      38.544  30.761  29.657  1.00  0.00     0.031 A 
ATOM     38  C   UNL A   1      38.765  31.131  31.107  1.00  0.00     0.074 A 
ATOM     39  C   UNL A   1      39.344  29.845  29.080  1.00  0.00     0.049 A 
ATOM     40  N   UNL A   1      39.657  30.686  31.959  1.00  0.00    -0.248 NA
ATOM     41  C   UNL A   1      37.864  32.147  31.675  1.00  0.00     0.031 C 
ATOM     42  C   UNL A   1      39.243  29.385  27.697  1.00  0.00     0.029 A 
ATOM     43  N   UNL A   1      40.392  29.120  29.599  1.00  0.00    -0.354 N 
ATOM     44  C   UNL A   1      39.420  31.366  33.147  1.00  0.00     0.074 A 
ATOM     45  C   UNL A   1      38.351  32.304  32.894  1.00  0.00     0.031 C 
ATOM     46  C   UNL A   1      40.172  28.437  27.484  1.00  0.00     0.029 A 
ATOM     47  C   UNL A   1      40.952  28.240  28.706  1.00  0.00     0.049 A 
ATOM     48  H   UNL A   1      40.710  29.223  30.525  1.00  0.00     0.167 HD
ATOM     49  C   UNL A   1      40.009  31.207  34.356  1.00  0.00     0.037 A 
ATOM     50  C   UNL A   1      41.976  27.376  28.858  1.00  0.00     0.037 A 
ATOM     51  C   UNL A   1      41.060  30.264  34.627  1.00  0.00     0.049 A 
ATOM     52  C   UNL A   1      42.657  27.256  30.199  1.00  0.00     0.074 A 
ATOM     53  C   UNL A   1      41.706  30.011  35.824  1.00  0.00     0.029 A 
ATOM     54  N   UNL A   1      41.623  29.420  33.682  1.00  0.00    -0.354 N 
ATOM     55  N   UNL A   1      42.390  27.871  31.327  1.00  0.00    -0.248 NA
ATOM     56  C   UNL A   1      43.781  26.311  30.290  1.00  0.00     0.031 C 
ATOM     57  C   UNL A   1      42.701  29.058  35.591  1.00  0.00     0.029 A 
ATOM     58  C   UNL A   1      42.627  28.665  34.264  1.00  0.00     0.049 A 
ATOM     59  H   UNL A   1      41.349  29.365  32.737  1.00  0.00     0.167 HD
ATOM     60  C   UNL A   1      43.281  27.358  32.264  1.00  0.00     0.074 A 
ATOM     61  C   UNL A   1      44.088  26.374  31.577  1.00  0.00     0.031 C 
ATOM     62  C   UNL A   1      43.415  27.673  33.577  1.00  0.00     0.037 A 
BRANCH  49  63
ATOM     63  C   UNL A   1      39.535  32.083  35.481  1.00  0.00     0.064 A 
ATOM     64  C   UNL A   1      40.027  33.386  35.663  1.00  0.00     0.173 A 
ATOM     65  C   UNL A   1      38.555  31.624  36.375  1.00  0.00     0.173 A 
ATOM     66  F   UNL A   1      40.975  33.870  34.847  1.00  0.00    -0.203 F 
ATOM     67  C   UNL A   1      39.579  34.181  36.716  1.00  0.00     0.198 A 
ATOM     68  C   UNL A   1      38.083  32.435  37.403  1.00  0.00     0.198 A 
ATOM     69  F   UNL A   1      38.046  30.389  36.245  1.00  0.00    -0.203 F 
ATOM     70  F   UNL A   1      40.104  35.399  36.903  1.00  0.00    -0.200 F 
ATOM     71  C   UNL A   1      38.602  33.708  37.579  1.00  0.00     0.200 A 
ATOM     72  F   UNL A   1      37.128  31.982  38.227  1.00  0.00    -0.200 F 
ATOM     73  F   UNL A   1      38.166  34.478  38.585  1.00  0.00    -0.200 F 
ENDBRANCH  49  63
BRANCH  50  74
ATOM     74  C   UNL A   1      42.424  26.539  27.711  1.00  0.00     0.064 A 
ATOM     75  C   UNL A   1      43.438  26.971  26.844  1.00  0.00     0.173 A 
ATOM     76  C   UNL A   1      41.817  25.304  27.436  1.00  0.00     0.173 A 
ATOM     77  F   UNL A   1      44.030  28.158  27.045  1.00  0.00    -0.203 F 
ATOM     78  C   UNL A   1      43.809  26.215  25.733  1.00  0.00     0.198 A 
ATOM     79  C   UNL A   1      42.213  24.533  26.344  1.00  0.00     0.198 A 
ATOM     80  F   UNL A   1      40.838  24.844  28.228  1.00  0.00    -0.203 F 
ATOM     81  F   UNL A   1      44.738  26.682  24.887  1.00  0.00    -0.200 F 
ATOM     82  C   UNL A   1      43.200  24.994  25.488  1.00  0.00     0.200 A 
ATOM     83  F   UNL A   1      41.629  23.349  26.117  1.00  0.00    -0.200 F 
ATOM     84  F   UNL A   1      43.556  24.269  24.419  1.00  0.00    -0.200 F 
ENDBRANCH  50  74
BRANCH  62  85
ATOM     85  C   UNL A   1      44.433  26.912  34.379  1.00  0.00     0.064 A 
ATOM     86  C   UNL A   1      45.741  27.383  34.558  1.00  0.00     0.173 A 
ATOM     87  C   UNL A   1      44.075  25.715  35.020  1.00  0.00     0.173 A 
ATOM     88  F   UNL A   1      46.139  28.518  33.962  1.00  0.00    -0.203 F 
ATOM     89  C   UNL A   1      46.662  26.668  35.321  1.00  0.00     0.198 A 
ATOM     90  C   UNL A   1      44.987  25.022  35.811  1.00  0.00     0.198 A 
ATOM     91  F   UNL A   1      42.833  25.224  34.893  1.00  0.00    -0.203 F 
ATOM     92  F   UNL A   1      47.922  27.110  35.435  1.00  0.00    -0.200 F 
ATOM     93  C   UNL A   1      46.283  25.494  35.954  1.00  0.00     0.200 A 
ATOM     94  F   UNL A   1      44.611  23.898  36.437  1.00  0.00    -0.200 F 
ATOM     95  F   UNL A   1      47.167  24.814  36.695  1.00  0.00    -0.200 F 
ENDBRANCH  62  85
ENDBRANCH  36  37
ENDBRANCH  29  31
ENDBRANCH  28  29
ENDBRANCH  27  28
ENDBRANCH  26  27
ENDBRANCH  25  26
ENDBRANCH   1  25
TORSDOF 18
ENDMDL
MODEL 3
REMARK VINA RESULT:     -11.3      4.211      9.881
REMARK SMILES CC(C)(C)c1nnsc1C(=O)N[C@](C)(C(=O)OCCOCCOC(=O)c1ccc(-c2c3nc(c(-c4c(F)c(F)c(F)c(F)c4F)c4ccc([nH]4)c(-c4c(F)c(F)c(F)c(F)c4F)c4nc(c(-c5c(F)c(F)c(F)c(F)c5F)c5ccc2[nH]5)C=C4)C=C3)cc1)C(F)(F)F
REMARK SMILES IDX 19 1 18 2 17 3 15 4 16 5 13 6 14 7 12 8 10 9 11 10 9 12 5 13
REMARK SMILES IDX 6 14 7 15 8 16 2 17 1 18 3 19 4 20 89 21 90 22 91 23 92 24
REMARK SMILES IDX 20 25 21 26 22 27 23 28 24 29 25 30 26 31 27 32 88 33 28 34
REMARK SMILES IDX 87 35 29 36 30 37 31 38 81 39 32 40 86 41 80 42 82 43 33 44
REMARK SMILES IDX 85 45 79 46 78 47 34 49 66 50 46 51 65 52 47 53 50 54 64 55
REMARK SMILES IDX 83 56 48 57 49 58 63 60 84 61 51 62 35 63 36 64 44 65 37 66
REMARK SMILES IDX 38 67 42 68 45 69 39 70 40 71 43 72 41 73 67 74 68 75 76 76
REMARK SMILES IDX 69 77 70 78 74 79 77 80 71 81 72 82 75 83 73 84 52 85 53 86
REMARK SMILES IDX 61 87 54 88 55 89 59 90 62 91 56 92 57 93 60 94 58 95
REMARK H PARENT 12 11 82 48 50 59
REMARK Flexibility Score: inf
ROOT
ATOM      1  C   UNL A   1      35.771  23.588  24.971  1.00  0.00     0.202 C 
ENDROOT
BRANCH   1   2
ATOM      2  C   UNL A   1      34.455  23.734  24.192  1.00  0.00     0.261 C 
BRANCH   2   3
ATOM      3  O   UNL A   1      33.388  22.896  24.726  1.00  0.00    -0.461 OA
BRANCH   3   4
ATOM      4  C   UNL A   1      32.111  23.268  24.430  1.00  0.00     0.341 C 
ATOM      5  O   UNL A   1      31.657  23.101  23.303  1.00  0.00    -0.249 OA
BRANCH   4   6
ATOM      6  C   UNL A   1      31.385  24.100  25.540  1.00  0.00     0.231 C 
ATOM      7  C   UNL A   1      32.078  25.013  26.564  1.00  0.00     0.058 C 
BRANCH   6   8
ATOM      8  N   UNL A   1      30.319  24.937  24.913  1.00  0.00    -0.328 N 
ATOM      9  C   UNL A   1      30.261  26.272  24.554  1.00  0.00     0.266 C 
ATOM     10  O   UNL A   1      29.104  26.681  24.408  1.00  0.00    -0.268 OA
ATOM     11  H   UNL A   1      29.492  24.441  24.717  1.00  0.00     0.165 HD
BRANCH   9  12
ATOM     12  C   UNL A   1      31.402  27.107  24.197  1.00  0.00     0.137 A 
ATOM     13  C   UNL A   1      32.204  28.162  24.681  1.00  0.00     0.094 A 
ATOM     14  N   UNL A   1      33.212  28.546  23.771  1.00  0.00    -0.142 NA
ATOM     15  N   UNL A   1      33.140  27.939  22.611  1.00  0.00    -0.090 NA
ATOM     16  S   UNL A   1      31.888  26.863  22.532  1.00  0.00    -0.006 S 
BRANCH  13  17
ATOM     17  C   UNL A   1      32.221  29.001  25.977  1.00  0.00     0.008 C 
ATOM     18  C   UNL A   1      31.496  28.298  27.135  1.00  0.00     0.018 C 
ATOM     19  C   UNL A   1      31.772  30.452  25.751  1.00  0.00     0.018 C 
ATOM     20  C   UNL A   1      33.651  29.116  26.561  1.00  0.00     0.018 C 
ENDBRANCH  13  17
ENDBRANCH   9  12
ENDBRANCH   6   8
BRANCH   6  21
ATOM     21  C   UNL A   1      30.871  22.953  26.472  1.00  0.00     0.422 C 
ATOM     22  F   UNL A   1      29.692  23.310  27.045  1.00  0.00    -0.168 F 
ATOM     23  F   UNL A   1      30.615  21.827  25.751  1.00  0.00    -0.168 F 
ATOM     24  F   UNL A   1      31.728  22.575  27.435  1.00  0.00    -0.168 F 
ENDBRANCH   6  21
ENDBRANCH   4   6
ENDBRANCH   3   4
ENDBRANCH   2   3
ENDBRANCH   1   2
BRANCH   1  25
ATOM     25  O   UNL A   1      35.894  22.353  25.685  1.00  0.00    -0.374 OA
BRANCH  25  26
ATOM     26  C   UNL A   1      36.202  21.202  24.904  1.00  0.00     0.202 C 
BRANCH  26  27
ATOM     27  C   UNL A   1      37.532  20.500  25.255  1.00  0.00     0.261 C 
BRANCH  27  28
ATOM     28  O   UNL A   1      38.675  21.370  25.186  1.00  0.00    -0.460 OA
BRANCH  28  29
ATOM     29  C   UNL A   1      39.667  21.121  26.075  1.00  0.00     0.338 C 
ATOM     30  O   UNL A   1      40.301  20.093  26.204  1.00  0.00    -0.246 OA
BRANCH  29  31
ATOM     31  C   UNL A   1      39.964  22.338  26.862  1.00  0.00     0.060 A 
ATOM     32  C   UNL A   1      39.212  23.484  26.605  1.00  0.00     0.016 A 
ATOM     33  C   UNL A   1      41.045  22.394  27.747  1.00  0.00     0.016 A 
ATOM     34  C   UNL A   1      39.592  24.705  27.167  1.00  0.00     0.010 A 
ATOM     35  C   UNL A   1      41.373  23.601  28.377  1.00  0.00     0.010 A 
ATOM     36  C   UNL A   1      40.707  24.784  28.017  1.00  0.00    -0.014 A 
BRANCH  36  37
ATOM     37  C   UNL A   1      41.309  26.117  28.310  1.00  0.00     0.031 A 
ATOM     38  C   UNL A   1      42.694  26.422  27.783  1.00  0.00     0.074 A 
ATOM     39  C   UNL A   1      40.617  27.081  28.945  1.00  0.00     0.049 A 
ATOM     40  N   UNL A   1      43.385  27.535  27.838  1.00  0.00    -0.248 NA
ATOM     41  C   UNL A   1      43.403  25.322  27.109  1.00  0.00     0.031 C 
ATOM     42  C   UNL A   1      39.272  26.933  29.498  1.00  0.00     0.029 A 
ATOM     43  N   UNL A   1      40.949  28.389  29.215  1.00  0.00    -0.354 N 
ATOM     44  C   UNL A   1      44.595  27.263  27.210  1.00  0.00     0.074 A 
ATOM     45  C   UNL A   1      44.579  25.866  26.844  1.00  0.00     0.031 C 
ATOM     46  C   UNL A   1      38.882  28.111  30.016  1.00  0.00     0.029 A 
ATOM     47  C   UNL A   1      39.957  29.089  29.858  1.00  0.00     0.049 A 
ATOM     48  H   UNL A   1      41.816  28.785  28.970  1.00  0.00     0.167 HD
ATOM     49  C   UNL A   1      45.619  28.102  26.927  1.00  0.00     0.037 A 
ATOM     50  C   UNL A   1      39.924  30.373  30.271  1.00  0.00     0.037 A 
ATOM     51  C   UNL A   1      45.640  29.499  27.268  1.00  0.00     0.049 A 
ATOM     52  C   UNL A   1      41.101  31.276  29.996  1.00  0.00     0.074 A 
ATOM     53  C   UNL A   1      46.621  30.437  27.003  1.00  0.00     0.029 A 
ATOM     54  N   UNL A   1      44.630  30.156  27.953  1.00  0.00    -0.354 N 
ATOM     55  N   UNL A   1      42.218  31.017  29.358  1.00  0.00    -0.248 NA
ATOM     56  C   UNL A   1      41.007  32.658  30.492  1.00  0.00     0.031 C 
ATOM     57  C   UNL A   1      46.234  31.649  27.582  1.00  0.00     0.029 A 
ATOM     58  C   UNL A   1      44.979  31.483  28.144  1.00  0.00     0.049 A 
ATOM     59  H   UNL A   1      43.790  29.743  28.259  1.00  0.00     0.167 HD
ATOM     60  C   UNL A   1      42.936  32.208  29.342  1.00  0.00     0.074 A 
ATOM     61  C   UNL A   1      42.124  33.193  30.023  1.00  0.00     0.031 C 
ATOM     62  C   UNL A   1      44.157  32.463  28.808  1.00  0.00     0.037 A 
BRANCH  49  63
ATOM     63  C   UNL A   1      46.813  27.527  26.218  1.00  0.00     0.064 A 
ATOM     64  C   UNL A   1      46.963  27.622  24.825  1.00  0.00     0.173 A 
ATOM     65  C   UNL A   1      47.834  26.896  26.944  1.00  0.00     0.173 A 
ATOM     66  F   UNL A   1      46.009  28.202  24.081  1.00  0.00    -0.203 F 
ATOM     67  C   UNL A   1      48.074  27.077  24.184  1.00  0.00     0.198 A 
ATOM     68  C   UNL A   1      48.961  26.386  26.304  1.00  0.00     0.198 A 
ATOM     69  F   UNL A   1      47.745  26.781  28.278  1.00  0.00    -0.203 F 
ATOM     70  F   UNL A   1      48.167  27.130  22.849  1.00  0.00    -0.200 F 
ATOM     71  C   UNL A   1      49.075  26.468  24.925  1.00  0.00     0.200 A 
ATOM     72  F   UNL A   1      49.935  25.811  27.023  1.00  0.00    -0.200 F 
ATOM     73  F   UNL A   1      50.147  25.953  24.308  1.00  0.00    -0.200 F 
ENDBRANCH  49  63
BRANCH  50  74
ATOM     74  C   UNL A   1      38.727  30.897  30.985  1.00  0.00     0.064 A 
ATOM     75  C   UNL A   1      37.688  31.536  30.293  1.00  0.00     0.173 A 
ATOM     76  C   UNL A   1      38.617  30.804  32.381  1.00  0.00     0.173 A 
ATOM     77  F   UNL A   1      37.756  31.678  28.962  1.00  0.00    -0.203 F 
ATOM     78  C   UNL A   1      36.599  32.084  30.971  1.00  0.00     0.198 A 
ATOM     79  C   UNL A   1      37.512  31.322  33.054  1.00  0.00     0.198 A 
ATOM     80  F   UNL A   1      39.585  30.208  33.093  1.00  0.00    -0.203 F 
ATOM     81  F   UNL A   1      35.652  32.743  30.291  1.00  0.00    -0.200 F 
ATOM     82  C   UNL A   1      36.510  31.971  32.350  1.00  0.00     0.200 A 
ATOM     83  F   UNL A   1      37.425  31.201  34.386  1.00  0.00    -0.200 F 
ATOM     84  F   UNL A   1      35.466  32.500  33.001  1.00  0.00    -0.200 F 
ENDBRANCH  50  74
BRANCH  62  85
ATOM     85  C   UNL A   1      44.674  33.872  28.884  1.00  0.00     0.064 A 
ATOM     86  C   UNL A   1      45.497  34.306  29.933  1.00  0.00     0.173 A 
ATOM     87  C   UNL A   1      44.380  34.788  27.861  1.00  0.00     0.173 A 
ATOM     88  F   UNL A   1      45.803  33.474  30.940  1.00  0.00    -0.203 F 
ATOM     89  C   UNL A   1      45.979  35.613  29.972  1.00  0.00     0.198 A 
ATOM     90  C   UNL A   1      44.893  36.082  27.884  1.00  0.00     0.198 A 
ATOM     91  F   UNL A   1      43.607  34.423  26.826  1.00  0.00    -0.203 F 
ATOM     92  F   UNL A   1      46.719  36.021  31.011  1.00  0.00    -0.200 F 
ATOM     93  C   UNL A   1      45.684  36.497  28.944  1.00  0.00     0.200 A 
ATOM     94  F   UNL A   1      44.622  36.927  26.880  1.00  0.00    -0.200 F 
ATOM     95  F   UNL A   1      46.157  37.750  28.979  1.00  0.00    -0.200 F 
ENDBRANCH  62  85
ENDBRANCH  36  37
ENDBRANCH  29  31
ENDBRANCH  28  29
ENDBRANCH  27  28
ENDBRANCH  26  27
ENDBRANCH  25  26
ENDBRANCH   1  25
TORSDOF 18
ENDMDL
