MODEL 1
REMARK VINA RESULT:     -13.9      0.000      0.000
REMARK SMILES O=C(OCCOCCOC(=O)[C@H]1Cc2c([nH]c3ccccc23)[C@H](c2c[nH]c3ccccc23)[NH2+]1)c1ccc(-c2c3nc(c(-c4c(F)c(F)c(F)c(F)c4F)c4ccc([nH]4)c(-c4c(F)c(F)c(F)c(F)c4F)c4nc(c(-c5c(F)c(F)c(F)c(F)c5F)c5ccc2[nH]5)C=C4)C=C3)cc1
REMARK SMILES IDX 5 1 4 2 3 3 2 4 1 5 34 6 35 7 96 8 36 9 95 10 37 11 38 12
REMARK SMILES IDX 39 13 89 14 40 15 94 16 88 17 90 18 41 19 93 20 87 21 86 22
REMARK SMILES IDX 42 24 74 25 54 26 73 27 55 28 58 29 72 30 91 31 56 32 57 33
REMARK SMILES IDX 71 35 92 36 59 37 43 38 44 39 52 40 45 41 46 42 50 43 53 44
REMARK SMILES IDX 47 45 48 46 51 47 49 48 75 49 76 50 84 51 77 52 78 53 82 54
REMARK SMILES IDX 85 55 79 56 80 57 83 58 81 59 60 60 61 61 69 62 62 63 63 64
REMARK SMILES IDX 67 65 70 66 64 67 65 68 68 69 66 70 6 71 7 72 8 73 9 74
REMARK SMILES IDX 10 75 11 76 12 77 13 78 33 79 14 80 23 81 15 84 22 85 16 86
REMARK SMILES IDX 17 87 21 88 18 90 20 91 19 92 24 93 25 94 32 95 26 96 27 97
REMARK SMILES IDX 31 98 28 100 30 101 29 102
REMARK H PARENT 90 23 58 34 33 82 33 83 16 89 26 99
REMARK Flexibility Score: inf
ROOT
ATOM      1  C   UNL A   1      42.279  19.998  26.051  1.00  0.00     0.202 C 
ENDROOT
BRANCH   1   2
ATOM      2  C   UNL A   1      43.261  21.122  25.733  1.00  0.00     0.261 C 
BRANCH   2   3
ATOM      3  O   UNL A   1      42.555  22.323  25.415  1.00  0.00    -0.460 OA
BRANCH   3   4
ATOM      4  C   UNL A   1      43.080  23.564  25.364  1.00  0.00     0.338 C 
ATOM      5  O   UNL A   1      43.790  23.869  24.407  1.00  0.00    -0.246 OA
BRANCH   4   6
ATOM      6  C   UNL A   1      42.829  24.603  26.405  1.00  0.00     0.060 A 
ATOM      7  C   UNL A   1      43.372  25.893  26.412  1.00  0.00     0.016 A 
ATOM      8  C   UNL A   1      41.885  24.282  27.387  1.00  0.00     0.016 A 
ATOM      9  C   UNL A   1      42.974  26.855  27.308  1.00  0.00     0.010 A 
ATOM     10  C   UNL A   1      41.476  25.241  28.310  1.00  0.00     0.010 A 
ATOM     11  C   UNL A   1      42.012  26.531  28.247  1.00  0.00    -0.014 A 
BRANCH  11  12
ATOM     12  C   UNL A   1      41.682  27.551  29.234  1.00  0.00     0.031 A 
ATOM     13  C   UNL A   1      42.566  27.654  30.420  1.00  0.00     0.074 A 
ATOM     14  C   UNL A   1      40.671  28.394  28.985  1.00  0.00     0.049 A 
ATOM     15  N   UNL A   1      42.381  28.303  31.532  1.00  0.00    -0.248 NA
ATOM     16  C   UNL A   1      43.840  26.916  30.345  1.00  0.00     0.031 C 
ATOM     17  C   UNL A   1      39.898  28.441  27.740  1.00  0.00     0.029 A 
ATOM     18  N   UNL A   1      40.120  29.368  29.763  1.00  0.00    -0.354 N 
ATOM     19  C   UNL A   1      43.482  27.999  32.317  1.00  0.00     0.074 A 
ATOM     20  C   UNL A   1      44.343  27.129  31.550  1.00  0.00     0.031 C 
ATOM     21  C   UNL A   1      38.946  29.379  27.855  1.00  0.00     0.029 A 
ATOM     22  C   UNL A   1      38.996  29.923  29.206  1.00  0.00     0.049 A 
ATOM     23  H   UNL A   1      40.490  29.645  30.633  1.00  0.00     0.167 HD
ATOM     24  C   UNL A   1      43.705  28.398  33.587  1.00  0.00     0.037 A 
ATOM     25  C   UNL A   1      38.076  30.718  29.778  1.00  0.00     0.037 A 
ATOM     26  C   UNL A   1      42.787  29.256  34.286  1.00  0.00     0.049 A 
ATOM     27  C   UNL A   1      38.291  31.085  31.220  1.00  0.00     0.074 A 
ATOM     28  C   UNL A   1      42.832  29.703  35.590  1.00  0.00     0.029 A 
ATOM     29  N   UNL A   1      41.636  29.792  33.710  1.00  0.00    -0.354 N 
ATOM     30  N   UNL A   1      39.273  30.731  32.019  1.00  0.00    -0.248 NA
ATOM     31  C   UNL A   1      37.279  31.935  31.850  1.00  0.00     0.031 C 
ATOM     32  C   UNL A   1      41.680  30.466  35.817  1.00  0.00     0.029 A 
ATOM     33  C   UNL A   1      40.951  30.552  34.637  1.00  0.00     0.049 A 
ATOM     34  H   UNL A   1      41.353  29.650  32.778  1.00  0.00     0.167 HD
ATOM     35  C   UNL A   1      39.015  31.333  33.240  1.00  0.00     0.074 A 
ATOM     36  C   UNL A   1      37.777  32.075  33.071  1.00  0.00     0.031 C 
ATOM     37  C   UNL A   1      39.729  31.284  34.393  1.00  0.00     0.037 A 
BRANCH  24  38
ATOM     38  C   UNL A   1      44.892  27.804  34.283  1.00  0.00     0.064 A 
ATOM     39  C   UNL A   1      44.821  26.594  34.993  1.00  0.00     0.173 A 
ATOM     40  C   UNL A   1      46.100  28.517  34.333  1.00  0.00     0.173 A 
ATOM     41  F   UNL A   1      43.679  25.890  35.013  1.00  0.00    -0.203 F 
ATOM     42  C   UNL A   1      45.893  26.151  35.765  1.00  0.00     0.198 A 
ATOM     43  C   UNL A   1      47.182  28.053  35.076  1.00  0.00     0.198 A 
ATOM     44  F   UNL A   1      46.222  29.687  33.686  1.00  0.00    -0.203 F 
ATOM     45  F   UNL A   1      45.767  25.042  36.508  1.00  0.00    -0.200 F 
ATOM     46  C   UNL A   1      47.071  26.879  35.806  1.00  0.00     0.200 A 
ATOM     47  F   UNL A   1      48.320  28.760  35.113  1.00  0.00    -0.200 F 
ATOM     48  F   UNL A   1      48.093  26.465  36.568  1.00  0.00    -0.200 F 
ENDBRANCH  24  38
BRANCH  25  49
ATOM     49  C   UNL A   1      36.878  31.133  29.004  1.00  0.00     0.064 A 
ATOM     50  C   UNL A   1      35.832  30.238  28.749  1.00  0.00     0.173 A 
ATOM     51  C   UNL A   1      36.722  32.457  28.560  1.00  0.00     0.173 A 
ATOM     52  F   UNL A   1      35.935  28.960  29.140  1.00  0.00    -0.203 F 
ATOM     53  C   UNL A   1      34.679  30.648  28.081  1.00  0.00     0.198 A 
ATOM     54  C   UNL A   1      35.557  32.873  27.917  1.00  0.00     0.198 A 
ATOM     55  F   UNL A   1      37.689  33.360  28.782  1.00  0.00    -0.203 F 
ATOM     56  F   UNL A   1      33.701  29.766  27.832  1.00  0.00    -0.200 F 
ATOM     57  C   UNL A   1      34.537  31.968  27.676  1.00  0.00     0.200 A 
ATOM     58  F   UNL A   1      35.419  34.154  27.547  1.00  0.00    -0.200 F 
ATOM     59  F   UNL A   1      33.420  32.365  27.051  1.00  0.00    -0.200 F 
ENDBRANCH  25  49
BRANCH  37  60
ATOM     60  C   UNL A   1      39.219  32.105  35.536  1.00  0.00     0.064 A 
ATOM     61  C   UNL A   1      38.423  31.549  36.544  1.00  0.00     0.173 A 
ATOM     62  C   UNL A   1      39.634  33.438  35.671  1.00  0.00     0.173 A 
ATOM     63  F   UNL A   1      37.993  30.282  36.445  1.00  0.00    -0.203 F 
ATOM     64  C   UNL A   1      38.056  32.303  37.654  1.00  0.00     0.198 A 
ATOM     65  C   UNL A   1      39.291  34.178  36.796  1.00  0.00     0.198 A 
ATOM     66  F   UNL A   1      40.404  34.006  34.730  1.00  0.00    -0.203 F 
ATOM     67  F   UNL A   1      37.275  31.764  38.599  1.00  0.00    -0.200 F 
ATOM     68  C   UNL A   1      38.502  33.611  37.784  1.00  0.00     0.200 A 
ATOM     69  F   UNL A   1      39.739  35.434  36.930  1.00  0.00    -0.200 F 
ATOM     70  F   UNL A   1      38.173  34.325  38.869  1.00  0.00    -0.200 F 
ENDBRANCH  37  60
ENDBRANCH  11  12
ENDBRANCH   4   6
ENDBRANCH   3   4
ENDBRANCH   2   3
ENDBRANCH   1   2
BRANCH   1  71
ATOM     71  O   UNL A   1      41.135  20.417  26.788  1.00  0.00    -0.374 OA
BRANCH  71  72
ATOM     72  C   UNL A   1      39.879  20.323  26.130  1.00  0.00     0.202 C 
BRANCH  72  73
ATOM     73  C   UNL A   1      39.285  21.725  26.054  1.00  0.00     0.261 C 
BRANCH  73  74
ATOM     74  O   UNL A   1      38.088  21.641  25.271  1.00  0.00    -0.459 OA
BRANCH  74  75
ATOM     75  C   UNL A   1      37.262  22.745  25.280  1.00  0.00     0.365 C 
ATOM     76  O   UNL A   1      37.613  23.892  25.475  1.00  0.00    -0.245 OA
BRANCH  75  77
ATOM     77  C   UNL A   1      35.849  22.266  24.908  1.00  0.00     0.298 C 
ATOM     78  C   UNL A   1      35.983  20.737  24.933  1.00  0.00     0.115 C 
ATOM     79  N   UNL A   1      34.805  22.857  25.790  1.00  0.00    -0.323 N 
ATOM     80  C   UNL A   1      34.664  20.111  24.999  1.00  0.00    -0.006 A 
ATOM     81  C   UNL A   1      33.451  22.289  25.698  1.00  0.00     0.264 C 
ATOM     82  H   UNL A   1      34.739  23.850  25.565  1.00  0.00     0.347 HD
ATOM     83  H   UNL A   1      35.114  22.651  26.741  1.00  0.00     0.347 HD
ATOM     84  C   UNL A   1      33.540  20.813  25.373  1.00  0.00     0.083 A 
ATOM     85  C   UNL A   1      34.323  18.769  24.750  1.00  0.00     0.003 A 
ATOM     86  N   UNL A   1      32.526  19.891  25.453  1.00  0.00    -0.353 N 
ATOM     87  C   UNL A   1      32.971  18.646  25.054  1.00  0.00     0.046 A 
ATOM     88  C   UNL A   1      35.050  17.645  24.318  1.00  0.00     0.010 A 
ATOM     89  H   UNL A   1      31.610  20.090  25.752  1.00  0.00     0.166 HD
ATOM     90  C   UNL A   1      32.300  17.425  24.953  1.00  0.00     0.026 A 
ATOM     91  C   UNL A   1      34.393  16.421  24.203  1.00  0.00     0.001 A 
ATOM     92  C   UNL A   1      33.040  16.315  24.521  1.00  0.00     0.002 A 
BRANCH  81  93
ATOM     93  C   UNL A   1      32.445  23.029  24.799  1.00  0.00     0.041 A 
ATOM     94  C   UNL A   1      32.223  22.631  23.481  1.00  0.00     0.093 A 
ATOM     95  C   UNL A   1      31.489  24.107  25.000  1.00  0.00     0.009 A 
ATOM     96  N   UNL A   1      31.386  23.507  22.859  1.00  0.00    -0.361 N 
ATOM     97  C   UNL A   1      30.921  24.424  23.758  1.00  0.00     0.046 A 
ATOM     98  C   UNL A   1      31.004  24.853  26.095  1.00  0.00     0.011 A 
ATOM     99  H   UNL A   1      31.151  23.483  21.903  1.00  0.00     0.166 HD
ATOM    100  C   UNL A   1      30.020  25.478  23.545  1.00  0.00     0.026 A 
ATOM    101  C   UNL A   1      30.065  25.884  25.912  1.00  0.00     0.001 A 
ATOM    102  C   UNL A   1      29.606  26.217  24.647  1.00  0.00     0.002 A 
ENDBRANCH  81  93
ENDBRANCH  75  77
ENDBRANCH  74  75
ENDBRANCH  73  74
ENDBRANCH  72  73
ENDBRANCH  71  72
ENDBRANCH   1  71
TORSDOF 15
ENDMDL
MODEL 2
REMARK VINA RESULT:     -13.7      3.997      9.181
REMARK SMILES O=C(OCCOCCOC(=O)[C@H]1Cc2c([nH]c3ccccc23)[C@H](c2c[nH]c3ccccc23)[NH2+]1)c1ccc(-c2c3nc(c(-c4c(F)c(F)c(F)c(F)c4F)c4ccc([nH]4)c(-c4c(F)c(F)c(F)c(F)c4F)c4nc(c(-c5c(F)c(F)c(F)c(F)c5F)c5ccc2[nH]5)C=C4)C=C3)cc1
REMARK SMILES IDX 5 1 4 2 3 3 2 4 1 5 34 6 35 7 96 8 36 9 95 10 37 11 38 12
REMARK SMILES IDX 39 13 89 14 40 15 94 16 88 17 90 18 41 19 93 20 87 21 86 22
REMARK SMILES IDX 42 24 74 25 54 26 73 27 55 28 58 29 72 30 91 31 56 32 57 33
REMARK SMILES IDX 71 35 92 36 59 37 43 38 44 39 52 40 45 41 46 42 50 43 53 44
REMARK SMILES IDX 47 45 48 46 51 47 49 48 75 49 76 50 84 51 77 52 78 53 82 54
REMARK SMILES IDX 85 55 79 56 80 57 83 58 81 59 60 60 61 61 69 62 62 63 63 64
REMARK SMILES IDX 67 65 70 66 64 67 65 68 68 69 66 70 6 71 7 72 8 73 9 74
REMARK SMILES IDX 10 75 11 76 12 77 13 78 33 79 14 80 23 81 15 84 22 85 16 86
REMARK SMILES IDX 17 87 21 88 18 90 20 91 19 92 24 93 25 94 32 95 26 96 27 97
REMARK SMILES IDX 31 98 28 100 30 101 29 102
REMARK H PARENT 90 23 58 34 33 82 33 83 16 89 26 99
REMARK Flexibility Score: inf
ROOT
ATOM      1  C   UNL A   1      33.281  34.656  28.826  1.00  0.00     0.202 C 
ENDROOT
BRANCH   1   2
ATOM      2  C   UNL A   1      32.960  36.047  29.365  1.00  0.00     0.261 C 
BRANCH   2   3
ATOM      3  O   UNL A   1      32.163  35.950  30.547  1.00  0.00    -0.460 OA
BRANCH   3   4
ATOM      4  C   UNL A   1      32.610  36.027  31.817  1.00  0.00     0.338 C 
ATOM      5  O   UNL A   1      32.083  36.829  32.584  1.00  0.00    -0.246 OA
BRANCH   4   6
ATOM      6  C   UNL A   1      33.707  35.168  32.352  1.00  0.00     0.060 A 
ATOM      7  C   UNL A   1      33.549  33.876  32.866  1.00  0.00     0.016 A 
ATOM      8  C   UNL A   1      35.008  35.667  32.219  1.00  0.00     0.016 A 
ATOM      9  C   UNL A   1      34.618  33.076  33.191  1.00  0.00     0.010 A 
ATOM     10  C   UNL A   1      36.103  34.875  32.552  1.00  0.00     0.010 A 
ATOM     11  C   UNL A   1      35.896  33.573  33.016  1.00  0.00    -0.014 A 
BRANCH  11  12
ATOM     12  C   UNL A   1      36.999  32.727  33.455  1.00  0.00     0.031 A 
ATOM     13  C   UNL A   1      37.531  32.964  34.819  1.00  0.00     0.074 A 
ATOM     14  C   UNL A   1      37.412  31.733  32.658  1.00  0.00     0.049 A 
ATOM     15  N   UNL A   1      38.625  32.522  35.364  1.00  0.00    -0.248 NA
ATOM     16  C   UNL A   1      36.716  33.828  35.691  1.00  0.00     0.031 C 
ATOM     17  C   UNL A   1      36.786  31.351  31.388  1.00  0.00     0.029 A 
ATOM     18  N   UNL A   1      38.453  30.864  32.796  1.00  0.00    -0.354 N 
ATOM     19  C   UNL A   1      38.666  33.106  36.620  1.00  0.00     0.074 A 
ATOM     20  C   UNL A   1      37.478  33.914  36.768  1.00  0.00     0.031 C 
ATOM     21  C   UNL A   1      37.482  30.341  30.846  1.00  0.00     0.029 A 
ATOM     22  C   UNL A   1      38.641  30.076  31.688  1.00  0.00     0.049 A 
ATOM     23  H   UNL A   1      39.012  30.807  33.605  1.00  0.00     0.167 HD
ATOM     24  C   UNL A   1      39.651  32.988  37.536  1.00  0.00     0.037 A 
ATOM     25  C   UNL A   1      39.689  29.296  31.376  1.00  0.00     0.037 A 
ATOM     26  C   UNL A   1      40.811  32.171  37.303  1.00  0.00     0.049 A 
ATOM     27  C   UNL A   1      40.820  29.242  32.365  1.00  0.00     0.074 A 
ATOM     28  C   UNL A   1      41.923  31.990  38.098  1.00  0.00     0.029 A 
ATOM     29  N   UNL A   1      40.995  31.395  36.160  1.00  0.00    -0.354 N 
ATOM     30  N   UNL A   1      40.931  29.862  33.520  1.00  0.00    -0.248 NA
ATOM     31  C   UNL A   1      41.972  28.408  32.017  1.00  0.00     0.031 C 
ATOM     32  C   UNL A   1      42.804  31.147  37.409  1.00  0.00     0.029 A 
ATOM     33  C   UNL A   1      42.212  30.746  36.217  1.00  0.00     0.049 A 
ATOM     34  H   UNL A   1      40.350  31.320  35.419  1.00  0.00     0.167 HD
ATOM     35  C   UNL A   1      42.151  29.477  34.050  1.00  0.00     0.074 A 
ATOM     36  C   UNL A   1      42.743  28.567  33.085  1.00  0.00     0.031 C 
ATOM     37  C   UNL A   1      42.732  29.834  35.223  1.00  0.00     0.037 A 
BRANCH  24  38
ATOM     38  C   UNL A   1      39.542  33.848  38.759  1.00  0.00     0.064 A 
ATOM     39  C   UNL A   1      38.806  33.459  39.890  1.00  0.00     0.173 A 
ATOM     40  C   UNL A   1      40.097  35.137  38.755  1.00  0.00     0.173 A 
ATOM     41  F   UNL A   1      38.220  32.253  39.933  1.00  0.00    -0.203 F 
ATOM     42  C   UNL A   1      38.587  34.346  40.943  1.00  0.00     0.198 A 
ATOM     43  C   UNL A   1      39.907  36.008  39.825  1.00  0.00     0.198 A 
ATOM     44  F   UNL A   1      40.799  35.568  37.695  1.00  0.00    -0.203 F 
ATOM     45  F   UNL A   1      37.802  33.984  41.968  1.00  0.00    -0.200 F 
ATOM     46  C   UNL A   1      39.137  35.617  40.910  1.00  0.00     0.200 A 
ATOM     47  F   UNL A   1      40.440  37.237  39.790  1.00  0.00    -0.200 F 
ATOM     48  F   UNL A   1      38.905  36.477  41.912  1.00  0.00    -0.200 F 
ENDBRANCH  24  38
BRANCH  25  49
ATOM     49  C   UNL A   1      39.721  28.594  30.067  1.00  0.00     0.064 A 
ATOM     50  C   UNL A   1      40.305  29.185  28.940  1.00  0.00     0.173 A 
ATOM     51  C   UNL A   1      39.228  27.286  29.932  1.00  0.00     0.173 A 
ATOM     52  F   UNL A   1      40.781  30.436  29.011  1.00  0.00    -0.203 F 
ATOM     53  C   UNL A   1      40.394  28.497  27.730  1.00  0.00     0.198 A 
ATOM     54  C   UNL A   1      39.341  26.589  28.730  1.00  0.00     0.198 A 
ATOM     55  F   UNL A   1      38.663  26.668  30.980  1.00  0.00    -0.203 F 
ATOM     56  F   UNL A   1      40.939  29.094  26.661  1.00  0.00    -0.200 F 
ATOM     57  C   UNL A   1      39.922  27.196  27.629  1.00  0.00     0.200 A 
ATOM     58  F   UNL A   1      38.902  25.325  28.645  1.00  0.00    -0.200 F 
ATOM     59  F   UNL A   1      40.026  26.530  26.471  1.00  0.00    -0.200 F 
ENDBRANCH  25  49
BRANCH  37  60
ATOM     60  C   UNL A   1      44.043  29.190  35.550  1.00  0.00     0.064 A 
ATOM     61  C   UNL A   1      44.114  27.970  36.233  1.00  0.00     0.173 A 
ATOM     62  C   UNL A   1      45.233  29.757  35.068  1.00  0.00     0.173 A 
ATOM     63  F   UNL A   1      43.001  27.404  36.723  1.00  0.00    -0.203 F 
ATOM     64  C   UNL A   1      45.337  27.337  36.425  1.00  0.00     0.198 A 
ATOM     65  C   UNL A   1      46.448  29.105  35.234  1.00  0.00     0.198 A 
ATOM     66  F   UNL A   1      45.206  30.921  34.401  1.00  0.00    -0.203 F 
ATOM     67  F   UNL A   1      45.391  26.181  37.100  1.00  0.00    -0.200 F 
ATOM     68  C   UNL A   1      46.499  27.898  35.913  1.00  0.00     0.200 A 
ATOM     69  F   UNL A   1      47.566  29.638  34.723  1.00  0.00    -0.200 F 
ATOM     70  F   UNL A   1      47.672  27.270  36.072  1.00  0.00    -0.200 F 
ENDBRANCH  37  60
ENDBRANCH  11  12
ENDBRANCH   4   6
ENDBRANCH   3   4
ENDBRANCH   2   3
ENDBRANCH   1   2
BRANCH   1  71
ATOM     71  O   UNL A   1      34.662  34.316  28.881  1.00  0.00    -0.374 OA
BRANCH  71  72
ATOM     72  C   UNL A   1      35.070  33.168  28.148  1.00  0.00     0.202 C 
BRANCH  72  73
ATOM     73  C   UNL A   1      34.037  32.073  28.382  1.00  0.00     0.261 C 
BRANCH  73  74
ATOM     74  O   UNL A   1      33.912  31.333  27.161  1.00  0.00    -0.459 OA
BRANCH  74  75
ATOM     75  C   UNL A   1      34.287  30.008  27.196  1.00  0.00     0.365 C 
ATOM     76  O   UNL A   1      35.100  29.520  27.957  1.00  0.00    -0.245 OA
BRANCH  75  77
ATOM     77  C   UNL A   1      33.424  29.257  26.168  1.00  0.00     0.298 C 
ATOM     78  C   UNL A   1      33.668  27.783  26.520  1.00  0.00     0.115 C 
ATOM     79  N   UNL A   1      32.009  29.719  26.179  1.00  0.00    -0.323 N 
ATOM     80  C   UNL A   1      32.636  26.939  25.922  1.00  0.00    -0.006 A 
ATOM     81  C   UNL A   1      31.036  28.914  25.423  1.00  0.00     0.264 C 
ATOM     82  H   UNL A   1      31.991  30.664  25.794  1.00  0.00     0.347 HD
ATOM     83  H   UNL A   1      31.714  29.645  27.153  1.00  0.00     0.347 HD
ATOM     84  C   UNL A   1      31.446  27.456  25.461  1.00  0.00     0.083 A 
ATOM     85  C   UNL A   1      32.643  25.543  25.751  1.00  0.00     0.003 A 
ATOM     86  N   UNL A   1      30.679  26.377  25.098  1.00  0.00    -0.353 N 
ATOM     87  C   UNL A   1      31.394  25.205  25.241  1.00  0.00     0.046 A 
ATOM     88  C   UNL A   1      33.591  24.537  26.009  1.00  0.00     0.010 A 
ATOM     89  H   UNL A   1      29.749  26.432  24.779  1.00  0.00     0.166 HD
ATOM     90  C   UNL A   1      31.037  23.879  24.979  1.00  0.00     0.026 A 
ATOM     91  C   UNL A   1      33.254  23.209  25.745  1.00  0.00     0.001 A 
ATOM     92  C   UNL A   1      31.994  22.889  25.243  1.00  0.00     0.002 A 
BRANCH  81  93
ATOM     93  C   UNL A   1      30.691  29.390  24.002  1.00  0.00     0.041 A 
ATOM     94  C   UNL A   1      31.416  28.952  22.895  1.00  0.00     0.093 A 
ATOM     95  C   UNL A   1      29.636  30.207  23.423  1.00  0.00     0.009 A 
ATOM     96  N   UNL A   1      31.002  29.601  21.773  1.00  0.00    -0.361 N 
ATOM     97  C   UNL A   1      29.916  30.380  22.060  1.00  0.00     0.046 A 
ATOM     98  C   UNL A   1      28.446  30.814  23.877  1.00  0.00     0.011 A 
ATOM     99  H   UNL A   1      31.421  29.523  20.885  1.00  0.00     0.166 HD
ATOM    100  C   UNL A   1      29.164  31.186  21.192  1.00  0.00     0.026 A 
ATOM    101  C   UNL A   1      27.650  31.590  23.013  1.00  0.00     0.001 A 
ATOM    102  C   UNL A   1      28.026  31.803  21.696  1.00  0.00     0.002 A 
ENDBRANCH  81  93
ENDBRANCH  75  77
ENDBRANCH  74  75
ENDBRANCH  73  74
ENDBRANCH  72  73
ENDBRANCH  71  72
ENDBRANCH   1  71
TORSDOF 15
ENDMDL
MODEL 3
REMARK VINA RESULT:     -13.7      4.967      7.211
REMARK SMILES O=C(OCCOCCOC(=O)[C@H]1Cc2c([nH]c3ccccc23)[C@H](c2c[nH]c3ccccc23)[NH2+]1)c1ccc(-c2c3nc(c(-c4c(F)c(F)c(F)c(F)c4F)c4ccc([nH]4)c(-c4c(F)c(F)c(F)c(F)c4F)c4nc(c(-c5c(F)c(F)c(F)c(F)c5F)c5ccc2[nH]5)C=C4)C=C3)cc1
REMARK SMILES IDX 5 1 4 2 3 3 2 4 1 5 34 6 35 7 96 8 36 9 95 10 37 11 38 12
REMARK SMILES IDX 39 13 89 14 40 15 94 16 88 17 90 18 41 19 93 20 87 21 86 22
REMARK SMILES IDX 42 24 74 25 54 26 73 27 55 28 58 29 72 30 91 31 56 32 57 33
REMARK SMILES IDX 71 35 92 36 59 37 43 38 44 39 52 40 45 41 46 42 50 43 53 44
REMARK SMILES IDX 47 45 48 46 51 47 49 48 75 49 76 50 84 51 77 52 78 53 82 54
REMARK SMILES IDX 85 55 79 56 80 57 83 58 81 59 60 60 61 61 69 62 62 63 63 64
REMARK SMILES IDX 67 65 70 66 64 67 65 68 68 69 66 70 6 71 7 72 8 73 9 74
REMARK SMILES IDX 10 75 11 76 12 77 13 78 33 79 14 80 23 81 15 84 22 85 16 86
REMARK SMILES IDX 17 87 21 88 18 90 20 91 19 92 24 93 25 94 32 95 26 96 27 97
REMARK SMILES IDX 31 98 28 100 30 101 29 102
REMARK H PARENT 90 23 58 34 33 82 33 83 16 89 26 99
REMARK Flexibility Score: inf
ROOT
ATOM      1  C   UNL A   1      42.276  19.441  26.683  1.00  0.00     0.202 C 
ENDROOT
BRANCH   1   2
ATOM      2  C   UNL A   1      43.110  18.392  25.952  1.00  0.00     0.261 C 
BRANCH   2   3
ATOM      3  O   UNL A   1      43.514  18.882  24.672  1.00  0.00    -0.460 OA
BRANCH   3   4
ATOM      4  C   UNL A   1      44.663  19.532  24.396  1.00  0.00     0.338 C 
ATOM      5  O   UNL A   1      45.586  18.910  23.874  1.00  0.00    -0.246 OA
BRANCH   4   6
ATOM      6  C   UNL A   1      44.870  20.984  24.674  1.00  0.00     0.060 A 
ATOM      7  C   UNL A   1      44.482  22.034  23.835  1.00  0.00     0.016 A 
ATOM      8  C   UNL A   1      45.396  21.307  25.931  1.00  0.00     0.016 A 
ATOM      9  C   UNL A   1      44.553  23.351  24.221  1.00  0.00     0.010 A 
ATOM     10  C   UNL A   1      45.485  22.635  26.336  1.00  0.00     0.010 A 
ATOM     11  C   UNL A   1      45.039  23.648  25.481  1.00  0.00    -0.014 A 
BRANCH  11  12
ATOM     12  C   UNL A   1      45.181  25.058  25.819  1.00  0.00     0.031 A 
ATOM     13  C   UNL A   1      46.511  25.676  25.598  1.00  0.00     0.074 A 
ATOM     14  C   UNL A   1      44.101  25.743  26.217  1.00  0.00     0.049 A 
ATOM     15  N   UNL A   1      46.966  26.822  26.010  1.00  0.00    -0.248 NA
ATOM     16  C   UNL A   1      47.467  24.886  24.801  1.00  0.00     0.031 C 
ATOM     17  C   UNL A   1      42.734  25.212  26.267  1.00  0.00     0.029 A 
ATOM     18  N   UNL A   1      43.980  27.027  26.658  1.00  0.00    -0.354 N 
ATOM     19  C   UNL A   1      48.283  26.864  25.582  1.00  0.00     0.074 A 
ATOM     20  C   UNL A   1      48.549  25.644  24.857  1.00  0.00     0.031 C 
ATOM     21  C   UNL A   1      41.917  26.160  26.748  1.00  0.00     0.029 A 
ATOM     22  C   UNL A   1      42.720  27.318  27.116  1.00  0.00     0.049 A 
ATOM     23  H   UNL A   1      44.720  27.678  26.648  1.00  0.00     0.167 HD
ATOM     24  C   UNL A   1      49.183  27.841  25.827  1.00  0.00     0.037 A 
ATOM     25  C   UNL A   1      42.306  28.380  27.828  1.00  0.00     0.037 A 
ATOM     26  C   UNL A   1      48.838  29.021  26.572  1.00  0.00     0.049 A 
ATOM     27  C   UNL A   1      43.338  29.418  28.169  1.00  0.00     0.074 A 
ATOM     28  C   UNL A   1      49.642  30.073  26.958  1.00  0.00     0.029 A 
ATOM     29  N   UNL A   1      47.557  29.289  27.050  1.00  0.00    -0.354 N 
ATOM     30  N   UNL A   1      44.617  29.438  27.862  1.00  0.00    -0.248 NA
ATOM     31  C   UNL A   1      42.893  30.565  28.963  1.00  0.00     0.031 C 
ATOM     32  C   UNL A   1      48.856  30.951  27.717  1.00  0.00     0.029 A 
ATOM     33  C   UNL A   1      47.548  30.482  27.745  1.00  0.00     0.049 A 
ATOM     34  H   UNL A   1      46.771  28.712  26.912  1.00  0.00     0.167 HD
ATOM     35  C   UNL A   1      45.127  30.607  28.401  1.00  0.00     0.074 A 
ATOM     36  C   UNL A   1      44.013  31.270  29.057  1.00  0.00     0.031 C 
ATOM     37  C   UNL A   1      46.392  31.095  28.359  1.00  0.00     0.037 A 
BRANCH  24  38
ATOM     38  C   UNL A   1      50.595  27.583  25.395  1.00  0.00     0.064 A 
ATOM     39  C   UNL A   1      51.023  27.770  24.071  1.00  0.00     0.173 A 
ATOM     40  C   UNL A   1      51.511  27.031  26.304  1.00  0.00     0.173 A 
ATOM     41  F   UNL A   1      50.177  28.257  23.150  1.00  0.00    -0.203 F 
ATOM     42  C   UNL A   1      52.293  27.366  23.664  1.00  0.00     0.198 A 
ATOM     43  C   UNL A   1      52.792  26.662  25.902  1.00  0.00     0.198 A 
ATOM     44  F   UNL A   1      51.153  26.816  27.579  1.00  0.00    -0.203 F 
ATOM     45  F   UNL A   1      52.645  27.468  22.374  1.00  0.00    -0.200 F 
ATOM     46  C   UNL A   1      53.176  26.813  24.578  1.00  0.00     0.200 A 
ATOM     47  F   UNL A   1      53.643  26.127  26.789  1.00  0.00    -0.200 F 
ATOM     48  F   UNL A   1      54.388  26.402  24.180  1.00  0.00    -0.200 F 
ENDBRANCH  24  38
BRANCH  25  49
ATOM     49  C   UNL A   1      40.899  28.446  28.300  1.00  0.00     0.064 A 
ATOM     50  C   UNL A   1      40.542  28.012  29.582  1.00  0.00     0.173 A 
ATOM     51  C   UNL A   1      39.891  29.012  27.502  1.00  0.00     0.173 A 
ATOM     52  F   UNL A   1      41.463  27.454  30.380  1.00  0.00    -0.203 F 
ATOM     53  C   UNL A   1      39.233  28.138  30.047  1.00  0.00     0.198 A 
ATOM     54  C   UNL A   1      38.589  29.163  27.977  1.00  0.00     0.198 A 
ATOM     55  F   UNL A   1      40.178  29.451  26.267  1.00  0.00    -0.203 F 
ATOM     56  F   UNL A   1      38.913  27.695  31.270  1.00  0.00    -0.200 F 
ATOM     57  C   UNL A   1      38.260  28.723  29.249  1.00  0.00     0.200 A 
ATOM     58  F   UNL A   1      37.660  29.748  27.208  1.00  0.00    -0.200 F 
ATOM     59  F   UNL A   1      37.008  28.862  29.704  1.00  0.00    -0.200 F 
ENDBRANCH  25  49
BRANCH  37  60
ATOM     60  C   UNL A   1      46.619  32.435  28.987  1.00  0.00     0.064 A 
ATOM     61  C   UNL A   1      47.025  32.564  30.320  1.00  0.00     0.173 A 
ATOM     62  C   UNL A   1      46.534  33.593  28.199  1.00  0.00     0.173 A 
ATOM     63  F   UNL A   1      47.103  31.483  31.111  1.00  0.00    -0.203 F 
ATOM     64  C   UNL A   1      47.338  33.812  30.847  1.00  0.00     0.198 A 
ATOM     65  C   UNL A   1      46.878  34.834  28.720  1.00  0.00     0.198 A 
ATOM     66  F   UNL A   1      46.157  33.510  26.913  1.00  0.00    -0.203 F 
ATOM     67  F   UNL A   1      47.703  33.922  32.131  1.00  0.00    -0.200 F 
ATOM     68  C   UNL A   1      47.278  34.942  30.043  1.00  0.00     0.200 A 
ATOM     69  F   UNL A   1      46.839  35.920  27.937  1.00  0.00    -0.200 F 
ATOM     70  F   UNL A   1      47.610  36.139  30.544  1.00  0.00    -0.200 F 
ENDBRANCH  37  60
ENDBRANCH  11  12
ENDBRANCH   4   6
ENDBRANCH   3   4
ENDBRANCH   2   3
ENDBRANCH   1   2
BRANCH   1  71
ATOM     71  O   UNL A   1      41.429  20.206  25.832  1.00  0.00    -0.374 OA
BRANCH  71  72
ATOM     72  C   UNL A   1      40.035  20.160  26.105  1.00  0.00     0.202 C 
BRANCH  72  73
ATOM     73  C   UNL A   1      39.512  21.591  26.110  1.00  0.00     0.261 C 
BRANCH  73  74
ATOM     74  O   UNL A   1      38.238  21.584  25.454  1.00  0.00    -0.459 OA
BRANCH  74  75
ATOM     75  C   UNL A   1      37.451  22.704  25.615  1.00  0.00     0.365 C 
ATOM     76  O   UNL A   1      37.846  23.811  25.923  1.00  0.00    -0.245 OA
BRANCH  75  77
ATOM     77  C   UNL A   1      36.011  22.313  25.242  1.00  0.00     0.298 C 
ATOM     78  C   UNL A   1      36.091  20.787  25.103  1.00  0.00     0.115 C 
ATOM     79  N   UNL A   1      35.016  22.842  26.215  1.00  0.00    -0.323 N 
ATOM     80  C   UNL A   1      34.753  20.200  25.147  1.00  0.00    -0.006 A 
ATOM     81  C   UNL A   1      33.640  22.331  26.108  1.00  0.00     0.264 C 
ATOM     82  H   UNL A   1      34.978  23.855  26.096  1.00  0.00     0.347 HD
ATOM     83  H   UNL A   1      35.345  22.528  27.128  1.00  0.00     0.347 HD
ATOM     84  C   UNL A   1      33.666  20.895  25.629  1.00  0.00     0.083 A 
ATOM     85  C   UNL A   1      34.357  18.904  24.772  1.00  0.00     0.003 A 
ATOM     86  N   UNL A   1      32.623  20.003  25.646  1.00  0.00    -0.353 N 
ATOM     87  C   UNL A   1      33.011  18.793  25.106  1.00  0.00     0.046 A 
ATOM     88  C   UNL A   1      35.031  17.808  24.202  1.00  0.00     0.010 A 
ATOM     89  H   UNL A   1      31.724  20.199  25.995  1.00  0.00     0.166 HD
ATOM     90  C   UNL A   1      32.294  17.612  24.901  1.00  0.00     0.026 A 
ATOM     91  C   UNL A   1      34.327  16.624  23.983  1.00  0.00     0.001 A 
ATOM     92  C   UNL A   1      32.981  16.530  24.332  1.00  0.00     0.002 A 
BRANCH  81  93
ATOM     93  C   UNL A   1      32.635  23.193  25.325  1.00  0.00     0.041 A 
ATOM     94  C   UNL A   1      31.290  23.252  25.691  1.00  0.00     0.093 A 
ATOM     95  C   UNL A   1      32.735  24.140  24.226  1.00  0.00     0.009 A 
ATOM     96  N   UNL A   1      30.586  23.979  24.782  1.00  0.00    -0.361 N 
ATOM     97  C   UNL A   1      31.437  24.534  23.869  1.00  0.00     0.046 A 
ATOM     98  C   UNL A   1      33.774  24.746  23.488  1.00  0.00     0.011 A 
ATOM     99  H   UNL A   1      29.607  24.088  24.780  1.00  0.00     0.166 HD
ATOM    100  C   UNL A   1      31.132  25.374  22.788  1.00  0.00     0.026 A 
ATOM    101  C   UNL A   1      33.494  25.628  22.428  1.00  0.00     0.001 A 
ATOM    102  C   UNL A   1      32.188  25.909  22.059  1.00  0.00     0.002 A 
ENDBRANCH  81  93
ENDBRANCH  75  77
ENDBRANCH  74  75
ENDBRANCH  73  74
ENDBRANCH  72  73
ENDBRANCH  71  72
ENDBRANCH   1  71
TORSDOF 15
ENDMDL
