MODEL 1
REMARK VINA RESULT:     -10.5      0.000      0.000
REMARK SMILES CCC[NH2+][C@]1(C(=O)OCCOCCOC(=O)c2ccc(-c3c4nc(c(-c5c(F)c(F)c(F)c(F)c5F)c5ccc([nH]5)c(-c5c(F)c(F)c(F)c(F)c5F)c5nc(c(-c6c(F)c(F)c(F)c(F)c6F)c6ccc3[nH]6)C=C5)C=C4)cc2)CCC[C@@H]([N@@H+](C)[C@@H](C)C2CC2)C1
REMARK SMILES IDX 10 1 9 2 8 3 6 4 7 5 5 6 80 7 91 8 81 9 83 10 82 11 4 12
REMARK SMILES IDX 3 15 2 16 1 17 84 18 85 19 86 21 87 22 88 23 89 24 90 25
REMARK SMILES IDX 11 26 12 27 13 28 14 29 15 30 16 31 17 32 18 33 79 34 19 35
REMARK SMILES IDX 78 36 20 37 21 38 22 39 72 40 23 41 77 42 71 43 73 44 24 45
REMARK SMILES IDX 76 46 70 47 69 48 25 50 57 51 37 52 56 53 38 54 41 55 55 56
REMARK SMILES IDX 74 57 39 58 40 59 54 61 75 62 42 63 26 64 27 65 35 66 28 67
REMARK SMILES IDX 29 68 33 69 36 70 30 71 31 72 34 73 32 74 58 75 59 76 67 77
REMARK SMILES IDX 60 78 61 79 65 80 68 81 62 82 63 83 66 84 64 85 43 86 44 87
REMARK SMILES IDX 52 88 45 89 46 90 50 91 53 92 47 93 48 94 51 95 49 96
REMARK H PARENT 4 13 4 14 84 20 73 49 41 60
REMARK Flexibility Score: inf
ROOT
ATOM      1  C   UNL A   1      32.386  29.235  25.578  1.00  0.00     0.202 C 
ENDROOT
BRANCH   1   2
ATOM      2  C   UNL A   1      32.665  28.958  24.101  1.00  0.00     0.261 C 
BRANCH   2   3
ATOM      3  O   UNL A   1      31.984  27.773  23.657  1.00  0.00    -0.459 OA
BRANCH   3   4
ATOM      4  C   UNL A   1      32.787  26.829  23.095  1.00  0.00     0.368 C 
ATOM      5  O   UNL A   1      33.551  27.047  22.155  1.00  0.00    -0.245 OA
BRANCH   4   6
ATOM      6  C   UNL A   1      32.605  25.407  23.725  1.00  0.00     0.200 C 
ATOM      7  C   UNL A   1      31.587  24.702  22.791  1.00  0.00     0.081 C 
ATOM      8  C   UNL A   1      33.922  24.569  23.710  1.00  0.00     0.146 C 
ATOM      9  C   UNL A   1      31.334  23.246  23.144  1.00  0.00     0.013 C 
ATOM     10  C   UNL A   1      33.739  23.050  23.975  1.00  0.00     0.190 C 
ATOM     11  C   UNL A   1      32.627  22.436  23.108  1.00  0.00     0.065 C 
BRANCH   6  12
ATOM     12  N   UNL A   1      31.994  25.711  25.038  1.00  0.00    -0.332 N 
ATOM     13  H   UNL A   1      32.718  25.547  25.738  1.00  0.00     0.347 HD
ATOM     14  H   UNL A   1      31.651  26.662  24.905  1.00  0.00     0.347 HD
BRANCH  12  15
ATOM     15  C   UNL A   1      30.816  25.017  25.501  1.00  0.00     0.261 C 
BRANCH  15  16
ATOM     16  C   UNL A   1      31.161  24.015  26.607  1.00  0.00     0.058 C 
ATOM     17  C   UNL A   1      29.997  23.102  26.968  1.00  0.00     0.010 C 
ENDBRANCH  15  16
ENDBRANCH  12  15
ENDBRANCH   6  12
BRANCH  10  18
ATOM     18  N   UNL A   1      35.002  22.282  24.072  1.00  0.00    -0.332 N 
ATOM     19  C   UNL A   1      36.171  23.163  23.934  1.00  0.00     0.333 C 
ATOM     20  H   UNL A   1      34.851  21.658  23.279  1.00  0.00     0.348 HD
BRANCH  18  21
ATOM     21  C   UNL A   1      35.241  21.273  25.117  1.00  0.00     0.184 C 
ATOM     22  C   UNL A   1      36.389  20.277  24.906  1.00  0.00     0.075 C 
BRANCH  21  23
ATOM     23  C   UNL A   1      35.293  21.854  26.513  1.00  0.00     0.047 C 
ATOM     24  C   UNL A   1      34.408  22.985  26.992  1.00  0.00     0.010 C 
ATOM     25  C   UNL A   1      34.121  21.585  27.436  1.00  0.00     0.010 C 
ENDBRANCH  21  23
ENDBRANCH  18  21
ENDBRANCH  10  18
ENDBRANCH   4   6
ENDBRANCH   3   4
ENDBRANCH   2   3
ENDBRANCH   1   2
BRANCH   1  26
ATOM     26  O   UNL A   1      31.822  30.513  25.874  1.00  0.00    -0.374 OA
BRANCH  26  27
ATOM     27  C   UNL A   1      32.390  31.218  26.977  1.00  0.00     0.202 C 
BRANCH  27  28
ATOM     28  C   UNL A   1      32.037  32.706  27.061  1.00  0.00     0.261 C 
BRANCH  28  29
ATOM     29  O   UNL A   1      33.221  33.516  27.159  1.00  0.00    -0.460 OA
BRANCH  29  30
ATOM     30  C   UNL A   1      33.694  33.673  28.415  1.00  0.00     0.338 C 
ATOM     31  O   UNL A   1      33.138  34.235  29.350  1.00  0.00    -0.246 OA
BRANCH  30  32
ATOM     32  C   UNL A   1      34.950  32.917  28.583  1.00  0.00     0.060 A 
ATOM     33  C   UNL A   1      34.854  31.582  28.991  1.00  0.00     0.016 A 
ATOM     34  C   UNL A   1      36.200  33.512  28.410  1.00  0.00     0.016 A 
ATOM     35  C   UNL A   1      36.005  30.872  29.323  1.00  0.00     0.010 A 
ATOM     36  C   UNL A   1      37.359  32.791  28.714  1.00  0.00     0.010 A 
ATOM     37  C   UNL A   1      37.260  31.493  29.242  1.00  0.00    -0.014 A 
BRANCH  37  38
ATOM     38  C   UNL A   1      38.412  30.869  29.940  1.00  0.00     0.031 A 
ATOM     39  C   UNL A   1      38.649  31.214  31.388  1.00  0.00     0.074 A 
ATOM     40  C   UNL A   1      39.187  29.955  29.333  1.00  0.00     0.049 A 
ATOM     41  N   UNL A   1      39.558  30.767  32.217  1.00  0.00    -0.248 NA
ATOM     42  C   UNL A   1      37.739  32.209  31.980  1.00  0.00     0.031 C 
ATOM     43  C   UNL A   1      39.052  29.519  27.945  1.00  0.00     0.029 A 
ATOM     44  N   UNL A   1      40.243  29.222  29.817  1.00  0.00    -0.354 N 
ATOM     45  C   UNL A   1      39.330  31.427  33.418  1.00  0.00     0.074 A 
ATOM     46  C   UNL A   1      38.240  32.349  33.196  1.00  0.00     0.031 C 
ATOM     47  C   UNL A   1      39.988  28.590  27.688  1.00  0.00     0.029 A 
ATOM     48  C   UNL A   1      40.799  28.379  28.887  1.00  0.00     0.049 A 
ATOM     49  H   UNL A   1      40.569  29.293  30.743  1.00  0.00     0.167 HD
ATOM     50  C   UNL A   1      39.953  31.263  34.610  1.00  0.00     0.037 A 
ATOM     51  C   UNL A   1      41.845  27.538  28.994  1.00  0.00     0.037 A 
ATOM     52  C   UNL A   1      41.032  30.340  34.836  1.00  0.00     0.049 A 
ATOM     53  C   UNL A   1      42.547  27.392  30.320  1.00  0.00     0.074 A 
ATOM     54  C   UNL A   1      41.729  30.093  36.006  1.00  0.00     0.029 A 
ATOM     55  N   UNL A   1      41.573  29.509  33.866  1.00  0.00    -0.354 N 
ATOM     56  N   UNL A   1      42.307  28.000  31.457  1.00  0.00    -0.248 NA
ATOM     57  C   UNL A   1      43.653  26.427  30.382  1.00  0.00     0.031 C 
ATOM     58  C   UNL A   1      42.721  29.146  35.732  1.00  0.00     0.029 A 
ATOM     59  C   UNL A   1      42.603  28.757  34.406  1.00  0.00     0.049 A 
ATOM     60  H   UNL A   1      41.268  29.461  32.931  1.00  0.00     0.167 HD
ATOM     61  C   UNL A   1      43.205  27.469  32.375  1.00  0.00     0.074 A 
ATOM     62  C   UNL A   1      43.988  26.480  31.662  1.00  0.00     0.031 C 
ATOM     63  C   UNL A   1      43.365  27.768  33.688  1.00  0.00     0.037 A 
BRANCH  50  64
ATOM     64  C   UNL A   1      39.483  32.120  35.752  1.00  0.00     0.064 A 
ATOM     65  C   UNL A   1      40.017  33.399  35.985  1.00  0.00     0.173 A 
ATOM     66  C   UNL A   1      38.492  31.657  36.629  1.00  0.00     0.173 A 
ATOM     67  F   UNL A   1      40.980  33.883  35.186  1.00  0.00    -0.203 F 
ATOM     68  C   UNL A   1      39.606  34.160  37.075  1.00  0.00     0.198 A 
ATOM     69  C   UNL A   1      38.058  32.437  37.698  1.00  0.00     0.198 A 
ATOM     70  F   UNL A   1      37.946  30.444  36.452  1.00  0.00    -0.203 F 
ATOM     71  F   UNL A   1      40.180  35.347  37.315  1.00  0.00    -0.200 F 
ATOM     72  C   UNL A   1      38.623  33.682  37.928  1.00  0.00     0.200 A 
ATOM     73  F   UNL A   1      37.099  31.976  38.514  1.00  0.00    -0.200 F 
ATOM     74  F   UNL A   1      38.230  34.415  38.978  1.00  0.00    -0.200 F 
ENDBRANCH  50  64
BRANCH  51  75
ATOM     75  C   UNL A   1      42.282  26.752  27.811  1.00  0.00     0.064 A 
ATOM     76  C   UNL A   1      41.762  25.478  27.551  1.00  0.00     0.173 A 
ATOM     77  C   UNL A   1      43.233  27.263  26.915  1.00  0.00     0.173 A 
ATOM     78  F   UNL A   1      40.867  24.935  28.390  1.00  0.00    -0.203 F 
ATOM     79  C   UNL A   1      42.188  24.736  26.450  1.00  0.00     0.198 A 
ATOM     80  C   UNL A   1      43.638  26.534  25.800  1.00  0.00     0.198 A 
ATOM     81  F   UNL A   1      43.762  28.479  27.119  1.00  0.00    -0.203 F 
ATOM     82  F   UNL A   1      41.707  23.502  26.249  1.00  0.00    -0.200 F 
ATOM     83  C   UNL A   1      43.120  25.268  25.571  1.00  0.00     0.200 A 
ATOM     84  F   UNL A   1      44.530  27.057  24.947  1.00  0.00    -0.200 F 
ATOM     85  F   UNL A   1      43.525  24.558  24.510  1.00  0.00    -0.200 F 
ENDBRANCH  51  75
BRANCH  63  86
ATOM     86  C   UNL A   1      44.388  26.980  34.457  1.00  0.00     0.064 A 
ATOM     87  C   UNL A   1      45.708  27.427  34.613  1.00  0.00     0.173 A 
ATOM     88  C   UNL A   1      44.029  25.771  35.076  1.00  0.00     0.173 A 
ATOM     89  F   UNL A   1      46.106  28.570  34.034  1.00  0.00    -0.203 F 
ATOM     90  C   UNL A   1      46.640  26.676  35.327  1.00  0.00     0.198 A 
ATOM     91  C   UNL A   1      44.953  25.041  35.816  1.00  0.00     0.198 A 
ATOM     92  F   UNL A   1      42.776  25.303  34.969  1.00  0.00    -0.203 F 
ATOM     93  F   UNL A   1      47.910  27.095  35.413  1.00  0.00    -0.200 F 
ATOM     94  C   UNL A   1      46.261  25.488  35.932  1.00  0.00     0.200 A 
ATOM     95  F   UNL A   1      44.579  23.901  36.415  1.00  0.00    -0.200 F 
ATOM     96  F   UNL A   1      47.158  24.769  36.621  1.00  0.00    -0.200 F 
ENDBRANCH  63  86
ENDBRANCH  37  38
ENDBRANCH  30  32
ENDBRANCH  29  30
ENDBRANCH  28  29
ENDBRANCH  27  28
ENDBRANCH  26  27
ENDBRANCH   1  26
TORSDOF 20
ENDMDL
MODEL 2
REMARK VINA RESULT:     -10.4      1.428      2.437
REMARK SMILES CCC[NH2+][C@]1(C(=O)OCCOCCOC(=O)c2ccc(-c3c4nc(c(-c5c(F)c(F)c(F)c(F)c5F)c5ccc([nH]5)c(-c5c(F)c(F)c(F)c(F)c5F)c5nc(c(-c6c(F)c(F)c(F)c(F)c6F)c6ccc3[nH]6)C=C5)C=C4)cc2)CCC[C@@H]([N@@H+](C)[C@@H](C)C2CC2)C1
REMARK SMILES IDX 10 1 9 2 8 3 6 4 7 5 5 6 80 7 91 8 81 9 83 10 82 11 4 12
REMARK SMILES IDX 3 15 2 16 1 17 84 18 85 19 86 21 87 22 88 23 89 24 90 25
REMARK SMILES IDX 11 26 12 27 13 28 14 29 15 30 16 31 17 32 18 33 79 34 19 35
REMARK SMILES IDX 78 36 20 37 21 38 22 39 72 40 23 41 77 42 71 43 73 44 24 45
REMARK SMILES IDX 76 46 70 47 69 48 25 50 57 51 37 52 56 53 38 54 41 55 55 56
REMARK SMILES IDX 74 57 39 58 40 59 54 61 75 62 42 63 26 64 27 65 35 66 28 67
REMARK SMILES IDX 29 68 33 69 36 70 30 71 31 72 34 73 32 74 58 75 59 76 67 77
REMARK SMILES IDX 60 78 61 79 65 80 68 81 62 82 63 83 66 84 64 85 43 86 44 87
REMARK SMILES IDX 52 88 45 89 46 90 50 91 53 92 47 93 48 94 51 95 49 96
REMARK H PARENT 4 13 4 14 84 20 73 49 41 60
REMARK Flexibility Score: inf
ROOT
ATOM      1  C   UNL A   1      31.350  30.112  24.734  1.00  0.00     0.202 C 
ENDROOT
BRANCH   1   2
ATOM      2  C   UNL A   1      30.385  29.286  23.883  1.00  0.00     0.261 C 
BRANCH   2   3
ATOM      3  O   UNL A   1      30.567  27.878  24.110  1.00  0.00    -0.459 OA
BRANCH   3   4
ATOM      4  C   UNL A   1      31.765  27.382  23.697  1.00  0.00     0.368 C 
ATOM      5  O   UNL A   1      32.347  27.752  22.678  1.00  0.00    -0.245 OA
BRANCH   4   6
ATOM      6  C   UNL A   1      32.313  26.241  24.618  1.00  0.00     0.200 C 
ATOM      7  C   UNL A   1      31.156  25.964  25.614  1.00  0.00     0.081 C 
ATOM      8  C   UNL A   1      32.592  24.919  23.837  1.00  0.00     0.146 C 
ATOM      9  C   UNL A   1      31.418  24.798  26.552  1.00  0.00     0.013 C 
ATOM     10  C   UNL A   1      32.784  23.658  24.722  1.00  0.00     0.190 C 
ATOM     11  C   UNL A   1      31.672  23.510  25.775  1.00  0.00     0.065 C 
BRANCH   6  12
ATOM     12  N   UNL A   1      33.451  26.895  25.300  1.00  0.00    -0.332 N 
ATOM     13  H   UNL A   1      34.085  26.148  25.585  1.00  0.00     0.347 HD
ATOM     14  H   UNL A   1      33.770  27.565  24.600  1.00  0.00     0.347 HD
BRANCH  12  15
ATOM     15  C   UNL A   1      33.256  27.728  26.462  1.00  0.00     0.261 C 
BRANCH  15  16
ATOM     16  C   UNL A   1      34.090  29.011  26.372  1.00  0.00     0.058 C 
ATOM     17  C   UNL A   1      35.199  29.076  27.414  1.00  0.00     0.010 C 
ENDBRANCH  15  16
ENDBRANCH  12  15
ENDBRANCH   6  12
BRANCH  10  18
ATOM     18  N   UNL A   1      33.162  22.432  23.982  1.00  0.00    -0.332 N 
ATOM     19  C   UNL A   1      33.118  22.655  22.529  1.00  0.00     0.333 C 
ATOM     20  H   UNL A   1      32.426  21.820  24.334  1.00  0.00     0.348 HD
BRANCH  18  21
ATOM     21  C   UNL A   1      34.332  21.615  24.339  1.00  0.00     0.184 C 
ATOM     22  C   UNL A   1      35.548  22.326  24.945  1.00  0.00     0.075 C 
BRANCH  21  23
ATOM     23  C   UNL A   1      33.982  20.384  25.146  1.00  0.00     0.047 C 
ATOM     24  C   UNL A   1      32.612  19.740  25.156  1.00  0.00     0.010 C 
ATOM     25  C   UNL A   1      33.724  19.093  24.394  1.00  0.00     0.010 C 
ENDBRANCH  21  23
ENDBRANCH  18  21
ENDBRANCH  10  18
ENDBRANCH   4   6
ENDBRANCH   3   4
ENDBRANCH   2   3
ENDBRANCH   1   2
BRANCH   1  26
ATOM     26  O   UNL A   1      30.767  31.198  25.455  1.00  0.00    -0.374 OA
BRANCH  26  27
ATOM     27  C   UNL A   1      31.391  31.547  26.690  1.00  0.00     0.202 C 
BRANCH  27  28
ATOM     28  C   UNL A   1      31.762  33.025  26.845  1.00  0.00     0.261 C 
BRANCH  28  29
ATOM     29  O   UNL A   1      33.100  33.173  27.351  1.00  0.00    -0.460 OA
BRANCH  29  30
ATOM     30  C   UNL A   1      33.244  34.135  28.289  1.00  0.00     0.338 C 
ATOM     31  O   UNL A   1      32.507  35.093  28.486  1.00  0.00    -0.246 OA
BRANCH  30  32
ATOM     32  C   UNL A   1      34.359  33.798  29.195  1.00  0.00     0.060 A 
ATOM     33  C   UNL A   1      35.622  34.317  28.891  1.00  0.00     0.016 A 
ATOM     34  C   UNL A   1      34.193  32.941  30.285  1.00  0.00     0.016 A 
ATOM     35  C   UNL A   1      36.737  33.900  29.614  1.00  0.00     0.010 A 
ATOM     36  C   UNL A   1      35.307  32.545  31.031  1.00  0.00     0.010 A 
ATOM     37  C   UNL A   1      36.592  32.966  30.650  1.00  0.00    -0.014 A 
BRANCH  37  38
ATOM     38  C   UNL A   1      37.800  32.261  31.150  1.00  0.00     0.031 A 
ATOM     39  C   UNL A   1      38.294  32.579  32.538  1.00  0.00     0.074 A 
ATOM     40  C   UNL A   1      38.401  31.301  30.427  1.00  0.00     0.049 A 
ATOM     41  N   UNL A   1      39.296  32.065  33.207  1.00  0.00    -0.248 NA
ATOM     42  C   UNL A   1      37.564  33.628  33.268  1.00  0.00     0.031 C 
ATOM     43  C   UNL A   1      38.009  30.886  29.082  1.00  0.00     0.029 A 
ATOM     44  N   UNL A   1      39.469  30.496  30.732  1.00  0.00    -0.354 N 
ATOM     45  C   UNL A   1      39.314  32.730  34.427  1.00  0.00     0.074 A 
ATOM     46  C   UNL A   1      38.267  33.725  34.385  1.00  0.00     0.031 C 
ATOM     47  C   UNL A   1      38.825  29.898  28.677  1.00  0.00     0.029 A 
ATOM     48  C   UNL A   1      39.806  29.625  29.727  1.00  0.00     0.049 A 
ATOM     49  H   UNL A   1      39.948  30.538  31.592  1.00  0.00     0.167 HD
ATOM     50  C   UNL A   1      40.112  32.516  35.500  1.00  0.00     0.037 A 
ATOM     51  C   UNL A   1      40.797  28.715  29.663  1.00  0.00     0.037 A 
ATOM     52  C   UNL A   1      41.149  31.521  35.549  1.00  0.00     0.049 A 
ATOM     53  C   UNL A   1      41.697  28.512  30.856  1.00  0.00     0.074 A 
ATOM     54  C   UNL A   1      42.012  31.220  36.588  1.00  0.00     0.029 A 
ATOM     55  N   UNL A   1      41.465  30.663  34.505  1.00  0.00    -0.354 N 
ATOM     56  N   UNL A   1      41.689  29.127  32.014  1.00  0.00    -0.248 NA
ATOM     57  C   UNL A   1      42.730  27.474  30.737  1.00  0.00     0.031 C 
ATOM     58  C   UNL A   1      42.879  30.210  36.157  1.00  0.00     0.029 A 
ATOM     59  C   UNL A   1      42.518  29.840  34.871  1.00  0.00     0.049 A 
ATOM     60  H   UNL A   1      41.008  30.642  33.634  1.00  0.00     0.167 HD
ATOM     61  C   UNL A   1      42.688  28.529  32.773  1.00  0.00     0.074 A 
ATOM     62  C   UNL A   1      43.275  27.495  31.944  1.00  0.00     0.031 C 
ATOM     63  C   UNL A   1      43.083  28.807  34.040  1.00  0.00     0.037 A 
BRANCH  50  64
ATOM     64  C   UNL A   1      39.897  33.395  36.701  1.00  0.00     0.064 A 
ATOM     65  C   UNL A   1      40.630  34.578  36.893  1.00  0.00     0.173 A 
ATOM     66  C   UNL A   1      38.950  33.047  37.675  1.00  0.00     0.173 A 
ATOM     67  F   UNL A   1      41.560  34.947  35.999  1.00  0.00    -0.203 F 
ATOM     68  C   UNL A   1      40.452  35.354  38.034  1.00  0.00     0.198 A 
ATOM     69  C   UNL A   1      38.750  33.846  38.799  1.00  0.00     0.198 A 
ATOM     70  F   UNL A   1      38.220  31.929  37.542  1.00  0.00    -0.203 F 
ATOM     71  F   UNL A   1      41.213  36.441  38.227  1.00  0.00    -0.200 F 
ATOM     72  C   UNL A   1      39.509  34.992  38.983  1.00  0.00     0.200 A 
ATOM     73  F   UNL A   1      37.830  33.499  39.709  1.00  0.00    -0.200 F 
ATOM     74  F   UNL A   1      39.341  35.739  40.082  1.00  0.00    -0.200 F 
ENDBRANCH  50  64
BRANCH  51  75
ATOM     75  C   UNL A   1      40.978  27.910  28.427  1.00  0.00     0.064 A 
ATOM     76  C   UNL A   1      41.773  28.369  27.368  1.00  0.00     0.173 A 
ATOM     77  C   UNL A   1      40.354  26.662  28.279  1.00  0.00     0.173 A 
ATOM     78  F   UNL A   1      42.372  29.567  27.452  1.00  0.00    -0.203 F 
ATOM     79  C   UNL A   1      41.925  27.620  26.203  1.00  0.00     0.198 A 
ATOM     80  C   UNL A   1      40.528  25.901  27.126  1.00  0.00     0.198 A 
ATOM     81  F   UNL A   1      39.582  26.178  29.263  1.00  0.00    -0.203 F 
ATOM     82  F   UNL A   1      42.655  28.103  25.189  1.00  0.00    -0.200 F 
ATOM     83  C   UNL A   1      41.308  26.383  26.085  1.00  0.00     0.200 A 
ATOM     84  F   UNL A   1      39.941  24.701  27.022  1.00  0.00    -0.200 F 
ATOM     85  F   UNL A   1      41.459  25.661  24.968  1.00  0.00    -0.200 F 
ENDBRANCH  51  75
BRANCH  63  86
ATOM     86  C   UNL A   1      44.163  27.947  34.633  1.00  0.00     0.064 A 
ATOM     87  C   UNL A   1      45.516  28.312  34.582  1.00  0.00     0.173 A 
ATOM     88  C   UNL A   1      43.832  26.751  35.291  1.00  0.00     0.173 A 
ATOM     89  F   UNL A   1      45.888  29.439  33.957  1.00  0.00    -0.203 F 
ATOM     90  C   UNL A   1      46.500  27.495  35.135  1.00  0.00     0.198 A 
ATOM     91  C   UNL A   1      44.814  25.955  35.872  1.00  0.00     0.198 A 
ATOM     92  F   UNL A   1      42.551  26.360  35.380  1.00  0.00    -0.203 F 
ATOM     93  F   UNL A   1      47.791  27.835  35.024  1.00  0.00    -0.200 F 
ATOM     94  C   UNL A   1      46.148  26.321  35.784  1.00  0.00     0.200 A 
ATOM     95  F   UNL A   1      44.469  24.829  36.513  1.00  0.00    -0.200 F 
ATOM     96  F   UNL A   1      47.096  25.538  36.318  1.00  0.00    -0.200 F 
ENDBRANCH  63  86
ENDBRANCH  37  38
ENDBRANCH  30  32
ENDBRANCH  29  30
ENDBRANCH  28  29
ENDBRANCH  27  28
ENDBRANCH  26  27
ENDBRANCH   1  26
TORSDOF 20
ENDMDL
MODEL 3
REMARK VINA RESULT:     -10.3      1.268      2.046
REMARK SMILES CCC[NH2+][C@]1(C(=O)OCCOCCOC(=O)c2ccc(-c3c4nc(c(-c5c(F)c(F)c(F)c(F)c5F)c5ccc([nH]5)c(-c5c(F)c(F)c(F)c(F)c5F)c5nc(c(-c6c(F)c(F)c(F)c(F)c6F)c6ccc3[nH]6)C=C5)C=C4)cc2)CCC[C@@H]([N@@H+](C)[C@@H](C)C2CC2)C1
REMARK SMILES IDX 10 1 9 2 8 3 6 4 7 5 5 6 80 7 91 8 81 9 83 10 82 11 4 12
REMARK SMILES IDX 3 15 2 16 1 17 84 18 85 19 86 21 87 22 88 23 89 24 90 25
REMARK SMILES IDX 11 26 12 27 13 28 14 29 15 30 16 31 17 32 18 33 79 34 19 35
REMARK SMILES IDX 78 36 20 37 21 38 22 39 72 40 23 41 77 42 71 43 73 44 24 45
REMARK SMILES IDX 76 46 70 47 69 48 25 50 57 51 37 52 56 53 38 54 41 55 55 56
REMARK SMILES IDX 74 57 39 58 40 59 54 61 75 62 42 63 26 64 27 65 35 66 28 67
REMARK SMILES IDX 29 68 33 69 36 70 30 71 31 72 34 73 32 74 58 75 59 76 67 77
REMARK SMILES IDX 60 78 61 79 65 80 68 81 62 82 63 83 66 84 64 85 43 86 44 87
REMARK SMILES IDX 52 88 45 89 46 90 50 91 53 92 47 93 48 94 51 95 49 96
REMARK H PARENT 4 13 4 14 84 20 73 49 41 60
REMARK Flexibility Score: inf
ROOT
ATOM      1  C   UNL A   1      31.817  29.586  25.143  1.00  0.00     0.202 C 
ENDROOT
BRANCH   1   2
ATOM      2  C   UNL A   1      30.878  28.878  24.167  1.00  0.00     0.261 C 
BRANCH   2   3
ATOM      3  O   UNL A   1      30.845  27.462  24.412  1.00  0.00    -0.459 OA
BRANCH   3   4
ATOM      4  C   UNL A   1      31.649  26.723  23.599  1.00  0.00     0.368 C 
ATOM      5  O   UNL A   1      32.127  27.137  22.544  1.00  0.00    -0.245 OA
BRANCH   4   6
ATOM      6  C   UNL A   1      31.864  25.258  24.108  1.00  0.00     0.200 C 
ATOM      7  C   UNL A   1      31.474  24.371  22.897  1.00  0.00     0.081 C 
ATOM      8  C   UNL A   1      33.355  24.955  24.457  1.00  0.00     0.146 C 
ATOM      9  C   UNL A   1      31.711  22.887  23.120  1.00  0.00     0.013 C 
ATOM     10  C   UNL A   1      33.702  23.450  24.615  1.00  0.00     0.190 C 
ATOM     11  C   UNL A   1      33.176  22.604  23.443  1.00  0.00     0.065 C 
BRANCH   6  12
ATOM     12  N   UNL A   1      30.863  25.143  25.192  1.00  0.00    -0.332 N 
ATOM     13  H   UNL A   1      30.488  26.080  25.339  1.00  0.00     0.347 HD
ATOM     14  H   UNL A   1      30.240  24.417  24.838  1.00  0.00     0.347 HD
BRANCH  12  15
ATOM     15  C   UNL A   1      31.218  24.637  26.497  1.00  0.00     0.261 C 
BRANCH  15  16
ATOM     16  C   UNL A   1      30.871  23.151  26.630  1.00  0.00     0.058 C 
ATOM     17  C   UNL A   1      29.478  22.914  27.199  1.00  0.00     0.010 C 
ENDBRANCH  15  16
ENDBRANCH  12  15
ENDBRANCH   6  12
BRANCH  10  18
ATOM     18  N   UNL A   1      35.089  23.177  25.058  1.00  0.00    -0.332 N 
ATOM     19  C   UNL A   1      35.775  24.418  25.450  1.00  0.00     0.333 C 
ATOM     20  H   UNL A   1      35.436  22.762  24.192  1.00  0.00     0.348 HD
BRANCH  18  21
ATOM     21  C   UNL A   1      35.428  22.088  25.988  1.00  0.00     0.184 C 
ATOM     22  C   UNL A   1      34.284  21.419  26.759  1.00  0.00     0.075 C 
BRANCH  21  23
ATOM     23  C   UNL A   1      36.342  21.045  25.384  1.00  0.00     0.047 C 
ATOM     24  C   UNL A   1      37.296  21.315  24.239  1.00  0.00     0.010 C 
ATOM     25  C   UNL A   1      37.832  21.181  25.629  1.00  0.00     0.010 C 
ENDBRANCH  21  23
ENDBRANCH  18  21
ENDBRANCH  10  18
ENDBRANCH   4   6
ENDBRANCH   3   4
ENDBRANCH   2   3
ENDBRANCH   1   2
BRANCH   1  26
ATOM     26  O   UNL A   1      31.299  30.770  25.752  1.00  0.00    -0.374 OA
BRANCH  26  27
ATOM     27  C   UNL A   1      31.989  31.240  26.910  1.00  0.00     0.202 C 
BRANCH  27  28
ATOM     28  C   UNL A   1      31.887  32.746  27.171  1.00  0.00     0.261 C 
BRANCH  28  29
ATOM     29  O   UNL A   1      33.189  33.333  27.336  1.00  0.00    -0.460 OA
BRANCH  29  30
ATOM     30  C   UNL A   1      33.280  34.231  28.343  1.00  0.00     0.338 C 
ATOM     31  O   UNL A   1      32.493  35.133  28.602  1.00  0.00    -0.246 OA
BRANCH  30  32
ATOM     32  C   UNL A   1      34.405  33.886  29.231  1.00  0.00     0.060 A 
ATOM     33  C   UNL A   1      35.680  34.335  28.869  1.00  0.00     0.016 A 
ATOM     34  C   UNL A   1      34.236  33.086  30.363  1.00  0.00     0.016 A 
ATOM     35  C   UNL A   1      36.797  33.903  29.579  1.00  0.00     0.010 A 
ATOM     36  C   UNL A   1      35.354  32.675  31.095  1.00  0.00     0.010 A 
ATOM     37  C   UNL A   1      36.645  33.023  30.659  1.00  0.00    -0.014 A 
BRANCH  37  38
ATOM     38  C   UNL A   1      37.836  32.289  31.157  1.00  0.00     0.031 A 
ATOM     39  C   UNL A   1      38.331  32.583  32.550  1.00  0.00     0.074 A 
ATOM     40  C   UNL A   1      38.420  31.325  30.426  1.00  0.00     0.049 A 
ATOM     41  N   UNL A   1      39.319  32.043  33.217  1.00  0.00    -0.248 NA
ATOM     42  C   UNL A   1      37.619  33.639  33.288  1.00  0.00     0.031 C 
ATOM     43  C   UNL A   1      38.026  30.931  29.076  1.00  0.00     0.029 A 
ATOM     44  N   UNL A   1      39.472  30.495  30.728  1.00  0.00    -0.354 N 
ATOM     45  C   UNL A   1      39.346  32.695  34.444  1.00  0.00     0.074 A 
ATOM     46  C   UNL A   1      38.318  33.710  34.408  1.00  0.00     0.031 C 
ATOM     47  C   UNL A   1      38.824  29.931  28.664  1.00  0.00     0.029 A 
ATOM     48  C   UNL A   1      39.796  29.628  29.714  1.00  0.00     0.049 A 
ATOM     49  H   UNL A   1      39.948  30.519  31.589  1.00  0.00     0.167 HD
ATOM     50  C   UNL A   1      40.135  32.454  35.518  1.00  0.00     0.037 A 
ATOM     51  C   UNL A   1      40.768  28.699  29.645  1.00  0.00     0.037 A 
ATOM     52  C   UNL A   1      41.152  31.438  35.560  1.00  0.00     0.049 A 
ATOM     53  C   UNL A   1      41.659  28.467  30.839  1.00  0.00     0.074 A 
ATOM     54  C   UNL A   1      42.004  31.109  36.600  1.00  0.00     0.029 A 
ATOM     55  N   UNL A   1      41.455  30.585  34.510  1.00  0.00    -0.354 N 
ATOM     56  N   UNL A   1      41.659  29.069  32.004  1.00  0.00    -0.248 NA
ATOM     57  C   UNL A   1      42.671  27.409  30.714  1.00  0.00     0.031 C 
ATOM     58  C   UNL A   1      42.853  30.087  36.162  1.00  0.00     0.029 A 
ATOM     59  C   UNL A   1      42.490  29.737  34.871  1.00  0.00     0.049 A 
ATOM     60  H   UNL A   1      41.001  30.582  33.636  1.00  0.00     0.167 HD
ATOM     61  C   UNL A   1      42.643  28.444  32.760  1.00  0.00     0.074 A 
ATOM     62  C   UNL A   1      43.212  27.407  31.923  1.00  0.00     0.031 C 
ATOM     63  C   UNL A   1      43.038  28.702  34.032  1.00  0.00     0.037 A 
BRANCH  50  64
ATOM     64  C   UNL A   1      39.932  33.324  36.727  1.00  0.00     0.064 A 
ATOM     65  C   UNL A   1      40.690  34.489  36.935  1.00  0.00     0.173 A 
ATOM     66  C   UNL A   1      38.973  32.988  37.693  1.00  0.00     0.173 A 
ATOM     67  F   UNL A   1      41.632  34.848  36.050  1.00  0.00    -0.203 F 
ATOM     68  C   UNL A   1      40.523  35.258  38.084  1.00  0.00     0.198 A 
ATOM     69  C   UNL A   1      38.785  33.779  38.824  1.00  0.00     0.198 A 
ATOM     70  F   UNL A   1      38.221  31.887  37.544  1.00  0.00    -0.203 F 
ATOM     71  F   UNL A   1      41.306  36.326  38.292  1.00  0.00    -0.200 F 
ATOM     72  C   UNL A   1      39.567  34.906  39.024  1.00  0.00     0.200 A 
ATOM     73  F   UNL A   1      37.852  33.443  39.726  1.00  0.00    -0.200 F 
ATOM     74  F   UNL A   1      39.409  35.645  40.130  1.00  0.00    -0.200 F 
ENDBRANCH  50  64
BRANCH  51  75
ATOM     75  C   UNL A   1      40.938  27.903  28.401  1.00  0.00     0.064 A 
ATOM     76  C   UNL A   1      40.325  26.653  28.246  1.00  0.00     0.173 A 
ATOM     77  C   UNL A   1      41.723  28.380  27.341  1.00  0.00     0.173 A 
ATOM     78  F   UNL A   1      39.584  26.143  29.241  1.00  0.00    -0.203 F 
ATOM     79  C   UNL A   1      40.503  25.902  27.086  1.00  0.00     0.198 A 
ATOM     80  C   UNL A   1      41.878  27.642  26.170  1.00  0.00     0.198 A 
ATOM     81  F   UNL A   1      42.332  29.571  27.439  1.00  0.00    -0.203 F 
ATOM     82  F   UNL A   1      39.941  24.690  26.982  1.00  0.00    -0.200 F 
ATOM     83  C   UNL A   1      41.273  26.400  26.046  1.00  0.00     0.200 A 
ATOM     84  F   UNL A   1      42.613  28.133  25.163  1.00  0.00    -0.200 F 
ATOM     85  F   UNL A   1      41.439  25.681  24.928  1.00  0.00    -0.200 F 
ENDBRANCH  51  75
BRANCH  63  86
ATOM     86  C   UNL A   1      44.098  27.814  34.620  1.00  0.00     0.064 A 
ATOM     87  C   UNL A   1      43.787  26.597  35.244  1.00  0.00     0.173 A 
ATOM     88  C   UNL A   1      45.452  28.177  34.530  1.00  0.00     0.173 A 
ATOM     89  F   UNL A   1      42.509  26.208  35.365  1.00  0.00    -0.203 F 
ATOM     90  C   UNL A   1      44.788  25.793  35.786  1.00  0.00     0.198 A 
ATOM     91  C   UNL A   1      46.451  27.356  35.043  1.00  0.00     0.198 A 
ATOM     92  F   UNL A   1      45.807  29.325  33.934  1.00  0.00    -0.203 F 
ATOM     93  F   UNL A   1      44.462  24.663  36.428  1.00  0.00    -0.200 F 
ATOM     94  C   UNL A   1      46.118  26.170  35.681  1.00  0.00     0.200 A 
ATOM     95  F   UNL A   1      47.738  27.714  34.925  1.00  0.00    -0.200 F 
ATOM     96  F   UNL A   1      47.079  25.394  36.201  1.00  0.00    -0.200 F 
ENDBRANCH  63  86
ENDBRANCH  37  38
ENDBRANCH  30  32
ENDBRANCH  29  30
ENDBRANCH  28  29
ENDBRANCH  27  28
ENDBRANCH  26  27
ENDBRANCH   1  26
TORSDOF 20
ENDMDL
