MODEL 1
REMARK VINA RESULT:     -10.8      0.000      0.000
REMARK SMILES C/C=C/C=C/C(=O)N[C@@](C)(C(=O)OCCOCCOC(=O)c1ccc(-c2c3nc(c(-c4c(F)c(F)c(F)c(F)c4F)c4ccc([nH]4)c(-c4c(F)c(F)c(F)c(F)c4F)c4nc(c(-c5c(F)c(F)c(F)c(F)c5F)c5ccc2[nH]5)C=C4)C=C3)cc1)C(F)(F)F
REMARK SMILES IDX 15 1 14 2 13 3 11 4 12 5 9 6 10 7 8 8 6 9 7 10 5 12 4 13
REMARK SMILES IDX 3 14 1 15 2 16 85 17 86 18 87 19 88 20 16 21 17 22 18 23
REMARK SMILES IDX 19 24 20 25 21 26 22 27 23 28 84 29 24 30 83 31 25 32 26 33
REMARK SMILES IDX 27 34 77 35 28 36 82 37 76 38 78 39 29 40 81 41 75 42 74 43
REMARK SMILES IDX 30 45 62 46 42 47 61 48 43 49 46 50 60 51 79 52 44 53 45 54
REMARK SMILES IDX 59 56 80 57 47 58 31 59 32 60 40 61 33 62 34 63 38 64 41 65
REMARK SMILES IDX 35 66 36 67 39 68 37 69 63 70 64 71 72 72 65 73 66 74 70 75
REMARK SMILES IDX 73 76 67 77 68 78 71 79 69 80 48 81 49 82 57 83 50 84 51 85
REMARK SMILES IDX 55 86 58 87 52 88 53 89 56 90 54 91
REMARK H PARENT 8 11 78 44 46 55
REMARK Flexibility Score: inf
ROOT
ATOM      1  C   UNL A   1      31.994  29.142  26.750  1.00  0.00     0.202 C 
ENDROOT
BRANCH   1   2
ATOM      2  C   UNL A   1      33.125  28.462  25.964  1.00  0.00     0.261 C 
BRANCH   2   3
ATOM      3  O   UNL A   1      32.645  27.584  24.934  1.00  0.00    -0.461 OA
BRANCH   3   4
ATOM      4  C   UNL A   1      32.536  28.138  23.688  1.00  0.00     0.341 C 
ATOM      5  O   UNL A   1      33.304  28.992  23.264  1.00  0.00    -0.249 OA
BRANCH   4   6
ATOM      6  C   UNL A   1      31.314  27.604  22.916  1.00  0.00     0.231 C 
ATOM      7  C   UNL A   1      30.615  26.580  23.816  1.00  0.00     0.058 C 
BRANCH   6   8
ATOM      8  N   UNL A   1      31.786  26.861  21.687  1.00  0.00    -0.329 N 
ATOM      9  C   UNL A   1      32.683  25.886  21.401  1.00  0.00     0.245 C 
ATOM     10  O   UNL A   1      33.038  25.737  20.234  1.00  0.00    -0.270 OA
ATOM     11  H   UNL A   1      31.316  27.167  20.878  1.00  0.00     0.165 HD
BRANCH   9  12
ATOM     12  C   UNL A   1      33.209  24.980  22.429  1.00  0.00     0.071 C 
ATOM     13  C   UNL A   1      32.769  23.716  22.496  1.00  0.00     0.005 C 
BRANCH  13  14
ATOM     14  C   UNL A   1      33.224  22.765  23.483  1.00  0.00    -0.004 C 
ATOM     15  C   UNL A   1      33.155  20.460  24.479  1.00  0.00     0.035 C 
ATOM     16  C   UNL A   1      32.768  21.503  23.485  1.00  0.00    -0.030 C 
ENDBRANCH  13  14
ENDBRANCH   9  12
ENDBRANCH   6   8
BRANCH   6  17
ATOM     17  C   UNL A   1      30.414  28.840  22.766  1.00  0.00     0.422 C 
ATOM     18  F   UNL A   1      30.884  29.701  21.836  1.00  0.00    -0.168 F 
ATOM     19  F   UNL A   1      29.151  28.491  22.423  1.00  0.00    -0.168 F 
ATOM     20  F   UNL A   1      30.287  29.538  23.920  1.00  0.00    -0.168 F 
ENDBRANCH   6  17
ENDBRANCH   4   6
ENDBRANCH   3   4
ENDBRANCH   2   3
ENDBRANCH   1   2
BRANCH   1  21
ATOM     21  O   UNL A   1      32.201  30.480  27.189  1.00  0.00    -0.374 OA
BRANCH  21  22
ATOM     22  C   UNL A   1      31.618  31.537  26.426  1.00  0.00     0.202 C 
BRANCH  22  23
ATOM     23  C   UNL A   1      31.838  32.984  26.891  1.00  0.00     0.261 C 
BRANCH  23  24
ATOM     24  O   UNL A   1      32.558  33.079  28.136  1.00  0.00    -0.460 OA
BRANCH  24  25
ATOM     25  C   UNL A   1      33.638  33.902  28.091  1.00  0.00     0.338 C 
ATOM     26  O   UNL A   1      33.645  35.117  27.997  1.00  0.00    -0.246 OA
BRANCH  25  27
ATOM     27  C   UNL A   1      34.875  33.147  28.363  1.00  0.00     0.060 A 
ATOM     28  C   UNL A   1      34.740  31.836  28.837  1.00  0.00     0.016 A 
ATOM     29  C   UNL A   1      36.130  33.753  28.293  1.00  0.00     0.016 A 
ATOM     30  C   UNL A   1      35.858  31.141  29.291  1.00  0.00     0.010 A 
ATOM     31  C   UNL A   1      37.252  33.056  28.760  1.00  0.00     0.010 A 
ATOM     32  C   UNL A   1      37.114  31.762  29.297  1.00  0.00    -0.014 A 
BRANCH  32  33
ATOM     33  C   UNL A   1      38.235  31.103  30.011  1.00  0.00     0.031 A 
ATOM     34  C   UNL A   1      38.482  31.439  31.457  1.00  0.00     0.074 A 
ATOM     35  C   UNL A   1      38.982  30.167  29.401  1.00  0.00     0.049 A 
ATOM     36  N   UNL A   1      39.374  30.956  32.284  1.00  0.00    -0.248 NA
ATOM     37  C   UNL A   1      37.601  32.457  32.052  1.00  0.00     0.031 C 
ATOM     38  C   UNL A   1      38.817  29.728  28.018  1.00  0.00     0.029 A 
ATOM     39  N   UNL A   1      40.028  29.412  29.873  1.00  0.00    -0.354 N 
ATOM     40  C   UNL A   1      39.161  31.604  33.493  1.00  0.00     0.074 A 
ATOM     41  C   UNL A   1      38.078  32.541  33.286  1.00  0.00     0.031 C 
ATOM     42  C   UNL A   1      39.731  28.779  27.750  1.00  0.00     0.029 A 
ATOM     43  C   UNL A   1      40.558  28.561  28.936  1.00  0.00     0.049 A 
ATOM     44  H   UNL A   1      40.365  29.475  30.796  1.00  0.00     0.167 HD
ATOM     45  C   UNL A   1      39.800  31.424  34.674  1.00  0.00     0.037 A 
ATOM     46  C   UNL A   1      41.599  27.711  29.025  1.00  0.00     0.037 A 
ATOM     47  C   UNL A   1      40.877  30.492  34.881  1.00  0.00     0.049 A 
ATOM     48  C   UNL A   1      42.334  27.575  30.334  1.00  0.00     0.074 A 
ATOM     49  C   UNL A   1      41.579  30.229  36.045  1.00  0.00     0.029 A 
ATOM     50  N   UNL A   1      41.413  29.676  33.898  1.00  0.00    -0.354 N 
ATOM     51  N   UNL A   1      42.104  28.169  31.479  1.00  0.00    -0.248 NA
ATOM     52  C   UNL A   1      43.471  26.643  30.362  1.00  0.00     0.031 C 
ATOM     53  C   UNL A   1      42.571  29.285  35.753  1.00  0.00     0.029 A 
ATOM     54  C   UNL A   1      42.454  28.924  34.420  1.00  0.00     0.049 A 
ATOM     55  H   UNL A   1      41.101  29.635  32.964  1.00  0.00     0.167 HD
ATOM     56  C   UNL A   1      43.044  27.664  32.368  1.00  0.00     0.074 A 
ATOM     57  C   UNL A   1      43.840  26.703  31.633  1.00  0.00     0.031 C 
ATOM     58  C   UNL A   1      43.232  27.968  33.677  1.00  0.00     0.037 A 
BRANCH  45  59
ATOM     59  C   UNL A   1      39.362  32.271  35.833  1.00  0.00     0.064 A 
ATOM     60  C   UNL A   1      38.439  31.803  36.779  1.00  0.00     0.173 A 
ATOM     61  C   UNL A   1      39.899  33.554  36.018  1.00  0.00     0.173 A 
ATOM     62  F   UNL A   1      37.887  30.588  36.640  1.00  0.00    -0.203 F 
ATOM     63  C   UNL A   1      38.051  32.597  37.856  1.00  0.00     0.198 A 
ATOM     64  C   UNL A   1      39.529  34.335  37.110  1.00  0.00     0.198 A 
ATOM     65  F   UNL A   1      40.788  34.048  35.144  1.00  0.00    -0.203 F 
ATOM     66  F   UNL A   1      37.136  32.146  38.725  1.00  0.00    -0.200 F 
ATOM     67  C   UNL A   1      38.601  33.859  38.023  1.00  0.00     0.200 A 
ATOM     68  F   UNL A   1      40.069  35.550  37.276  1.00  0.00    -0.200 F 
ATOM     69  F   UNL A   1      38.231  34.620  39.064  1.00  0.00    -0.200 F 
ENDBRANCH  45  59
BRANCH  46  70
ATOM     70  C   UNL A   1      42.012  26.917  27.839  1.00  0.00     0.064 A 
ATOM     71  C   UNL A   1      42.997  27.384  26.959  1.00  0.00     0.173 A 
ATOM     72  C   UNL A   1      41.414  25.680  27.551  1.00  0.00     0.173 A 
ATOM     73  F   UNL A   1      43.580  28.574  27.178  1.00  0.00    -0.203 F 
ATOM     74  C   UNL A   1      43.356  26.656  25.827  1.00  0.00     0.198 A 
ATOM     75  C   UNL A   1      41.794  24.940  26.434  1.00  0.00     0.198 A 
ATOM     76  F   UNL A   1      40.464  25.189  28.361  1.00  0.00    -0.203 F 
ATOM     77  F   UNL A   1      44.268  27.149  24.977  1.00  0.00    -0.200 F 
ATOM     78  C   UNL A   1      42.758  25.432  25.568  1.00  0.00     0.200 A 
ATOM     79  F   UNL A   1      41.220  23.753  26.194  1.00  0.00    -0.200 F 
ATOM     80  F   UNL A   1      43.105  24.731  24.480  1.00  0.00    -0.200 F 
ENDBRANCH  46  70
BRANCH  58  81
ATOM     81  C   UNL A   1      44.319  27.230  34.405  1.00  0.00     0.064 A 
ATOM     82  C   UNL A   1      45.617  27.748  34.510  1.00  0.00     0.173 A 
ATOM     83  C   UNL A   1      44.047  26.006  35.036  1.00  0.00     0.173 A 
ATOM     84  F   UNL A   1      45.932  28.908  33.912  1.00  0.00    -0.203 F 
ATOM     85  C   UNL A   1      46.612  27.054  35.195  1.00  0.00     0.198 A 
ATOM     86  C   UNL A   1      45.035  25.330  35.745  1.00  0.00     0.198 A 
ATOM     87  F   UNL A   1      42.817  25.472  34.972  1.00  0.00    -0.203 F 
ATOM     88  F   UNL A   1      47.859  27.544  35.240  1.00  0.00    -0.200 F 
ATOM     89  C   UNL A   1      46.318  25.850  35.817  1.00  0.00     0.200 A 
ATOM     90  F   UNL A   1      44.746  24.172  36.356  1.00  0.00    -0.200 F 
ATOM     91  F   UNL A   1      47.275  25.185  36.479  1.00  0.00    -0.200 F 
ENDBRANCH  58  81
ENDBRANCH  32  33
ENDBRANCH  25  27
ENDBRANCH  24  25
ENDBRANCH  23  24
ENDBRANCH  22  23
ENDBRANCH  21  22
ENDBRANCH   1  21
TORSDOF 18
ENDMDL
MODEL 2
REMARK VINA RESULT:     -10.6      4.455     10.068
REMARK SMILES C/C=C/C=C/C(=O)N[C@@](C)(C(=O)OCCOCCOC(=O)c1ccc(-c2c3nc(c(-c4c(F)c(F)c(F)c(F)c4F)c4ccc([nH]4)c(-c4c(F)c(F)c(F)c(F)c4F)c4nc(c(-c5c(F)c(F)c(F)c(F)c5F)c5ccc2[nH]5)C=C4)C=C3)cc1)C(F)(F)F
REMARK SMILES IDX 15 1 14 2 13 3 11 4 12 5 9 6 10 7 8 8 6 9 7 10 5 12 4 13
REMARK SMILES IDX 3 14 1 15 2 16 85 17 86 18 87 19 88 20 16 21 17 22 18 23
REMARK SMILES IDX 19 24 20 25 21 26 22 27 23 28 84 29 24 30 83 31 25 32 26 33
REMARK SMILES IDX 27 34 77 35 28 36 82 37 76 38 78 39 29 40 81 41 75 42 74 43
REMARK SMILES IDX 30 45 62 46 42 47 61 48 43 49 46 50 60 51 79 52 44 53 45 54
REMARK SMILES IDX 59 56 80 57 47 58 31 59 32 60 40 61 33 62 34 63 38 64 41 65
REMARK SMILES IDX 35 66 36 67 39 68 37 69 63 70 64 71 72 72 65 73 66 74 70 75
REMARK SMILES IDX 73 76 67 77 68 78 71 79 69 80 48 81 49 82 57 83 50 84 51 85
REMARK SMILES IDX 55 86 58 87 52 88 53 89 56 90 54 91
REMARK H PARENT 8 11 78 44 46 55
REMARK Flexibility Score: inf
ROOT
ATOM      1  C   UNL A   1      35.394  23.074  25.021  1.00  0.00     0.202 C 
ENDROOT
BRANCH   1   2
ATOM      2  C   UNL A   1      35.043  22.937  23.532  1.00  0.00     0.261 C 
BRANCH   2   3
ATOM      3  O   UNL A   1      34.513  24.146  22.966  1.00  0.00    -0.461 OA
BRANCH   3   4
ATOM      4  C   UNL A   1      33.151  24.194  22.843  1.00  0.00     0.341 C 
ATOM      5  O   UNL A   1      32.471  23.226  22.527  1.00  0.00    -0.249 OA
BRANCH   4   6
ATOM      6  C   UNL A   1      32.591  25.608  23.091  1.00  0.00     0.231 C 
ATOM      7  C   UNL A   1      33.614  26.362  23.948  1.00  0.00     0.058 C 
BRANCH   6   8
ATOM      8  N   UNL A   1      31.323  25.506  23.907  1.00  0.00    -0.329 N 
ATOM      9  C   UNL A   1      30.426  26.359  24.456  1.00  0.00     0.245 C 
ATOM     10  O   UNL A   1      29.672  25.940  25.332  1.00  0.00    -0.270 OA
ATOM     11  H   UNL A   1      31.085  24.567  24.088  1.00  0.00     0.165 HD
BRANCH   9  12
ATOM     12  C   UNL A   1      30.296  27.753  24.012  1.00  0.00     0.071 C 
ATOM     13  C   UNL A   1      29.345  28.088  23.130  1.00  0.00     0.005 C 
BRANCH  13  14
ATOM     14  C   UNL A   1      29.158  29.431  22.631  1.00  0.00    -0.004 C 
ATOM     15  C   UNL A   1      28.153  31.721  22.868  1.00  0.00     0.035 C 
ATOM     16  C   UNL A   1      28.426  30.324  23.315  1.00  0.00    -0.030 C 
ENDBRANCH  13  14
ENDBRANCH   9  12
ENDBRANCH   6   8
BRANCH   6  17
ATOM     17  C   UNL A   1      32.553  26.232  21.688  1.00  0.00     0.422 C 
ATOM     18  F   UNL A   1      33.276  25.520  20.795  1.00  0.00    -0.168 F 
ATOM     19  F   UNL A   1      31.282  26.328  21.227  1.00  0.00    -0.168 F 
ATOM     20  F   UNL A   1      33.034  27.498  21.665  1.00  0.00    -0.168 F 
ENDBRANCH   6  17
ENDBRANCH   4   6
ENDBRANCH   3   4
ENDBRANCH   2   3
ENDBRANCH   1   2
BRANCH   1  21
ATOM     21  O   UNL A   1      35.670  21.884  25.750  1.00  0.00    -0.374 OA
BRANCH  21  22
ATOM     22  C   UNL A   1      36.069  20.724  25.020  1.00  0.00     0.202 C 
BRANCH  22  23
ATOM     23  C   UNL A   1      37.536  20.276  25.100  1.00  0.00     0.261 C 
BRANCH  23  24
ATOM     24  O   UNL A   1      38.460  21.374  25.242  1.00  0.00    -0.460 OA
BRANCH  24  25
ATOM     25  C   UNL A   1      39.465  21.142  26.125  1.00  0.00     0.338 C 
ATOM     26  O   UNL A   1      40.112  20.119  26.267  1.00  0.00    -0.246 OA
BRANCH  25  27
ATOM     27  C   UNL A   1      39.840  22.388  26.820  1.00  0.00     0.060 A 
ATOM     28  C   UNL A   1      39.191  23.565  26.429  1.00  0.00     0.016 A 
ATOM     29  C   UNL A   1      40.899  22.428  27.728  1.00  0.00     0.016 A 
ATOM     30  C   UNL A   1      39.632  24.797  26.907  1.00  0.00     0.010 A 
ATOM     31  C   UNL A   1      41.348  23.667  28.200  1.00  0.00     0.010 A 
ATOM     32  C   UNL A   1      40.741  24.859  27.761  1.00  0.00    -0.014 A 
BRANCH  32  33
ATOM     33  C   UNL A   1      41.344  26.182  28.056  1.00  0.00     0.031 A 
ATOM     34  C   UNL A   1      42.743  26.472  27.581  1.00  0.00     0.074 A 
ATOM     35  C   UNL A   1      40.633  27.138  28.678  1.00  0.00     0.049 A 
ATOM     36  N   UNL A   1      43.448  27.569  27.690  1.00  0.00    -0.248 NA
ATOM     37  C   UNL A   1      43.439  25.376  26.888  1.00  0.00     0.031 C 
ATOM     38  C   UNL A   1      39.259  26.992  29.151  1.00  0.00     0.029 A 
ATOM     39  N   UNL A   1      40.970  28.427  29.011  1.00  0.00    -0.354 N 
ATOM     40  C   UNL A   1      44.665  27.300  27.078  1.00  0.00     0.074 A 
ATOM     41  C   UNL A   1      44.618  25.925  26.630  1.00  0.00     0.031 C 
ATOM     42  C   UNL A   1      38.868  28.146  29.716  1.00  0.00     0.029 A 
ATOM     43  C   UNL A   1      39.972  29.104  29.665  1.00  0.00     0.049 A 
ATOM     44  H   UNL A   1      41.846  28.826  28.803  1.00  0.00     0.167 HD
ATOM     45  C   UNL A   1      45.721  28.127  26.893  1.00  0.00     0.037 A 
ATOM     46  C   UNL A   1      39.956  30.353  30.170  1.00  0.00     0.037 A 
ATOM     47  C   UNL A   1      45.769  29.495  27.339  1.00  0.00     0.049 A 
ATOM     48  C   UNL A   1      41.168  31.234  30.006  1.00  0.00     0.074 A 
ATOM     49  C   UNL A   1      46.791  30.418  27.187  1.00  0.00     0.029 A 
ATOM     50  N   UNL A   1      44.753  30.134  28.031  1.00  0.00    -0.354 N 
ATOM     51  N   UNL A   1      42.300  30.980  29.398  1.00  0.00    -0.248 NA
ATOM     52  C   UNL A   1      41.093  32.579  30.594  1.00  0.00     0.031 C 
ATOM     53  C   UNL A   1      46.408  31.602  27.828  1.00  0.00     0.029 A 
ATOM     54  C   UNL A   1      45.130  31.433  28.336  1.00  0.00     0.049 A 
ATOM     55  H   UNL A   1      43.890  29.726  28.272  1.00  0.00     0.167 HD
ATOM     56  C   UNL A   1      43.060  32.137  29.505  1.00  0.00     0.074 A 
ATOM     57  C   UNL A   1      42.254  33.101  30.224  1.00  0.00     0.031 C 
ATOM     58  C   UNL A   1      44.314  32.381  29.047  1.00  0.00     0.037 A 
BRANCH  45  59
ATOM     59  C   UNL A   1      46.925  27.567  26.193  1.00  0.00     0.064 A 
ATOM     60  C   UNL A   1      47.975  26.965  26.902  1.00  0.00     0.173 A 
ATOM     61  C   UNL A   1      47.013  27.602  24.794  1.00  0.00     0.173 A 
ATOM     62  F   UNL A   1      47.944  26.918  28.242  1.00  0.00    -0.203 F 
ATOM     63  C   UNL A   1      49.079  26.439  26.237  1.00  0.00     0.198 A 
ATOM     64  C   UNL A   1      48.107  27.051  24.130  1.00  0.00     0.198 A 
ATOM     65  F   UNL A   1      46.034  28.162  24.067  1.00  0.00    -0.203 F 
ATOM     66  F   UNL A   1      50.091  25.907  26.937  1.00  0.00    -0.200 F 
ATOM     67  C   UNL A   1      49.142  26.478  24.852  1.00  0.00     0.200 A 
ATOM     68  F   UNL A   1      48.160  27.080  22.791  1.00  0.00    -0.200 F 
ATOM     69  F   UNL A   1      50.203  25.966  24.213  1.00  0.00    -0.200 F 
ENDBRANCH  45  59
BRANCH  46  70
ATOM     70  C   UNL A   1      38.750  30.850  30.881  1.00  0.00     0.064 A 
ATOM     71  C   UNL A   1      38.642  30.763  32.276  1.00  0.00     0.173 A 
ATOM     72  C   UNL A   1      37.670  31.405  30.177  1.00  0.00     0.173 A 
ATOM     73  F   UNL A   1      39.636  30.216  32.992  1.00  0.00    -0.203 F 
ATOM     74  C   UNL A   1      37.494  31.195  32.938  1.00  0.00     0.198 A 
ATOM     75  C   UNL A   1      36.536  31.862  30.842  1.00  0.00     0.198 A 
ATOM     76  F   UNL A   1      37.724  31.509  28.841  1.00  0.00    -0.203 F 
ATOM     77  F   UNL A   1      37.398  31.057  34.267  1.00  0.00    -0.200 F 
ATOM     78  C   UNL A   1      36.445  31.749  32.221  1.00  0.00     0.200 A 
ATOM     79  F   UNL A   1      35.528  32.406  30.146  1.00  0.00    -0.200 F 
ATOM     80  F   UNL A   1      35.341  32.167  32.858  1.00  0.00    -0.200 F 
ENDBRANCH  46  70
BRANCH  58  81
ATOM     81  C   UNL A   1      44.877  33.754  29.282  1.00  0.00     0.064 A 
ATOM     82  C   UNL A   1      45.646  34.049  30.416  1.00  0.00     0.173 A 
ATOM     83  C   UNL A   1      44.672  34.776  28.343  1.00  0.00     0.173 A 
ATOM     84  F   UNL A   1      45.859  33.111  31.351  1.00  0.00    -0.203 F 
ATOM     85  C   UNL A   1      46.167  35.326  30.616  1.00  0.00     0.198 A 
ATOM     86  C   UNL A   1      45.218  36.043  28.530  1.00  0.00     0.198 A 
ATOM     87  F   UNL A   1      43.949  34.542  27.236  1.00  0.00    -0.203 F 
ATOM     88  F   UNL A   1      46.858  35.600  31.731  1.00  0.00    -0.200 F 
ATOM     89  C   UNL A   1      45.958  36.319  29.670  1.00  0.00     0.200 A 
ATOM     90  F   UNL A   1      45.025  36.997  27.609  1.00  0.00    -0.200 F 
ATOM     91  F   UNL A   1      46.462  37.545  29.861  1.00  0.00    -0.200 F 
ENDBRANCH  58  81
ENDBRANCH  32  33
ENDBRANCH  25  27
ENDBRANCH  24  25
ENDBRANCH  23  24
ENDBRANCH  22  23
ENDBRANCH  21  22
ENDBRANCH   1  21
TORSDOF 18
ENDMDL
MODEL 3
REMARK VINA RESULT:     -10.5      5.396     10.833
REMARK SMILES C/C=C/C=C/C(=O)N[C@@](C)(C(=O)OCCOCCOC(=O)c1ccc(-c2c3nc(c(-c4c(F)c(F)c(F)c(F)c4F)c4ccc([nH]4)c(-c4c(F)c(F)c(F)c(F)c4F)c4nc(c(-c5c(F)c(F)c(F)c(F)c5F)c5ccc2[nH]5)C=C4)C=C3)cc1)C(F)(F)F
REMARK SMILES IDX 15 1 14 2 13 3 11 4 12 5 9 6 10 7 8 8 6 9 7 10 5 12 4 13
REMARK SMILES IDX 3 14 1 15 2 16 85 17 86 18 87 19 88 20 16 21 17 22 18 23
REMARK SMILES IDX 19 24 20 25 21 26 22 27 23 28 84 29 24 30 83 31 25 32 26 33
REMARK SMILES IDX 27 34 77 35 28 36 82 37 76 38 78 39 29 40 81 41 75 42 74 43
REMARK SMILES IDX 30 45 62 46 42 47 61 48 43 49 46 50 60 51 79 52 44 53 45 54
REMARK SMILES IDX 59 56 80 57 47 58 31 59 32 60 40 61 33 62 34 63 38 64 41 65
REMARK SMILES IDX 35 66 36 67 39 68 37 69 63 70 64 71 72 72 65 73 66 74 70 75
REMARK SMILES IDX 73 76 67 77 68 78 71 79 69 80 48 81 49 82 57 83 50 84 51 85
REMARK SMILES IDX 55 86 58 87 52 88 53 89 56 90 54 91
REMARK H PARENT 8 11 78 44 46 55
REMARK Flexibility Score: inf
ROOT
ATOM      1  C   UNL A   1      37.286  21.138  24.638  1.00  0.00     0.202 C 
ENDROOT
BRANCH   1   2
ATOM      2  C   UNL A   1      35.983  20.411  25.003  1.00  0.00     0.261 C 
BRANCH   2   3
ATOM      3  O   UNL A   1      35.132  21.182  25.865  1.00  0.00    -0.461 OA
BRANCH   3   4
ATOM      4  C   UNL A   1      33.787  21.025  25.662  1.00  0.00     0.341 C 
ATOM      5  O   UNL A   1      33.240  19.932  25.603  1.00  0.00    -0.249 OA
BRANCH   4   6
ATOM      6  C   UNL A   1      33.066  22.372  25.463  1.00  0.00     0.231 C 
ATOM      7  C   UNL A   1      31.627  22.062  25.036  1.00  0.00     0.058 C 
BRANCH   6   8
ATOM      8  N   UNL A   1      33.713  23.121  24.321  1.00  0.00    -0.329 N 
ATOM      9  C   UNL A   1      33.597  24.341  23.743  1.00  0.00     0.245 C 
ATOM     10  O   UNL A   1      34.068  24.508  22.620  1.00  0.00    -0.270 OA
ATOM     11  H   UNL A   1      34.403  22.576  23.878  1.00  0.00     0.165 HD
BRANCH   9  12
ATOM     12  C   UNL A   1      32.968  25.476  24.429  1.00  0.00     0.071 C 
ATOM     13  C   UNL A   1      33.703  26.275  25.214  1.00  0.00     0.005 C 
BRANCH  13  14
ATOM     14  C   UNL A   1      33.160  27.404  25.934  1.00  0.00    -0.004 C 
ATOM     15  C   UNL A   1      31.556  28.339  27.626  1.00  0.00     0.035 C 
ATOM     16  C   UNL A   1      32.198  27.235  26.854  1.00  0.00    -0.030 C 
ENDBRANCH  13  14
ENDBRANCH   9  12
ENDBRANCH   6   8
BRANCH   6  17
ATOM     17  C   UNL A   1      33.052  22.984  26.872  1.00  0.00     0.422 C 
ATOM     18  F   UNL A   1      32.941  22.042  27.835  1.00  0.00    -0.168 F 
ATOM     19  F   UNL A   1      34.176  23.704  27.107  1.00  0.00    -0.168 F 
ATOM     20  F   UNL A   1      32.031  23.855  27.053  1.00  0.00    -0.168 F 
ENDBRANCH   6  17
ENDBRANCH   4   6
ENDBRANCH   3   4
ENDBRANCH   2   3
ENDBRANCH   1   2
BRANCH   1  21
ATOM     21  O   UNL A   1      37.953  21.862  25.666  1.00  0.00    -0.374 OA
BRANCH  21  22
ATOM     22  C   UNL A   1      39.225  21.387  26.107  1.00  0.00     0.202 C 
BRANCH  22  23
ATOM     23  C   UNL A   1      39.709  20.017  25.611  1.00  0.00     0.261 C 
BRANCH  23  24
ATOM     24  O   UNL A   1      40.580  19.347  26.544  1.00  0.00    -0.460 OA
BRANCH  24  25
ATOM     25  C   UNL A   1      41.872  19.265  26.137  1.00  0.00     0.338 C 
ATOM     26  O   UNL A   1      42.396  18.368  25.497  1.00  0.00    -0.246 OA
BRANCH  25  27
ATOM     27  C   UNL A   1      42.582  20.528  26.408  1.00  0.00     0.060 A 
ATOM     28  C   UNL A   1      42.582  20.998  27.727  1.00  0.00     0.016 A 
ATOM     29  C   UNL A   1      43.110  21.306  25.376  1.00  0.00     0.016 A 
ATOM     30  C   UNL A   1      43.067  22.272  28.014  1.00  0.00     0.010 A 
ATOM     31  C   UNL A   1      43.587  22.591  25.664  1.00  0.00     0.010 A 
ATOM     32  C   UNL A   1      43.531  23.093  26.978  1.00  0.00    -0.014 A 
BRANCH  32  33
ATOM     33  C   UNL A   1      43.805  24.523  27.266  1.00  0.00     0.031 A 
ATOM     34  C   UNL A   1      45.188  25.067  27.030  1.00  0.00     0.074 A 
ATOM     35  C   UNL A   1      42.818  25.343  27.668  1.00  0.00     0.049 A 
ATOM     36  N   UNL A   1      45.638  26.287  27.173  1.00  0.00    -0.248 NA
ATOM     37  C   UNL A   1      46.200  24.103  26.568  1.00  0.00     0.031 C 
ATOM     38  C   UNL A   1      41.432  24.944  27.895  1.00  0.00     0.029 A 
ATOM     39  N   UNL A   1      42.835  26.687  27.949  1.00  0.00    -0.354 N 
ATOM     40  C   UNL A   1      46.979  26.241  26.816  1.00  0.00     0.074 A 
ATOM     41  C   UNL A   1      47.281  24.866  26.482  1.00  0.00     0.031 C 
ATOM     42  C   UNL A   1      40.727  26.021  28.283  1.00  0.00     0.029 A 
ATOM     43  C   UNL A   1      41.618  27.178  28.352  1.00  0.00     0.049 A 
ATOM     44  H   UNL A   1      43.642  27.244  27.870  1.00  0.00     0.167 HD
ATOM     45  C   UNL A   1      47.875  27.255  26.757  1.00  0.00     0.037 A 
ATOM     46  C   UNL A   1      41.269  28.420  28.742  1.00  0.00     0.037 A 
ATOM     47  C   UNL A   1      47.576  28.624  27.089  1.00  0.00     0.049 A 
ATOM     48  C   UNL A   1      42.301  29.519  28.727  1.00  0.00     0.074 A 
ATOM     49  C   UNL A   1      48.414  29.725  27.048  1.00  0.00     0.029 A 
ATOM     50  N   UNL A   1      46.342  29.075  27.531  1.00  0.00    -0.354 N 
ATOM     51  N   UNL A   1      43.557  29.470  28.357  1.00  0.00    -0.248 NA
ATOM     52  C   UNL A   1      41.860  30.847  29.178  1.00  0.00     0.031 C 
ATOM     53  C   UNL A   1      47.697  30.836  27.510  1.00  0.00     0.029 A 
ATOM     54  C   UNL A   1      46.401  30.436  27.790  1.00  0.00     0.049 A 
ATOM     55  H   UNL A   1      45.542  28.513  27.645  1.00  0.00     0.167 HD
ATOM     56  C   UNL A   1      44.048  30.761  28.503  1.00  0.00     0.074 A 
ATOM     57  C   UNL A   1      42.950  31.574  28.982  1.00  0.00     0.031 C 
ATOM     58  C   UNL A   1      45.298  31.232  28.261  1.00  0.00     0.037 A 
BRANCH  45  59
ATOM     59  C   UNL A   1      49.275  26.918  26.335  1.00  0.00     0.064 A 
ATOM     60  C   UNL A   1      49.676  26.985  24.993  1.00  0.00     0.173 A 
ATOM     61  C   UNL A   1      50.237  26.556  27.290  1.00  0.00     0.173 A 
ATOM     62  F   UNL A   1      48.790  27.313  24.040  1.00  0.00    -0.203 F 
ATOM     63  C   UNL A   1      50.982  26.680  24.619  1.00  0.00     0.198 A 
ATOM     64  C   UNL A   1      51.549  26.277  26.916  1.00  0.00     0.198 A 
ATOM     65  F   UNL A   1      49.907  26.481  28.588  1.00  0.00    -0.203 F 
ATOM     66  F   UNL A   1      51.332  26.709  23.325  1.00  0.00    -0.200 F 
ATOM     67  C   UNL A   1      51.918  26.332  25.581  1.00  0.00     0.200 A 
ATOM     68  F   UNL A   1      52.455  25.952  27.849  1.00  0.00    -0.200 F 
ATOM     69  F   UNL A   1      53.177  26.044  25.220  1.00  0.00    -0.200 F 
ENDBRANCH  45  59
BRANCH  46  70
ATOM     70  C   UNL A   1      39.876  28.696  29.179  1.00  0.00     0.064 A 
ATOM     71  C   UNL A   1      38.904  29.138  28.272  1.00  0.00     0.173 A 
ATOM     72  C   UNL A   1      39.494  28.541  30.521  1.00  0.00     0.173 A 
ATOM     73  F   UNL A   1      39.228  29.327  26.983  1.00  0.00    -0.203 F 
ATOM     74  C   UNL A   1      37.608  29.433  28.691  1.00  0.00     0.198 A 
ATOM     75  C   UNL A   1      38.191  28.809  30.933  1.00  0.00     0.198 A 
ATOM     76  F   UNL A   1      40.388  28.122  31.429  1.00  0.00    -0.203 F 
ATOM     77  F   UNL A   1      36.711  29.898  27.811  1.00  0.00    -0.200 F 
ATOM     78  C   UNL A   1      37.252  29.263  30.020  1.00  0.00     0.200 A 
ATOM     79  F   UNL A   1      37.848  28.634  32.217  1.00  0.00    -0.200 F 
ATOM     80  F   UNL A   1      36.005  29.544  30.423  1.00  0.00    -0.200 F 
ENDBRANCH  46  70
BRANCH  58  81
ATOM     81  C   UNL A   1      45.534  32.699  28.479  1.00  0.00     0.064 A 
ATOM     82  C   UNL A   1      45.956  33.200  29.719  1.00  0.00     0.173 A 
ATOM     83  C   UNL A   1      45.370  33.610  27.424  1.00  0.00     0.173 A 
ATOM     84  F   UNL A   1      46.113  32.372  30.764  1.00  0.00    -0.203 F 
ATOM     85  C   UNL A   1      46.177  34.563  29.903  1.00  0.00     0.198 A 
ATOM     86  C   UNL A   1      45.621  34.967  27.603  1.00  0.00     0.198 A 
ATOM     87  F   UNL A   1      44.976  33.180  26.215  1.00  0.00    -0.203 F 
ATOM     88  F   UNL A   1      46.532  35.026  31.110  1.00  0.00    -0.200 F 
ATOM     89  C   UNL A   1      46.016  35.444  28.844  1.00  0.00     0.200 A 
ATOM     90  F   UNL A   1      45.476  35.815  26.575  1.00  0.00    -0.200 F 
ATOM     91  F   UNL A   1      46.233  36.754  29.021  1.00  0.00    -0.200 F 
ENDBRANCH  58  81
ENDBRANCH  32  33
ENDBRANCH  25  27
ENDBRANCH  24  25
ENDBRANCH  23  24
ENDBRANCH  22  23
ENDBRANCH  21  22
ENDBRANCH   1  21
TORSDOF 18
ENDMDL
