MODEL 1
REMARK VINA RESULT:     -12.3      0.000      0.000
REMARK SMILES Cc1nn(Cc2ccc(Cl)cc2Cl)c(C)c1NC(=O)c1c(C(=O)OCCOCCOC(=O)c2ccc(-c3c4nc(c(-c5c(F)c(F)c(F)c(F)c5F)c5ccc([nH]5)c(-c5c(F)c(F)c(F)c(F)c5F)c5nc(c(-c6c(F)c(F)c(F)c(F)c6F)c6ccc3[nH]6)C=C5)C=C4)cc2)cnn1C
REMARK SMILES IDX 26 1 25 2 24 3 22 4 23 5 21 6 20 7 98 8 96 9 97 10 99 11
REMARK SMILES IDX 18 12 17 13 19 15 16 16 1 17 2 18 3 19 4 20 14 21 15 22 5 23
REMARK SMILES IDX 6 24 7 25 12 26 8 27 11 28 13 29 9 30 10 31 27 32 28 33
REMARK SMILES IDX 29 34 30 35 31 36 32 37 33 38 34 39 95 40 35 41 94 42 36 43
REMARK SMILES IDX 37 44 38 45 88 46 39 47 93 48 87 49 89 50 40 51 92 52 86 53
REMARK SMILES IDX 85 54 41 56 73 57 53 58 72 59 54 60 57 61 71 62 90 63 55 64
REMARK SMILES IDX 56 65 70 67 91 68 58 69 42 70 43 71 51 72 44 73 45 74 49 75
REMARK SMILES IDX 52 76 46 77 47 78 50 79 48 80 74 81 75 82 83 83 76 84 77 85
REMARK SMILES IDX 81 86 84 87 78 88 79 89 82 90 80 91 59 92 60 93 68 94 61 95
REMARK SMILES IDX 62 96 66 97 69 98 63 99 64 100 67 101 65 102
REMARK H PARENT 17 14 89 55 57 66
REMARK Flexibility Score: inf
ROOT
ATOM      1  C   UNL A   1      35.029  21.047  25.794  1.00  0.00     0.202 C 
ENDROOT
BRANCH   1   2
ATOM      2  C   UNL A   1      33.627  20.451  25.574  1.00  0.00     0.261 C 
BRANCH   2   3
ATOM      3  O   UNL A   1      32.841  20.956  24.468  1.00  0.00    -0.460 OA
BRANCH   3   4
ATOM      4  C   UNL A   1      32.282  22.196  24.668  1.00  0.00     0.342 C 
ATOM      5  O   UNL A   1      31.442  22.440  25.518  1.00  0.00    -0.246 OA
BRANCH   4   6
ATOM      6  C   UNL A   1      32.755  23.211  23.745  1.00  0.00     0.111 A 
ATOM      7  C   UNL A   1      32.024  24.254  23.176  1.00  0.00     0.140 A 
ATOM      8  N   UNL A   1      32.802  24.719  22.145  1.00  0.00    -0.262 N 
ATOM      9  C   UNL A   1      34.011  23.277  23.104  1.00  0.00     0.151 A 
ATOM     10  N   UNL A   1      34.052  24.209  22.150  1.00  0.00    -0.180 NA
ATOM     11  C   UNL A   1      32.473  25.753  21.187  1.00  0.00     0.174 C 
BRANCH   7  12
ATOM     12  C   UNL A   1      30.689  24.720  23.439  1.00  0.00     0.274 C 
ATOM     13  N   UNL A   1      30.474  25.872  24.162  1.00  0.00    -0.317 N 
ATOM     14  H   UNL A   1      29.532  26.017  24.414  1.00  0.00     0.170 HD
ATOM     15  O   UNL A   1      29.702  24.109  23.033  1.00  0.00    -0.267 OA
BRANCH  13  16
ATOM     16  C   UNL A   1      31.330  26.863  24.600  1.00  0.00     0.085 A 
ATOM     17  C   UNL A   1      30.612  28.830  22.970  1.00  0.00     0.071 C 
ATOM     18  C   UNL A   1      31.380  28.193  24.071  1.00  0.00     0.083 A 
ATOM     19  N   UNL A   1      32.131  28.982  24.843  1.00  0.00    -0.175 NA
ATOM     20  N   UNL A   1      32.526  28.173  25.845  1.00  0.00    -0.263 N 
ATOM     21  C   UNL A   1      32.326  26.852  25.560  1.00  0.00     0.060 A 
ATOM     22  C   UNL A   1      33.127  25.847  26.285  1.00  0.00     0.069 C 
BRANCH  20  23
ATOM     23  C   UNL A   1      32.806  28.725  27.175  1.00  0.00     0.181 C 
BRANCH  23  24
ATOM     24  C   UNL A   1      33.787  29.841  27.050  1.00  0.00    -0.008 A 
ATOM     25  C   UNL A   1      35.142  29.481  27.053  1.00  0.00     0.009 A 
ATOM     26  C   UNL A   1      33.414  31.171  27.234  1.00  0.00     0.047 A 
ATOM     27  C   UNL A   1      36.061  30.350  27.611  1.00  0.00     0.021 A 
ATOM     28  C   UNL A   1      34.349  32.065  27.728  1.00  0.00     0.041 A 
ATOM     29  Cl  UNL A   1      31.812  31.721  26.912  1.00  0.00    -0.084 Cl
ATOM     30  C   UNL A   1      35.639  31.614  28.016  1.00  0.00     0.042 A 
ATOM     31  Cl  UNL A   1      36.737  32.645  28.844  1.00  0.00    -0.084 Cl
ENDBRANCH  23  24
ENDBRANCH  20  23
ENDBRANCH  13  16
ENDBRANCH   7  12
ENDBRANCH   4   6
ENDBRANCH   3   4
ENDBRANCH   2   3
ENDBRANCH   1   2
BRANCH   1  32
ATOM     32  O   UNL A   1      36.085  20.637  24.940  1.00  0.00    -0.374 OA
BRANCH  32  33
ATOM     33  C   UNL A   1      37.115  21.565  24.690  1.00  0.00     0.202 C 
BRANCH  33  34
ATOM     34  C   UNL A   1      38.306  21.609  25.633  1.00  0.00     0.261 C 
BRANCH  34  35
ATOM     35  O   UNL A   1      38.532  22.759  26.439  1.00  0.00    -0.460 OA
BRANCH  35  36
ATOM     36  C   UNL A   1      39.776  22.814  26.978  1.00  0.00     0.338 C 
ATOM     37  O   UNL A   1      40.427  21.867  27.374  1.00  0.00    -0.246 OA
BRANCH  36  38
ATOM     38  C   UNL A   1      40.104  24.227  27.301  1.00  0.00     0.060 A 
ATOM     39  C   UNL A   1      41.269  24.452  28.040  1.00  0.00     0.016 A 
ATOM     40  C   UNL A   1      39.163  25.251  27.151  1.00  0.00     0.016 A 
ATOM     41  C   UNL A   1      41.388  25.608  28.800  1.00  0.00     0.010 A 
ATOM     42  C   UNL A   1      39.246  26.369  27.968  1.00  0.00     0.010 A 
ATOM     43  C   UNL A   1      40.326  26.515  28.842  1.00  0.00    -0.014 A 
BRANCH  43  44
ATOM     44  C   UNL A   1      40.464  27.777  29.561  1.00  0.00     0.031 A 
ATOM     45  C   UNL A   1      41.521  28.613  28.973  1.00  0.00     0.074 A 
ATOM     46  C   UNL A   1      39.764  28.198  30.632  1.00  0.00     0.049 A 
ATOM     47  N   UNL A   1      42.685  28.775  29.510  1.00  0.00    -0.248 NA
ATOM     48  C   UNL A   1      41.407  29.110  27.600  1.00  0.00     0.031 C 
ATOM     49  C   UNL A   1      38.802  27.460  31.422  1.00  0.00     0.029 A 
ATOM     50  N   UNL A   1      39.785  29.419  31.259  1.00  0.00    -0.354 N 
ATOM     51  C   UNL A   1      43.383  29.579  28.633  1.00  0.00     0.074 A 
ATOM     52  C   UNL A   1      42.645  29.564  27.398  1.00  0.00     0.031 C 
ATOM     53  C   UNL A   1      38.160  28.292  32.276  1.00  0.00     0.029 A 
ATOM     54  C   UNL A   1      38.729  29.617  32.152  1.00  0.00     0.049 A 
ATOM     55  H   UNL A   1      40.482  30.096  31.095  1.00  0.00     0.167 HD
ATOM     56  C   UNL A   1      44.330  30.425  29.114  1.00  0.00     0.037 A 
ATOM     57  C   UNL A   1      38.483  30.628  33.027  1.00  0.00     0.037 A 
ATOM     58  C   UNL A   1      44.773  30.013  30.427  1.00  0.00     0.049 A 
ATOM     59  C   UNL A   1      39.794  31.233  33.332  1.00  0.00     0.074 A 
ATOM     60  C   UNL A   1      45.413  28.902  30.939  1.00  0.00     0.029 A 
ATOM     61  N   UNL A   1      44.223  30.656  31.509  1.00  0.00    -0.354 N 
ATOM     62  N   UNL A   1      40.687  30.616  34.055  1.00  0.00    -0.248 NA
ATOM     63  C   UNL A   1      40.303  32.237  32.413  1.00  0.00     0.031 C 
ATOM     64  C   UNL A   1      44.848  28.699  32.234  1.00  0.00     0.029 A 
ATOM     65  C   UNL A   1      43.944  29.730  32.481  1.00  0.00     0.049 A 
ATOM     66  H   UNL A   1      44.054  31.624  31.575  1.00  0.00     0.167 HD
ATOM     67  C   UNL A   1      41.872  30.801  33.361  1.00  0.00     0.074 A 
ATOM     68  C   UNL A   1      41.587  31.867  32.398  1.00  0.00     0.031 C 
ATOM     69  C   UNL A   1      42.874  29.877  33.439  1.00  0.00     0.037 A 
BRANCH  56  70
ATOM     70  C   UNL A   1      44.501  31.833  28.599  1.00  0.00     0.064 A 
ATOM     71  C   UNL A   1      45.762  32.221  28.112  1.00  0.00     0.173 A 
ATOM     72  C   UNL A   1      43.591  32.889  28.838  1.00  0.00     0.173 A 
ATOM     73  F   UNL A   1      46.711  31.305  27.867  1.00  0.00    -0.203 F 
ATOM     74  C   UNL A   1      46.111  33.565  27.961  1.00  0.00     0.198 A 
ATOM     75  C   UNL A   1      43.925  34.224  28.636  1.00  0.00     0.198 A 
ATOM     76  F   UNL A   1      42.386  32.700  29.385  1.00  0.00    -0.203 F 
ATOM     77  F   UNL A   1      47.365  33.891  27.622  1.00  0.00    -0.200 F 
ATOM     78  C   UNL A   1      45.195  34.566  28.230  1.00  0.00     0.200 A 
ATOM     79  F   UNL A   1      43.025  35.176  28.923  1.00  0.00    -0.200 F 
ATOM     80  F   UNL A   1      45.547  35.854  28.149  1.00  0.00    -0.200 F 
ENDBRANCH  56  70
BRANCH  57  81
ATOM     81  C   UNL A   1      37.199  31.381  33.139  1.00  0.00     0.064 A 
ATOM     82  C   UNL A   1      36.970  32.286  34.192  1.00  0.00     0.173 A 
ATOM     83  C   UNL A   1      36.247  31.391  32.100  1.00  0.00     0.173 A 
ATOM     84  F   UNL A   1      37.843  32.370  35.206  1.00  0.00    -0.203 F 
ATOM     85  C   UNL A   1      35.870  33.156  34.197  1.00  0.00     0.198 A 
ATOM     86  C   UNL A   1      35.153  32.262  32.102  1.00  0.00     0.198 A 
ATOM     87  F   UNL A   1      36.404  30.607  31.023  1.00  0.00    -0.203 F 
ATOM     88  F   UNL A   1      35.710  34.032  35.200  1.00  0.00    -0.200 F 
ATOM     89  C   UNL A   1      34.968  33.150  33.146  1.00  0.00     0.200 A 
ATOM     90  F   UNL A   1      34.306  32.270  31.064  1.00  0.00    -0.200 F 
ATOM     91  F   UNL A   1      33.944  34.016  33.124  1.00  0.00    -0.200 F 
ENDBRANCH  57  81
BRANCH  69  92
ATOM     92  C   UNL A   1      42.753  28.811  34.495  1.00  0.00     0.064 A 
ATOM     93  C   UNL A   1      42.011  27.627  34.338  1.00  0.00     0.173 A 
ATOM     94  C   UNL A   1      43.532  28.929  35.651  1.00  0.00     0.173 A 
ATOM     95  F   UNL A   1      41.315  27.398  33.219  1.00  0.00    -0.203 F 
ATOM     96  C   UNL A   1      42.024  26.625  35.310  1.00  0.00     0.198 A 
ATOM     97  C   UNL A   1      43.570  27.915  36.605  1.00  0.00     0.198 A 
ATOM     98  F   UNL A   1      44.303  30.013  35.830  1.00  0.00    -0.203 F 
ATOM     99  F   UNL A   1      41.306  25.505  35.134  1.00  0.00    -0.200 F 
ATOM    100  C   UNL A   1      42.811  26.768  36.439  1.00  0.00     0.200 A 
ATOM    101  F   UNL A   1      44.373  28.036  37.672  1.00  0.00    -0.200 F 
ATOM    102  F   UNL A   1      42.861  25.789  37.354  1.00  0.00    -0.200 F 
ENDBRANCH  69  92
ENDBRANCH  43  44
ENDBRANCH  36  38
ENDBRANCH  35  36
ENDBRANCH  34  35
ENDBRANCH  33  34
ENDBRANCH  32  33
ENDBRANCH   1  32
TORSDOF 18
ENDMDL
MODEL 2
REMARK VINA RESULT:     -12.2      3.749      8.965
REMARK SMILES Cc1nn(Cc2ccc(Cl)cc2Cl)c(C)c1NC(=O)c1c(C(=O)OCCOCCOC(=O)c2ccc(-c3c4nc(c(-c5c(F)c(F)c(F)c(F)c5F)c5ccc([nH]5)c(-c5c(F)c(F)c(F)c(F)c5F)c5nc(c(-c6c(F)c(F)c(F)c(F)c6F)c6ccc3[nH]6)C=C5)C=C4)cc2)cnn1C
REMARK SMILES IDX 26 1 25 2 24 3 22 4 23 5 21 6 20 7 98 8 96 9 97 10 99 11
REMARK SMILES IDX 18 12 17 13 19 15 16 16 1 17 2 18 3 19 4 20 14 21 15 22 5 23
REMARK SMILES IDX 6 24 7 25 12 26 8 27 11 28 13 29 9 30 10 31 27 32 28 33
REMARK SMILES IDX 29 34 30 35 31 36 32 37 33 38 34 39 95 40 35 41 94 42 36 43
REMARK SMILES IDX 37 44 38 45 88 46 39 47 93 48 87 49 89 50 40 51 92 52 86 53
REMARK SMILES IDX 85 54 41 56 73 57 53 58 72 59 54 60 57 61 71 62 90 63 55 64
REMARK SMILES IDX 56 65 70 67 91 68 58 69 42 70 43 71 51 72 44 73 45 74 49 75
REMARK SMILES IDX 52 76 46 77 47 78 50 79 48 80 74 81 75 82 83 83 76 84 77 85
REMARK SMILES IDX 81 86 84 87 78 88 79 89 82 90 80 91 59 92 60 93 68 94 61 95
REMARK SMILES IDX 62 96 66 97 69 98 63 99 64 100 67 101 65 102
REMARK H PARENT 17 14 89 55 57 66
REMARK Flexibility Score: inf
ROOT
ATOM      1  C   UNL A   1      32.401  29.331  24.733  1.00  0.00     0.202 C 
ENDROOT
BRANCH   1   2
ATOM      2  C   UNL A   1      31.005  29.248  24.088  1.00  0.00     0.261 C 
BRANCH   2   3
ATOM      3  O   UNL A   1      30.346  27.960  24.061  1.00  0.00    -0.460 OA
BRANCH   3   4
ATOM      4  C   UNL A   1      31.163  26.892  23.770  1.00  0.00     0.342 C 
ATOM      5  O   UNL A   1      31.767  26.758  22.720  1.00  0.00    -0.246 OA
BRANCH   4   6
ATOM      6  C   UNL A   1      31.227  25.897  24.824  1.00  0.00     0.111 A 
ATOM      7  C   UNL A   1      31.182  24.509  24.690  1.00  0.00     0.140 A 
ATOM      8  N   UNL A   1      30.941  24.032  25.955  1.00  0.00    -0.262 N 
ATOM      9  C   UNL A   1      31.194  26.112  26.218  1.00  0.00     0.151 A 
ATOM     10  N   UNL A   1      31.047  24.981  26.910  1.00  0.00    -0.180 NA
ATOM     11  C   UNL A   1      30.730  22.657  26.356  1.00  0.00     0.174 C 
BRANCH   7  12
ATOM     12  C   UNL A   1      31.221  23.675  23.519  1.00  0.00     0.274 C 
ATOM     13  N   UNL A   1      32.342  22.934  23.218  1.00  0.00    -0.317 N 
ATOM     14  H   UNL A   1      32.321  22.523  22.323  1.00  0.00     0.170 HD
ATOM     15  O   UNL A   1      30.263  23.599  22.751  1.00  0.00    -0.267 OA
BRANCH  13  16
ATOM     16  C   UNL A   1      33.489  22.659  23.935  1.00  0.00     0.085 A 
ATOM     17  C   UNL A   1      33.096  20.083  24.441  1.00  0.00     0.071 C 
ATOM     18  C   UNL A   1      33.830  21.375  24.472  1.00  0.00     0.083 A 
ATOM     19  N   UNL A   1      35.092  21.363  24.904  1.00  0.00    -0.175 NA
ATOM     20  N   UNL A   1      35.541  22.602  24.628  1.00  0.00    -0.263 N 
ATOM     21  C   UNL A   1      34.529  23.474  24.345  1.00  0.00     0.060 A 
ATOM     22  C   UNL A   1      34.777  24.919  24.512  1.00  0.00     0.069 C 
BRANCH  20  23
ATOM     23  C   UNL A   1      36.964  22.829  24.349  1.00  0.00     0.181 C 
BRANCH  23  24
ATOM     24  C   UNL A   1      37.756  22.581  25.587  1.00  0.00    -0.008 A 
ATOM     25  C   UNL A   1      37.942  23.682  26.437  1.00  0.00     0.009 A 
ATOM     26  C   UNL A   1      38.527  21.432  25.750  1.00  0.00     0.047 A 
ATOM     27  C   UNL A   1      39.118  23.775  27.157  1.00  0.00     0.021 A 
ATOM     28  C   UNL A   1      39.671  21.498  26.528  1.00  0.00     0.041 A 
ATOM     29  Cl  UNL A   1      38.125  19.948  24.970  1.00  0.00    -0.084 Cl
ATOM     30  C   UNL A   1      40.012  22.708  27.137  1.00  0.00     0.042 A 
ATOM     31  Cl  UNL A   1      41.539  22.872  27.908  1.00  0.00    -0.084 Cl
ENDBRANCH  23  24
ENDBRANCH  20  23
ENDBRANCH  13  16
ENDBRANCH   7  12
ENDBRANCH   4   6
ENDBRANCH   3   4
ENDBRANCH   2   3
ENDBRANCH   1   2
BRANCH   1  32
ATOM     32  O   UNL A   1      32.499  29.320  26.148  1.00  0.00    -0.374 OA
BRANCH  32  33
ATOM     33  C   UNL A   1      32.168  30.508  26.830  1.00  0.00     0.202 C 
BRANCH  33  34
ATOM     34  C   UNL A   1      33.275  31.290  27.519  1.00  0.00     0.261 C 
BRANCH  34  35
ATOM     35  O   UNL A   1      34.601  30.775  27.541  1.00  0.00    -0.460 OA
BRANCH  35  36
ATOM     36  C   UNL A   1      35.346  31.225  28.581  1.00  0.00     0.338 C 
ATOM     37  O   UNL A   1      34.974  31.992  29.449  1.00  0.00    -0.246 OA
BRANCH  36  38
ATOM     38  C   UNL A   1      36.773  30.893  28.337  1.00  0.00     0.060 A 
ATOM     39  C   UNL A   1      37.036  29.729  27.609  1.00  0.00     0.016 A 
ATOM     40  C   UNL A   1      37.803  31.524  29.044  1.00  0.00     0.016 A 
ATOM     41  C   UNL A   1      38.256  29.083  27.764  1.00  0.00     0.010 A 
ATOM     42  C   UNL A   1      38.991  30.840  29.258  1.00  0.00     0.010 A 
ATOM     43  C   UNL A   1      39.190  29.587  28.671  1.00  0.00    -0.014 A 
BRANCH  43  44
ATOM     44  C   UNL A   1      40.511  28.977  28.784  1.00  0.00     0.031 A 
ATOM     45  C   UNL A   1      40.888  28.779  30.191  1.00  0.00     0.074 A 
ATOM     46  C   UNL A   1      41.341  28.618  27.786  1.00  0.00     0.049 A 
ATOM     47  N   UNL A   1      41.747  29.520  30.810  1.00  0.00    -0.248 NA
ATOM     48  C   UNL A   1      40.117  27.883  31.055  1.00  0.00     0.031 C 
ATOM     49  C   UNL A   1      41.202  28.867  26.367  1.00  0.00     0.029 A 
ATOM     50  N   UNL A   1      42.533  27.939  27.850  1.00  0.00    -0.354 N 
ATOM     51  C   UNL A   1      41.778  29.039  32.103  1.00  0.00     0.074 A 
ATOM     52  C   UNL A   1      40.616  28.203  32.250  1.00  0.00     0.031 C 
ATOM     53  C   UNL A   1      42.129  28.164  25.675  1.00  0.00     0.029 A 
ATOM     54  C   UNL A   1      42.990  27.476  26.614  1.00  0.00     0.049 A 
ATOM     55  H   UNL A   1      43.023  27.790  28.692  1.00  0.00     0.167 HD
ATOM     56  C   UNL A   1      42.928  29.129  32.820  1.00  0.00     0.037 A 
ATOM     57  C   UNL A   1      44.161  26.880  26.265  1.00  0.00     0.037 A 
ATOM     58  C   UNL A   1      43.807  30.133  32.265  1.00  0.00     0.049 A 
ATOM     59  C   UNL A   1      45.151  27.301  27.275  1.00  0.00     0.074 A 
ATOM     60  C   UNL A   1      43.737  31.500  32.082  1.00  0.00     0.029 A 
ATOM     61  N   UNL A   1      44.822  29.701  31.447  1.00  0.00    -0.354 N 
ATOM     62  N   UNL A   1      45.607  28.522  27.326  1.00  0.00    -0.248 NA
ATOM     63  C   UNL A   1      45.210  26.547  28.516  1.00  0.00     0.031 C 
ATOM     64  C   UNL A   1      44.412  31.756  30.851  1.00  0.00     0.029 A 
ATOM     65  C   UNL A   1      44.921  30.549  30.375  1.00  0.00     0.049 A 
ATOM     66  H   UNL A   1      45.387  28.910  31.605  1.00  0.00     0.167 HD
ATOM     67  C   UNL A   1      45.564  28.844  28.673  1.00  0.00     0.074 A 
ATOM     68  C   UNL A   1      45.380  27.567  29.365  1.00  0.00     0.031 C 
ATOM     69  C   UNL A   1      45.392  30.138  29.073  1.00  0.00     0.037 A 
BRANCH  56  70
ATOM     70  C   UNL A   1      43.421  28.015  33.711  1.00  0.00     0.064 A 
ATOM     71  C   UNL A   1      43.674  26.757  33.136  1.00  0.00     0.173 A 
ATOM     72  C   UNL A   1      43.367  28.038  35.124  1.00  0.00     0.173 A 
ATOM     73  F   UNL A   1      43.728  26.614  31.803  1.00  0.00    -0.203 F 
ATOM     74  C   UNL A   1      43.776  25.600  33.912  1.00  0.00     0.198 A 
ATOM     75  C   UNL A   1      43.523  26.891  35.897  1.00  0.00     0.198 A 
ATOM     76  F   UNL A   1      43.048  29.132  35.822  1.00  0.00    -0.203 F 
ATOM     77  F   UNL A   1      43.883  24.408  33.313  1.00  0.00    -0.200 F 
ATOM     78  C   UNL A   1      43.694  25.667  35.291  1.00  0.00     0.200 A 
ATOM     79  F   UNL A   1      43.418  26.980  37.230  1.00  0.00    -0.200 F 
ATOM     80  F   UNL A   1      43.725  24.554  36.032  1.00  0.00    -0.200 F 
ENDBRANCH  56  70
BRANCH  57  81
ATOM     81  C   UNL A   1      44.288  25.612  25.488  1.00  0.00     0.064 A 
ATOM     82  C   UNL A   1      45.532  25.173  25.000  1.00  0.00     0.173 A 
ATOM     83  C   UNL A   1      43.227  24.690  25.387  1.00  0.00     0.173 A 
ATOM     84  F   UNL A   1      46.607  25.971  25.088  1.00  0.00    -0.203 F 
ATOM     85  C   UNL A   1      45.708  23.890  24.461  1.00  0.00     0.198 A 
ATOM     86  C   UNL A   1      43.403  23.409  24.854  1.00  0.00     0.198 A 
ATOM     87  F   UNL A   1      42.014  24.989  25.875  1.00  0.00    -0.203 F 
ATOM     88  F   UNL A   1      46.920  23.496  24.044  1.00  0.00    -0.200 F 
ATOM     89  C   UNL A   1      44.644  23.005  24.398  1.00  0.00     0.200 A 
ATOM     90  F   UNL A   1      42.374  22.551  24.829  1.00  0.00    -0.200 F 
ATOM     91  F   UNL A   1      44.822  21.761  23.930  1.00  0.00    -0.200 F 
ENDBRANCH  57  81
BRANCH  69  92
ATOM     92  C   UNL A   1      45.520  31.210  28.024  1.00  0.00     0.064 A 
ATOM     93  C   UNL A   1      44.459  31.645  27.209  1.00  0.00     0.173 A 
ATOM     94  C   UNL A   1      46.723  31.919  27.941  1.00  0.00     0.173 A 
ATOM     95  F   UNL A   1      43.251  31.079  27.297  1.00  0.00    -0.203 F 
ATOM     96  C   UNL A   1      44.611  32.718  26.329  1.00  0.00     0.198 A 
ATOM     97  C   UNL A   1      46.863  33.010  27.087  1.00  0.00     0.198 A 
ATOM     98  F   UNL A   1      47.752  31.584  28.735  1.00  0.00    -0.203 F 
ATOM     99  F   UNL A   1      43.582  33.112  25.562  1.00  0.00    -0.200 F 
ATOM    100  C   UNL A   1      45.812  33.405  26.276  1.00  0.00     0.200 A 
ATOM    101  F   UNL A   1      48.011  33.703  27.077  1.00  0.00    -0.200 F 
ATOM    102  F   UNL A   1      45.947  34.464  25.464  1.00  0.00    -0.200 F 
ENDBRANCH  69  92
ENDBRANCH  43  44
ENDBRANCH  36  38
ENDBRANCH  35  36
ENDBRANCH  34  35
ENDBRANCH  33  34
ENDBRANCH  32  33
ENDBRANCH   1  32
TORSDOF 18
ENDMDL
MODEL 3
REMARK VINA RESULT:     -12.0      1.777      2.834
REMARK SMILES Cc1nn(Cc2ccc(Cl)cc2Cl)c(C)c1NC(=O)c1c(C(=O)OCCOCCOC(=O)c2ccc(-c3c4nc(c(-c5c(F)c(F)c(F)c(F)c5F)c5ccc([nH]5)c(-c5c(F)c(F)c(F)c(F)c5F)c5nc(c(-c6c(F)c(F)c(F)c(F)c6F)c6ccc3[nH]6)C=C5)C=C4)cc2)cnn1C
REMARK SMILES IDX 26 1 25 2 24 3 22 4 23 5 21 6 20 7 98 8 96 9 97 10 99 11
REMARK SMILES IDX 18 12 17 13 19 15 16 16 1 17 2 18 3 19 4 20 14 21 15 22 5 23
REMARK SMILES IDX 6 24 7 25 12 26 8 27 11 28 13 29 9 30 10 31 27 32 28 33
REMARK SMILES IDX 29 34 30 35 31 36 32 37 33 38 34 39 95 40 35 41 94 42 36 43
REMARK SMILES IDX 37 44 38 45 88 46 39 47 93 48 87 49 89 50 40 51 92 52 86 53
REMARK SMILES IDX 85 54 41 56 73 57 53 58 72 59 54 60 57 61 71 62 90 63 55 64
REMARK SMILES IDX 56 65 70 67 91 68 58 69 42 70 43 71 51 72 44 73 45 74 49 75
REMARK SMILES IDX 52 76 46 77 47 78 50 79 48 80 74 81 75 82 83 83 76 84 77 85
REMARK SMILES IDX 81 86 84 87 78 88 79 89 82 90 80 91 59 92 60 93 68 94 61 95
REMARK SMILES IDX 62 96 66 97 69 98 63 99 64 100 67 101 65 102
REMARK H PARENT 17 14 89 55 57 66
REMARK Flexibility Score: inf
ROOT
ATOM      1  C   UNL A   1      36.092  20.498  25.049  1.00  0.00     0.202 C 
ENDROOT
BRANCH   1   2
ATOM      2  C   UNL A   1      34.562  20.554  24.888  1.00  0.00     0.261 C 
BRANCH   2   3
ATOM      3  O   UNL A   1      33.861  21.685  25.457  1.00  0.00    -0.460 OA
BRANCH   3   4
ATOM      4  C   UNL A   1      32.805  22.153  24.710  1.00  0.00     0.342 C 
ATOM      5  O   UNL A   1      31.656  21.760  24.825  1.00  0.00    -0.246 OA
BRANCH   4   6
ATOM      6  C   UNL A   1      33.177  23.154  23.727  1.00  0.00     0.111 A 
ATOM      7  C   UNL A   1      33.736  24.411  23.960  1.00  0.00     0.140 A 
ATOM      8  N   UNL A   1      33.593  25.094  22.777  1.00  0.00    -0.262 N 
ATOM      9  C   UNL A   1      32.916  23.141  22.340  1.00  0.00     0.151 A 
ATOM     10  N   UNL A   1      33.192  24.308  21.754  1.00  0.00    -0.180 NA
ATOM     11  C   UNL A   1      33.944  26.471  22.504  1.00  0.00     0.174 C 
BRANCH   7  12
ATOM     12  C   UNL A   1      34.242  25.008  25.166  1.00  0.00     0.274 C 
ATOM     13  N   UNL A   1      33.581  26.056  25.766  1.00  0.00    -0.317 N 
ATOM     14  H   UNL A   1      34.088  26.487  26.492  1.00  0.00     0.170 HD
ATOM     15  O   UNL A   1      35.277  24.607  25.697  1.00  0.00    -0.267 OA
BRANCH  13  16
ATOM     16  C   UNL A   1      32.339  26.617  25.540  1.00  0.00     0.085 A 
ATOM     17  C   UNL A   1      33.042  29.158  25.241  1.00  0.00     0.071 C 
ATOM     18  C   UNL A   1      32.103  28.007  25.292  1.00  0.00     0.083 A 
ATOM     19  N   UNL A   1      30.849  28.209  24.882  1.00  0.00    -0.175 NA
ATOM     20  N   UNL A   1      30.316  26.972  24.851  1.00  0.00    -0.263 N 
ATOM     21  C   UNL A   1      31.072  26.060  25.529  1.00  0.00     0.060 A 
ATOM     22  C   UNL A   1      30.422  24.827  26.014  1.00  0.00     0.069 C 
BRANCH  20  23
ATOM     23  C   UNL A   1      29.241  26.654  23.905  1.00  0.00     0.181 C 
BRANCH  23  24
ATOM     24  C   UNL A   1      28.935  27.857  23.080  1.00  0.00    -0.008 A 
ATOM     25  C   UNL A   1      29.997  28.384  22.331  1.00  0.00     0.009 A 
ATOM     26  C   UNL A   1      27.773  28.603  23.269  1.00  0.00     0.047 A 
ATOM     27  C   UNL A   1      30.051  29.748  22.119  1.00  0.00     0.021 A 
ATOM     28  C   UNL A   1      27.797  29.959  22.993  1.00  0.00     0.041 A 
ATOM     29  Cl  UNL A   1      26.326  27.895  23.884  1.00  0.00    -0.084 Cl
ATOM     30  C   UNL A   1      28.977  30.539  22.522  1.00  0.00     0.042 A 
ATOM     31  Cl  UNL A   1      29.096  32.249  22.398  1.00  0.00    -0.084 Cl
ENDBRANCH  23  24
ENDBRANCH  20  23
ENDBRANCH  13  16
ENDBRANCH   7  12
ENDBRANCH   4   6
ENDBRANCH   3   4
ENDBRANCH   2   3
ENDBRANCH   1   2
BRANCH   1  32
ATOM     32  O   UNL A   1      36.876  21.529  24.471  1.00  0.00    -0.374 OA
BRANCH  32  33
ATOM     33  C   UNL A   1      37.885  22.102  25.270  1.00  0.00     0.202 C 
BRANCH  33  34
ATOM     34  C   UNL A   1      39.026  21.220  25.751  1.00  0.00     0.261 C 
BRANCH  34  35
ATOM     35  O   UNL A   1      39.813  21.620  26.866  1.00  0.00    -0.460 OA
BRANCH  35  36
ATOM     36  C   UNL A   1      40.756  22.546  26.567  1.00  0.00     0.338 C 
ATOM     37  O   UNL A   1      41.719  22.380  25.843  1.00  0.00    -0.246 OA
BRANCH  36  38
ATOM     38  C   UNL A   1      40.618  23.699  27.495  1.00  0.00     0.060 A 
ATOM     39  C   UNL A   1      39.477  24.494  27.350  1.00  0.00     0.016 A 
ATOM     40  C   UNL A   1      41.696  24.155  28.262  1.00  0.00     0.016 A 
ATOM     41  C   UNL A   1      39.501  25.814  27.780  1.00  0.00     0.010 A 
ATOM     42  C   UNL A   1      41.747  25.494  28.623  1.00  0.00     0.010 A 
ATOM     43  C   UNL A   1      40.676  26.339  28.322  1.00  0.00    -0.014 A 
BRANCH  43  44
ATOM     44  C   UNL A   1      40.696  27.695  28.863  1.00  0.00     0.031 A 
ATOM     45  C   UNL A   1      41.773  28.493  28.259  1.00  0.00     0.074 A 
ATOM     46  C   UNL A   1      39.880  28.223  29.795  1.00  0.00     0.049 A 
ATOM     47  N   UNL A   1      42.872  28.787  28.871  1.00  0.00    -0.248 NA
ATOM     48  C   UNL A   1      41.774  28.789  26.825  1.00  0.00     0.031 C 
ATOM     49  C   UNL A   1      38.874  27.555  30.592  1.00  0.00     0.029 A 
ATOM     50  N   UNL A   1      39.795  29.520  30.240  1.00  0.00    -0.354 N 
ATOM     51  C   UNL A   1      43.622  29.496  27.955  1.00  0.00     0.074 A 
ATOM     52  C   UNL A   1      43.008  29.272  26.673  1.00  0.00     0.031 C 
ATOM     53  C   UNL A   1      38.122  28.464  31.256  1.00  0.00     0.029 A 
ATOM     54  C   UNL A   1      38.651  29.786  30.996  1.00  0.00     0.049 A 
ATOM     55  H   UNL A   1      40.479  30.202  30.044  1.00  0.00     0.167 HD
ATOM     56  C   UNL A   1      44.486  30.447  28.394  1.00  0.00     0.037 A 
ATOM     57  C   UNL A   1      38.283  30.894  31.692  1.00  0.00     0.037 A 
ATOM     58  C   UNL A   1      44.815  30.245  29.787  1.00  0.00     0.049 A 
ATOM     59  C   UNL A   1      39.535  31.602  32.025  1.00  0.00     0.074 A 
ATOM     60  C   UNL A   1      45.443  29.249  30.508  1.00  0.00     0.029 A 
ATOM     61  N   UNL A   1      44.138  31.002  30.712  1.00  0.00    -0.354 N 
ATOM     62  N   UNL A   1      40.376  31.137  32.906  1.00  0.00    -0.248 NA
ATOM     63  C   UNL A   1      40.093  32.493  31.022  1.00  0.00     0.031 C 
ATOM     64  C   UNL A   1      44.763  29.199  31.763  1.00  0.00     0.029 A 
ATOM     65  C   UNL A   1      43.802  30.208  31.777  1.00  0.00     0.049 A 
ATOM     66  H   UNL A   1      43.928  31.960  30.623  1.00  0.00     0.167 HD
ATOM     67  C   UNL A   1      41.615  31.283  32.303  1.00  0.00     0.074 A 
ATOM     68  C   UNL A   1      41.385  32.190  31.177  1.00  0.00     0.031 C 
ATOM     69  C   UNL A   1      42.639  30.432  32.603  1.00  0.00     0.037 A 
BRANCH  56  70
ATOM     70  C   UNL A   1      44.653  31.777  27.701  1.00  0.00     0.064 A 
ATOM     71  C   UNL A   1      45.820  32.000  26.949  1.00  0.00     0.173 A 
ATOM     72  C   UNL A   1      43.883  32.929  27.984  1.00  0.00     0.173 A 
ATOM     73  F   UNL A   1      46.637  30.982  26.638  1.00  0.00    -0.203 F 
ATOM     74  C   UNL A   1      46.228  33.286  26.586  1.00  0.00     0.198 A 
ATOM     75  C   UNL A   1      44.265  34.203  27.574  1.00  0.00     0.198 A 
ATOM     76  F   UNL A   1      42.796  32.905  28.761  1.00  0.00    -0.203 F 
ATOM     77  F   UNL A   1      47.412  33.462  25.987  1.00  0.00    -0.200 F 
ATOM     78  C   UNL A   1      45.454  34.387  26.904  1.00  0.00     0.200 A 
ATOM     79  F   UNL A   1      43.507  35.256  27.913  1.00  0.00    -0.200 F 
ATOM     80  F   UNL A   1      45.873  35.624  26.616  1.00  0.00    -0.200 F 
ENDBRANCH  56  70
BRANCH  57  81
ATOM     81  C   UNL A   1      36.967  31.590  31.578  1.00  0.00     0.064 A 
ATOM     82  C   UNL A   1      36.285  32.055  32.717  1.00  0.00     0.173 A 
ATOM     83  C   UNL A   1      36.447  32.003  30.336  1.00  0.00     0.173 A 
ATOM     84  F   UNL A   1      36.730  31.741  33.942  1.00  0.00    -0.203 F 
ATOM     85  C   UNL A   1      35.164  32.893  32.619  1.00  0.00     0.198 A 
ATOM     86  C   UNL A   1      35.333  32.843  30.238  1.00  0.00     0.198 A 
ATOM     87  F   UNL A   1      37.058  31.661  29.192  1.00  0.00    -0.203 F 
ATOM     88  F   UNL A   1      34.567  33.349  33.730  1.00  0.00    -0.200 F 
ATOM     89  C   UNL A   1      34.696  33.295  31.379  1.00  0.00     0.200 A 
ATOM     90  F   UNL A   1      34.910  33.251  29.034  1.00  0.00    -0.200 F 
ATOM     91  F   UNL A   1      33.657  34.137  31.285  1.00  0.00    -0.200 F 
ENDBRANCH  57  81
BRANCH  69  92
ATOM     92  C   UNL A   1      42.456  29.518  33.785  1.00  0.00     0.064 A 
ATOM     93  C   UNL A   1      41.823  28.263  33.721  1.00  0.00     0.173 A 
ATOM     94  C   UNL A   1      43.070  29.863  34.994  1.00  0.00     0.173 A 
ATOM     95  F   UNL A   1      41.295  27.821  32.575  1.00  0.00    -0.203 F 
ATOM     96  C   UNL A   1      41.780  27.413  34.827  1.00  0.00     0.198 A 
ATOM     97  C   UNL A   1      43.054  29.000  36.087  1.00  0.00     0.198 A 
ATOM     98  F   UNL A   1      43.735  31.024  35.098  1.00  0.00    -0.203 F 
ATOM     99  F   UNL A   1      41.168  26.221  34.737  1.00  0.00    -0.200 F 
ATOM    100  C   UNL A   1      42.403  27.780  36.007  1.00  0.00     0.200 A 
ATOM    101  F   UNL A   1      43.703  29.338  37.210  1.00  0.00    -0.200 F 
ATOM    102  F   UNL A   1      42.401  26.946  37.058  1.00  0.00    -0.200 F 
ENDBRANCH  69  92
ENDBRANCH  43  44
ENDBRANCH  36  38
ENDBRANCH  35  36
ENDBRANCH  34  35
ENDBRANCH  33  34
ENDBRANCH  32  33
ENDBRANCH   1  32
TORSDOF 18
ENDMDL
