MODEL 1
REMARK VINA RESULT:     -10.3      0.000      0.000
REMARK SMILES Cc1ccc(N2C(=O)N=C(OCCOCCOC(=O)c3ccc(-c4c5nc(c(-c6c(F)c(F)c(F)c(F)c6F)c6ccc([nH]6)c(-c6c(F)c(F)c(F)c(F)c6F)c6nc(c(-c7c(F)c(F)c(F)c(F)c7F)c7ccc4[nH]7)C=C6)C=C5)cc3)/C(=C\c3ccccc3OCc3cccc(C(=O)[O-])c3)C2=O)cc1
REMARK SMILES IDX 13 1 12 2 11 3 10 4 6 5 7 6 102 7 8 8 9 9 83 10 103 11 84 12
REMARK SMILES IDX 5 13 1 14 2 15 3 16 105 17 4 18 104 19 85 20 86 21 90 22
REMARK SMILES IDX 87 23 89 24 88 25 91 26 92 27 93 28 94 29 101 30 95 31 97 32
REMARK SMILES IDX 96 33 98 34 99 35 100 36 14 37 15 38 16 39 17 40 18 41 19 42
REMARK SMILES IDX 20 43 21 44 82 45 22 46 81 47 23 48 24 49 25 50 75 51 26 52
REMARK SMILES IDX 80 53 74 54 76 55 27 56 79 57 73 58 72 59 28 61 60 62 40 63
REMARK SMILES IDX 59 64 41 65 44 66 58 67 77 68 42 69 43 70 57 72 78 73 45 74
REMARK SMILES IDX 29 75 30 76 38 77 31 78 32 79 36 80 39 81 33 82 34 83 37 84
REMARK SMILES IDX 35 85 61 86 62 87 70 88 63 89 64 90 68 91 71 92 65 93 66 94
REMARK SMILES IDX 69 95 67 96 46 97 47 98 55 99 48 100 49 101 53 102 56 103
REMARK SMILES IDX 50 104 51 105 54 106 52 107
REMARK H PARENT 76 60 44 71
REMARK Flexibility Score: inf
ROOT
ATOM      1  C   UNL A   1      49.244  26.521  31.213  1.00  0.00     0.202 C 
ENDROOT
BRANCH   1   2
ATOM      2  C   UNL A   1      48.283  27.680  31.014  1.00  0.00     0.260 C 
BRANCH   2   3
ATOM      3  O   UNL A   1      47.011  27.484  30.395  1.00  0.00    -0.475 OA
BRANCH   3   4
ATOM      4  C   UNL A   1      46.404  28.200  29.453  1.00  0.00     0.231 C 
ATOM      5  N   UNL A   1      45.328  30.249  28.091  1.00  0.00    -0.226 N 
ATOM      6  C   UNL A   1      46.627  29.779  27.813  1.00  0.00     0.358 C 
ATOM      7  C   UNL A   1      44.387  29.429  28.699  1.00  0.00     0.272 C 
ATOM      8  O   UNL A   1      47.278  30.102  26.839  1.00  0.00    -0.245 OA
ATOM      9  N   UNL A   1      47.175  28.922  28.732  1.00  0.00    -0.156 NA
ATOM     10  C   UNL A   1      44.965  28.200  29.276  1.00  0.00     0.103 C 
ATOM     11  O   UNL A   1      43.163  29.568  28.645  1.00  0.00    -0.268 OA
ATOM     12  C   UNL A   1      44.141  27.142  29.260  1.00  0.00     0.031 C 
BRANCH   5  13
ATOM     13  C   UNL A   1      44.876  31.502  27.581  1.00  0.00     0.054 A 
ATOM     14  C   UNL A   1      43.830  35.421  26.138  1.00  0.00     0.044 C 
ATOM     15  C   UNL A   1      44.162  34.058  26.656  1.00  0.00    -0.051 A 
ATOM     16  C   UNL A   1      44.183  32.971  25.781  1.00  0.00     0.005 A 
ATOM     17  C   UNL A   1      44.445  33.856  28.006  1.00  0.00     0.005 A 
ATOM     18  C   UNL A   1      44.573  31.715  26.234  1.00  0.00     0.027 A 
ATOM     19  C   UNL A   1      44.782  32.586  28.466  1.00  0.00     0.027 A 
ENDBRANCH   5  13
BRANCH  12  20
ATOM     20  C   UNL A   1      44.470  25.748  29.469  1.00  0.00     0.018 A 
ATOM     21  C   UNL A   1      44.034  25.021  30.639  1.00  0.00     0.012 A 
ATOM     22  C   UNL A   1      45.106  25.065  28.499  1.00  0.00     0.127 A 
ATOM     23  C   UNL A   1      44.076  23.650  30.881  1.00  0.00     0.001 A 
ATOM     24  C   UNL A   1      45.043  23.656  28.779  1.00  0.00     0.047 A 
ATOM     25  C   UNL A   1      44.470  22.927  29.834  1.00  0.00     0.004 A 
BRANCH  22  26
ATOM     26  O   UNL A   1      45.477  25.510  27.192  1.00  0.00    -0.488 OA
BRANCH  26  27
ATOM     27  C   UNL A   1      46.264  24.708  26.171  1.00  0.00     0.265 C 
BRANCH  27  28
ATOM     28  C   UNL A   1      45.799  23.409  25.388  1.00  0.00    -0.010 A 
ATOM     29  C   UNL A   1      44.826  23.525  24.367  1.00  0.00     0.007 A 
ATOM     30  C   UNL A   1      46.152  22.084  25.652  1.00  0.00     0.017 A 
ATOM     31  C   UNL A   1      44.421  22.449  23.540  1.00  0.00     0.001 A 
ATOM     32  C   UNL A   1      45.729  20.975  24.864  1.00  0.00    -0.002 A 
ATOM     33  C   UNL A   1      44.909  21.172  23.760  1.00  0.00     0.010 A 
BRANCH  32  34
ATOM     34  C   UNL A   1      46.148  19.579  25.180  1.00  0.00     0.071 C 
ATOM     35  O   UNL A   1      47.281  19.156  25.230  1.00  0.00    -0.545 OA
ATOM     36  O   UNL A   1      45.095  18.766  25.397  1.00  0.00    -0.545 OA
ENDBRANCH  32  34
ENDBRANCH  27  28
ENDBRANCH  26  27
ENDBRANCH  22  26
ENDBRANCH  12  20
ENDBRANCH   3   4
ENDBRANCH   2   3
ENDBRANCH   1   2
BRANCH   1  37
ATOM     37  O   UNL A   1      48.851  25.464  32.038  1.00  0.00    -0.374 OA
BRANCH  37  38
ATOM     38  C   UNL A   1      48.941  25.842  33.417  1.00  0.00     0.202 C 
BRANCH  38  39
ATOM     39  C   UNL A   1      48.027  25.160  34.522  1.00  0.00     0.261 C 
BRANCH  39  40
ATOM     40  O   UNL A   1      47.007  26.030  35.140  1.00  0.00    -0.460 OA
BRANCH  40  41
ATOM     41  C   UNL A   1      45.694  25.573  35.192  1.00  0.00     0.338 C 
ATOM     42  O   UNL A   1      45.348  24.578  35.814  1.00  0.00    -0.246 OA
BRANCH  41  43
ATOM     43  C   UNL A   1      44.770  26.233  34.142  1.00  0.00     0.060 A 
ATOM     44  C   UNL A   1      45.260  27.219  33.242  1.00  0.00     0.016 A 
ATOM     45  C   UNL A   1      43.389  26.172  34.283  1.00  0.00     0.016 A 
ATOM     46  C   UNL A   1      44.418  28.256  32.700  1.00  0.00     0.010 A 
ATOM     47  C   UNL A   1      42.568  27.183  33.717  1.00  0.00     0.010 A 
ATOM     48  C   UNL A   1      43.060  28.311  33.010  1.00  0.00    -0.014 A 
BRANCH  48  49
ATOM     49  C   UNL A   1      42.066  29.378  32.606  1.00  0.00     0.031 A 
ATOM     50  C   UNL A   1      41.960  30.573  33.470  1.00  0.00     0.074 A 
ATOM     51  C   UNL A   1      41.318  29.522  31.472  1.00  0.00     0.049 A 
ATOM     52  N   UNL A   1      41.064  31.498  33.334  1.00  0.00    -0.248 NA
ATOM     53  C   UNL A   1      42.823  30.797  34.619  1.00  0.00     0.031 C 
ATOM     54  C   UNL A   1      40.916  30.774  30.821  1.00  0.00     0.029 A 
ATOM     55  N   UNL A   1      40.975  28.645  30.469  1.00  0.00    -0.354 N 
ATOM     56  C   UNL A   1      41.551  32.591  33.984  1.00  0.00     0.074 A 
ATOM     57  C   UNL A   1      42.410  32.012  34.985  1.00  0.00     0.031 C 
ATOM     58  C   UNL A   1      40.166  30.530  29.741  1.00  0.00     0.029 A 
ATOM     59  C   UNL A   1      40.038  29.096  29.556  1.00  0.00     0.049 A 
ATOM     60  H   UNL A   1      41.373  27.747  30.404  1.00  0.00     0.167 HD
ATOM     61  C   UNL A   1      41.371  33.830  33.434  1.00  0.00     0.037 A 
ATOM     62  C   UNL A   1      39.260  28.540  28.582  1.00  0.00     0.037 A 
ATOM     63  C   UNL A   1      40.428  33.814  32.240  1.00  0.00     0.049 A 
ATOM     64  C   UNL A   1      37.975  29.289  28.888  1.00  0.00     0.074 A 
ATOM     65  C   UNL A   1      40.448  34.392  30.977  1.00  0.00     0.029 A 
ATOM     66  N   UNL A   1      39.303  32.929  32.183  1.00  0.00    -0.354 N 
ATOM     67  N   UNL A   1      37.801  29.830  30.088  1.00  0.00    -0.248 NA
ATOM     68  C   UNL A   1      37.061  29.838  27.900  1.00  0.00     0.031 C 
ATOM     69  C   UNL A   1      39.381  33.841  30.185  1.00  0.00     0.029 A 
ATOM     70  C   UNL A   1      38.680  32.883  30.919  1.00  0.00     0.049 A 
ATOM     71  H   UNL A   1      38.992  32.402  32.955  1.00  0.00     0.167 HD
ATOM     72  C   UNL A   1      37.201  31.048  29.904  1.00  0.00     0.074 A 
ATOM     73  C   UNL A   1      36.621  30.929  28.561  1.00  0.00     0.031 C 
ATOM     74  C   UNL A   1      37.380  32.188  30.662  1.00  0.00     0.037 A 
BRANCH  61  75
ATOM     75  C   UNL A   1      42.236  35.045  33.892  1.00  0.00     0.064 A 
ATOM     76  C   UNL A   1      43.193  35.632  33.038  1.00  0.00     0.173 A 
ATOM     77  C   UNL A   1      42.196  35.673  35.172  1.00  0.00     0.173 A 
ATOM     78  F   UNL A   1      43.408  35.150  31.808  1.00  0.00    -0.203 F 
ATOM     79  C   UNL A   1      43.982  36.741  33.409  1.00  0.00     0.198 A 
ATOM     80  C   UNL A   1      42.921  36.825  35.513  1.00  0.00     0.198 A 
ATOM     81  F   UNL A   1      41.524  35.177  36.212  1.00  0.00    -0.203 F 
ATOM     82  F   UNL A   1      44.907  37.212  32.561  1.00  0.00    -0.200 F 
ATOM     83  C   UNL A   1      43.823  37.358  34.633  1.00  0.00     0.200 A 
ATOM     84  F   UNL A   1      42.747  37.384  36.721  1.00  0.00    -0.200 F 
ATOM     85  F   UNL A   1      44.548  38.433  34.972  1.00  0.00    -0.200 F 
ENDBRANCH  61  75
BRANCH  62  86
ATOM     86  C   UNL A   1      39.655  27.313  27.732  1.00  0.00     0.064 A 
ATOM     87  C   UNL A   1      40.515  27.521  26.594  1.00  0.00     0.173 A 
ATOM     88  C   UNL A   1      39.728  26.000  28.257  1.00  0.00     0.173 A 
ATOM     89  F   UNL A   1      40.551  28.729  26.008  1.00  0.00    -0.203 F 
ATOM     90  C   UNL A   1      41.498  26.579  26.169  1.00  0.00     0.198 A 
ATOM     91  C   UNL A   1      40.704  25.050  27.816  1.00  0.00     0.198 A 
ATOM     92  F   UNL A   1      39.043  25.699  29.368  1.00  0.00    -0.203 F 
ATOM     93  F   UNL A   1      42.451  26.942  25.291  1.00  0.00    -0.200 F 
ATOM     94  C   UNL A   1      41.623  25.362  26.817  1.00  0.00     0.200 A 
ATOM     95  F   UNL A   1      40.916  23.939  28.545  1.00  0.00    -0.200 F 
ATOM     96  F   UNL A   1      42.720  24.600  26.634  1.00  0.00    -0.200 F 
ENDBRANCH  62  86
BRANCH  74  97
ATOM     97  C   UNL A   1      36.129  32.872  31.119  1.00  0.00     0.064 A 
ATOM     98  C   UNL A   1      35.574  32.669  32.394  1.00  0.00     0.173 A 
ATOM     99  C   UNL A   1      35.528  33.871  30.326  1.00  0.00     0.173 A 
ATOM    100  F   UNL A   1      36.109  31.813  33.279  1.00  0.00    -0.203 F 
ATOM    101  C   UNL A   1      34.454  33.369  32.814  1.00  0.00     0.198 A 
ATOM    102  C   UNL A   1      34.443  34.603  30.771  1.00  0.00     0.198 A 
ATOM    103  F   UNL A   1      35.981  34.203  29.109  1.00  0.00    -0.203 F 
ATOM    104  F   UNL A   1      33.930  33.106  34.018  1.00  0.00    -0.200 F 
ATOM    105  C   UNL A   1      33.894  34.341  32.007  1.00  0.00     0.200 A 
ATOM    106  F   UNL A   1      33.946  35.575  29.995  1.00  0.00    -0.200 F 
ATOM    107  F   UNL A   1      32.832  35.035  32.427  1.00  0.00    -0.200 F 
ENDBRANCH  74  97
ENDBRANCH  48  49
ENDBRANCH  41  43
ENDBRANCH  40  41
ENDBRANCH  39  40
ENDBRANCH  38  39
ENDBRANCH  37  38
ENDBRANCH   1  37
TORSDOF 19
ENDMDL
MODEL 2
REMARK VINA RESULT:     -10.2      6.468     10.261
REMARK SMILES Cc1ccc(N2C(=O)N=C(OCCOCCOC(=O)c3ccc(-c4c5nc(c(-c6c(F)c(F)c(F)c(F)c6F)c6ccc([nH]6)c(-c6c(F)c(F)c(F)c(F)c6F)c6nc(c(-c7c(F)c(F)c(F)c(F)c7F)c7ccc4[nH]7)C=C6)C=C5)cc3)/C(=C\c3ccccc3OCc3cccc(C(=O)[O-])c3)C2=O)cc1
REMARK SMILES IDX 13 1 12 2 11 3 10 4 6 5 7 6 102 7 8 8 9 9 83 10 103 11 84 12
REMARK SMILES IDX 5 13 1 14 2 15 3 16 105 17 4 18 104 19 85 20 86 21 90 22
REMARK SMILES IDX 87 23 89 24 88 25 91 26 92 27 93 28 94 29 101 30 95 31 97 32
REMARK SMILES IDX 96 33 98 34 99 35 100 36 14 37 15 38 16 39 17 40 18 41 19 42
REMARK SMILES IDX 20 43 21 44 82 45 22 46 81 47 23 48 24 49 25 50 75 51 26 52
REMARK SMILES IDX 80 53 74 54 76 55 27 56 79 57 73 58 72 59 28 61 60 62 40 63
REMARK SMILES IDX 59 64 41 65 44 66 58 67 77 68 42 69 43 70 57 72 78 73 45 74
REMARK SMILES IDX 29 75 30 76 38 77 31 78 32 79 36 80 39 81 33 82 34 83 37 84
REMARK SMILES IDX 35 85 61 86 62 87 70 88 63 89 64 90 68 91 71 92 65 93 66 94
REMARK SMILES IDX 69 95 67 96 46 97 47 98 55 99 48 100 49 101 53 102 56 103
REMARK SMILES IDX 50 104 51 105 54 106 52 107
REMARK H PARENT 76 60 44 71
REMARK Flexibility Score: inf
ROOT
ATOM      1  C   UNL A   1      47.824  22.815  38.522  1.00  0.00     0.202 C 
ENDROOT
BRANCH   1   2
ATOM      2  C   UNL A   1      47.184  22.381  39.829  1.00  0.00     0.260 C 
BRANCH   2   3
ATOM      3  O   UNL A   1      46.233  21.315  39.867  1.00  0.00    -0.475 OA
BRANCH   3   4
ATOM      4  C   UNL A   1      46.263  20.173  40.546  1.00  0.00     0.231 C 
ATOM      5  N   UNL A   1      46.855  18.298  42.374  1.00  0.00    -0.226 N 
ATOM      6  C   UNL A   1      45.689  19.082  42.473  1.00  0.00     0.358 C 
ATOM      7  C   UNL A   1      47.482  18.101  41.151  1.00  0.00     0.272 C 
ATOM      8  O   UNL A   1      44.776  18.857  43.242  1.00  0.00    -0.245 OA
ATOM      9  N   UNL A   1      45.619  20.177  41.651  1.00  0.00    -0.156 NA
ATOM     10  C   UNL A   1      47.004  19.012  40.093  1.00  0.00     0.103 C 
ATOM     11  O   UNL A   1      48.238  17.169  40.866  1.00  0.00    -0.268 OA
ATOM     12  C   UNL A   1      47.036  18.491  38.859  1.00  0.00     0.031 C 
BRANCH   5  13
ATOM     13  C   UNL A   1      47.314  17.521  43.479  1.00  0.00     0.054 A 
ATOM     14  C   UNL A   1      48.563  15.432  47.030  1.00  0.00     0.044 C 
ATOM     15  C   UNL A   1      48.162  16.152  45.783  1.00  0.00    -0.051 A 
ATOM     16  C   UNL A   1      47.270  15.552  44.894  1.00  0.00     0.005 A 
ATOM     17  C   UNL A   1      48.672  17.417  45.492  1.00  0.00     0.005 A 
ATOM     18  C   UNL A   1      46.823  16.246  43.773  1.00  0.00     0.027 A 
ATOM     19  C   UNL A   1      48.264  18.087  44.342  1.00  0.00     0.027 A 
ENDBRANCH   5  13
BRANCH  12  20
ATOM     20  C   UNL A   1      46.387  18.983  37.662  1.00  0.00     0.018 A 
ATOM     21  C   UNL A   1      46.954  20.044  36.859  1.00  0.00     0.012 A 
ATOM     22  C   UNL A   1      45.280  18.368  37.209  1.00  0.00     0.127 A 
ATOM     23  C   UNL A   1      46.578  20.473  35.589  1.00  0.00     0.001 A 
ATOM     24  C   UNL A   1      44.998  18.805  35.868  1.00  0.00     0.047 A 
ATOM     25  C   UNL A   1      45.645  19.715  35.015  1.00  0.00     0.004 A 
BRANCH  22  26
ATOM     26  O   UNL A   1      44.637  17.197  37.720  1.00  0.00    -0.488 OA
BRANCH  26  27
ATOM     27  C   UNL A   1      43.410  17.177  38.614  1.00  0.00     0.265 C 
BRANCH  27  28
ATOM     28  C   UNL A   1      43.107  16.200  39.826  1.00  0.00    -0.010 A 
ATOM     29  C   UNL A   1      43.601  16.518  41.114  1.00  0.00     0.007 A 
ATOM     30  C   UNL A   1      42.483  14.952  39.778  1.00  0.00     0.017 A 
ATOM     31  C   UNL A   1      43.299  15.771  42.279  1.00  0.00     0.001 A 
ATOM     32  C   UNL A   1      42.202  14.157  40.927  1.00  0.00    -0.002 A 
ATOM     33  C   UNL A   1      42.556  14.605  42.193  1.00  0.00     0.010 A 
BRANCH  32  34
ATOM     34  C   UNL A   1      41.518  12.836  40.822  1.00  0.00     0.071 C 
ATOM     35  O   UNL A   1      41.483  12.112  39.852  1.00  0.00    -0.545 OA
ATOM     36  O   UNL A   1      40.880  12.499  41.961  1.00  0.00    -0.545 OA
ENDBRANCH  32  34
ENDBRANCH  27  28
ENDBRANCH  26  27
ENDBRANCH  22  26
ENDBRANCH  12  20
ENDBRANCH   3   4
ENDBRANCH   2   3
ENDBRANCH   1   2
BRANCH   1  37
ATOM     37  O   UNL A   1      47.979  24.181  38.277  1.00  0.00    -0.374 OA
BRANCH  37  38
ATOM     38  C   UNL A   1      47.908  24.451  36.871  1.00  0.00     0.202 C 
BRANCH  38  39
ATOM     39  C   UNL A   1      46.754  25.357  36.262  1.00  0.00     0.261 C 
BRANCH  39  40
ATOM     40  O   UNL A   1      45.604  24.634  35.687  1.00  0.00    -0.460 OA
BRANCH  40  41
ATOM     41  C   UNL A   1      44.329  24.949  36.147  1.00  0.00     0.338 C 
ATOM     42  O   UNL A   1      43.861  24.519  37.192  1.00  0.00    -0.246 OA
BRANCH  41  43
ATOM     43  C   UNL A   1      43.437  25.620  35.076  1.00  0.00     0.060 A 
ATOM     44  C   UNL A   1      44.002  26.364  34.004  1.00  0.00     0.016 A 
ATOM     45  C   UNL A   1      42.086  25.837  35.322  1.00  0.00     0.016 A 
ATOM     46  C   UNL A   1      43.304  27.457  33.372  1.00  0.00     0.010 A 
ATOM     47  C   UNL A   1      41.403  26.895  34.668  1.00  0.00     0.010 A 
ATOM     48  C   UNL A   1      42.013  27.805  33.765  1.00  0.00    -0.014 A 
BRANCH  48  49
ATOM     49  C   UNL A   1      41.185  28.973  33.274  1.00  0.00     0.031 A 
ATOM     50  C   UNL A   1      40.976  30.100  34.208  1.00  0.00     0.074 A 
ATOM     51  C   UNL A   1      40.691  29.263  32.034  1.00  0.00     0.049 A 
ATOM     52  N   UNL A   1      40.181  31.098  33.986  1.00  0.00    -0.248 NA
ATOM     53  C   UNL A   1      41.600  30.166  35.520  1.00  0.00     0.031 C 
ATOM     54  C   UNL A   1      40.503  30.589  31.436  1.00  0.00     0.029 A 
ATOM     55  N   UNL A   1      40.508  28.497  30.906  1.00  0.00    -0.354 N 
ATOM     56  C   UNL A   1      40.589  32.095  34.817  1.00  0.00     0.074 A 
ATOM     57  C   UNL A   1      41.192  31.376  35.909  1.00  0.00     0.031 C 
ATOM     58  C   UNL A   1      39.974  30.489  30.212  1.00  0.00     0.029 A 
ATOM     59  C   UNL A   1      39.803  29.089  29.873  1.00  0.00     0.049 A 
ATOM     60  H   UNL A   1      40.859  27.580  30.837  1.00  0.00     0.167 HD
ATOM     61  C   UNL A   1      40.596  33.385  34.361  1.00  0.00     0.037 A 
ATOM     62  C   UNL A   1      39.207  28.672  28.717  1.00  0.00     0.037 A 
ATOM     63  C   UNL A   1      39.915  33.535  33.008  1.00  0.00     0.049 A 
ATOM     64  C   UNL A   1      37.933  29.490  28.833  1.00  0.00     0.074 A 
ATOM     65  C   UNL A   1      40.224  34.209  31.834  1.00  0.00     0.029 A 
ATOM     66  N   UNL A   1      38.775  32.745  32.649  1.00  0.00    -0.354 N 
ATOM     67  N   UNL A   1      37.551  29.945  30.021  1.00  0.00    -0.248 NA
ATOM     68  C   UNL A   1      37.271  30.183  27.740  1.00  0.00     0.031 C 
ATOM     69  C   UNL A   1      39.309  33.805  30.800  1.00  0.00     0.029 A 
ATOM     70  C   UNL A   1      38.420  32.847  31.289  1.00  0.00     0.049 A 
ATOM     71  H   UNL A   1      38.285  32.183  33.293  1.00  0.00     0.167 HD
ATOM     72  C   UNL A   1      37.073  31.215  29.837  1.00  0.00     0.074 A 
ATOM     73  C   UNL A   1      36.771  31.247  28.400  1.00  0.00     0.031 C 
ATOM     74  C   UNL A   1      37.160  32.274  30.718  1.00  0.00     0.037 A 
BRANCH  61  75
ATOM     75  C   UNL A   1      41.419  34.490  35.091  1.00  0.00     0.064 A 
ATOM     76  C   UNL A   1      42.720  34.838  34.671  1.00  0.00     0.173 A 
ATOM     77  C   UNL A   1      41.002  35.237  36.232  1.00  0.00     0.173 A 
ATOM     78  F   UNL A   1      43.303  34.214  33.641  1.00  0.00    -0.203 F 
ATOM     79  C   UNL A   1      43.490  35.843  35.294  1.00  0.00     0.198 A 
ATOM     80  C   UNL A   1      41.732  36.292  36.801  1.00  0.00     0.198 A 
ATOM     81  F   UNL A   1      39.903  34.952  36.933  1.00  0.00    -0.203 F 
ATOM     82  F   UNL A   1      44.739  36.083  34.871  1.00  0.00    -0.200 F 
ATOM     83  C   UNL A   1      42.984  36.592  36.337  1.00  0.00     0.200 A 
ATOM     84  F   UNL A   1      41.209  36.983  37.825  1.00  0.00    -0.200 F 
ATOM     85  F   UNL A   1      43.702  37.570  36.906  1.00  0.00    -0.200 F 
ENDBRANCH  61  75
BRANCH  62  86
ATOM     86  C   UNL A   1      39.694  27.490  27.851  1.00  0.00     0.064 A 
ATOM     87  C   UNL A   1      40.569  27.775  26.741  1.00  0.00     0.173 A 
ATOM     88  C   UNL A   1      39.831  26.172  28.348  1.00  0.00     0.173 A 
ATOM     89  F   UNL A   1      40.549  28.996  26.183  1.00  0.00    -0.203 F 
ATOM     90  C   UNL A   1      41.616  26.901  26.321  1.00  0.00     0.198 A 
ATOM     91  C   UNL A   1      40.872  25.291  27.913  1.00  0.00     0.198 A 
ATOM     92  F   UNL A   1      39.138  25.806  29.435  1.00  0.00    -0.203 F 
ATOM     93  F   UNL A   1      42.567  27.339  25.476  1.00  0.00    -0.200 F 
ATOM     94  C   UNL A   1      41.795  25.679  26.945  1.00  0.00     0.200 A 
ATOM     95  F   UNL A   1      41.130  24.177  28.622  1.00  0.00    -0.200 F 
ATOM     96  F   UNL A   1      42.939  24.986  26.774  1.00  0.00    -0.200 F 
ENDBRANCH  62  86
BRANCH  74  97
ATOM     97  C   UNL A   1      35.885  33.012  30.982  1.00  0.00     0.064 A 
ATOM     98  C   UNL A   1      35.159  32.872  32.177  1.00  0.00     0.173 A 
ATOM     99  C   UNL A   1      35.429  34.001  30.084  1.00  0.00     0.173 A 
ATOM    100  F   UNL A   1      35.541  32.032  33.151  1.00  0.00    -0.203 F 
ATOM    101  C   UNL A   1      34.018  33.621  32.421  1.00  0.00     0.198 A 
ATOM    102  C   UNL A   1      34.322  34.781  30.357  1.00  0.00     0.198 A 
ATOM    103  F   UNL A   1      36.051  34.275  28.929  1.00  0.00    -0.203 F 
ATOM    104  F   UNL A   1      33.330  33.417  33.551  1.00  0.00    -0.200 F 
ATOM    105  C   UNL A   1      33.605  34.580  31.516  1.00  0.00     0.200 A 
ATOM    106  F   UNL A   1      33.966  35.740  29.492  1.00  0.00    -0.200 F 
ATOM    107  F   UNL A   1      32.522  35.321  31.769  1.00  0.00    -0.200 F 
ENDBRANCH  74  97
ENDBRANCH  48  49
ENDBRANCH  41  43
ENDBRANCH  40  41
ENDBRANCH  39  40
ENDBRANCH  38  39
ENDBRANCH  37  38
ENDBRANCH   1  37
TORSDOF 19
ENDMDL
MODEL 3
REMARK VINA RESULT:      -9.9      6.825     13.669
REMARK SMILES Cc1ccc(N2C(=O)N=C(OCCOCCOC(=O)c3ccc(-c4c5nc(c(-c6c(F)c(F)c(F)c(F)c6F)c6ccc([nH]6)c(-c6c(F)c(F)c(F)c(F)c6F)c6nc(c(-c7c(F)c(F)c(F)c(F)c7F)c7ccc4[nH]7)C=C6)C=C5)cc3)/C(=C\c3ccccc3OCc3cccc(C(=O)[O-])c3)C2=O)cc1
REMARK SMILES IDX 13 1 12 2 11 3 10 4 6 5 7 6 102 7 8 8 9 9 83 10 103 11 84 12
REMARK SMILES IDX 5 13 1 14 2 15 3 16 105 17 4 18 104 19 85 20 86 21 90 22
REMARK SMILES IDX 87 23 89 24 88 25 91 26 92 27 93 28 94 29 101 30 95 31 97 32
REMARK SMILES IDX 96 33 98 34 99 35 100 36 14 37 15 38 16 39 17 40 18 41 19 42
REMARK SMILES IDX 20 43 21 44 82 45 22 46 81 47 23 48 24 49 25 50 75 51 26 52
REMARK SMILES IDX 80 53 74 54 76 55 27 56 79 57 73 58 72 59 28 61 60 62 40 63
REMARK SMILES IDX 59 64 41 65 44 66 58 67 77 68 42 69 43 70 57 72 78 73 45 74
REMARK SMILES IDX 29 75 30 76 38 77 31 78 32 79 36 80 39 81 33 82 34 83 37 84
REMARK SMILES IDX 35 85 61 86 62 87 70 88 63 89 64 90 68 91 71 92 65 93 66 94
REMARK SMILES IDX 69 95 67 96 46 97 47 98 55 99 48 100 49 101 53 102 56 103
REMARK SMILES IDX 50 104 51 105 54 106 52 107
REMARK H PARENT 76 60 44 71
REMARK Flexibility Score: inf
ROOT
ATOM      1  C   UNL A   1      48.371  38.556  26.608  1.00  0.00     0.202 C 
ENDROOT
BRANCH   1   2
ATOM      2  C   UNL A   1      47.320  39.651  26.556  1.00  0.00     0.260 C 
BRANCH   2   3
ATOM      3  O   UNL A   1      46.489  39.821  25.407  1.00  0.00    -0.475 OA
BRANCH   3   4
ATOM      4  C   UNL A   1      46.475  40.797  24.504  1.00  0.00     0.231 C 
ATOM      5  N   UNL A   1      47.251  42.772  22.859  1.00  0.00    -0.226 N 
ATOM      6  C   UNL A   1      47.065  41.456  22.393  1.00  0.00     0.358 C 
ATOM      7  C   UNL A   1      46.611  43.222  24.007  1.00  0.00     0.272 C 
ATOM      8  O   UNL A   1      47.036  41.142  21.220  1.00  0.00    -0.245 OA
ATOM      9  N   UNL A   1      46.934  40.484  23.352  1.00  0.00    -0.156 NA
ATOM     10  C   UNL A   1      46.013  42.137  24.808  1.00  0.00     0.103 C 
ATOM     11  O   UNL A   1      46.381  44.399  24.293  1.00  0.00    -0.268 OA
ATOM     12  C   UNL A   1      44.905  42.490  25.475  1.00  0.00     0.031 C 
BRANCH   5  13
ATOM     13  C   UNL A   1      47.934  43.742  22.066  1.00  0.00     0.054 A 
ATOM     14  C   UNL A   1      49.735  46.900  19.760  1.00  0.00     0.044 C 
ATOM     15  C   UNL A   1      49.113  45.781  20.533  1.00  0.00    -0.051 A 
ATOM     16  C   UNL A   1      49.817  45.191  21.584  1.00  0.00     0.005 A 
ATOM     17  C   UNL A   1      47.839  45.313  20.214  1.00  0.00     0.005 A 
ATOM     18  C   UNL A   1      49.216  44.208  22.364  1.00  0.00     0.027 A 
ATOM     19  C   UNL A   1      47.263  44.292  20.963  1.00  0.00     0.027 A 
ENDBRANCH   5  13
BRANCH  12  20
ATOM     20  C   UNL A   1      43.926  41.629  26.104  1.00  0.00     0.018 A 
ATOM     21  C   UNL A   1      43.922  41.378  27.527  1.00  0.00     0.012 A 
ATOM     22  C   UNL A   1      42.916  41.128  25.370  1.00  0.00     0.127 A 
ATOM     23  C   UNL A   1      42.940  40.766  28.303  1.00  0.00     0.001 A 
ATOM     24  C   UNL A   1      41.909  40.582  26.240  1.00  0.00     0.047 A 
ATOM     25  C   UNL A   1      41.820  40.487  27.638  1.00  0.00     0.004 A 
BRANCH  22  26
ATOM     26  O   UNL A   1      42.603  41.376  23.996  1.00  0.00    -0.488 OA
BRANCH  26  27
ATOM     27  C   UNL A   1      42.305  42.734  23.385  1.00  0.00     0.265 C 
BRANCH  27  28
ATOM     28  C   UNL A   1      42.511  43.188  21.880  1.00  0.00    -0.010 A 
ATOM     29  C   UNL A   1      43.819  43.239  21.343  1.00  0.00     0.007 A 
ATOM     30  C   UNL A   1      41.544  43.674  20.998  1.00  0.00     0.017 A 
ATOM     31  C   UNL A   1      44.102  43.529  19.986  1.00  0.00     0.001 A 
ATOM     32  C   UNL A   1      41.805  44.013  19.638  1.00  0.00    -0.002 A 
ATOM     33  C   UNL A   1      43.083  43.875  19.114  1.00  0.00     0.010 A 
BRANCH  32  34
ATOM     34  C   UNL A   1      40.731  44.514  18.732  1.00  0.00     0.071 C 
ATOM     35  O   UNL A   1      39.576  44.152  18.707  1.00  0.00    -0.545 OA
ATOM     36  O   UNL A   1      41.183  45.448  17.871  1.00  0.00    -0.545 OA
ENDBRANCH  32  34
ENDBRANCH  27  28
ENDBRANCH  26  27
ENDBRANCH  22  26
ENDBRANCH  12  20
ENDBRANCH   3   4
ENDBRANCH   2   3
ENDBRANCH   1   2
BRANCH   1  37
ATOM     37  O   UNL A   1      48.523  37.725  25.496  1.00  0.00    -0.374 OA
BRANCH  37  38
ATOM     38  C   UNL A   1      48.267  36.360  25.850  1.00  0.00     0.202 C 
BRANCH  38  39
ATOM     39  C   UNL A   1      46.790  35.776  25.874  1.00  0.00     0.261 C 
BRANCH  39  40
ATOM     40  O   UNL A   1      45.991  36.098  27.071  1.00  0.00    -0.460 OA
BRANCH  40  41
ATOM     41  C   UNL A   1      44.604  36.097  26.958  1.00  0.00     0.338 C 
ATOM     42  O   UNL A   1      43.921  37.112  26.983  1.00  0.00    -0.246 OA
BRANCH  41  43
ATOM     43  C   UNL A   1      43.973  34.694  27.128  1.00  0.00     0.060 A 
ATOM     44  C   UNL A   1      43.817  34.105  28.413  1.00  0.00     0.016 A 
ATOM     45  C   UNL A   1      43.889  33.825  26.047  1.00  0.00     0.016 A 
ATOM     46  C   UNL A   1      43.825  32.677  28.613  1.00  0.00     0.010 A 
ATOM     47  C   UNL A   1      43.864  32.422  26.259  1.00  0.00     0.010 A 
ATOM     48  C   UNL A   1      43.946  31.804  27.533  1.00  0.00    -0.014 A 
BRANCH  48  49
ATOM     49  C   UNL A   1      44.065  30.295  27.579  1.00  0.00     0.031 A 
ATOM     50  C   UNL A   1      45.392  29.708  27.294  1.00  0.00     0.074 A 
ATOM     51  C   UNL A   1      43.181  29.339  27.988  1.00  0.00     0.049 A 
ATOM     52  N   UNL A   1      45.617  28.440  27.158  1.00  0.00    -0.248 NA
ATOM     53  C   UNL A   1      46.581  30.514  27.066  1.00  0.00     0.031 C 
ATOM     54  C   UNL A   1      43.487  28.057  28.633  1.00  0.00     0.029 A 
ATOM     55  N   UNL A   1      41.823  29.363  28.207  1.00  0.00    -0.354 N 
ATOM     56  C   UNL A   1      46.955  28.274  27.353  1.00  0.00     0.074 A 
ATOM     57  C   UNL A   1      47.497  29.549  26.960  1.00  0.00     0.031 C 
ATOM     58  C   UNL A   1      42.368  27.365  28.872  1.00  0.00     0.029 A 
ATOM     59  C   UNL A   1      41.219  28.141  28.446  1.00  0.00     0.049 A 
ATOM     60  H   UNL A   1      41.309  30.203  28.195  1.00  0.00     0.167 HD
ATOM     61  C   UNL A   1      47.397  27.186  28.056  1.00  0.00     0.037 A 
ATOM     62  C   UNL A   1      39.942  27.662  28.488  1.00  0.00     0.037 A 
ATOM     63  C   UNL A   1      46.293  26.177  28.336  1.00  0.00     0.049 A 
ATOM     64  C   UNL A   1      40.183  26.363  27.739  1.00  0.00     0.074 A 
ATOM     65  C   UNL A   1      45.905  25.446  29.452  1.00  0.00     0.029 A 
ATOM     66  N   UNL A   1      45.239  25.935  27.396  1.00  0.00    -0.354 N 
ATOM     67  N   UNL A   1      41.245  26.248  26.951  1.00  0.00    -0.248 NA
ATOM     68  C   UNL A   1      39.608  25.072  28.078  1.00  0.00     0.031 C 
ATOM     69  C   UNL A   1      44.641  24.812  29.188  1.00  0.00     0.029 A 
ATOM     70  C   UNL A   1      44.188  25.150  27.912  1.00  0.00     0.049 A 
ATOM     71  H   UNL A   1      45.249  26.283  26.475  1.00  0.00     0.167 HD
ATOM     72  C   UNL A   1      41.750  24.986  27.127  1.00  0.00     0.074 A 
ATOM     73  C   UNL A   1      40.613  24.256  27.701  1.00  0.00     0.031 C 
ATOM     74  C   UNL A   1      43.075  24.603  27.073  1.00  0.00     0.037 A 
BRANCH  61  75
ATOM     75  C   UNL A   1      48.834  27.152  28.659  1.00  0.00     0.064 A 
ATOM     76  C   UNL A   1      49.140  27.803  29.872  1.00  0.00     0.173 A 
ATOM     77  C   UNL A   1      49.975  26.514  28.086  1.00  0.00     0.173 A 
ATOM     78  F   UNL A   1      48.208  28.495  30.538  1.00  0.00    -0.203 F 
ATOM     79  C   UNL A   1      50.423  27.781  30.459  1.00  0.00     0.198 A 
ATOM     80  C   UNL A   1      51.229  26.423  28.708  1.00  0.00     0.198 A 
ATOM     81  F   UNL A   1      49.988  26.009  26.852  1.00  0.00    -0.203 F 
ATOM     82  F   UNL A   1      50.650  28.467  31.588  1.00  0.00    -0.200 F 
ATOM     83  C   UNL A   1      51.458  27.065  29.895  1.00  0.00     0.200 A 
ATOM     84  F   UNL A   1      52.213  25.729  28.116  1.00  0.00    -0.200 F 
ATOM     85  F   UNL A   1      52.667  27.014  30.470  1.00  0.00    -0.200 F 
ENDBRANCH  61  75
BRANCH  62  86
ATOM     86  C   UNL A   1      38.707  28.478  28.928  1.00  0.00     0.064 A 
ATOM     87  C   UNL A   1      38.310  28.419  30.312  1.00  0.00     0.173 A 
ATOM     88  C   UNL A   1      38.293  29.664  28.275  1.00  0.00     0.173 A 
ATOM     89  F   UNL A   1      38.651  27.351  31.050  1.00  0.00    -0.203 F 
ATOM     90  C   UNL A   1      37.749  29.525  31.016  1.00  0.00     0.198 A 
ATOM     91  C   UNL A   1      37.714  30.767  28.982  1.00  0.00     0.198 A 
ATOM     92  F   UNL A   1      38.672  29.884  27.010  1.00  0.00    -0.203 F 
ATOM     93  F   UNL A   1      37.662  29.501  32.359  1.00  0.00    -0.200 F 
ATOM     94  C   UNL A   1      37.498  30.717  30.357  1.00  0.00     0.200 A 
ATOM     95  F   UNL A   1      37.615  31.961  28.370  1.00  0.00    -0.200 F 
ATOM     96  F   UNL A   1      37.259  31.845  31.054  1.00  0.00    -0.200 F 
ENDBRANCH  62  86
BRANCH  74  97
ATOM     97  C   UNL A   1      43.378  23.416  26.214  1.00  0.00     0.064 A 
ATOM     98  C   UNL A   1      44.071  23.516  24.995  1.00  0.00     0.173 A 
ATOM     99  C   UNL A   1      43.100  22.111  26.671  1.00  0.00     0.173 A 
ATOM    100  F   UNL A   1      44.474  24.695  24.497  1.00  0.00    -0.203 F 
ATOM    101  C   UNL A   1      44.398  22.391  24.255  1.00  0.00     0.198 A 
ATOM    102  C   UNL A   1      43.476  20.990  25.954  1.00  0.00     0.198 A 
ATOM    103  F   UNL A   1      42.489  21.865  27.838  1.00  0.00    -0.203 F 
ATOM    104  F   UNL A   1      45.012  22.538  23.075  1.00  0.00    -0.200 F 
ATOM    105  C   UNL A   1      44.108  21.129  24.738  1.00  0.00     0.200 A 
ATOM    106  F   UNL A   1      43.232  19.775  26.463  1.00  0.00    -0.200 F 
ATOM    107  F   UNL A   1      44.451  20.044  24.036  1.00  0.00    -0.200 F 
ENDBRANCH  74  97
ENDBRANCH  48  49
ENDBRANCH  41  43
ENDBRANCH  40  41
ENDBRANCH  39  40
ENDBRANCH  38  39
ENDBRANCH  37  38
ENDBRANCH   1  37
TORSDOF 19
ENDMDL
